data_PCOD9001512
_publ_section_title
;
Structure prediction by ZEFSAII (Michael W. Deem and Ramdas Pophale) SiO2 
 PCOD9001512
Probable space group: P -1
;
_chemical_formula_sum "Si O2"
_cell_formula_units_Z 14
_cell_length_a 7.270966
_cell_length_b 8.142350
_cell_length_c 9.664310
_cell_angle_alpha 85.521202
_cell_angle_beta 95.188993
_cell_angle_gamma 62.812212
_cell_volume 502.226872
_symmetry_space_group_name_H-M "P -1"
_symmetry_group_IT_number 2
_symmetry_cell_setting 'triclinic'
loop_
_space_group_symop_operation_xyz
x,y,z
-x,-y,-z
loop_
_atom_site_type_symbol
_atom_site_label
_atom_site_fract_x
_atom_site_fract_y
_atom_site_fract_z
Si Si1 0.514150 0.117080 0.362776
Si Si2 0.549419 0.755124 0.078868
Si Si3 0.969216 0.857595 0.405020
Si Si4 0.483984 0.430667 0.185559
Si Si5 0.028227 0.322433 0.309500
Si Si6 0.997638 0.629409 0.117703
Si Si7 0.889425 0.005129 0.845953
O O1 0.537442 0.308231 0.337605
O O2 0.275353 0.208899 0.296949
O O3 0.500000 0.000000 0.500000
O O4 0.730826 0.958628 0.330630
O O5 0.600105 0.556231 0.169240
O O6 0.753945 0.786095 0.076327
O O7 0.356648 0.909175 0.141425
O O8 0.479790 0.718773 0.924508
O O9 0.013726 0.699684 0.532002
O O10 0.092842 0.856088 0.276359
O O11 0.000000 0.000000 0.500000
O O12 0.240498 0.581819 0.133466
O O13 0.981652 0.530805 0.263070
O O14 0.974609 0.198291 0.204153
O O15 0.000000 0.500000 0.000000
O O16 0.000000 0.000000 0.000000
#
# Coordination Sequence:
#
# PCOD9001512 Si02
#       7
#     2   2   2   2   2   2   2
#     4   9  17  35  61  86 108 156 204 237 282 357
#     4  10  21  35  57  85 120 152 194 244 299 347
#     4   9  19  35  59  82 116 152 194 233 291 351
#     4   9  19  35  59  82 116 159 193 238 298 355
#     4   9  20  38  61  81 116 157 196 240 293 356
#     4   9  19  36  59  84 113 157 200 236 292 362
#     4  11  23  36  56  93 120 147 198 250 292 342
#
# _framework density 27.875848000000001
#
# number of rings (size 3 to 8) (size 9 to 14) (size 15 to 20)
#    0.000    2.571    0.000    0.857   10.000    0.000 
#    2.571    7.857    0.000    2.571    0.000    0.000 
#    0.000    0.000    0.000    0.000    0.000    0.000 
#
# Total GULP energy -77961.428400 kJ/mol
# GULP energy per Si atom -5568.673457 kJ/mol
# Density = 2.781240 g / cm^3
# Si number density = 27.875848 Si / 1000 Ang^3
#
#
#
# Elastic Constant Matrix: (Units=GPa)
#
#
# Indices 1 2 3 4 5 6 
#
# 1 105.5920 5.8356 8.2221 6.8047 -23.3871 -36.5395
# 2 5.8356 88.1921 39.0188 -0.6403 -23.7304 -4.0386
# 3 8.2221 39.0188 134.1651 1.0954 -29.3746 5.3342
# 4 6.8047 -0.6403 1.0954 60.8183 11.8958 -21.7351
# 5 -23.3871 -23.7304 -29.3746 11.8958 42.5605 -5.0492
# 6 -36.5395 -4.0386 5.3342 -21.7351 -5.0492 51.0500
#
#
#
# Elastic Compliance Matrix: (Units=1/GPa)
#
#
# Indices 1 2 3 4 5 6 
#
# 1 0.016707 0.002695 0.000356 0.000596 0.012377 0.013613
# 2 0.002695 0.014845 -0.002809 -0.000264 0.008381 0.004113
# 3 0.000356 -0.002809 0.009524 -0.001739 0.005552 -0.001154
# 4 0.000596 -0.000264 -0.001739 0.020684 -0.005754 0.008825
# 5 0.012377 0.008381 0.005552 -0.005754 0.041670 0.010614
# 6 0.013613 0.004113 -0.001154 0.008825 0.010614 0.034585
#
#
# Mechanical properties :
#
#
# Convention : Reuss Voigt Hill
#
# Bulk Modulus (GPa) = 24.06088 48.23357 36.14723
# Shear Modulus (GPa) = 33.02862 49.21063 41.11962
#
# Velocity S-wave (km/s) = 3.44590 4.20616 3.84487
# Velocity P-wave (km/s) = 4.94797 6.39763 5.71892
#
# Compressibility (1/GPa) = 0.04156124
#
# Stress axis : x y z
#
# Youngs Moduli (GPa) = 59.85428 67.36324 104.99462
#
# Poissons Ratio (x) = -0.18155 -0.03740
# Poissons Ratio (y) = -0.16131 0.29491
# Poissons Ratio (z) = -0.02132 0.18921
#
# Static dielectric constant tensor:
#      x y z
#    x 2.244720 0.073050 -0.037190 
#    y 0.073050 2.195580 -0.118600 
#    z -0.037190 -0.118600 2.231420 
# 
# From -- ./inp_files/169543.got.cif
#   From: 2010.05.17/outbox.cif.g08.bks.cpg/sg2_85_cif.got.tgz:169543.got - 2010.06.03 11:33:40.
