data_PCOD9001157
_publ_section_title
;
Structure prediction by ZEFSAII (Michael W. Deem and Ramdas Pophale) SiO2 
 PCOD9001157
Probable space group: P -1
;
_chemical_formula_sum "Si O2"
_cell_formula_units_Z 16
_cell_length_a 14.532754
_cell_length_b 5.239795
_cell_length_c 11.942133
_cell_angle_alpha 63.248515
_cell_angle_beta 51.708008
_cell_angle_gamma 59.571842
_cell_volume 602.821909
_symmetry_space_group_name_H-M "P -1"
_symmetry_group_IT_number 2
_symmetry_cell_setting 'triclinic'
loop_
_space_group_symop_operation_xyz
x,y,z
-x,-y,-z
loop_
_atom_site_type_symbol
_atom_site_label
_atom_site_fract_x
_atom_site_fract_y
_atom_site_fract_z
Si Si1 0.571639 0.678002 0.293888
Si Si2 0.191156 0.209235 0.498674
Si Si3 0.817550 0.692038 0.198468
Si Si4 0.060404 0.831720 0.369904
Si Si5 0.490111 0.666475 0.857542
Si Si6 0.752673 0.301432 0.062104
Si Si7 0.081375 0.353188 0.125764
Si Si8 0.649720 0.454440 0.575248
O O1 0.684683 0.640452 0.303637
O O2 0.482611 0.470645 0.407210
O O3 0.489274 0.022315 0.262957
O O4 0.652544 0.583055 0.139541
O O5 0.051153 0.197730 0.618671
O O6 0.269761 0.316780 0.514111
O O7 0.156859 0.500424 0.384584
O O8 0.264303 0.875428 0.464031
O O9 0.932822 0.466036 0.218616
O O10 0.872066 0.679711 0.031619
O O11 0.797652 0.040677 0.173236
O O12 0.000000 0.000000 0.500000
O O13 0.125085 0.048191 0.221145
O O14 0.589638 0.435756 0.746713
O O15 0.500000 0.500000 0.000000
O O16 0.340889 0.783842 0.930373
O O17 0.864563 0.396673 0.915309
#
# Coordination Sequence:
#
# PCOD9001157 Si02
#       8
#     2   2   2   2   2   2   2   2
#     4   9  19  36  56  89 124 164 204 259 318 389
#     4  11  24  43  64  92 126 172 221 266 323 382
#     4   9  19  39  60  95 125 165 216 263 329 388
#     4  11  25  43  61  94 130 171 222 273 319 382
#     4  10  21  34  54  92 133 168 211 261 323 394
#     4   9  19  34  57  91 129 165 211 260 319 391
#     4  10  21  38  64  87 127 170 216 269 327 383
#     4  11  21  40  64  88 124 174 211 262 324 384
#
# _framework density 26.541834999999999
#
# number of rings (size 3 to 8) (size 9 to 14) (size 15 to 20)
#    0.000    2.000    2.500    0.375    0.000    9.000 
#    2.250    0.000    0.000    1.500    0.000    0.000 
#    0.000    0.000    0.000    0.000    0.000    0.000 
#
# Total GULP energy -89236.536534 kJ/mol
# GULP energy per Si atom -5577.283533 kJ/mol
# Density = 2.648142 g / cm^3
# Si number density = 26.541835 Si / 1000 Ang^3
#
#
#
# Elastic Constant Matrix: (Units=GPa)
#
#
# Indices 1 2 3 4 5 6 
#
# 1 118.5991 26.1967 39.3756 -1.4970 -38.6858 11.9820
# 2 26.1967 136.8968 14.3495 -3.1691 -12.2768 1.7503
# 3 39.3756 14.3495 103.9485 -5.1805 -35.6289 14.2373
# 4 -1.4970 -3.1691 -5.1805 48.0166 13.6775 -2.0569
# 5 -38.6858 -12.2768 -35.6289 13.6775 39.6854 -3.4929
# 6 11.9820 1.7503 14.2373 -2.0569 -3.4929 35.6689
#
#
#
# Elastic Compliance Matrix: (Units=1/GPa)
#
#
# Indices 1 2 3 4 5 6 
#
# 1 0.013508 -0.001399 0.000081 -0.003737 0.013799 -0.003365
# 2 -0.001399 0.007668 -0.000337 0.000256 0.000644 0.000306
# 3 0.000081 -0.000337 0.014891 -0.002549 0.013804 -0.004750
# 4 -0.003737 0.000256 -0.002549 0.024572 -0.014119 0.002295
# 5 0.013799 0.000644 0.013804 -0.014119 0.055620 -0.005544
# 6 -0.003365 0.000306 -0.004750 0.002295 -0.005544 0.030636
#
#
# Mechanical properties :
#
#
# Convention : Reuss Voigt Hill
#
# Bulk Modulus (GPa) = 30.52870 57.69869 44.11369
# Shear Modulus (GPa) = 31.03207 43.30902 37.17054
#
# Velocity S-wave (km/s) = 3.42303 4.04385 3.74632
# Velocity P-wave (km/s) = 5.21056 6.60224 5.94725
#
# Compressibility (1/GPa) = 0.03275606
#
# Stress axis : x y z
#
# Youngs Moduli (GPa) = 74.02980 130.41808 67.15556
#
# Poissons Ratio (x) = 0.18250 -0.00543
# Poissons Ratio (y) = 0.10359 0.02261
# Poissons Ratio (z) = -0.00598 0.04391
#
# Static dielectric constant tensor:
#      x y z
#    x 2.253700 0.146020 0.023300 
#    y 0.146020 2.410930 -0.146670 
#    z 0.023300 -0.146670 2.182560 
# 
# From -- ./inp_files/536240.got.cif
#   From: 2010.05.17/outbox.cif.g08.bks.cpg/sg2_269_cif.got.tgz:536240.got - 2010.06.03 11:33:40.
