data_PCOD9001386
_publ_section_title
;
Structure prediction by ZEFSAII (Michael W. Deem and Ramdas Pophale) SiO2 
 PCOD9001386
Probable space group: P -1
;
_chemical_formula_sum "Si O2"
_cell_formula_units_Z 16
_cell_length_a 15.221666
_cell_length_b 14.330102
_cell_length_c 14.563781
_cell_angle_alpha 127.292485
_cell_angle_beta 52.358380
_cell_angle_gamma 160.566013
_cell_volume 831.533956
_symmetry_space_group_name_H-M "P -1"
_symmetry_group_IT_number 2
_symmetry_cell_setting 'triclinic'
loop_
_space_group_symop_operation_xyz
x,y,z
-x,-y,-z
loop_
_atom_site_type_symbol
_atom_site_label
_atom_site_fract_x
_atom_site_fract_y
_atom_site_fract_z
Si Si1 0.183006 0.110971 0.873374
Si Si2 0.244918 0.897451 0.235243
Si Si3 0.581759 0.532449 0.317415
Si Si4 0.318525 0.058770 0.901100
Si Si5 0.825664 0.431483 0.876506
Si Si6 0.277860 0.249793 0.160141
Si Si7 0.786604 0.890114 0.535614
Si Si8 0.211329 0.514592 0.862487
O O1 0.457849 0.442336 0.874191
O O2 0.261027 0.064126 0.843212
O O3 0.985775 0.930196 0.804593
O O4 0.000000 0.000000 0.000000
O O5 0.218260 0.748463 0.214037
O O6 0.058405 0.715861 0.155933
O O7 0.142634 0.907243 0.369413
O O8 0.543281 0.206238 0.191120
O O9 0.354023 0.324472 0.262668
O O10 0.709397 0.776744 0.414827
O O11 0.459604 0.365024 0.389753
O O12 0.772847 0.611537 0.209480
O O13 0.122330 0.761494 0.864121
O O14 0.620212 0.308872 0.873607
O O15 0.253114 0.095194 0.041779
O O16 0.767157 0.405551 0.004834
O O17 0.000000 0.000000 0.500000
#
# Coordination Sequence:
#
# PCOD9001386 Si02
#       8
#     2   2   2   2   2   2   2   2
#     4  10  21  35  54  82 116 148 174 232 280 339
#     4  11  23  37  53  78 111 152 192 225 271 319
#     4  10  22  34  57  84 107 153 184 228 283 327
#     4  11  21  35  54  81 115 147 181 221 282 327
#     4  12  22  34  55  81 111 154 185 220 268 347
#     4  11  21  35  57  83 115 144 189 219 282 345
#     4  10  21  38  56  77 116 146 188 241 274 308
#     4  11  21  35  53  77 117 144 187 226 270 327
#
# _framework density 19.241546
#
# number of rings (size 3 to 8) (size 9 to 14) (size 15 to 20)
#    0.000    1.250    2.500    6.000    3.500    0.000 
#    0.000    0.000    0.000    0.000    0.000    5.250 
#    0.000    0.000    0.000    0.000    0.000    0.000 
#
# Total GULP energy -89363.396194 kJ/mol
# GULP energy per Si atom -5585.212262 kJ/mol
# Density = 1.919775 g / cm^3
# Si number density = 19.241546 Si / 1000 Ang^3
#
#
#
# Elastic Constant Matrix: (Units=GPa)
#
#
# Indices 1 2 3 4 5 6 
#
# 1 78.8534 -4.4739 35.8041 22.2259 -0.6046 10.4513
# 2 -4.4739 55.8087 11.6962 4.9286 2.7196 -7.8035
# 3 35.8041 11.6962 63.3960 12.6934 -12.8566 -1.8426
# 4 22.2259 4.9286 12.6934 19.2686 1.6992 3.6398
# 5 -0.6046 2.7196 -12.8566 1.6992 27.2379 9.0431
# 6 10.4513 -7.8035 -1.8426 3.6398 9.0431 38.4899
#
#
#
# Elastic Compliance Matrix: (Units=1/GPa)
#
#
# Indices 1 2 3 4 5 6 
#
# 1 0.024725 0.005975 -0.011442 -0.021622 -0.003004 -0.003300
# 2 0.005975 0.021514 -0.006835 -0.008219 -0.006278 0.004664
# 3 -0.011442 -0.006835 0.027032 -0.004089 0.013355 0.000264
# 4 -0.021622 -0.008219 -0.004089 0.082613 -0.005944 -0.002407
# 5 -0.003004 -0.006278 0.013355 -0.005944 0.047398 -0.010392
# 6 -0.003300 0.004664 0.000264 -0.002407 -0.010392 0.030504
#
#
# Mechanical properties :
#
#
# Convention : Reuss Voigt Hill
#
# Bulk Modulus (GPa) = 20.54873 31.56788 26.05830
# Shear Modulus (GPa) = 18.20747 27.33474 22.77111
#
# Velocity S-wave (km/s) = 3.07947 3.77319 3.44384
# Velocity P-wave (km/s) = 4.83184 5.95183 5.42084
#
# Compressibility (1/GPa) = 0.04866481
#
# Stress axis : x y z
#
# Youngs Moduli (GPa) = 40.44521 46.48191 36.99350
#
# Poissons Ratio (x) = -0.27771 0.42328
# Poissons Ratio (y) = -0.24164 0.25286
# Poissons Ratio (z) = 0.46278 0.31772
#
# Static dielectric constant tensor:
#      x y z
#    x 1.698220 -0.009030 -0.003950 
#    y -0.009030 1.721310 0.006150 
#    z -0.003950 0.006150 1.694500 
# 
# From -- ./inp_files/92490.got.cif
#   From: 2010.05.17/outbox.cif.g08.bks.cpg/sg2_47_cif.got.tgz:92490.got - 2010.06.03 11:33:40.
