data_PCOD9001955
_publ_section_title
;
Structure prediction by ZEFSAII (Michael W. Deem and Ramdas Pophale) SiO2 
 PCOD9001955
Probable space group: P -1
;
_chemical_formula_sum "Si O2"
_cell_formula_units_Z 16
_cell_length_a 12.619235
_cell_length_b 9.673066
_cell_length_c 17.252995
_cell_angle_alpha 76.198800
_cell_angle_beta 51.249342
_cell_angle_gamma 118.315504
_cell_volume 905.007861
_symmetry_space_group_name_H-M "P -1"
_symmetry_group_IT_number 2
_symmetry_cell_setting 'triclinic'
loop_
_space_group_symop_operation_xyz
x,y,z
-x,-y,-z
loop_
_atom_site_type_symbol
_atom_site_label
_atom_site_fract_x
_atom_site_fract_y
_atom_site_fract_z
Si Si1 0.182670 0.600170 0.838848
Si Si2 0.592983 0.285392 0.703261
Si Si3 0.970779 0.534593 0.785318
Si Si4 0.274369 0.845612 0.451245
Si Si5 0.616245 0.460159 0.915797
Si Si6 0.099850 0.243334 0.412847
Si Si7 0.931016 0.098152 0.996014
Si Si8 0.674016 0.996420 0.987498
O O1 0.104535 0.604822 0.792984
O O2 0.452966 0.869636 0.700542
O O3 0.000000 0.500000 0.000000
O O4 0.130742 0.386826 0.885282
O O5 0.725257 0.292582 0.585117
O O6 0.733244 0.551289 0.622285
O O7 0.323623 0.081814 0.823314
O O8 0.540140 0.170809 0.828200
O O9 0.154132 0.711441 0.607152
O O10 0.812920 0.542122 0.864225
O O11 0.792884 0.250324 0.883843
O O12 0.117585 0.833703 0.485735
O O13 0.745574 0.615052 0.755630
O O14 0.500000 0.500000 0.000000
O O15 0.418721 0.172696 0.019627
O O16 0.000000 0.000000 0.500000
O O17 0.861539 0.061896 0.942280
O O18 0.000000 0.000000 0.000000
#
# Coordination Sequence:
#
# PCOD9001955 Si02
#       8
#     2   2   2   2   2   2   2   2
#     4  11  21  38  59  84 107 150 196 224 282 345
#     4   9  19  38  56  82 109 147 196 221 275 337
#     4  10  21  36  55  83 114 144 186 237 283 330
#     4  11  21  36  58  83 117 146 186 239 283 333
#     4  10  21  36  55  82 114 149 187 233 282 332
#     4  10  23  37  55  85 117 151 185 236 285 331
#     4   9  19  34  59  82 109 142 193 235 267 324
#     4   8  18  36  55  78 107 147 193 221 271 335
#
# _framework density 17.679404000000002
#
# number of rings (size 3 to 8) (size 9 to 14) (size 15 to 20)
#    0.750    1.500    1.250    1.125    1.750    4.000 
#    0.000    0.000    0.000    1.500    0.000    0.000 
#    0.000    0.000    0.000    0.000    0.000    0.000 
#
# Total GULP energy -89159.890298 kJ/mol
# GULP energy per Si atom -5572.493144 kJ/mol
# Density = 1.763916 g / cm^3
# Si number density = 17.679404 Si / 1000 Ang^3
#
#
#
# Elastic Constant Matrix: (Units=GPa)
#
#
# Indices 1 2 3 4 5 6 
#
# 1 62.3150 29.4848 18.2279 7.4891 1.0860 -24.9930
# 2 29.4848 86.1589 37.0973 -0.9571 -8.6490 -13.7602
# 3 18.2279 37.0973 79.6651 -4.1270 -6.0387 -12.2193
# 4 7.4891 -0.9571 -4.1270 35.8762 -8.5576 -3.6035
# 5 1.0860 -8.6490 -6.0387 -8.5576 18.4029 0.3527
# 6 -24.9930 -13.7602 -12.2193 -3.6035 0.3527 26.0677
#
#
#
# Elastic Compliance Matrix: (Units=1/GPa)
#
#
# Indices 1 2 3 4 5 6 
#
# 1 0.030212 -0.007046 -0.000932 -0.006280 -0.008782 0.024061
# 2 -0.007046 0.017324 -0.005652 0.003250 0.008213 0.000078
# 3 -0.000932 -0.005652 0.016563 0.003416 0.004340 0.004300
# 4 -0.006280 0.003250 0.003416 0.034368 0.018966 0.001790
# 5 -0.008782 0.008213 0.004340 0.018966 0.068968 -0.000362
# 6 0.024061 0.000078 0.004300 0.001790 -0.000362 0.063740
#
#
# Mechanical properties :
#
#
# Convention : Reuss Voigt Hill
#
# Bulk Modulus (GPa) = 27.14535 44.19542 35.67039
# Shear Modulus (GPa) = 18.46948 25.62462 22.04705
#
# Velocity S-wave (km/s) = 3.23567 3.81124 3.53519
# Velocity P-wave (km/s) = 5.41729 6.66482 6.07317
#
# Compressibility (1/GPa) = 0.03683872
#
# Stress axis : x y z
#
# Youngs Moduli (GPa) = 33.09929 57.72179 60.37393
#
# Poissons Ratio (x) = 0.40673 0.05627
# Poissons Ratio (y) = 0.23323 0.34125
# Poissons Ratio (z) = 0.03085 0.32626
#
# Static dielectric constant tensor:
#      x y z
#    x 1.600960 0.021130 -0.006960 
#    y 0.021130 1.601360 -0.012270 
#    z -0.006960 -0.012270 1.607630 
# 
# From -- ./inp_files/283061.got.cif
#   From: 2010.05.17/outbox.cif.g08.bks.cpg/sg2_142_cif.got.tgz:283061.got - 2010.06.03 11:33:40.
