data_PCOD9001115
_publ_section_title
;
Structure prediction by ZEFSAII (Michael W. Deem and Ramdas Pophale) SiO2 
 PCOD9001115
Probable space group: P -1
;
_chemical_formula_sum "Si O2"
_cell_formula_units_Z 14
_cell_length_a 16.711329
_cell_length_b 17.127275
_cell_length_c 10.111055
_cell_angle_alpha 117.137058
_cell_angle_beta 52.933667
_cell_angle_gamma 162.594566
_cell_volume 598.755232
_symmetry_space_group_name_H-M "P -1"
_symmetry_group_IT_number 2
_symmetry_cell_setting 'triclinic'
loop_
_space_group_symop_operation_xyz
x,y,z
-x,-y,-z
loop_
_atom_site_type_symbol
_atom_site_label
_atom_site_fract_x
_atom_site_fract_y
_atom_site_fract_z
Si Si1 0.378513 0.324131 0.818411
Si Si2 0.663128 0.345511 0.808778
Si Si3 0.684606 0.123593 0.276058
Si Si4 0.828220 0.185084 0.584957
Si Si5 0.730012 0.777554 0.479486
Si Si6 0.394438 0.309587 0.077277
Si Si7 0.404729 0.651779 0.567373
O O1 0.447795 0.481766 0.828429
O O2 0.512381 0.353967 0.627975
O O3 0.570937 0.475217 0.886938
O O4 0.000000 0.000000 0.000000
O O5 0.918265 0.529851 0.815388
O O6 0.901547 0.564896 0.610266
O O7 0.402382 0.050880 0.798652
O O8 0.475404 0.276060 0.991475
O O9 0.500000 0.000000 0.500000
O O10 0.496056 0.021253 0.271518
O O11 0.028225 0.363224 0.663691
O O12 0.661312 0.949002 0.546870
O O13 0.500000 0.500000 0.500000
O O14 0.495308 0.668484 0.619268
O O15 0.000000 0.000000 0.500000
O O16 0.988194 0.985819 0.256725
#
# Coordination Sequence:
#
# PCOD9001115 Si02
#       7
#     2   2   2   2   2   2   2
#     4  11  21  35  58  93 126 150 200 249 303 371
#     4  11  21  34  56  87 125 162 191 234 303 365
#     4  10  21  34  51  85 130 162 186 232 296 372
#     4  11  20  35  57  89 122 157 197 236 301 369
#     4  12  27  45  59  85 123 163 212 256 296 357
#     4  11  24  37  60  89 123 165 201 247 305 366
#     4  12  22  37  62  86 116 163 199 244 301 358
#
# _framework density 23.381841999999999
#
# number of rings (size 3 to 8) (size 9 to 14) (size 15 to 20)
#    0.000    0.857    2.857    7.714    2.000    0.000 
#    0.000    0.000    0.000    0.000    0.000   20.000 
#    0.000    0.000    0.000    0.000    0.000    0.000 
#
# Total GULP energy -78057.555220 kJ/mol
# GULP energy per Si atom -5575.539659 kJ/mol
# Density = 2.332862 g / cm^3
# Si number density = 23.381842 Si / 1000 Ang^3
#
#
#
# Elastic Constant Matrix: (Units=GPa)
#
#
# Indices 1 2 3 4 5 6 
#
# 1 106.9421 17.3928 -5.8271 7.2417 -10.8724 15.3831
# 2 17.3928 148.2985 -7.2172 8.6705 9.9347 -13.6152
# 3 -5.8271 -7.2172 10.8191 7.3169 -4.1495 -7.8619
# 4 7.2417 8.6705 7.3169 20.7541 5.6290 -7.3247
# 5 -10.8724 9.9347 -4.1495 5.6290 27.0692 -0.2593
# 6 15.3831 -13.6152 -7.8619 -7.3247 -0.2593 53.9455
#
#
#
# Elastic Compliance Matrix: (Units=1/GPa)
#
#
# Indices 1 2 3 4 5 6 
#
# 1 0.013203 -0.000804 0.019054 -0.015286 0.011667 -0.003210
# 2 -0.000804 0.008004 0.010831 -0.005700 -0.000385 0.003052
# 3 0.019054 0.010831 0.204189 -0.092716 0.054400 0.014731
# 4 -0.015286 -0.005700 -0.092716 0.100177 -0.039065 0.002822
# 5 0.011667 -0.000385 0.054400 -0.039065 0.058227 -0.000520
# 6 -0.003210 0.003052 0.014731 0.002822 -0.000520 0.022750
#
#
# Mechanical properties :
#
#
# Convention : Reuss Voigt Hill
#
# Bulk Modulus (GPa) = 3.52660 30.52852 17.02756
# Shear Modulus (GPa) = 11.28908 37.80117 24.54513
#
# Velocity S-wave (km/s) = 2.19969 4.02517 3.24350
# Velocity P-wave (km/s) = 2.82188 5.88961 4.61793
#
# Compressibility (1/GPa) = 0.28355930
#
# Stress axis : x y z
#
# Youngs Moduli (GPa) = 75.74158 124.94003 4.89743
#
# Poissons Ratio (x) = 0.10042 -0.09332
# Poissons Ratio (y) = 0.06087 -0.05305
# Poissons Ratio (z) = -1.44320 -1.35328
#
# Static dielectric constant tensor:
#      x y z
#    x 2.341320 0.239950 0.211800 
#    y 0.239950 1.960940 0.186900 
#    z 0.211800 0.186900 1.917610 
# 
# From -- ./inp_files/454846.got.cif
#   From: 2010.05.17/outbox.cif.g08.bks.cpg/sg2_228_cif.got.tgz:454846.got - 2010.06.03 11:33:40.
