data_PCOD9001936
_publ_section_title
;
Structure prediction by ZEFSAII (Michael W. Deem and Ramdas Pophale) SiO2 
 PCOD9001936
Probable space group: P -1
;
_chemical_formula_sum "Si O2"
_cell_formula_units_Z 15
_cell_length_a 10.798942
_cell_length_b 5.384877
_cell_length_c 11.829326
_cell_angle_alpha 109.426156
_cell_angle_beta 55.586868
_cell_angle_gamma 104.183152
_cell_volume 533.747549
_symmetry_space_group_name_H-M "P -1"
_symmetry_group_IT_number 2
_symmetry_cell_setting 'triclinic'
loop_
_space_group_symop_operation_xyz
x,y,z
-x,-y,-z
loop_
_atom_site_type_symbol
_atom_site_label
_atom_site_fract_x
_atom_site_fract_y
_atom_site_fract_z
Si Si1 0.747626 0.253207 0.468565
Si Si2 0.194358 0.270430 0.903317
Si Si3 0.500000 0.000000 0.500000
Si Si4 0.537867 0.662582 0.670243
Si Si5 0.802773 0.278330 0.699972
Si Si6 0.104736 0.647964 0.814551
Si Si7 0.230348 0.180494 0.236653
Si Si8 0.552968 0.872316 0.092580
O O1 0.569392 0.350993 0.586598
O O2 0.812018 0.215013 0.552573
O O3 0.840906 0.409840 0.349235
O O4 0.684149 0.989397 0.400359
O O5 0.188156 0.459823 0.827576
O O6 0.352536 0.278824 0.888019
O O7 0.143982 0.959457 0.867721
O O8 0.070725 0.387153 0.068373
O O9 0.505687 0.820916 0.598336
O O10 0.698874 0.727721 0.663667
O O11 0.438751 0.818364 0.832471
O O12 0.856499 0.580052 0.724400
O O13 0.621946 0.242199 0.821370
O O14 0.870351 0.080996 0.721882
O O15 0.361330 0.148806 0.073259
#
# Coordination Sequence:
#
# PCOD9001936 Si02
#       8
#     2   2   1   2   2   2   2   2
#     4  11  23  35  59  84 125 160 193 247 307 364
#     4  10  24  43  61  90 111 163 210 247 294 356
#     4  12  20  34  50  88 118 152 192 236 296 368
#     4  10  22  34  51  88 120 155 189 239 303 354
#     4  10  21  36  54  90 122 153 196 236 311 357
#     4  10  24  43  63  82 125 157 201 253 303 349
#     4  10  21  38  55  84 124 162 193 241 298 358
#     4  11  21  38  63  85 122 156 207 246 292 363
#
# _framework density 28.103172000000001
#
# number of rings (size 3 to 8) (size 9 to 14) (size 15 to 20)
#    0.000    1.600    2.667    3.200    3.733    7.467 
#    0.000    0.000    0.000    4.000    0.000    0.000 
#    0.000    0.133    0.000    0.000    0.000    0.000 
#
# Total GULP energy -83596.009800 kJ/mol
# GULP energy per Si atom -5573.067320 kJ/mol
# Density = 2.803921 g / cm^3
# Si number density = 28.103172 Si / 1000 Ang^3
#
#
#
# Elastic Constant Matrix: (Units=GPa)
#
#
# Indices 1 2 3 4 5 6 
#
# 1 63.8227 38.2359 40.4758 -3.5003 11.5771 -21.4819
# 2 38.2359 218.9862 73.5647 -12.7348 7.6782 -32.8397
# 3 40.4758 73.5647 171.6021 -29.0529 19.9251 -20.3999
# 4 -3.5003 -12.7348 -29.0529 49.4584 -10.6135 4.8746
# 5 11.5771 7.6782 19.9251 -10.6135 28.4768 -5.5483
# 6 -21.4819 -32.8397 -20.3999 4.8746 -5.5483 20.7078
#
#
#
# Elastic Compliance Matrix: (Units=1/GPa)
#
#
# Indices 1 2 3 4 5 6 
#
# 1 0.026537 0.000056 -0.003485 -0.003579 -0.005088 0.023664
# 2 0.000056 0.006464 -0.001892 -0.000040 0.001256 0.008792
# 3 -0.003485 -0.001892 0.008386 0.003631 -0.002567 0.000102
# 4 -0.003579 -0.000040 0.003631 0.024001 0.007102 -0.003946
# 5 -0.005088 0.001256 -0.002567 0.007102 0.042024 0.003773
# 6 0.023664 0.008792 0.000102 -0.003946 0.003773 0.088823
#
#
# Mechanical properties :
#
#
# Convention : Reuss Voigt Hill
#
# Bulk Modulus (GPa) = 32.52599 84.32932 58.42765
# Shear Modulus (GPa) = 23.02821 39.87090 31.44955
#
# Velocity S-wave (km/s) = 2.86565 3.77069 3.34889
# Velocity P-wave (km/s) = 4.74849 7.00212 5.98239
#
# Compressibility (1/GPa) = 0.03074465
#
# Stress axis : x y z
#
# Youngs Moduli (GPa) = 37.68387 154.69473 119.25251
#
# Poissons Ratio (x) = -0.00872 0.41564
# Poissons Ratio (y) = -0.00212 0.22562
# Poissons Ratio (z) = 0.13134 0.29267
#
# Static dielectric constant tensor:
#      x y z
#    x 2.649340 0.853710 0.349460 
#    y 0.853710 3.832380 0.769320 
#    z 0.349460 0.769320 2.591660 
# 
# From -- ./inp_files/440593.got.cif
#   From: 2010.05.17/outbox.cif.g08.bks.cpg/sg2_221_cif.got.tgz:440593.got - 2010.06.03 11:33:40.
