data_PCOD9001134
_publ_section_title
;
Structure prediction by ZEFSAII (Michael W. Deem and Ramdas Pophale) SiO2 
 PCOD9001134
Probable space group: P -1
;
_chemical_formula_sum "Si O2"
_cell_formula_units_Z 10
_cell_length_a 11.389675
_cell_length_b 11.580421
_cell_length_c 16.137292
_cell_angle_alpha 35.634149
_cell_angle_beta 159.120527
_cell_angle_gamma 129.484257
_cell_volume 355.265885
_symmetry_space_group_name_H-M "P -1"
_symmetry_group_IT_number 2
_symmetry_cell_setting 'triclinic'
loop_
_space_group_symop_operation_xyz
x,y,z
-x,-y,-z
loop_
_atom_site_type_symbol
_atom_site_label
_atom_site_fract_x
_atom_site_fract_y
_atom_site_fract_z
Si Si1 0.565273 0.258914 0.290479
Si Si2 0.509811 0.272269 0.610444
Si Si3 0.580639 0.268696 0.475935
Si Si4 0.411949 0.977830 0.047977
Si Si5 0.177855 0.380460 0.791256
O O1 0.369703 0.310546 0.222953
O O2 0.373019 0.252802 0.082913
O O3 0.705234 0.434953 0.257775
O O4 0.999148 0.999938 0.746917
O O5 0.500000 0.500000 0.500000
O O6 0.376056 0.296942 0.412426
O O7 0.296460 0.240548 0.567922
O O8 0.978072 0.010290 0.070040
O O9 0.724316 0.449264 0.462518
O O10 0.346338 0.199584 0.929417
O O11 0.500000 0.000000 0.000000
#
# Coordination Sequence:
#
# PCOD9001134 Si02
#       5
#     2   2   2   2   2
#     4   9  18  33  55  79 103 138 178 216 264 316
#     4   9  19  33  55  79 105 140 181 213 265 320
#     4   9  18  35  54  76 107 140 177 221 262 313
#     4  10  21  34  53  80 106 141 170 220 265 314
#     4   9  18  33  55  79 103 138 178 216 264 316
#
# _framework density 28.147932999999998
#
# number of rings (size 3 to 8) (size 9 to 14) (size 15 to 20)
#    0.000    3.200    0.000    2.400    5.600    0.800 
#    0.000   16.000    0.000   20.400    0.000    0.000 
#    0.000    0.000    0.000    0.000    0.000    0.000 
#
# Total GULP energy -55774.411979 kJ/mol
# GULP energy per Si atom -5577.441198 kJ/mol
# Density = 2.808387 g / cm^3
# Si number density = 28.147933 Si / 1000 Ang^3
#
#
#
# Elastic Constant Matrix: (Units=GPa)
#
#
# Indices 1 2 3 4 5 6 
#
# 1 261.7107 48.6918 66.3568 21.9892 -74.1786 -54.4737
# 2 48.6918 121.5880 40.2525 10.3792 -21.3359 -15.8589
# 3 66.3568 40.2525 104.9359 23.9318 -51.4204 -30.5769
# 4 21.9892 10.3792 23.9318 57.5114 -22.0384 -28.9339
# 5 -74.1786 -21.3359 -51.4204 -22.0384 72.1240 15.5953
# 6 -54.4737 -15.8589 -30.5769 -28.9339 15.5953 59.5959
#
#
#
# Elastic Compliance Matrix: (Units=1/GPa)
#
#
# Indices 1 2 3 4 5 6 
#
# 1 0.006732 -0.001185 0.000395 0.002839 0.006485 0.005722
# 2 -0.001185 0.009666 -0.003319 -0.000283 -0.000780 -0.000147
# 3 0.000395 -0.003319 0.017389 0.000151 0.010638 0.005689
# 4 0.002839 -0.000283 0.000151 0.025963 0.008045 0.013097
# 5 0.006485 -0.000780 0.010638 0.008045 0.028710 0.007571
# 6 0.005722 -0.000147 0.005689 0.013097 0.007571 0.029267
#
#
# Mechanical properties :
#
#
# Convention : Reuss Voigt Hill
#
# Bulk Modulus (GPa) = 39.10913 88.75965 63.93439
# Shear Modulus (GPa) = 37.18394 60.04183 48.61288
#
# Velocity S-wave (km/s) = 3.63852 4.62354 4.16029
# Velocity P-wave (km/s) = 5.61926 7.75271 6.77055
#
# Compressibility (1/GPa) = 0.02556948
#
# Stress axis : x y z
#
# Youngs Moduli (GPa) = 148.54693 103.45706 57.50751
#
# Poissons Ratio (x) = 0.12257 -0.02273
# Poissons Ratio (y) = 0.17599 0.19087
# Poissons Ratio (z) = -0.05871 0.34339
#
# Static dielectric constant tensor:
#      x y z
#    x 2.375100 0.016840 0.113460 
#    y 0.016840 2.127910 -0.106780 
#    z 0.113460 -0.106780 2.404000 
# 
# From -- ./inp_files/95378.got.cif
#   From: 2010.05.17/outbox.cif.g08.bks.cpg/sg2_48_cif.got.tgz:95378.got - 2010.06.03 11:33:40.
