data_PCOD9001343
_publ_section_title
;
Structure prediction by ZEFSAII (Michael W. Deem and Ramdas Pophale) SiO2 
 PCOD9001343
Probable space group: P -1
;
_chemical_formula_sum "Si O2"
_cell_formula_units_Z 12
_cell_length_a 7.994744
_cell_length_b 11.532064
_cell_length_c 12.276158
_cell_angle_alpha 134.998831
_cell_angle_beta 141.598701
_cell_angle_gamma 55.627772
_cell_volume 496.995832
_symmetry_space_group_name_H-M "P -1"
_symmetry_group_IT_number 2
_symmetry_cell_setting 'triclinic'
loop_
_space_group_symop_operation_xyz
x,y,z
-x,-y,-z
loop_
_atom_site_type_symbol
_atom_site_label
_atom_site_fract_x
_atom_site_fract_y
_atom_site_fract_z
Si Si1 0.322967 0.846842 0.553089
Si Si2 0.218410 0.310027 0.080288
Si Si3 0.660896 0.563500 0.479838
Si Si4 0.198867 0.359534 0.628733
Si Si5 0.836644 0.599647 0.131481
Si Si6 0.034076 0.987403 0.697895
O O1 0.598937 0.743340 0.617139
O O2 0.263512 0.953764 0.700350
O O3 0.105493 0.704037 0.356715
O O4 0.223544 0.941588 0.456344
O O5 0.469910 0.415002 0.320560
O O6 0.953354 0.416841 0.049271
O O7 0.265331 0.328051 0.985893
O O8 0.146713 0.119788 0.927352
O O9 0.619201 0.596283 0.350913
O O10 0.963704 0.499350 0.607398
O O11 0.325805 0.360963 0.815068
O O12 0.058451 0.186446 0.419249
#
# Coordination Sequence:
#
# PCOD9001343 Si02
#       6
#     2   2   2   2   2   2
#     4   8  16  32  53  74  99 132 167 203 248 301
#     4   9  17  32  54  77  97 124 170 216 245 284
#     4  10  21  35  50  73 106 138 165 198 248 305
#     4  10  21  35  50  73 106 138 165 198 248 305
#     4   8  16  32  53  74  99 132 167 203 248 301
#     4   9  17  32  54  77  97 124 170 216 245 284
#
# _framework density 24.145073
#
# number of rings (size 3 to 8) (size 9 to 14) (size 15 to 20)
#    0.000    3.000    0.000    2.000    0.000    8.000 
#    0.000    1.667    0.000    4.000    0.000    0.000 
#    0.000    0.000    0.000    0.000    0.000    0.000 
#
# Total GULP energy -66940.302899 kJ/mol
# GULP energy per Si atom -5578.358575 kJ/mol
# Density = 2.409012 g / cm^3
# Si number density = 24.145073 Si / 1000 Ang^3
#
#
#
# Elastic Constant Matrix: (Units=GPa)
#
#
# Indices 1 2 3 4 5 6 
#
# 1 54.0564 27.9077 13.3477 10.8488 -10.8940 17.0003
# 2 27.9077 92.6546 21.2318 29.3709 -2.5819 -15.4881
# 3 13.3477 21.2318 93.0102 30.0036 -9.1067 -8.6223
# 4 10.8488 29.3709 30.0036 38.3168 -1.4738 -15.5779
# 5 -10.8940 -2.5819 -9.1067 -1.4738 30.3784 -2.9870
# 6 17.0003 -15.4881 -8.6223 -15.5779 -2.9870 36.4748
#
#
#
# Elastic Compliance Matrix: (Units=1/GPa)
#
#
# Indices 1 2 3 4 5 6 
#
# 1 0.037107 -0.011535 -0.000487 -0.011747 0.008997 -0.026589
# 2 -0.011535 0.017963 0.000540 -0.006917 -0.001797 0.010030
# 3 -0.000487 0.000540 0.014899 -0.012177 0.003656 -0.000923
# 4 -0.011747 -0.006917 -0.012177 0.053072 -0.003711 0.022022
# 5 0.008997 -0.001797 0.003656 -0.003711 0.036644 -0.002676
# 6 -0.026589 0.010030 -0.000923 0.022022 -0.002676 0.053036
#
#
# Mechanical properties :
#
#
# Convention : Reuss Voigt Hill
#
# Bulk Modulus (GPa) = 21.27437 40.52174 30.89805
# Shear Modulus (GPa) = 19.89237 32.84959 26.37098
#
# Velocity S-wave (km/s) = 2.87343 3.69251 3.30841
# Velocity P-wave (km/s) = 4.45409 5.91596 5.23629
#
# Compressibility (1/GPa) = 0.04700493
#
# Stress axis : x y z
#
# Youngs Moduli (GPa) = 26.94887 55.67091 67.12050
#
# Poissons Ratio (x) = 0.64219 0.03266
# Poissons Ratio (y) = 0.31087 -0.03626
# Poissons Ratio (z) = 0.01311 -0.03007
#
# Static dielectric constant tensor:
#      x y z
#    x 2.030100 -0.000060 -0.068340 
#    y -0.000060 1.998780 -0.078580 
#    z -0.068340 -0.078580 2.024480 
# 
# From -- ./inp_files/144414.got.cif
#   From: 2010.05.17/outbox.cif.g08.bks.cpg/sg2_73_cif.got.tgz:144414.got - 2010.06.03 11:33:40.
