data_PCOD9001452
_publ_section_title
;
Structure prediction by ZEFSAII (Michael W. Deem and Ramdas Pophale) SiO2 
 PCOD9001452
Probable space group: P -1
;
_chemical_formula_sum "Si O2"
_cell_formula_units_Z 16
_cell_length_a 9.736545
_cell_length_b 11.056611
_cell_length_c 8.917721
_cell_angle_alpha 48.819552
_cell_angle_beta 76.886251
_cell_angle_gamma 69.136327
_cell_volume 675.133130
_symmetry_space_group_name_H-M "P -1"
_symmetry_group_IT_number 2
_symmetry_cell_setting 'triclinic'
loop_
_space_group_symop_operation_xyz
x,y,z
-x,-y,-z
loop_
_atom_site_type_symbol
_atom_site_label
_atom_site_fract_x
_atom_site_fract_y
_atom_site_fract_z
Si Si1 0.464007 0.962274 0.797064
Si Si2 0.848020 0.276353 0.347268
Si Si3 0.579936 0.769049 0.658031
Si Si4 0.199625 0.558636 0.080352
Si Si5 0.961537 0.071081 0.115056
Si Si6 0.924564 0.508087 0.349775
Si Si7 0.263171 0.123321 0.976664
Si Si8 0.834214 0.935583 0.534974
O O1 0.462494 0.830503 0.771116
O O2 0.607693 0.897257 0.918146
O O3 0.462083 0.131831 0.567518
O O4 0.330833 0.010140 0.908623
O O5 0.851837 0.363343 0.435009
O O6 0.016727 0.183920 0.335735
O O7 0.781665 0.120194 0.471048
O O8 0.785546 0.415223 0.122502
O O9 0.653665 0.572143 0.787965
O O10 0.710731 0.842491 0.627532
O O11 0.057959 0.495735 0.209479
O O12 0.150059 0.743629 0.011228
O O13 0.124229 0.077094 0.118499
O O14 0.891377 0.965041 0.330099
O O15 0.000000 0.000000 0.000000
O O16 0.000000 0.500000 0.500000
O O17 0.804176 0.685778 0.216463
#
# Coordination Sequence:
#
# PCOD9001452 Si02
#       8
#     2   2   2   2   2   2   2   2
#     4  10  23  38  60  85 118 172 206 253 279 355
#     4  10  21  35  55  93 124 154 185 246 335 362
#     4  11  21  39  65  89 118 154 221 252 288 362
#     4  10  21  36  60  92 119 159 200 259 314 355
#     4  10  22  38  63  96 127 156 190 263 332 370
#     4  11  21  33  61  92 124 154 198 265 308 356
#     4  10  22  40  59  87 122 163 209 236 310 372
#     4  10  22  35  61  95 125 156 192 254 329 361
#
# _framework density 23.699028999999999
#
# number of rings (size 3 to 8) (size 9 to 14) (size 15 to 20)
#    0.000    1.750    1.250    2.625   10.500    0.000 
#    0.000    0.000    0.000   33.000    0.000    0.000 
#    0.000    0.000    0.000    0.000    0.000    0.000 
#
# Total GULP energy -89456.085744 kJ/mol
# GULP energy per Si atom -5591.005359 kJ/mol
# Density = 2.364509 g / cm^3
# Si number density = 23.699029 Si / 1000 Ang^3
#
#
#
# Elastic Constant Matrix: (Units=GPa)
#
#
# Indices 1 2 3 4 5 6 
#
# 1 67.3292 21.8114 13.9883 1.0185 8.4228 -7.3039
# 2 21.8114 130.0473 49.3340 17.2013 4.4071 -17.0118
# 3 13.9883 49.3340 115.5522 -0.5249 30.8741 -13.1786
# 4 1.0185 17.2013 -0.5249 33.9612 -10.6036 9.3252
# 5 8.4228 4.4071 30.8741 -10.6036 42.2844 -1.5158
# 6 -7.3039 -17.0118 -13.1786 9.3252 -1.5158 39.9971
#
#
#
# Elastic Compliance Matrix: (Units=1/GPa)
#
#
# Indices 1 2 3 4 5 6 
#
# 1 0.016208 -0.002241 0.000096 -0.000943 -0.003225 0.002136
# 2 -0.002241 0.011092 -0.004219 -0.006571 0.000884 0.004484
# 3 0.000096 -0.004219 0.013269 -0.001329 -0.009510 0.002544
# 4 -0.000943 -0.006571 -0.001329 0.039684 0.011356 -0.012227
# 5 -0.003225 0.000884 -0.009510 0.011356 0.033822 -0.004712
# 6 0.002136 0.004484 0.002544 -0.012227 -0.004712 0.030809
#
#
# Mechanical properties :
#
#
# Convention : Reuss Voigt Hill
#
# Bulk Modulus (GPa) = 35.92040 53.68847 44.80443
# Shear Modulus (GPa) = 29.95953 38.43488 34.19720
#
# Velocity S-wave (km/s) = 3.55937 4.03152 3.80278
# Velocity P-wave (km/s) = 5.66409 6.66140 6.18289
#
# Compressibility (1/GPa) = 0.02783934
#
# Stress axis : x y z
#
# Youngs Moduli (GPa) = 61.69816 90.15870 75.36574
#
# Poissons Ratio (x) = 0.20208 -0.00721
# Poissons Ratio (y) = 0.13829 0.31795
# Poissons Ratio (z) = -0.00591 0.38035
#
# Static dielectric constant tensor:
#      x y z
#    x 1.993180 0.035990 0.039340 
#    y 0.035990 1.942590 0.003320 
#    z 0.039340 0.003320 1.929220 
# 
# From -- ./inp_files/261587.got.cif
#   From: 2010.05.17/outbox.cif.g08.bks.cpg/sg2_131_cif.got.tgz:261587.got - 2010.06.03 11:33:40.
