data_PCOD9001689
_publ_section_title
;
Structure prediction by ZEFSAII (Michael W. Deem and Ramdas Pophale) SiO2 
 PCOD9001689
Probable space group: P -1
;
_chemical_formula_sum "Si O2"
_cell_formula_units_Z 16
_cell_length_a 12.520289
_cell_length_b 20.202812
_cell_length_c 17.184261
_cell_angle_alpha 30.162886
_cell_angle_beta 157.163602
_cell_angle_gamma 151.891171
_cell_volume 762.391434
_symmetry_space_group_name_H-M "P -1"
_symmetry_group_IT_number 2
_symmetry_cell_setting 'triclinic'
loop_
_space_group_symop_operation_xyz
x,y,z
-x,-y,-z
loop_
_atom_site_type_symbol
_atom_site_label
_atom_site_fract_x
_atom_site_fract_y
_atom_site_fract_z
Si Si1 0.813022 0.828609 0.033218
Si Si2 0.150691 0.663809 0.353487
Si Si3 0.803865 0.335467 0.953629
Si Si4 0.200384 0.678895 0.864958
Si Si5 0.428831 0.831597 0.624217
Si Si6 0.462251 0.621027 0.740773
Si Si7 0.834284 0.646237 0.500893
Si Si8 0.893879 0.349542 0.833747
O O1 0.553436 0.751318 0.002167
O O2 0.621851 0.805984 0.848770
O O3 0.043262 0.757459 0.243762
O O4 0.000000 0.000000 0.000000
O O5 0.417657 0.639925 0.600209
O O6 0.855100 0.506484 0.312324
O O7 0.214817 0.725298 0.246759
O O8 0.482651 0.346257 0.729395
O O9 0.069965 0.502365 0.959585
O O10 0.804331 0.264298 0.942421
O O11 0.835775 0.270949 0.123548
O O12 0.999806 0.705527 0.635299
O O13 0.516962 0.769984 0.669503
O O14 0.074702 0.737831 0.503349
O O15 0.500000 0.000000 0.500000
O O16 0.737536 0.582208 0.986063
O O17 0.788715 0.479328 0.635023
#
# Coordination Sequence:
#
# PCOD9001689 Si02
#       8
#     2   2   2   2   2   2   2   2
#     4  11  23  39  62  90 126 162 202 254 307 365
#     4  11  22  35  59  88 122 160 199 252 309 360
#     4  10  21  35  61  88 121 165 201 248 299 354
#     4   9  20  36  55  87 120 155 205 248 296 349
#     4  11  22  38  60  89 125 160 201 251 304 368
#     4  11  22  36  57  89 122 159 200 251 311 354
#     4  10  21  36  59  87 124 158 202 250 297 359
#     4  11  20  36  56  87 124 154 194 252 300 355
#
# _framework density 20.986595000000001
#
# number of rings (size 3 to 8) (size 9 to 14) (size 15 to 20)
#    0.000    1.500    2.500    4.875    3.500    4.000 
#    0.000    0.000    0.000    3.000    0.000    7.875 
#    0.000    0.000    0.000    0.000    0.000    0.000 
#
# Total GULP energy -89361.684366 kJ/mol
# GULP energy per Si atom -5585.105273 kJ/mol
# Density = 2.093883 g / cm^3
# Si number density = 20.986595 Si / 1000 Ang^3
#
#
#
# Elastic Constant Matrix: (Units=GPa)
#
#
# Indices 1 2 3 4 5 6 
#
# 1 118.2009 6.2825 3.9238 12.2539 -19.3316 -1.5153
# 2 6.2825 40.0559 8.1188 5.8542 11.4338 -5.7408
# 3 3.9238 8.1188 54.6818 14.4486 -11.5232 -3.5794
# 4 12.2539 5.8542 14.4486 25.0350 -2.9138 2.7190
# 5 -19.3316 11.4338 -11.5232 -2.9138 24.2138 -0.0532
# 6 -1.5153 -5.7408 -3.5794 2.7190 -0.0532 21.5923
#
#
#
# Elastic Compliance Matrix: (Units=1/GPa)
#
#
# Indices 1 2 3 4 5 6 
#
# 1 0.011272 -0.005425 0.004142 -0.005215 0.012906 0.000724
# 2 -0.005425 0.037195 -0.008889 -0.004953 -0.026703 0.008593
# 3 0.004142 -0.008889 0.027232 -0.013938 0.018796 0.004243
# 4 -0.005215 -0.004953 -0.013938 0.052603 -0.002152 -0.010623
# 5 0.012906 -0.026703 0.018796 -0.002152 0.072891 -0.002627
# 6 0.000724 0.008593 0.004243 -0.010623 -0.002627 0.050683
#
#
# Mechanical properties :
#
#
# Convention : Reuss Voigt Hill
#
# Bulk Modulus (GPa) = 18.06569 27.73211 22.89890
# Shear Modulus (GPa) = 17.20150 27.14245 22.17197
#
# Velocity S-wave (km/s) = 2.86605 3.60018 3.25388
# Velocity P-wave (km/s) = 4.42484 5.52491 5.00519
#
# Compressibility (1/GPa) = 0.05535354
#
# Stress axis : x y z
#
# Youngs Moduli (GPa) = 88.71724 26.88513 36.72191
#
# Poissons Ratio (x) = 0.14586 -0.15210
# Poissons Ratio (y) = 0.48133 0.32642
# Poissons Ratio (z) = -0.36745 0.23898
#
# Static dielectric constant tensor:
#      x y z
#    x 1.843610 -0.005410 -0.021570 
#    y -0.005410 1.718500 0.000530 
#    z -0.021570 0.000530 1.786790 
# 
# From -- ./inp_files/570743.got.cif
#   From: 2010.05.17/outbox.cif.g08.bks.cpg/sg2_286_cif.got.tgz:570743.got - 2010.06.03 11:33:40.
