data_PCOD9001458
_publ_section_title
;
Structure prediction by ZEFSAII (Michael W. Deem and Ramdas Pophale) SiO2 
 PCOD9001458
Probable space group: P -1
;
_chemical_formula_sum "Si O2"
_cell_formula_units_Z 16
_cell_length_a 7.784425
_cell_length_b 8.815073
_cell_length_c 19.504018
_cell_angle_alpha 112.303637
_cell_angle_beta 134.058879
_cell_angle_gamma 55.469422
_cell_volume 792.100324
_symmetry_space_group_name_H-M "P -1"
_symmetry_group_IT_number 2
_symmetry_cell_setting 'triclinic'
loop_
_space_group_symop_operation_xyz
x,y,z
-x,-y,-z
loop_
_atom_site_type_symbol
_atom_site_label
_atom_site_fract_x
_atom_site_fract_y
_atom_site_fract_z
Si Si1 0.220333 0.175486 0.938439
Si Si2 0.972948 0.145694 0.617400
Si Si3 0.446589 0.332607 0.602257
Si Si4 0.595177 0.901227 0.166314
Si Si5 0.047233 0.748307 0.528740
Si Si6 0.345654 0.646501 0.041340
Si Si7 0.654325 0.349897 0.807651
Si Si8 0.238757 0.315964 0.104116
O O1 0.206033 0.203306 0.858786
O O2 0.939259 0.175869 0.876538
O O3 0.237568 0.319298 0.020813
O O4 0.500000 0.000000 0.000000
O O5 0.704918 0.239587 0.607309
O O6 0.939563 0.231594 0.546826
O O7 0.225317 0.155110 0.725895
O O8 0.047399 0.930460 0.591508
O O9 0.291571 0.552482 0.583559
O O10 0.526281 0.302598 0.699658
O O11 0.223395 0.258902 0.521192
O O12 0.369128 0.836140 0.077410
O O13 0.469017 0.120222 0.159031
O O14 0.478239 0.581959 0.143122
O O15 0.500000 0.500000 0.000000
O O16 0.042831 0.678869 0.955501
O O17 0.720902 0.514133 0.830089
#
# Coordination Sequence:
#
# PCOD9001458 Si02
#       8
#     2   2   2   2   2   2   2   2
#     4   9  18  33  54  80 111 152 193 230 284 343
#     4  11  22  41  67  90 126 160 203 254 321 368
#     4  11  22  41  68  90 126 158 209 254 311 373
#     4  11  20  36  57  86 112 154 199 246 291 357
#     4  10  24  42  63  96 122 160 200 261 319 376
#     4  11  22  35  56  83 124 157 196 246 297 344
#     4  11  20  37  58  86 112 160 200 243 288 360
#     4  10  21  35  56  79 121 157 197 238 293 349
#
# _framework density 20.199462
#
# number of rings (size 3 to 8) (size 9 to 14) (size 15 to 20)
#    0.000    1.500    1.250    5.625    0.000    0.000 
#    0.000    0.000    5.500    0.000    0.000    0.000 
#    0.000    0.000    0.000    0.000    0.000    0.000 
#
# Total GULP energy -89107.516076 kJ/mol
# GULP energy per Si atom -5569.219755 kJ/mol
# Density = 2.015349 g / cm^3
# Si number density = 20.199462 Si / 1000 Ang^3
#
#
#
# Elastic Constant Matrix: (Units=GPa)
#
#
# Indices 1 2 3 4 5 6 
#
# 1 82.4040 22.5284 15.6523 1.9110 -12.8980 -16.2601
# 2 22.5284 89.7155 21.3730 -1.6295 0.9026 -9.7532
# 3 15.6523 21.3730 83.7243 -1.8662 -13.0333 -11.8961
# 4 1.9110 -1.6295 -1.8662 24.4070 5.5763 -1.0431
# 5 -12.8980 0.9026 -13.0333 5.5763 29.8294 4.3034
# 6 -16.2601 -9.7532 -11.8961 -1.0431 4.3034 25.9087
#
#
#
# Elastic Compliance Matrix: (Units=1/GPa)
#
#
# Indices 1 2 3 4 5 6 
#
# 1 0.015499 -0.003166 -0.000145 -0.002526 0.006147 0.007346
# 2 -0.003166 0.012954 -0.002934 0.001831 -0.003707 0.002231
# 3 -0.000145 -0.002934 0.014217 -0.000199 0.005642 0.004387
# 4 -0.002526 0.001831 -0.000199 0.043601 -0.009729 0.002384
# 5 0.006147 -0.003707 0.005642 -0.009729 0.040885 -0.002130
# 6 0.007346 0.002231 0.004387 0.002384 -0.002130 0.046511
#
#
# Mechanical properties :
#
#
# Convention : Reuss Voigt Hill
#
# Bulk Modulus (GPa) = 33.13597 41.66125 37.39861
# Shear Modulus (GPa) = 25.48183 29.11501 27.29842
#
# Velocity S-wave (km/s) = 3.55563 3.80066 3.68019
# Velocity P-wave (km/s) = 5.77032 6.31900 6.05088
#
# Compressibility (1/GPa) = 0.03017868
#
# Stress axis : x y z
#
# Youngs Moduli (GPa) = 64.52171 77.19871 70.33669
#
# Poissons Ratio (x) = 0.24445 0.01019
# Poissons Ratio (y) = 0.20431 0.20637
# Poissons Ratio (z) = 0.00935 0.22650
#
# Static dielectric constant tensor:
#      x y z
#    x 1.843180 0.012290 0.011670 
#    y 0.012290 1.748860 -0.019030 
#    z 0.011670 -0.019030 1.719610 
# 
# From -- ./inp_files/587489.got.cif
#   From: 2010.05.17/outbox.cif.g08.bks.cpg/sg2_294_cif.got.tgz:587489.got - 2010.06.03 11:33:40.
