data_PCOD9001908
_publ_section_title
;
Structure prediction by ZEFSAII (Michael W. Deem and Ramdas Pophale) SiO2 
 PCOD9001908
Probable space group: P -1
;
_chemical_formula_sum "Si O2"
_cell_formula_units_Z 15
_cell_length_a 25.200101
_cell_length_b 4.842650
_cell_length_c 6.258265
_cell_angle_alpha 102.272931
_cell_angle_beta 87.532524
_cell_angle_gamma 78.138944
_cell_volume 727.330224
_symmetry_space_group_name_H-M "P -1"
_symmetry_group_IT_number 2
_symmetry_cell_setting 'triclinic'
loop_
_space_group_symop_operation_xyz
x,y,z
-x,-y,-z
loop_
_atom_site_type_symbol
_atom_site_label
_atom_site_fract_x
_atom_site_fract_y
_atom_site_fract_z
Si Si1 0.571513 0.172062 0.569093
Si Si2 0.037065 0.522504 0.291354
Si Si3 0.782408 0.067236 0.843477
Si Si4 0.698700 0.125704 0.500858
Si Si5 0.000000 0.000000 0.000000
Si Si6 0.242754 0.478351 0.698166
Si Si7 0.159532 0.536164 0.354682
Si Si8 0.485902 0.226291 0.229592
O O1 0.635026 0.148763 0.530366
O O2 0.539987 0.226310 0.357681
O O3 0.543682 0.446628 0.765533
O O4 0.555867 0.890758 0.626771
O O5 0.096278 0.548195 0.366541
O O6 0.000000 0.500000 0.500000
O O7 0.015637 0.793506 0.181944
O O8 0.037060 0.226786 0.114725
O O9 0.727971 0.073296 0.717482
O O10 0.824370 0.180355 0.697433
O O11 0.810309 0.738118 0.838420
O O12 0.770134 0.294317 0.072727
O O13 0.715305 0.406671 0.446510
O O14 0.728077 0.849762 0.308263
O O15 0.188161 0.483481 0.572407
O O16 0.500000 0.000000 0.000000
#
# Coordination Sequence:
#
# PCOD9001908 Si02
#       8
#     2   2   2   2   1   2   2   2
#     4  10  21  36  54  80 113 145 188 243 281 336
#     4  11  23  42  64  90 125 161 201 252 302 358
#     4  10  21  38  58  84 115 147 190 239 290 354
#     4  10  21  36  56  85 113 142 190 240 287 344
#     4  10  24  40  60  92 120 154 204 244 292 360
#     4  10  21  37  58  83 111 148 187 230 292 351
#     4  10  22  38  58  85 115 150 192 236 288 353
#     4  10  21  36  54  78 110 152 193 228 285 347
#
# _framework density 20.623370000000001
#
# number of rings (size 3 to 8) (size 9 to 14) (size 15 to 20)
#    0.000    1.867    0.000    3.200    0.000    5.333 
#    0.000    2.667    0.000    0.000    0.000    0.000 
#    0.000    0.000    0.000    0.000    0.000    0.000 
#
# Total GULP energy -83510.523139 kJ/mol
# GULP energy per Si atom -5567.368209 kJ/mol
# Density = 2.057643 g / cm^3
# Si number density = 20.623370 Si / 1000 Ang^3
#
#
#
# Elastic Constant Matrix: (Units=GPa)
#
#
# Indices 1 2 3 4 5 6 
#
# 1 190.0985 24.6187 41.4832 -11.4111 19.7504 5.3888
# 2 24.6187 106.6023 8.1131 -7.8306 4.2274 15.8817
# 3 41.4832 8.1131 69.3835 21.1616 8.0189 -10.0168
# 4 -11.4111 -7.8306 21.1616 33.2368 8.7342 -0.4210
# 5 19.7504 4.2274 8.0189 8.7342 14.1532 4.0600
# 6 5.3888 15.8817 -10.0168 -0.4210 4.0600 21.2662
#
#
#
# Elastic Compliance Matrix: (Units=1/GPa)
#
#
# Indices 1 2 3 4 5 6 
#
# 1 0.009481 0.000510 -0.008312 0.012699 -0.015510 -0.003486
# 2 0.000510 0.011820 -0.004972 0.006634 -0.002450 -0.010699
# 3 -0.008312 -0.004972 0.029140 -0.023995 0.006254 0.017876
# 4 0.012699 0.006634 -0.023995 0.062044 -0.041430 -0.010336
# 5 -0.015510 -0.002450 0.006254 -0.041430 0.119328 -0.014896
# 6 -0.003486 -0.010699 0.017876 -0.010336 -0.014896 0.066955
#
#
# Mechanical properties :
#
#
# Convention : Reuss Voigt Hill
#
# Bulk Modulus (GPa) = 40.17155 57.16826 48.66991
# Shear Modulus (GPa) = 15.03256 33.18920 24.11088
#
# Velocity S-wave (km/s) = 2.70276 4.01596 3.42293
# Velocity P-wave (km/s) = 5.40933 7.02027 6.26678
#
# Compressibility (1/GPa) = 0.02489324
#
# Stress axis : x y z
#
# Youngs Moduli (GPa) = 105.47826 84.60519 34.31737
#
# Poissons Ratio (x) = -0.04318 0.28524
# Poissons Ratio (y) = -0.05383 0.17062
# Poissons Ratio (z) = 0.87672 0.42065
#
# Static dielectric constant tensor:
#      x y z
#    x 1.679670 -0.008520 -0.005500 
#    y -0.008520 1.740370 0.004570 
#    z -0.005500 0.004570 1.763180 
# 
# From -- ./inp_files/121017.got.cif
#   From: 2010.05.17/outbox.cif.g08.bks.cpg/sg2_61_cif.got.tgz:121017.got - 2010.06.03 11:33:40.
