data_PCOD9001316
_publ_section_title
;
Structure prediction by ZEFSAII (Michael W. Deem and Ramdas Pophale) SiO2 
 PCOD9001316
Probable space group: P -1
;
_chemical_formula_sum "Si O2"
_cell_formula_units_Z 14
_cell_length_a 9.642758
_cell_length_b 10.306047
_cell_length_c 9.989099
_cell_angle_alpha 71.611039
_cell_angle_beta 42.538224
_cell_angle_gamma 95.939780
_cell_volume 542.593287
_symmetry_space_group_name_H-M "P -1"
_symmetry_group_IT_number 2
_symmetry_cell_setting 'triclinic'
loop_
_space_group_symop_operation_xyz
x,y,z
-x,-y,-z
loop_
_atom_site_type_symbol
_atom_site_label
_atom_site_fract_x
_atom_site_fract_y
_atom_site_fract_z
Si Si1 0.709383 0.513743 0.600007
Si Si2 0.649698 0.418560 0.236795
Si Si3 0.407553 0.159675 0.968373
Si Si4 0.398491 0.899378 0.896415
Si Si5 0.083326 0.413710 0.278255
Si Si6 0.077245 0.742550 0.936679
Si Si7 0.910490 0.074907 0.375270
O O1 0.619360 0.617800 0.554483
O O2 0.896101 0.471364 0.418459
O O3 0.792630 0.573703 0.672198
O O4 0.468059 0.336292 0.838000
O O5 0.715371 0.285299 0.264616
O O6 0.737058 0.471104 0.003004
O O7 0.832688 0.572301 0.146064
O O8 0.598340 0.177113 0.938914
O O9 0.134658 0.053451 0.250639
O O10 0.428090 0.067775 0.858730
O O11 0.167195 0.801301 0.002290
O O12 0.641391 0.933220 0.641006
O O13 0.962952 0.233296 0.367946
O O14 0.069110 0.874907 0.810866
#
# Coordination Sequence:
#
# PCOD9001316 Si02
#       7
#     2   2   2   2   2   2   2
#     4  11  20  38  62  91 121 155 197 251 305 346
#     4  10  21  41  60  89 121 157 200 248 293 362
#     4  11  23  40  63  88 119 161 202 248 301 347
#     4  11  24  41  60  89 124 156 203 252 287 366
#     4  10  21  34  63  91 119 154 199 249 299 354
#     4  10  22  40  65  88 123 162 200 241 306 353
#     4  11  22  42  60  89 123 159 201 247 297 360
#
# _framework density 25.802015999999998
#
# number of rings (size 3 to 8) (size 9 to 14) (size 15 to 20)
#    0.000    1.429    4.286    2.143    2.000    0.571 
#    0.000    7.857    0.000    0.000    0.000    0.000 
#    0.000    0.000    0.000    0.000    0.000    0.000 
#
# Total GULP energy -78436.002383 kJ/mol
# GULP energy per Si atom -5602.571599 kJ/mol
# Density = 2.574329 g / cm^3
# Si number density = 25.802016 Si / 1000 Ang^3
#
#
#
# Elastic Constant Matrix: (Units=GPa)
#
#
# Indices 1 2 3 4 5 6 
#
# 1 134.8049 39.7564 11.2125 8.6510 -38.1543 24.4207
# 2 39.7564 50.0460 5.8688 5.4812 -10.1438 22.4674
# 3 11.2125 5.8688 94.5435 16.2136 -25.7941 11.2035
# 4 8.6510 5.4812 16.2136 32.1150 -7.9216 -1.2097
# 5 -38.1543 -10.1438 -25.7941 -7.9216 38.8715 -1.9399
# 6 24.4207 22.4674 11.2035 -1.2097 -1.9399 39.9736
#
#
#
# Elastic Compliance Matrix: (Units=1/GPa)
#
#
# Indices 1 2 3 4 5 6 
#
# 1 0.013863 -0.006095 0.003310 -0.001186 0.013705 -0.005342
# 2 -0.006095 0.032258 0.001860 -0.004892 0.001925 -0.014983
# 3 0.003310 0.001860 0.015301 -0.006165 0.012284 -0.006946
# 4 -0.001186 -0.004892 -0.006165 0.035916 0.001104 0.006343
# 5 0.013705 0.001925 0.012284 0.001104 0.047530 -0.010557
# 6 -0.005342 -0.014983 -0.006946 0.006343 -0.010557 0.038328
#
#
# Mechanical properties :
#
#
# Convention : Reuss Voigt Hill
#
# Bulk Modulus (GPa) = 16.78660 43.67441 30.23051
# Shear Modulus (GPa) = 24.40171 37.02913 30.71542
#
# Velocity S-wave (km/s) = 3.07861 3.79241 3.45400
# Velocity P-wave (km/s) = 4.37689 6.01166 5.25819
#
# Compressibility (1/GPa) = 0.05957131
#
# Stress axis : x y z
#
# Youngs Moduli (GPa) = 72.13393 31.00023 65.35458
#
# Poissons Ratio (x) = 0.18895 -0.21630
# Poissons Ratio (y) = 0.43967 -0.12157
# Poissons Ratio (z) = -0.23874 -0.05766
#
# Static dielectric constant tensor:
#      x y z
#    x 2.003020 -0.000410 0.024690 
#    y -0.000410 1.980070 0.010150 
#    z 0.024690 0.010150 2.045440 
# 
# From -- ./inp_files/180293.got.cif
#   From: 2010.05.17/outbox.cif.g08.bks.cpg/sg2_91_cif.got.tgz:180293.got - 2010.06.03 11:33:40.
