data_PCOD9001179
_publ_section_title
;
Structure prediction by ZEFSAII (Michael W. Deem and Ramdas Pophale) SiO2 
 PCOD9001179
Probable space group: P -1
;
_chemical_formula_sum "Si O2"
_cell_formula_units_Z 10
_cell_length_a 9.149949
_cell_length_b 7.923523
_cell_length_c 7.639048
_cell_angle_alpha 80.587085
_cell_angle_beta 71.938654
_cell_angle_gamma 46.309330
_cell_volume 379.696924
_symmetry_space_group_name_H-M "P -1"
_symmetry_group_IT_number 2
_symmetry_cell_setting 'triclinic'
loop_
_space_group_symop_operation_xyz
x,y,z
-x,-y,-z
loop_
_atom_site_type_symbol
_atom_site_label
_atom_site_fract_x
_atom_site_fract_y
_atom_site_fract_z
Si Si1 0.919327 0.810368 0.581401
Si Si2 0.931185 0.073645 0.793828
Si Si3 0.308812 0.328724 0.344132
Si Si4 0.886055 0.412806 0.994930
Si Si5 0.486344 0.511633 0.711256
O O1 0.711205 0.858956 0.607875
O O2 0.925730 0.953475 0.409741
O O3 0.132388 0.539147 0.508879
O O4 0.931053 0.873633 0.764032
O O5 0.988621 0.156333 0.922175
O O6 0.691447 0.300392 0.783016
O O7 0.215326 0.436860 0.171069
O O8 0.519300 0.280001 0.282372
O O9 0.694967 0.477475 0.165369
O O10 0.000000 0.500000 0.000000
O O11 0.500000 0.500000 0.500000
#
# Coordination Sequence:
#
# PCOD9001179 Si02
#       5
#     2   2   2   2   2
#     4   8  16  32  62  82 100 146 178 223 271 315
#     4   9  18  35  57  78 118 134 183 222 270 313
#     4   9  18  35  61  74 112 140 184 213 278 323
#     4  10  21  34  56  80 109 145 182 220 269 322
#     4  10  21  34  56  80 109 145 182 220 269 322
#
# _framework density 26.336791999999999
#
# number of rings (size 3 to 8) (size 9 to 14) (size 15 to 20)
#    0.000    3.200    0.000    2.400   11.200    0.000 
#    0.000    6.000    8.800    0.000    0.000    0.000 
#    0.000    0.000    0.000    0.000    0.000    0.000 
#
# Total GULP energy -55682.530376 kJ/mol
# GULP energy per Si atom -5568.253038 kJ/mol
# Density = 2.627685 g / cm^3
# Si number density = 26.336792 Si / 1000 Ang^3
#
#
#
# Elastic Constant Matrix: (Units=GPa)
#
#
# Indices 1 2 3 4 5 6 
#
# 1 252.7214 68.8998 83.4105 22.6438 16.4484 62.5202
# 2 68.8998 60.1940 -10.7415 36.9119 -14.2684 46.7633
# 3 83.4105 -10.7415 148.7081 53.5901 22.6469 41.4610
# 4 22.6438 36.9119 53.5901 -19.9346 28.1373 -14.0442
# 5 16.4484 -14.2684 22.6469 28.1373 59.0254 0.5416
# 6 62.5202 46.7633 41.4610 -14.0442 0.5416 72.1610
#
#
#
# Elastic Compliance Matrix: (Units=1/GPa)
#
#
# Indices 1 2 3 4 5 6 
#
# 1 0.006674 -0.003830 -0.001960 -0.003360 -0.000406 -0.002826
# 2 -0.003830 0.012803 -0.001276 0.014085 -0.002049 -0.001489
# 3 -0.001960 -0.001276 0.006431 0.005719 -0.004956 -0.000020
# 4 -0.003360 0.014085 0.005719 -0.001469 0.002937 -0.009810
# 5 -0.000406 -0.002049 -0.004956 0.002937 0.017016 0.004971
# 6 -0.002826 -0.001489 -0.000020 -0.009810 0.004971 0.015336
#
#
# Mechanical properties :
#
#
# Convention : Reuss Voigt Hill
#
# Bulk Modulus (GPa) = 84.89991 82.75122 83.82557
# Shear Modulus (GPa) = 66.80193 43.58735 55.19464
#
# Velocity S-wave (km/s) = 5.04178 4.07258 4.58287
# Velocity P-wave (km/s) = 8.13627 7.32142 7.73958
#
# Compressibility (1/GPa) = 0.01177858
#
# Stress axis : x y z
#
# Youngs Moduli (GPa) = 149.82587 78.10510 155.49922
#
# Poissons Ratio (x) = 0.29912 0.30473
# Poissons Ratio (y) = 0.57380 0.19835
# Poissons Ratio (z) = 0.29361 0.09963
#
# Static dielectric constant tensor:
#      x y z
#    x 2.074130 0.024930 0.024250 
#    y 0.024930 1.942810 0.536610 
#    z 0.024250 0.536610 1.410730 
# 
# From -- ./inp_files/147807.got.cif
#   From: 2010.05.17/outbox.cif.g08.bks.cpg/sg2_74_cif.got.tgz:147807.got - 2010.06.03 11:33:40.
