data_PCOD9001019
_publ_section_title
;
Structure prediction by ZEFSAII (Michael W. Deem and Ramdas Pophale) SiO2 
 PCOD9001019
Probable space group: P -1
;
_chemical_formula_sum "Si O2"
_cell_formula_units_Z 16
_cell_length_a 7.831697
_cell_length_b 7.185628
_cell_length_c 12.109727
_cell_angle_alpha 96.975435
_cell_angle_beta 89.876739
_cell_angle_gamma 108.327646
_cell_volume 641.655846
_symmetry_space_group_name_H-M "P -1"
_symmetry_group_IT_number 2
_symmetry_cell_setting 'triclinic'
loop_
_space_group_symop_operation_xyz
x,y,z
-x,-y,-z
loop_
_atom_site_type_symbol
_atom_site_label
_atom_site_fract_x
_atom_site_fract_y
_atom_site_fract_z
Si Si1 0.596061 0.673687 0.388128
Si Si2 0.734725 0.369792 0.493460
Si Si3 0.360167 0.615199 0.074668
Si Si4 0.323919 0.307556 0.225961
Si Si5 0.006204 0.624336 0.682883
Si Si6 0.007854 0.623121 0.122403
Si Si7 0.250579 0.138607 0.817886
Si Si8 0.408324 0.849361 0.890938
O O1 0.707965 0.568970 0.455376
O O2 0.462097 0.750462 0.469086
O O3 0.454949 0.491078 0.308128
O O4 0.718218 0.820206 0.309423
O O5 0.876195 0.442004 0.597342
O O6 0.825469 0.281493 0.390237
O O7 0.300708 0.397552 0.112063
O O8 0.224405 0.714624 0.139099
O O9 0.347655 0.645328 0.945816
O O10 0.000000 0.500000 0.000000
O O11 0.126501 0.249493 0.275990
O O12 0.441323 0.163975 0.196700
O O13 0.054501 0.518553 0.782278
O O14 0.910313 0.787987 0.133955
O O15 0.255045 0.925671 0.843593
O O16 0.437645 0.278991 0.880057
O O17 0.500000 0.000000 0.000000
#
# Coordination Sequence:
#
# PCOD9001019 Si02
#       8
#     2   2   2   2   2   2   2   2
#     4   9  17  31  57  83 104 138 188 240 286 335
#     4   9  16  31  56  85 103 134 186 250 285 316
#     4   9  21  35  55  76 111 152 192 230 263 333
#     4   9  18  32  55  79 110 145 188 234 279 331
#     4   9  18  31  52  86 111 134 183 245 279 327
#     4  11  23  33  56  89 115 149 191 232 282 339
#     4  10  21  37  54  82 117 152 182 234 288 333
#     4  10  21  33  54  77 115 164 190 220 281 340
#
# _framework density 24.935485
#
# number of rings (size 3 to 8) (size 9 to 14) (size 15 to 20)
#    0.000    2.500    1.250    1.125   10.500    0.500 
#    0.000    0.000    5.500    7.500    0.000    0.000 
#    0.000    0.000    0.000    0.000    0.000    0.000 
#
# Total GULP energy -89388.744546 kJ/mol
# GULP energy per Si atom -5586.796534 kJ/mol
# Density = 2.487873 g / cm^3
# Si number density = 24.935485 Si / 1000 Ang^3
#
#
#
# Elastic Constant Matrix: (Units=GPa)
#
#
# Indices 1 2 3 4 5 6 
#
# 1 161.0169 40.3707 29.7836 11.8419 -30.8507 -55.5451
# 2 40.3707 85.7274 31.3404 -1.6495 -7.9162 -27.4235
# 3 29.7836 31.3404 135.3050 -13.9290 -6.1583 -15.3520
# 4 11.8419 -1.6495 -13.9290 29.4170 -10.9686 1.6518
# 5 -30.8507 -7.9162 -6.1583 -10.9686 54.2565 6.2734
# 6 -55.5451 -27.4235 -15.3520 1.6518 6.2734 38.3936
#
#
#
# Elastic Compliance Matrix: (Units=1/GPa)
#
#
# Indices 1 2 3 4 5 6 
#
# 1 0.014874 0.000489 -0.001436 -0.006038 0.004743 0.020779
# 2 0.000489 0.015957 -0.002606 -0.000824 0.000877 0.010955
# 3 -0.001436 -0.002606 0.008772 0.004963 0.000894 -0.000790
# 4 -0.006038 -0.000824 0.004963 0.041777 0.006637 -0.010222
# 5 0.004743 0.000877 0.000894 0.006637 0.022245 0.003925
# 6 0.020779 0.010955 -0.000790 -0.010222 0.003925 0.063416
#
#
# Mechanical properties :
#
#
# Convention : Reuss Voigt Hill
#
# Bulk Modulus (GPa) = 30.76991 65.00431 47.88711
# Shear Modulus (GPa) = 27.03012 43.11705 35.07359
#
# Velocity S-wave (km/s) = 3.29599 4.16281 3.75450
# Velocity P-wave (km/s) = 5.18183 7.01647 6.16775
#
# Compressibility (1/GPa) = 0.03249928
#
# Stress axis : x y z
#
# Youngs Moduli (GPa) = 67.22970 62.66929 113.99618
#
# Poissons Ratio (x) = -0.03065 0.16365
# Poissons Ratio (y) = -0.03288 0.29703
# Poissons Ratio (z) = 0.09651 0.16329
#
# Static dielectric constant tensor:
#      x y z
#    x 2.081220 0.051140 0.021490 
#    y 0.051140 2.053080 0.031170 
#    z 0.021490 0.031170 2.027760 
# 
# From -- ./inp_files/376406.got.cif
#   From: 2010.05.17/outbox.cif.g08.bks.cpg/sg2_189_cif.got.tgz:376406.got - 2010.06.03 11:33:40.
