data_PCOD9001103
_publ_section_title
;
Structure prediction by ZEFSAII (Michael W. Deem and Ramdas Pophale) SiO2 
 PCOD9001103
Probable space group: P -1
;
_chemical_formula_sum "Si O2"
_cell_formula_units_Z 14
_cell_length_a 11.420501
_cell_length_b 5.019176
_cell_length_c 20.284477
_cell_angle_alpha 94.207170
_cell_angle_beta 138.622975
_cell_angle_gamma 91.924268
_cell_volume 759.551889
_symmetry_space_group_name_H-M "P -1"
_symmetry_group_IT_number 2
_symmetry_cell_setting 'triclinic'
loop_
_space_group_symop_operation_xyz
x,y,z
-x,-y,-z
loop_
_atom_site_type_symbol
_atom_site_label
_atom_site_fract_x
_atom_site_fract_y
_atom_site_fract_z
Si Si1 0.845489 0.714831 0.490430
Si Si2 0.351152 0.838806 0.387368
Si Si3 0.880633 0.231461 0.590529
Si Si4 0.196358 0.507455 0.111443
Si Si5 0.347406 0.317240 0.297094
Si Si6 0.569174 0.915302 0.799143
Si Si7 0.205508 0.070010 0.662608
O O1 0.831449 0.450775 0.522618
O O2 0.059281 0.819142 0.572757
O O3 0.788504 0.946447 0.517840
O O4 0.759427 0.737808 0.383137
O O5 0.188867 0.727642 0.365474
O O6 0.412750 0.581796 0.371826
O O7 0.500000 0.000000 0.500000
O O8 0.297122 0.060494 0.317529
O O9 0.091847 0.210748 0.670966
O O10 0.196041 0.407564 0.185833
O O11 0.312154 0.294296 0.122249
O O12 0.305846 0.803921 0.156671
O O13 0.000000 0.500000 0.000000
O O14 0.479301 0.221369 0.295590
O O15 0.389078 0.972340 0.758820
#
# Coordination Sequence:
#
# PCOD9001103 Si02
#       7
#     2   2   2   2   2   2   2
#     4   9  20  33  51  74 108 148 196 233 276 304
#     4  12  24  37  52  80 119 163 197 223 258 337
#     4  10  21  34  50  72 105 155 194 226 269 316
#     4  10  21  39  62  89 114 137 185 244 311 347
#     4  10  22  39  54  82 113 149 189 230 286 330
#     4  10  21  34  61  85 116 137 183 238 301 338
#     4   9  21  33  54  78 110 144 192 240 283 320
#
# _framework density 18.431922
#
# number of rings (size 3 to 8) (size 9 to 14) (size 15 to 20)
#    1.714    0.286    1.429    2.143    4.000    1.143 
#    0.000    0.000    0.000    0.000    0.000    6.000 
#    0.000    0.000    0.000    0.000    0.000    0.000 
#
# Total GULP energy -77988.184671 kJ/mol
# GULP energy per Si atom -5570.584619 kJ/mol
# Density = 1.838997 g / cm^3
# Si number density = 18.431922 Si / 1000 Ang^3
#
#
#
# Elastic Constant Matrix: (Units=GPa)
#
#
# Indices 1 2 3 4 5 6 
#
# 1 64.4818 34.6470 24.6014 -1.0379 10.2975 -0.8378
# 2 34.6470 121.7659 25.0078 -12.6076 12.0377 -9.0896
# 3 24.6014 25.0078 68.6381 -9.4759 21.1458 2.3110
# 4 -1.0379 -12.6076 -9.4759 19.9209 -2.7515 0.5618
# 5 10.2975 12.0377 21.1458 -2.7515 22.9688 -6.0111
# 6 -0.8378 -9.0896 2.3110 0.5618 -6.0111 20.6774
#
#
#
# Elastic Compliance Matrix: (Units=1/GPa)
#
#
# Indices 1 2 3 4 5 6 
#
# 1 0.020635 -0.005142 -0.005373 -0.005053 -0.002592 -0.001440
# 2 -0.005142 0.010930 -0.001415 0.005816 -0.000238 0.004527
# 3 -0.005373 -0.001415 0.025156 0.008079 -0.021705 -0.010181
# 4 -0.005053 0.005816 0.008079 0.057267 -0.001503 -0.000544
# 5 -0.002592 -0.000238 -0.021705 -0.001503 0.070587 0.022777
# 6 -0.001440 0.004527 -0.010181 -0.000544 0.022777 0.058068
#
#
# Mechanical properties :
#
#
# Convention : Reuss Voigt Hill
#
# Bulk Modulus (GPa) = 30.43277 47.04425 38.73851
# Shear Modulus (GPa) = 18.02079 24.08873 21.05476
#
# Velocity S-wave (km/s) = 3.13020 3.61903 3.38346
# Velocity P-wave (km/s) = 5.44160 6.56063 6.02714
#
# Compressibility (1/GPa) = 0.03285931
#
# Stress axis : x y z
#
# Youngs Moduli (GPa) = 48.46104 91.49120 39.75271
#
# Poissons Ratio (x) = 0.47048 0.21359
# Poissons Ratio (y) = 0.24921 0.05626
# Poissons Ratio (z) = 0.26039 0.12948
#
# Static dielectric constant tensor:
#      x y z
#    x 1.676710 -0.013040 0.027090 
#    y -0.013040 1.689300 0.005650 
#    z 0.027090 0.005650 1.627840 
# 
# From -- ./inp_files/592322.got.cif
#   From: 2010.05.17/outbox.cif.g08.bks.cpg/sg2_297_cif.got.tgz:592322.got - 2010.06.03 11:33:40.
