data_PCOD9001109
_publ_section_title
;
Structure prediction by ZEFSAII (Michael W. Deem and Ramdas Pophale) SiO2 
 PCOD9001109
Probable space group: P -1
;
_chemical_formula_sum "Si O2"
_cell_formula_units_Z 14
_cell_length_a 16.519280
_cell_length_b 12.552304
_cell_length_c 16.192520
_cell_angle_alpha 43.300742
_cell_angle_beta 162.312883
_cell_angle_gamma 137.336134
_cell_volume 685.268656
_symmetry_space_group_name_H-M "P -1"
_symmetry_group_IT_number 2
_symmetry_cell_setting 'triclinic'
loop_
_space_group_symop_operation_xyz
x,y,z
-x,-y,-z
loop_
_atom_site_type_symbol
_atom_site_label
_atom_site_fract_x
_atom_site_fract_y
_atom_site_fract_z
Si Si1 0.716189 0.795248 0.855887
Si Si2 0.441336 0.425993 0.304714
Si Si3 0.222561 0.927142 0.372672
Si Si4 0.780200 0.036056 0.202016
Si Si5 0.547600 0.290039 0.745664
Si Si6 0.853990 0.315441 0.874245
Si Si7 0.066067 0.042661 0.323133
O O1 0.601830 0.621712 0.805221
O O2 0.498147 0.871378 0.650069
O O3 0.789772 0.910442 0.781812
O O4 0.976539 0.804212 0.160951
O O5 0.571184 0.600076 0.367046
O O6 0.630399 0.311314 0.589025
O O7 0.143059 0.397157 0.072544
O O8 0.187319 0.946928 0.424759
O O9 0.857405 0.953283 0.239353
O O10 0.760776 0.208531 0.049238
O O11 0.000000 0.000000 0.500000
O O12 0.500000 0.000000 0.000000
O O13 0.714715 0.384186 0.778489
O O14 0.309994 0.158321 0.545959
O O15 0.900907 0.149523 0.048457
#
# Coordination Sequence:
#
# PCOD9001109 Si02
#       7
#     2   2   2   2   2   2   2
#     4  10  21  34  51  77 118 162 193 225 255 317
#     4  12  23  35  53  83 124 162 190 219 277 333
#     4  10  21  34  53  78 114 157 200 225 262 317
#     4  11  24  42  61  85 112 140 189 250 307 343
#     4  11  24  36  60  85 116 150 188 235 291 356
#     4  11  22  33  51  84 120 158 187 221 269 341
#     4  11  23  37  60  87 114 152 193 236 289 343
#
# _framework density 20.429942
#
# number of rings (size 3 to 8) (size 9 to 14) (size 15 to 20)
#    0.000    1.143    4.286    1.714   12.000    0.000 
#    0.000    0.000    0.000    0.000    0.000    6.000 
#    0.000    0.000    0.000    0.000    0.000    0.000 
#
# Total GULP energy -78043.459164 kJ/mol
# GULP energy per Si atom -5574.532797 kJ/mol
# Density = 2.038344 g / cm^3
# Si number density = 20.429942 Si / 1000 Ang^3
#
#
#
# Elastic Constant Matrix: (Units=GPa)
#
#
# Indices 1 2 3 4 5 6 
#
# 1 137.1518 23.1142 23.4047 9.7104 16.1220 -15.8558
# 2 23.1142 27.2449 13.7017 11.3812 -9.0667 -17.9140
# 3 23.4047 13.7017 121.1569 12.4092 -6.6356 2.5572
# 4 9.7104 11.3812 12.4092 24.5644 0.0929 -3.4255
# 5 16.1220 -9.0667 -6.6356 0.0929 37.0100 3.0205
# 6 -15.8558 -17.9140 2.5572 -3.4255 3.0205 23.3124
#
#
#
# Elastic Compliance Matrix: (Units=1/GPa)
#
#
# Indices 1 2 3 4 5 6 
#
# 1 0.010139 -0.011858 -0.001216 0.002015 -0.007478 -0.000818
# 2 -0.011858 0.136470 -0.009073 -0.041832 0.029913 0.087776
# 3 -0.001216 -0.009073 0.009922 -0.001619 0.000844 -0.009234
# 4 0.002015 -0.041832 -0.001619 0.057233 -0.009853 -0.020911
# 5 -0.007478 0.029913 0.000844 -0.009853 0.036836 0.011587
# 6 -0.000818 0.087776 -0.009234 -0.020911 0.011587 0.106228
#
#
# Mechanical properties :
#
#
# Convention : Reuss Voigt Hill
#
# Bulk Modulus (GPa) = 8.90970 45.11052 27.01011
# Shear Modulus (GPa) = 11.40160 31.99957 21.70058
#
# Velocity S-wave (km/s) = 2.36494 3.96195 3.26267
# Velocity P-wave (km/s) = 3.43916 6.56186 5.23860
#
# Compressibility (1/GPa) = 0.11223718
#
# Stress axis : x y z
#
# Youngs Moduli (GPa) = 98.62877 7.32759 100.78961
#
# Poissons Ratio (x) = 0.08689 0.12259
# Poissons Ratio (y) = 1.16955 0.91443
# Poissons Ratio (z) = 0.11996 0.06648
#
# Static dielectric constant tensor:
#      x y z
#    x 1.781960 -0.031900 0.017020 
#    y -0.031900 1.794070 0.020790 
#    z 0.017020 0.020790 1.731780 
# 
# From -- ./inp_files/83929.got.cif
#   From: 2010.05.17/outbox.cif.g08.bks.cpg/sg2_42_cif.got.tgz:83929.got - 2010.06.03 11:33:40.
