data_PCOD9001277
_publ_section_title
;
Structure prediction by ZEFSAII (Michael W. Deem and Ramdas Pophale) SiO2 
 PCOD9001277
Probable space group: P -1
;
_chemical_formula_sum "Si O2"
_cell_formula_units_Z 16
_cell_length_a 9.159954
_cell_length_b 18.237882
_cell_length_c 15.789959
_cell_angle_alpha 33.798483
_cell_angle_beta 37.677625
_cell_angle_gamma 30.596113
_cell_volume 719.336882
_symmetry_space_group_name_H-M "P -1"
_symmetry_group_IT_number 2
_symmetry_cell_setting 'triclinic'
loop_
_space_group_symop_operation_xyz
x,y,z
-x,-y,-z
loop_
_atom_site_type_symbol
_atom_site_label
_atom_site_fract_x
_atom_site_fract_y
_atom_site_fract_z
Si Si1 0.040713 0.626903 0.529448
Si Si2 0.402170 0.168644 0.597541
Si Si3 0.685967 0.319162 0.508632
Si Si4 0.630152 0.100212 0.873943
Si Si5 0.354857 0.181466 0.104758
Si Si6 0.091316 0.598012 0.273218
Si Si7 0.145706 0.884750 0.958322
Si Si8 0.728915 0.300008 0.316428
O O1 0.387718 0.506823 0.458297
O O2 0.060716 0.680951 0.560502
O O3 0.834974 0.783220 0.413279
O O4 0.932690 0.511815 0.678065
O O5 0.655567 0.177991 0.432718
O O6 0.189017 0.324191 0.609007
O O7 0.533565 0.003989 0.746106
O O8 0.600825 0.219383 0.699867
O O9 0.792451 0.251226 0.432083
O O10 0.462254 0.187053 0.956488
O O11 0.976041 0.992079 0.849927
O O12 0.500000 0.000000 0.000000
O O13 0.509656 0.210886 0.082330
O O14 0.001134 0.289709 0.163881
O O15 0.419245 0.477922 0.276846
O O16 0.068839 0.756740 0.106890
O O17 0.000000 0.000000 0.000000
#
# Coordination Sequence:
#
# PCOD9001277 Si02
#       8
#     2   2   2   2   2   2   2   2
#     4  10  21  34  60  91 115 158 211 257 290 347
#     4  11  18  39  63  90 118 163 212 248 292 374
#     4  11  21  35  60  93 125 153 207 257 303 359
#     4  11  22  38  63  92 125 165 209 248 305 369
#     4  11  24  40  63  93 127 160 201 255 308 365
#     4  11  19  39  65  90 118 164 216 248 291 374
#     4  10  21  38  63  87 121 166 208 241 298 377
#     4  11  23  39  63  96 123 158 201 261 311 352
#
# _framework density 22.242709000000001
#
# number of rings (size 3 to 8) (size 9 to 14) (size 15 to 20)
#    0.000    1.250    5.000    3.375    1.750    0.500 
#    0.000    5.000    0.000    4.500    0.000    0.000 
#    0.000    0.000    0.000    0.000    0.000    0.000 
#
# Total GULP energy -89207.668913 kJ/mol
# GULP energy per Si atom -5575.479307 kJ/mol
# Density = 2.219208 g / cm^3
# Si number density = 22.242709 Si / 1000 Ang^3
#
#
#
# Elastic Constant Matrix: (Units=GPa)
#
#
# Indices 1 2 3 4 5 6 
#
# 1 134.9486 15.1057 17.2086 1.2435 -9.8349 -5.9794
# 2 15.1057 31.5445 4.9585 -3.2999 -1.7220 -11.3658
# 3 17.2086 4.9585 54.4810 4.3633 -8.3265 1.0377
# 4 1.2435 -3.2999 4.3633 26.6628 -4.0219 -9.5846
# 5 -9.8349 -1.7220 -8.3265 -4.0219 38.5475 -5.1943
# 6 -5.9794 -11.3658 1.0377 -9.5846 -5.1943 18.8144
#
#
#
# Elastic Compliance Matrix: (Units=1/GPa)
#
#
# Indices 1 2 3 4 5 6 
#
# 1 0.008202 -0.002774 -0.002141 0.000557 0.001811 0.001833
# 2 -0.002774 0.055047 -0.005716 0.027083 0.009978 0.049239
# 3 -0.002141 -0.005716 0.020517 -0.006606 0.001847 -0.008120
# 4 0.000557 0.027083 -0.006606 0.062907 0.013590 0.052701
# 5 0.001811 0.009978 0.001847 0.013590 0.031653 0.022163
# 6 0.001833 0.049239 -0.008120 0.052701 0.022163 0.116892
#
#
# Mechanical properties :
#
#
# Convention : Reuss Voigt Hill
#
# Bulk Modulus (GPa) = 15.99863 32.83553 24.41708
# Shear Modulus (GPa) = 14.82296 29.05169 21.93733
#
# Velocity S-wave (km/s) = 2.58431 3.61795 3.14390
# Velocity P-wave (km/s) = 4.01413 5.67866 4.91734
#
# Compressibility (1/GPa) = 0.06250534
#
# Stress axis : x y z
#
# Youngs Moduli (GPa) = 121.92477 18.16633 48.73900
#
# Poissons Ratio (x) = 0.05039 0.10434
# Poissons Ratio (y) = 0.33817 0.27859
# Poissons Ratio (z) = 0.26103 0.10384
#
# Static dielectric constant tensor:
#      x y z
#    x 1.910420 -0.014730 -0.034980 
#    y -0.014730 1.856150 -0.016550 
#    z -0.034980 -0.016550 1.863390 
# 
# From -- ./inp_files/507280.got.cif
#   From: 2010.05.17/outbox.cif.g08.bks.cpg/sg2_254_cif.got.tgz:507280.got - 2010.06.03 11:33:40.
