data_PCOD9001504
_publ_section_title
;
Structure prediction by ZEFSAII (Michael W. Deem and Ramdas Pophale) SiO2 
 PCOD9001504
Probable space group: P -1
;
_chemical_formula_sum "Si O2"
_cell_formula_units_Z 14
_cell_length_a 5.860028
_cell_length_b 8.494493
_cell_length_c 14.810744
_cell_angle_alpha 49.911961
_cell_angle_beta 68.566188
_cell_angle_gamma 71.020825
_cell_volume 520.827318
_symmetry_space_group_name_H-M "P -1"
_symmetry_group_IT_number 2
_symmetry_cell_setting 'triclinic'
loop_
_space_group_symop_operation_xyz
x,y,z
-x,-y,-z
loop_
_atom_site_type_symbol
_atom_site_label
_atom_site_fract_x
_atom_site_fract_y
_atom_site_fract_z
Si Si1 0.552706 0.251113 0.567999
Si Si2 0.263767 0.348029 0.295743
Si Si3 0.231946 0.070496 0.053974
Si Si4 0.555590 0.734846 0.890389
Si Si5 0.934778 0.744326 0.446927
Si Si6 0.301149 0.535372 0.698543
Si Si7 0.173701 0.130654 0.842122
O O1 0.500000 0.500000 0.500000
O O2 0.289310 0.166693 0.619357
O O3 0.655837 0.271363 0.441932
O O4 0.801579 0.169943 0.617521
O O5 0.178211 0.251075 0.437188
O O6 0.496801 0.466242 0.250668
O O7 0.997150 0.448143 0.257420
O O8 0.374979 0.228263 0.236291
O O9 0.112072 0.167530 0.943678
O O10 0.328892 0.908886 0.882768
O O11 0.240886 0.217630 0.082945
O O12 0.500000 0.000000 0.000000
O O13 0.914166 0.124210 0.832504
O O14 0.500000 0.500000 0.000000
O O15 0.000000 0.500000 0.500000
O O16 0.346176 0.305948 0.731066
#
# Coordination Sequence:
#
# PCOD9001504 Si02
#       7
#     2   2   2   2   2   2   2
#     4   8  14  27  48  78 106 129 169 220 269 314
#     4  10  22  35  55  86 112 139 185 234 277 325
#     4   9  21  38  55  74 102 148 193 228 277 328
#     4  11  24  36  53  77 113 148 184 233 283 324
#     4   8  14  28  49  76 107 134 169 219 272 318
#     4  10  21  35  57  82 110 143 184 230 272 329
#     4  10  22  37  56  74 106 150 192 230 272 334
#
# _framework density 26.880310000000001
#
# number of rings (size 3 to 8) (size 9 to 14) (size 15 to 20)
#    0.000    2.571    0.000    0.857   12.000    0.571 
#    0.000    0.000    0.000    0.000    0.000   32.000 
#    0.000    0.000    0.000    0.000    0.000    0.000 
#
# Total GULP energy -78048.280111 kJ/mol
# GULP energy per Si atom -5574.877151 kJ/mol
# Density = 2.681913 g / cm^3
# Si number density = 26.880310 Si / 1000 Ang^3
#
#
#
# Elastic Constant Matrix: (Units=GPa)
#
#
# Indices 1 2 3 4 5 6 
#
# 1 294.4790 69.3900 45.0151 -4.1275 -7.9487 31.5689
# 2 69.3900 106.6498 43.2727 11.9798 7.2225 32.0759
# 3 45.0151 43.2727 78.2290 11.4035 -6.1070 10.7458
# 4 -4.1275 11.9798 11.4035 42.6037 7.4130 2.0195
# 5 -7.9487 7.2225 -6.1070 7.4130 39.6832 -3.1542
# 6 31.5689 32.0759 10.7458 2.0195 -3.1542 49.8346
#
#
#
# Elastic Compliance Matrix: (Units=1/GPa)
#
#
# Indices 1 2 3 4 5 6 
#
# 1 0.004237 -0.002126 -0.001246 0.001266 0.000724 -0.001053
# 2 -0.002126 0.016503 -0.006919 -0.001779 -0.004799 -0.008015
# 3 -0.001246 -0.006919 0.018009 -0.003891 0.004652 0.001812
# 4 0.001266 -0.001779 -0.003891 0.025996 -0.004892 -0.000181
# 5 0.000724 -0.004799 0.004652 -0.004892 0.028134 0.003606
# 6 -0.001053 -0.008015 0.001812 -0.000181 0.003606 0.025737
#
#
# Mechanical properties :
#
#
# Convention : Reuss Voigt Hill
#
# Bulk Modulus (GPa) = 55.04667 88.30148 71.67407
# Shear Modulus (GPa) = 34.42247 47.86963 41.14605
#
# Velocity S-wave (km/s) = 3.58241 4.22458 3.91668
# Velocity P-wave (km/s) = 6.13469 7.53109 6.86847
#
# Compressibility (1/GPa) = 0.01816640
#
# Stress axis : x y z
#
# Youngs Moduli (GPa) = 235.99548 60.59601 55.52886
#
# Poissons Ratio (x) = 0.12884 0.06917
# Poissons Ratio (y) = 0.50178 0.38423
# Poissons Ratio (z) = 0.29395 0.41929
#
# Static dielectric constant tensor:
#      x y z
#    x 2.198580 -0.025650 -0.052030 
#    y -0.025650 2.191950 0.029940 
#    z -0.052030 0.029940 2.372300 
# 
# From -- ./inp_files/581546.got.cif
#   From: 2010.05.17/outbox.cif.g08.bks.cpg/sg2_291_cif.got.tgz:581546.got - 2010.06.03 11:33:40.
