data_PCOD9001462
_publ_section_title
;
Structure prediction by ZEFSAII (Michael W. Deem and Ramdas Pophale) SiO2 
 PCOD9001462
Probable space group: P -1
;
_chemical_formula_sum "Si O2"
_cell_formula_units_Z 16
_cell_length_a 4.815573
_cell_length_b 13.224711
_cell_length_c 24.482339
_cell_angle_alpha 24.887339
_cell_angle_beta 86.371122
_cell_angle_gamma 82.219179
_cell_volume 643.446034
_symmetry_space_group_name_H-M "P -1"
_symmetry_group_IT_number 2
_symmetry_cell_setting 'triclinic'
loop_
_space_group_symop_operation_xyz
x,y,z
-x,-y,-z
loop_
_atom_site_type_symbol
_atom_site_label
_atom_site_fract_x
_atom_site_fract_y
_atom_site_fract_z
Si Si1 0.667820 0.298779 0.391752
Si Si2 0.187762 0.079251 0.087500
Si Si3 0.326027 0.898766 0.288905
Si Si4 0.391869 0.711859 0.855606
Si Si5 0.752460 0.014005 0.427085
Si Si6 0.189497 0.527146 0.537118
Si Si7 0.058066 0.356266 0.180625
Si Si8 0.784787 0.761730 0.215917
O O1 0.592434 0.216616 0.372437
O O2 0.663860 0.583728 0.262615
O O3 0.471448 0.160439 0.500889
O O4 0.995331 0.177454 0.454508
O O5 0.137132 0.025530 0.179251
O O6 0.522540 0.978498 0.128075
O O7 0.035544 0.911811 0.131984
O O8 0.072108 0.363984 0.938885
O O9 0.204498 0.809269 0.390737
O O10 0.502984 0.646632 0.385451
O O11 0.561688 0.047111 0.232616
O O12 0.079882 0.686732 0.855047
O O13 0.606177 0.679185 0.816630
O O14 0.500000 0.500000 0.000000
O O15 0.928602 0.167246 0.311788
O O16 0.094864 0.430840 0.642418
O O17 0.000000 0.500000 0.500000
#
# Coordination Sequence:
#
# PCOD9001462 Si02
#       8
#     2   2   2   2   2   2   2   2
#     4  10  22  44  69  96 129 158 207 266 333 374
#     4  11  23  41  59  85 131 164 208 254 314 364
#     4  10  23  37  52  84 120 163 204 255 307 351
#     4  12  26  40  63  90 127 172 218 255 303 379
#     4  10  23  43  68  97 129 162 200 272 325 380
#     4  10  21  35  56  81 122 159 203 257 302 366
#     4  12  26  42  64  94 126 172 216 260 315 375
#     4  11  23  38  64  91 119 169 208 255 315 382
#
# _framework density 24.866109999999999
#
# number of rings (size 3 to 8) (size 9 to 14) (size 15 to 20)
#    0.000    1.250    2.500    2.625    7.000    0.000 
#    0.000    1.250    0.000    0.000    0.000    0.000 
#    0.000    0.000    0.000    0.000    0.000    0.000 
#
# Total GULP energy -89300.936688 kJ/mol
# GULP energy per Si atom -5581.308543 kJ/mol
# Density = 2.480951 g / cm^3
# Si number density = 24.866110 Si / 1000 Ang^3
#
#
#
# Elastic Constant Matrix: (Units=GPa)
#
#
# Indices 1 2 3 4 5 6 
#
# 1 111.0325 -0.0563 7.8083 -11.3373 -7.5027 1.1782
# 2 -0.0563 58.7348 5.9499 -24.8395 -5.5007 -1.9844
# 3 7.8083 5.9499 50.0342 -24.1461 -12.8547 -10.7030
# 4 -11.3373 -24.8395 -24.1461 34.6419 1.7112 -10.8263
# 5 -7.5027 -5.5007 -12.8547 1.7112 35.7123 -10.3373
# 6 1.1782 -1.9844 -10.7030 -10.8263 -10.3373 34.7034
#
#
#
# Elastic Compliance Matrix: (Units=1/GPa)
#
#
# Indices 1 2 3 4 5 6 
#
# 1 -0.074126 -0.444490 -0.731227 -1.055366 -0.507651 -0.728876
# 2 -0.444490 -2.356678 -3.898517 -5.633695 -2.715212 -3.888344
# 3 -0.731227 -3.898517 -6.372203 -9.248445 -4.449633 -6.374015
# 4 -1.055366 -5.633695 -9.248445-13.368521 -6.449682 -9.230395
# 5 -0.507651 -2.715212 -4.449633 -6.449682 -3.074124 -4.438145
# 6 -0.728876 -3.888344 -6.374015 -9.230395 -4.438145 -6.336204
#
#
# Mechanical properties :
#
#
# Convention : Reuss Voigt Hill
#
# Bulk Modulus (GPa) = -0.05277 27.46727 13.70725
# Shear Modulus (GPa) = -0.18018 34.75148 17.28565
#
# Velocity S-wave (km/s) = -0.26947 3.74243 2.63943
# Velocity P-wave (km/s) = 0.34364 5.45384 3.84879
#
# Compressibility (1/GPa) = -18.95147325
#
# Stress axis : x y z
#
# Youngs Moduli (GPa) = -13.49062 -0.42433 -0.15693
#
# Poissons Ratio (x) = -0.18861 -0.11475
# Poissons Ratio (y) = -5.99644 -0.61180
# Poissons Ratio (z) = -9.86470 -1.65424
#
# Static dielectric constant tensor:
#      x y z
#    x 1.900950 -0.105850 0.049070 
#    y -0.105850 2.066630 0.130520 
#    z 0.049070 0.130520 1.795370 
# 
# From -- ./inp_files/615640.got.cif
#   From: 2010.05.17/outbox.cif.g08.bks.cpg/sg2_308_cif.got.tgz:615640.got - 2010.06.03 11:33:40.
