data_PCOD9001394
_publ_section_title
;
Structure prediction by ZEFSAII (Michael W. Deem and Ramdas Pophale) SiO2 
 PCOD9001394
Probable space group: P -1
;
_chemical_formula_sum "Si O2"
_cell_formula_units_Z 14
_cell_length_a 6.038097
_cell_length_b 27.405394
_cell_length_c 7.809825
_cell_angle_alpha 29.751548
_cell_angle_beta 120.030223
_cell_angle_gamma 119.831010
_cell_volume 549.229818
_symmetry_space_group_name_H-M "P -1"
_symmetry_group_IT_number 2
_symmetry_cell_setting 'triclinic'
loop_
_space_group_symop_operation_xyz
x,y,z
-x,-y,-z
loop_
_atom_site_type_symbol
_atom_site_label
_atom_site_fract_x
_atom_site_fract_y
_atom_site_fract_z
Si Si1 0.635404 0.127450 0.240569
Si Si2 0.411663 0.928972 0.960686
Si Si3 0.489709 0.355672 0.051921
Si Si4 0.565818 0.439923 0.442155
Si Si5 0.946639 0.309480 0.894945
Si Si6 0.885311 0.970087 0.233098
Si Si7 0.025049 0.383635 0.324098
O O1 0.540865 0.139805 0.972610
O O2 0.917876 0.095207 0.412568
O O3 0.477959 0.037669 0.560288
O O4 0.701920 0.224593 0.084428
O O5 0.149081 0.939471 0.928462
O O6 0.604688 0.916344 0.230224
O O7 0.501384 0.397202 0.736971
O O8 0.446925 0.444369 0.893790
O O9 0.208048 0.288357 0.150733
O O10 0.783183 0.336598 0.257620
O O11 0.844100 0.411937 0.590138
O O12 0.329966 0.391591 0.375806
O O13 0.987381 0.319825 0.676706
O O14 0.000000 0.000000 0.000000
O O15 0.000000 0.500000 0.000000
#
# Coordination Sequence:
#
# PCOD9001394 Si02
#       7
#     2   2   2   2   2   2   2
#     4  10  21  35  54  84 116 149 185 230 289 341
#     4   9  19  37  59  80 113 151 185 229 281 343
#     4   9  19  36  55  77 109 148 190 237 285 334
#     4   9  19  36  56  79 108 146 190 235 287 341
#     4  11  22  34  55  86 114 146 193 238 282 343
#     4   9  18  36  61  84 104 142 191 229 278 343
#     4   9  20  37  55  78 109 147 191 236 285 339
#
# _framework density 25.490241000000001
#
# number of rings (size 3 to 8) (size 9 to 14) (size 15 to 20)
#    0.000    2.571    0.000    1.714    0.000    6.857 
#    0.000    2.857    0.000    0.000    0.000    0.000 
#    0.000    0.000    0.000    0.000    0.000    0.000 
#
# Total GULP energy -78025.642598 kJ/mol
# GULP energy per Si atom -5573.260186 kJ/mol
# Density = 2.543222 g / cm^3
# Si number density = 25.490241 Si / 1000 Ang^3
#
#
#
# Elastic Constant Matrix: (Units=GPa)
#
#
# Indices 1 2 3 4 5 6 
#
# 1 67.2720 27.1877 15.2139 13.5184 2.1715 -9.2993
# 2 27.1877 116.5390 18.3034 21.3528 -3.3245 20.5416
# 3 15.2139 18.3034 40.6803 7.6605 3.3489 8.4357
# 4 13.5184 21.3528 7.6605 36.6056 8.4806 5.0896
# 5 2.1715 -3.3245 3.3489 8.4806 37.1825 9.1925
# 6 -9.2993 20.5416 8.4357 5.0896 9.1925 37.0639
#
#
#
# Elastic Compliance Matrix: (Units=1/GPa)
#
#
# Indices 1 2 3 4 5 6 
#
# 1 0.020855 -0.005015 -0.006763 -0.004224 -0.002768 0.010818
# 2 -0.005015 0.012520 -0.001461 -0.005090 0.004769 -0.008349
# 3 -0.006763 -0.001461 0.029643 -0.001791 -0.000182 -0.007343
# 4 -0.004224 -0.005090 -0.001791 0.034083 -0.007670 -0.000609
# 5 -0.002768 0.004769 -0.000182 -0.007670 0.031749 -0.010117
# 6 0.010818 -0.008349 -0.007343 -0.000609 -0.010117 0.038586
#
#
# Mechanical properties :
#
#
# Convention : Reuss Voigt Hill
#
# Bulk Modulus (GPa) = 27.36640 38.43349 32.89995
# Shear Modulus (GPa) = 24.26066 33.08948 28.67507
#
# Velocity S-wave (km/s) = 3.08841 3.60686 3.35766
# Velocity P-wave (km/s) = 4.84531 5.69705 5.28836
#
# Compressibility (1/GPa) = 0.03654116
#
# Stress axis : x y z
#
# Youngs Moduli (GPa) = 47.95060 79.87002 33.73435
#
# Poissons Ratio (x) = 0.40054 0.22815
# Poissons Ratio (y) = 0.24047 0.04928
# Poissons Ratio (z) = 0.32429 0.11667
#
# Static dielectric constant tensor:
#      x y z
#    x 2.046760 0.074080 0.019270 
#    y 0.074080 2.168320 -0.097650 
#    z 0.019270 -0.097650 2.055480 
# 
# From -- ./inp_files/43522.got.cif
#   From: 2010.05.17/outbox.cif.g08.bks.cpg/sg2_22_cif.got.tgz:43522.got - 2010.06.03 11:33:40.
