data_PCOD9001727
_publ_section_title
;
Structure prediction by ZEFSAII (Michael W. Deem and Ramdas Pophale) SiO2 
 PCOD9001727
Probable space group: P -1
;
_chemical_formula_sum "Si O2"
_cell_formula_units_Z 14
_cell_length_a 12.322308
_cell_length_b 9.816404
_cell_length_c 16.459830
_cell_angle_alpha 117.746161
_cell_angle_beta 155.501058
_cell_angle_gamma 51.552680
_cell_volume 615.024875
_symmetry_space_group_name_H-M "P -1"
_symmetry_group_IT_number 2
_symmetry_cell_setting 'triclinic'
loop_
_space_group_symop_operation_xyz
x,y,z
-x,-y,-z
loop_
_atom_site_type_symbol
_atom_site_label
_atom_site_fract_x
_atom_site_fract_y
_atom_site_fract_z
Si Si1 0.888457 0.692140 0.170427
Si Si2 0.283855 0.948604 0.290717
Si Si3 0.582841 0.143485 0.832327
Si Si4 0.222926 0.542993 0.762739
Si Si5 0.650196 0.306346 0.254301
Si Si6 0.459891 0.988892 0.852281
Si Si7 0.334244 0.446891 0.526664
O O1 0.223034 0.548214 0.392826
O O2 0.695434 0.822699 0.151753
O O3 0.708985 0.595786 0.993001
O O4 0.799162 0.842030 0.081077
O O5 0.370367 0.916458 0.245280
O O6 0.360985 0.753087 0.321487
O O7 0.500000 0.000000 0.500000
O O8 0.914741 0.093491 0.081523
O O9 0.344409 0.358699 0.741988
O O10 0.474887 0.034225 0.782863
O O11 0.165150 0.693915 0.698581
O O12 0.932324 0.583358 0.629288
O O13 0.500000 0.500000 0.000000
O O14 0.722125 0.110395 0.278043
O O15 0.659134 0.418140 0.366396
#
# Coordination Sequence:
#
# PCOD9001727 Si02
#       7
#     2   2   2   2   2   2   2
#     4   9  20  38  60  94 138 154 200 253 324 378
#     4  11  27  43  65  90 126 172 220 264 311 371
#     4  11  23  46  64  90 132 165 213 259 319 384
#     4  12  20  37  68  96 125 165 204 269 321 369
#     4  10  21  35  61  95 129 160 200 263 311 375
#     4   9  19  43  60  95 131 172 190 258 331 374
#     4  12  22  39  64  98 123 161 221 263 309 372
#
# _framework density 22.763307000000001
#
# number of rings (size 3 to 8) (size 9 to 14) (size 15 to 20)
#    0.857    0.571    4.286    1.286    0.000    0.571 
#    2.571    1.429    0.000    0.000    0.000    0.000 
#    0.000    0.000    0.000    0.000    0.000    0.000 
#
# Total GULP energy -78226.060903 kJ/mol
# GULP energy per Si atom -5587.575779 kJ/mol
# Density = 2.271150 g / cm^3
# Si number density = 22.763307 Si / 1000 Ang^3
#
#
#
# Elastic Constant Matrix: (Units=GPa)
#
#
# Indices 1 2 3 4 5 6 
#
# 1 91.0227 34.8170 23.2159 -14.2897 -4.9180 22.6374
# 2 34.8170 43.8733 32.7063 -1.1272 -0.9568 16.0579
# 3 23.2159 32.7063 111.4526 11.1567 -16.3474 4.5037
# 4 -14.2897 -1.1272 11.1567 43.8830 5.0549 -4.7839
# 5 -4.9180 -0.9568 -16.3474 5.0549 31.4062 -11.5525
# 6 22.6374 16.0579 4.5037 -4.7839 -11.5525 29.2176
#
#
#
# Elastic Compliance Matrix: (Units=1/GPa)
#
#
# Indices 1 2 3 4 5 6 
#
# 1 0.017938 -0.010385 -0.001166 0.005225 -0.001857 -0.007890
# 2 -0.010385 0.049543 -0.013855 0.000721 -0.015999 -0.023255
# 3 -0.001166 -0.013855 0.015076 -0.004823 0.011710 0.010034
# 4 0.005225 0.000721 -0.004823 0.026279 -0.006645 -0.002026
# 5 -0.001857 -0.015999 0.011710 -0.006645 0.047892 0.026275
# 6 -0.007890 -0.023255 0.010034 -0.002026 0.026275 0.061630
#
#
# Mechanical properties :
#
#
# Convention : Reuss Voigt Hill
#
# Bulk Modulus (GPa) = 31.49903 47.53635 39.51769
# Shear Modulus (GPa) = 17.87304 31.27533 24.57418
#
# Velocity S-wave (km/s) = 2.80513 3.71069 3.28922
# Velocity P-wave (km/s) = 4.93552 6.26795 5.64121
#
# Compressibility (1/GPa) = 0.03174701
#
# Stress axis : x y z
#
# Youngs Moduli (GPa) = 55.74773 20.18436 66.33115
#
# Poissons Ratio (x) = 0.20961 0.07732
# Poissons Ratio (y) = 0.57893 0.91899
# Poissons Ratio (z) = 0.06498 0.27965
#
# Static dielectric constant tensor:
#      x y z
#    x 1.819630 0.037130 0.001340 
#    y 0.037130 1.816190 -0.027060 
#    z 0.001340 -0.027060 1.915750 
# 
# From -- ./inp_files/519070.got.cif
#   From: 2010.05.17/outbox.cif.g08.bks.cpg/sg2_260_cif.got.tgz:519070.got - 2010.06.03 11:33:40.
