data_PCOD9001797
_publ_section_title
;
Structure prediction by ZEFSAII (Michael W. Deem and Ramdas Pophale) SiO2 
 PCOD9001797
Probable space group: P -1
;
_chemical_formula_sum "Si O2"
_cell_formula_units_Z 14
_cell_length_a 11.043588
_cell_length_b 16.408747
_cell_length_c 11.169966
_cell_angle_alpha 37.670626
_cell_angle_beta 47.452865
_cell_angle_gamma 31.834285
_cell_volume 652.422527
_symmetry_space_group_name_H-M "P -1"
_symmetry_group_IT_number 2
_symmetry_cell_setting 'triclinic'
loop_
_space_group_symop_operation_xyz
x,y,z
-x,-y,-z
loop_
_atom_site_type_symbol
_atom_site_label
_atom_site_fract_x
_atom_site_fract_y
_atom_site_fract_z
Si Si1 0.653719 0.800051 0.694173
Si Si2 0.659647 0.104594 0.585498
Si Si3 0.050927 0.995946 0.110704
Si Si4 0.549135 0.316774 0.179369
Si Si5 0.508109 0.085649 0.056472
Si Si6 0.137213 0.496773 0.806056
Si Si7 0.848752 0.226230 0.484177
O O1 0.597567 0.687464 0.809411
O O2 0.569048 0.855973 0.821365
O O3 0.929179 0.659940 0.668336
O O4 0.500000 0.000000 0.500000
O O5 0.524902 0.255965 0.393535
O O6 0.718209 0.183346 0.551845
O O7 0.538021 0.042670 0.791525
O O8 0.897996 0.919072 0.578900
O O9 0.811349 0.158426 0.146377
O O10 0.144644 0.816369 0.331005
O O11 0.231639 0.010547 0.003058
O O12 0.000000 0.000000 0.000000
O O13 0.500000 0.500000 0.000000
O O14 0.331287 0.286350 0.875714
O O15 0.245780 0.571107 0.698307
O O16 0.000000 0.500000 0.000000
#
# Coordination Sequence:
#
# PCOD9001797 Si02
#       7
#     2   2   2   2   2   2   2
#     4  11  19  38  66  96 125 172 225 263 314 387
#     4  10  21  38  63  89 129 174 219 262 328 387
#     4  11  24  41  66  96 135 174 214 273 339 385
#     4  11  24  40  66  97 125 174 224 274 320 387
#     4  11  22  39  64  94 130 173 215 270 327 388
#     4  10  21  35  63  97 123 164 223 269 306 386
#     4  10  21  38  60  93 130 169 213 265 323 388
#
# _framework density 21.458487000000002
#
# number of rings (size 3 to 8) (size 9 to 14) (size 15 to 20)
#    0.000    1.429    5.714    0.857    4.000    2.286 
#    0.000    0.714    0.000    0.000    0.000    0.000 
#    0.000    0.000    0.000    0.000    0.000    0.000 
#
# Total GULP energy -78174.431729 kJ/mol
# GULP energy per Si atom -5583.887981 kJ/mol
# Density = 2.140965 g / cm^3
# Si number density = 21.458487 Si / 1000 Ang^3
#
#
#
# Elastic Constant Matrix: (Units=GPa)
#
#
# Indices 1 2 3 4 5 6 
#
# 1 119.3133 34.6645 55.3127 -6.9135 -37.7225 -3.3841
# 2 34.6645 40.9841 28.7472 -1.0660 -4.6561 -1.4750
# 3 55.3127 28.7472 119.7090 -13.4460 -31.4965 13.6022
# 4 -6.9135 -1.0660 -13.4460 33.9019 0.6869 -10.5852
# 5 -37.7225 -4.6561 -31.4965 0.6869 52.6614 0.1754
# 6 -3.3841 -1.4750 13.6022 -10.5852 0.1754 32.7194
#
#
#
# Elastic Compliance Matrix: (Units=1/GPa)
#
#
# Indices 1 2 3 4 5 6 
#
# 1 0.015452 -0.010186 -0.002461 0.002603 0.008652 0.002958
# 2 -0.010186 0.036967 -0.006914 -0.002658 -0.008137 0.002671
# 3 -0.002461 -0.006914 0.013588 0.002896 0.005733 -0.005309
# 4 0.002603 -0.002658 0.002896 0.034150 0.002883 0.009978
# 5 0.008652 -0.008137 0.005733 0.002883 0.027862 -0.001072
# 6 0.002958 0.002671 -0.005309 0.009978 -0.001072 0.036430
#
#
# Mechanical properties :
#
#
# Convention : Reuss Voigt Hill
#
# Bulk Modulus (GPa) = 37.19502 57.49504 47.34503
# Shear Modulus (GPa) = 23.52592 34.60867 29.06729
#
# Velocity S-wave (km/s) = 3.31470 4.02035 3.68446
# Velocity P-wave (km/s) = 5.65869 6.95721 6.34127
#
# Compressibility (1/GPa) = 0.02688532
#
# Stress axis : x y z
#
# Youngs Moduli (GPa) = 64.71789 27.05104 73.59558
#
# Poissons Ratio (x) = 0.27554 0.18110
# Poissons Ratio (y) = 0.65922 0.50883
# Poissons Ratio (z) = 0.15925 0.18703
#
# Static dielectric constant tensor:
#      x y z
#    x 1.675560 -0.124710 0.100870 
#    y -0.124710 1.730020 0.019070 
#    z 0.100870 0.019070 1.799270 
# 
# From -- ./inp_files/189434.got.cif
#   From: 2010.05.17/outbox.cif.g08.bks.cpg/sg2_95_cif.got.tgz:189434.got - 2010.06.03 11:33:40.
