data_PCOD9001794
_publ_section_title
;
Structure prediction by ZEFSAII (Michael W. Deem and Ramdas Pophale) SiO2 
 PCOD9001794
Probable space group: P -1
;
_chemical_formula_sum "Si O2"
_cell_formula_units_Z 16
_cell_length_a 16.252169
_cell_length_b 24.349012
_cell_length_c 15.366597
_cell_angle_alpha 28.719995
_cell_angle_beta 30.310230
_cell_angle_gamma 15.286652
_cell_volume 763.135643
_symmetry_space_group_name_H-M "P -1"
_symmetry_group_IT_number 2
_symmetry_cell_setting 'triclinic'
loop_
_space_group_symop_operation_xyz
x,y,z
-x,-y,-z
loop_
_atom_site_type_symbol
_atom_site_label
_atom_site_fract_x
_atom_site_fract_y
_atom_site_fract_z
Si Si1 0.727457 0.943059 0.577428
Si Si2 0.917209 0.665629 0.287829
Si Si3 0.850120 0.525987 0.182039
Si Si4 0.784580 0.173184 0.743874
Si Si5 0.711553 0.828706 0.470510
Si Si6 0.108156 0.751475 0.103112
Si Si7 0.338589 0.736445 0.071500
Si Si8 0.016478 0.529682 0.195540
O O1 0.902329 0.726607 0.680733
O O2 0.999551 0.869514 0.447899
O O3 0.455726 0.085253 0.698897
O O4 0.512175 0.122205 0.447048
O O5 0.149263 0.625148 0.170740
O O6 0.000000 0.500000 0.500000
O O7 0.942963 0.645847 0.187530
O O8 0.518185 0.677079 0.243675
O O9 0.823913 0.626856 0.147839
O O10 0.000000 0.500000 0.000000
O O11 0.677837 0.287831 0.777250
O O12 0.986961 0.938482 0.907679
O O13 0.820102 0.866874 0.259244
O O14 0.992902 0.590653 0.585291
O O15 0.500000 0.000000 0.500000
O O16 0.347405 0.639101 0.119299
O O17 0.636644 0.640389 0.918159
O O18 0.000000 0.000000 0.000000
#
# Coordination Sequence:
#
# PCOD9001794 Si02
#       8
#     2   2   2   2   2   2   2   2
#     4  11  23  40  66  92 131 161 211 270 315 374
#     4  11  24  41  62  97 132 170 207 251 328 389
#     4  12  24  43  68  93 126 169 222 261 311 374
#     4  11  22  42  64  97 126 166 215 268 317 368
#     4  11  17  33  61  92 118 158 206 264 318 358
#     4  10  21  37  62  91 131 161 205 265 317 375
#     4  10  21  35  63  96 124 155 213 271 319 359
#     4  12  23  40  63  94 128 169 211 260 316 382
#
# _framework density 20.96613
#
# number of rings (size 3 to 8) (size 9 to 14) (size 15 to 20)
#    0.000    1.000    5.000    5.625    1.750    0.500 
#    0.000    3.125    0.000    0.000    0.000    0.000 
#    0.000    0.000    0.000    0.000    0.000    0.000 
#
# Total GULP energy -89076.544456 kJ/mol
# GULP energy per Si atom -5567.284029 kJ/mol
# Density = 2.091841 g / cm^3
# Si number density = 20.966130 Si / 1000 Ang^3
#
#
#
# Elastic Constant Matrix: (Units=GPa)
#
#
# Indices 1 2 3 4 5 6 
#
# 1 177.8393 31.7387 13.3136 10.3402 -0.1889 -5.5942
# 2 31.7387 39.2863 2.3456 17.9067 -1.3172 -10.3951
# 3 13.3136 2.3456 48.6509 7.2542 -11.5257 -3.6884
# 4 10.3402 17.9067 7.2542 29.1743 0.4354 -6.3270
# 5 -0.1889 -1.3172 -11.5257 0.4354 30.9709 5.3175
# 6 -5.5942 -10.3951 -3.6884 -6.3270 5.3175 37.4952
#
#
#
# Elastic Compliance Matrix: (Units=1/GPa)
#
#
# Indices 1 2 3 4 5 6 
#
# 1 0.006797 -0.006427 -0.002108 0.001964 -0.000957 -0.000508
# 2 -0.006427 0.043203 0.004368 -0.023831 0.002546 0.007066
# 3 -0.002108 0.004368 0.024349 -0.007988 0.009238 0.000634
# 4 0.001964 -0.023831 -0.007988 0.050743 -0.005062 0.002181
# 5 -0.000957 0.002546 0.009238 -0.005062 0.036687 -0.004585
# 6 -0.000508 0.007066 0.000634 0.002181 -0.004585 0.029634
#
#
# Mechanical properties :
#
#
# Convention : Reuss Voigt Hill
#
# Bulk Modulus (GPa) = 15.14833 40.06361 27.60597
# Shear Modulus (GPa) = 22.54795 34.08663 28.31729
#
# Velocity S-wave (km/s) = 3.28296 4.03649 3.67907
# Velocity P-wave (km/s) = 4.64879 6.39332 5.58953
#
# Compressibility (1/GPa) = 0.06601388
#
# Stress axis : x y z
#
# Youngs Moduli (GPa) = 147.13127 23.14677 41.07019
#
# Poissons Ratio (x) = 0.14876 0.08658
# Poissons Ratio (y) = 0.94557 -0.17939
# Poissons Ratio (z) = 0.31017 -0.10110
#
# Static dielectric constant tensor:
#      x y z
#    x 1.875720 0.037590 -0.030820 
#    y 0.037590 1.816200 -0.029670 
#    z -0.030820 -0.029670 1.786770 
# 
# From -- ./inp_files/535398.got.cif
#   From: 2010.05.17/outbox.cif.g08.bks.cpg/sg2_268_cif.got.tgz:535398.got - 2010.06.03 11:33:40.
