data_PCOD9001972
_publ_section_title
;
Structure prediction by ZEFSAII (Michael W. Deem and Ramdas Pophale) SiO2 
 PCOD9001972
Probable space group: P -1
;
_chemical_formula_sum "Si O2"
_cell_formula_units_Z 16
_cell_length_a 21.516539
_cell_length_b 20.352882
_cell_length_c 9.651063
_cell_angle_alpha 153.371183
_cell_angle_beta 27.418065
_cell_angle_gamma 152.610129
_cell_volume 775.744430
_symmetry_space_group_name_H-M "P -1"
_symmetry_group_IT_number 2
_symmetry_cell_setting 'triclinic'
loop_
_space_group_symop_operation_xyz
x,y,z
-x,-y,-z
loop_
_atom_site_type_symbol
_atom_site_label
_atom_site_fract_x
_atom_site_fract_y
_atom_site_fract_z
Si Si1 0.012868 0.680469 0.608681
Si Si2 0.865363 0.300729 0.122131
Si Si3 0.453039 0.744142 0.282525
Si Si4 0.572162 0.824068 0.493150
Si Si5 0.375796 0.310334 0.388957
Si Si6 0.743684 0.202436 0.883417
Si Si7 0.299754 0.350430 0.908705
Si Si8 0.962018 0.812327 0.243639
O O1 0.953251 0.484545 0.355518
O O2 0.163895 0.760699 0.371124
O O3 0.878893 0.705790 0.845933
O O4 0.022151 0.748781 0.873477
O O5 0.692549 0.223095 0.373395
O O6 0.848902 0.302638 0.992550
O O7 0.956532 0.206486 0.816697
O O8 0.557029 0.833575 0.375978
O O9 0.549679 0.780171 0.019749
O O10 0.381975 0.547534 0.090465
O O11 0.640266 0.704144 0.179786
O O12 0.674542 0.008966 0.691634
O O13 0.400936 0.761674 0.770257
O O14 0.500000 0.500000 0.500000
O O15 0.336439 0.266167 0.544078
O O16 0.220484 0.289755 0.587561
O O17 0.000000 0.000000 0.500000
#
# Coordination Sequence:
#
# PCOD9001972 Si02
#       8
#     2   2   2   2   2   2   2   2
#     4  10  22  40  61  87 117 157 202 240 300 363
#     4  10  22  42  63  85 122 160 199 248 296 360
#     4   9  19  37  60  85 116 158 202 238 297 362
#     4  10  21  36  55  85 123 151 196 251 298 346
#     4   9  20  38  59  88 120 154 201 242 293 361
#     4  10  23  38  58  87 119 158 202 246 297 356
#     4   9  19  35  58  85 116 155 196 247 291 356
#     4  11  25  40  63  95 125 154 202 254 303 354
#
# _framework density 20.625347999999999
#
# number of rings (size 3 to 8) (size 9 to 14) (size 15 to 20)
#    0.000    2.250    0.000    1.875    5.250    4.500 
#    0.000    0.625    0.000    0.000    0.000    0.000 
#    0.000    0.000    0.000    0.000    0.000    0.000 
#
# Total GULP energy -89340.117766 kJ/mol
# GULP energy per Si atom -5583.757360 kJ/mol
# Density = 2.057840 g / cm^3
# Si number density = 20.625348 Si / 1000 Ang^3
#
#
#
# Elastic Constant Matrix: (Units=GPa)
#
#
# Indices 1 2 3 4 5 6 
#
# 1 45.3545 18.0473 -6.9674 1.2174 -15.3568 14.8137
# 2 18.0473 25.5189 26.7885 -4.8074 -1.8778 -0.9126
# 3 -6.9674 26.7885 16.4499 -13.8520 3.2283 9.7355
# 4 1.2174 -4.8074 -13.8520 32.9817 -6.1660 4.8460
# 5 -15.3568 -1.8778 3.2283 -6.1660 36.8062 7.9685
# 6 14.8137 -0.9126 9.7355 4.8460 7.9685 6.9401
#
#
#
# Elastic Compliance Matrix: (Units=1/GPa)
#
#
# Indices 1 2 3 4 5 6 
#
# 1 0.015385 0.014537 -0.024976 -0.007417 0.008116 -0.000032
# 2 0.014537 0.034369 -0.002522 0.017343 0.024674 -0.063411
# 3 -0.024976 -0.002522 0.018456 -0.005639 -0.026390 0.061326
# 4 -0.007417 0.017343 -0.005639 0.031413 0.003544 0.000018
# 5 0.008116 0.024674 -0.026390 0.003544 0.040313 -0.025820
# 6 -0.000032 -0.063411 0.061326 0.000018 -0.025820 0.079426
#
#
# Mechanical properties :
#
#
# Convention : Reuss Voigt Hill
#
# Bulk Modulus (GPa) = 23.64755 18.11779 20.88267
# Shear Modulus (GPa) = 19.27670 18.64259 18.95964
#
# Velocity S-wave (km/s) = 3.06046 3.00970 3.03519
# Velocity P-wave (km/s) = 4.89681 4.56958 4.73602
#
# Compressibility (1/GPa) = 0.04228769
#
# Stress axis : x y z
#
# Youngs Moduli (GPa) = 64.99888 29.09594 54.18212
#
# Poissons Ratio (x) = -0.42296 1.35323
# Poissons Ratio (y) = -0.94487 0.13666
# Poissons Ratio (z) = 1.62339 0.07339
#
# Static dielectric constant tensor:
#      x y z
#    x 1.725500 0.022590 0.028000 
#    y 0.022590 1.721460 0.011750 
#    z 0.028000 0.011750 1.751020 
# 
# From -- ./inp_files/348980.got.cif
#   From: 2010.05.17/outbox.cif.g08.bks.cpg/sg2_175_cif.got.tgz:348980.got - 2010.06.03 11:33:40.
