data_PCOD9001492
_publ_section_title
;
Structure prediction by ZEFSAII (Michael W. Deem and Ramdas Pophale) SiO2 
 PCOD9001492
Probable space group: P -1
;
_chemical_formula_sum "Si O2"
_cell_formula_units_Z 14
_cell_length_a 12.954157
_cell_length_b 13.417314
_cell_length_c 9.308314
_cell_angle_alpha 128.606340
_cell_angle_beta 73.226338
_cell_angle_gamma 148.561979
_cell_volume 528.474987
_symmetry_space_group_name_H-M "P -1"
_symmetry_group_IT_number 2
_symmetry_cell_setting 'triclinic'
loop_
_space_group_symop_operation_xyz
x,y,z
-x,-y,-z
loop_
_atom_site_type_symbol
_atom_site_label
_atom_site_fract_x
_atom_site_fract_y
_atom_site_fract_z
Si Si1 0.328759 0.929352 0.133241
Si Si2 0.267732 0.581936 0.798398
Si Si3 0.952043 0.115385 0.715452
Si Si4 0.039374 0.216961 0.088094
Si Si5 0.836029 0.104158 0.334036
Si Si6 0.538676 0.634790 0.238635
Si Si7 0.303203 0.760367 0.487391
O O1 0.178689 0.885520 0.218018
O O2 0.457909 0.113864 0.100143
O O3 0.548373 0.128303 0.333025
O O4 0.191531 0.648716 0.916963
O O5 0.210241 0.430098 0.819546
O O6 0.090213 0.344138 0.530144
O O7 0.762896 0.838450 0.438883
O O8 0.969741 0.084729 0.842792
O O9 0.282933 0.399671 0.205163
O O10 0.125749 0.455672 0.239971
O O11 0.838519 0.018970 0.115326
O O12 0.823498 0.239731 0.427222
O O13 0.630775 0.856635 0.312475
O O14 0.500000 0.500000 0.000000
O O15 0.500000 0.000000 0.500000
#
# Coordination Sequence:
#
# PCOD9001492 Si02
#       7
#     2   2   2   2   2   2   2
#     4  11  21  34  56  92 135 168 203 245 304 386
#     4  10  21  35  56  88 132 175 201 239 309 382
#     4  11  23  41  63  92 126 165 213 257 319 375
#     4  12  24  41  67  99 128 166 211 260 324 383
#     4  11  23  41  64  96 130 172 207 261 318 378
#     4  11  26  49  67  88 124 167 223 276 315 369
#     4  12  20  36  62  96 138 167 199 250 314 383
#
# _framework density 26.491320000000002
#
# number of rings (size 3 to 8) (size 9 to 14) (size 15 to 20)
#    0.000    0.857    4.286    3.429    4.000    1.143 
#    0.000    0.714    0.000    0.000    0.000    0.000 
#    0.000    0.000    0.000    0.000    0.000    0.000 
#
# Total GULP energy -78456.943461 kJ/mol
# GULP energy per Si atom -5604.067390 kJ/mol
# Density = 2.643102 g / cm^3
# Si number density = 26.491320 Si / 1000 Ang^3
#
#
#
# Elastic Constant Matrix: (Units=GPa)
#
#
# Indices 1 2 3 4 5 6 
#
# 1 52.3918 15.4998 13.0236 8.7301 -4.7750 -2.8724
# 2 15.4998 99.3090 6.6655 -25.8356 1.1029 12.2744
# 3 13.0236 6.6655 131.5310 -21.0524 11.1897 -5.0997
# 4 8.7301 -25.8356 -21.0524 26.8460 -3.6581 0.8219
# 5 -4.7750 1.1029 11.1897 -3.6581 50.5615 -3.8050
# 6 -2.8724 12.2744 -5.0997 0.8219 -3.8050 24.5661
#
#
#
# Elastic Compliance Matrix: (Units=1/GPa)
#
#
# Indices 1 2 3 4 5 6 
#
# 1 0.029488 -0.012216 -0.006404 -0.026213 0.003295 0.009610
# 2 -0.012216 0.020125 0.004139 0.026747 -0.001458 -0.011745
# 3 -0.006404 0.004139 0.010385 0.013969 -0.002092 -0.001453
# 4 -0.026213 0.026747 0.013969 0.082783 -0.001404 -0.016516
# 5 0.003295 -0.001458 -0.002092 -0.001404 0.020779 0.003945
# 6 0.009610 -0.011745 -0.001453 -0.016516 0.003945 0.048560
#
#
# Mechanical properties :
#
#
# Convention : Reuss Voigt Hill
#
# Bulk Modulus (GPa) = 32.22126 39.28994 35.75560
# Shear Modulus (GPa) = 19.88649 36.93091 28.40870
#
# Velocity S-wave (km/s) = 2.74283 3.73778 3.27827
# Velocity P-wave (km/s) = 4.71382 5.78718 5.27786
#
# Compressibility (1/GPa) = 0.03103541
#
# Stress axis : x y z
#
# Youngs Moduli (GPa) = 33.91196 49.69041 96.29645
#
# Poissons Ratio (x) = 0.60704 0.61669
# Poissons Ratio (y) = 0.41428 -0.39861
# Poissons Ratio (z) = 0.21717 -0.20569
#
# Static dielectric constant tensor:
#      x y z
#    x 2.059810 -0.017140 -0.000600 
#    y -0.017140 2.083850 0.012750 
#    z -0.000600 0.012750 2.118620 
# 
# From -- ./inp_files/293886.got.cif
#   From: 2010.05.17/outbox.cif.g08.bks.cpg/sg2_147_cif.got.tgz:293886.got - 2010.06.03 11:33:40.
