data_PCOD9001548
_publ_section_title
;
Structure prediction by ZEFSAII (Michael W. Deem and Ramdas Pophale) SiO2 
 PCOD9001548
Probable space group: P -1
;
_chemical_formula_sum "Si O2"
_cell_formula_units_Z 14
_cell_length_a 13.941256
_cell_length_b 13.299145
_cell_length_c 9.307114
_cell_angle_alpha 68.486438
_cell_angle_beta 88.777656
_cell_angle_gamma 147.975593
_cell_volume 629.295249
_symmetry_space_group_name_H-M "P -1"
_symmetry_group_IT_number 2
_symmetry_cell_setting 'triclinic'
loop_
_space_group_symop_operation_xyz
x,y,z
-x,-y,-z
loop_
_atom_site_type_symbol
_atom_site_label
_atom_site_fract_x
_atom_site_fract_y
_atom_site_fract_z
Si Si1 0.201064 0.497692 0.694142
Si Si2 0.326671 0.788343 0.323809
Si Si3 0.002021 0.989749 0.755498
Si Si4 0.893046 0.035177 0.483089
Si Si5 0.859259 0.311419 0.920844
Si Si6 0.739886 0.120463 0.455876
Si Si7 0.661592 0.606763 0.224860
O O1 0.187115 0.537014 0.516494
O O2 0.220956 0.390651 0.756583
O O3 0.985264 0.325765 0.885753
O O4 0.463522 0.815300 0.571764
O O5 0.224489 0.729341 0.210789
O O6 0.291595 0.843081 0.417314
O O7 0.609671 0.053335 0.151002
O O8 0.962551 0.844577 0.730791
O O9 0.240821 0.228235 0.725179
O O10 0.006224 0.091602 0.587019
O O11 0.783273 0.778688 0.986223
O O12 0.625002 0.705736 0.629494
O O13 0.855931 0.122446 0.464809
O O14 0.078593 0.621930 0.786385
#
# Coordination Sequence:
#
# PCOD9001548 Si02
#       7
#     2   2   2   2   2   2   2
#     4  10  21  35  58  83 113 151 185 235 286 340
#     4  10  21  36  55  83 114 152 187 230 285 337
#     4  10  22  40  62  86 116 158 190 246 296 336
#     4  10  22  39  62  88 118 152 197 240 292 349
#     4  10  21  36  55  83 116 146 191 233 274 353
#     4  10  21  35  58  83 113 151 185 235 286 340
#     4  10  22  39  62  88 118 152 197 240 292 349
#
# _framework density 22.247108000000001
#
# number of rings (size 3 to 8) (size 9 to 14) (size 15 to 20)
#    0.000    2.000    0.000    4.286    4.000    6.857 
#    0.000    0.000    0.000    0.000    0.000    0.000 
#    0.000    0.000    0.000    0.000    0.000    0.000 
#
# Total GULP energy -78206.498063 kJ/mol
# GULP energy per Si atom -5586.178433 kJ/mol
# Density = 2.219647 g / cm^3
# Si number density = 22.247108 Si / 1000 Ang^3
#
#
#
# Elastic Constant Matrix: (Units=GPa)
#
#
# Indices 1 2 3 4 5 6 
#
# 1 97.4779 1.2603 20.9846 14.2979 -14.2327 5.7553
# 2 1.2603 71.9169 16.4873 13.2033 -2.2099 5.8560
# 3 20.9846 16.4873 93.1994 3.8080 -21.0927 -4.1984
# 4 14.2979 13.2033 3.8080 34.7567 10.1862 -0.5824
# 5 -14.2327 -2.2099 -21.0927 10.1862 28.3748 -5.1853
# 6 5.7553 5.8560 -4.1984 -0.5824 -5.1853 25.6011
#
#
#
# Elastic Compliance Matrix: (Units=1/GPa)
#
#
# Indices 1 2 3 4 5 6 
#
# 1 0.013114 0.002035 -0.001097 -0.008614 0.008641 -0.002039
# 2 0.002035 0.016283 -0.002758 -0.007408 0.002098 -0.004378
# 3 -0.001097 -0.002758 0.014715 -0.003695 0.012550 0.005749
# 4 -0.008614 -0.007408 -0.003695 0.042243 -0.022929 -0.000658
# 5 0.008641 0.002098 0.012550 -0.022929 0.059335 0.011132
# 6 -0.002039 -0.004378 0.005749 -0.000658 0.011132 0.043703
#
#
# Mechanical properties :
#
#
# Convention : Reuss Voigt Hill
#
# Bulk Modulus (GPa) = 24.70948 37.78430 31.24689
# Shear Modulus (GPa) = 24.21020 32.67065 28.44042
#
# Velocity S-wave (km/s) = 3.30243 3.83630 3.57933
# Velocity P-wave (km/s) = 5.06678 6.05341 5.58194
#
# Compressibility (1/GPa) = 0.04047030
#
# Stress axis : x y z
#
# Youngs Moduli (GPa) = 76.25376 61.41493 67.95808
#
# Poissons Ratio (x) = -0.12496 0.07456
# Poissons Ratio (y) = -0.15515 0.18745
# Poissons Ratio (z) = 0.08366 0.16940
#
# Static dielectric constant tensor:
#      x y z
#    x 1.793880 0.023640 -0.002600 
#    y 0.023640 1.876970 0.025490 
#    z -0.002600 0.025490 1.828880 
# 
# From -- ./inp_files/297436.got.cif
#   From: 2010.05.17/outbox.cif.g08.bks.cpg/sg2_149_cif.got.tgz:297436.got - 2010.06.03 11:33:40.
