data_PCOD9001482
_publ_section_title
;
Structure prediction by ZEFSAII (Michael W. Deem and Ramdas Pophale) SiO2 
 PCOD9001482
Probable space group: P -1
;
_chemical_formula_sum "Si O2"
_cell_formula_units_Z 16
_cell_length_a 7.760938
_cell_length_b 26.800436
_cell_length_c 15.959970
_cell_angle_alpha 16.358999
_cell_angle_beta 129.907008
_cell_angle_gamma 127.550710
_cell_volume 716.929238
_symmetry_space_group_name_H-M "P -1"
_symmetry_group_IT_number 2
_symmetry_cell_setting 'triclinic'
loop_
_space_group_symop_operation_xyz
x,y,z
-x,-y,-z
loop_
_atom_site_type_symbol
_atom_site_label
_atom_site_fract_x
_atom_site_fract_y
_atom_site_fract_z
Si Si1 0.703555 0.578840 0.844407
Si Si2 0.787826 0.166670 0.335548
Si Si3 0.174107 0.959267 0.272733
Si Si4 0.749702 0.473499 0.709578
Si Si5 0.248327 0.210717 0.132434
Si Si6 0.883774 0.697006 0.538490
Si Si7 0.615007 0.737696 0.728083
Si Si8 0.232958 0.356348 0.722005
O O1 0.724891 0.653629 0.637113
O O2 0.692087 0.728609 0.670862
O O3 0.486446 0.457053 0.975340
O O4 0.903420 0.438894 0.158636
O O5 0.880214 0.157337 0.472996
O O6 0.518434 0.191383 0.228687
O O7 0.842940 0.980800 0.609090
O O8 0.854128 0.320823 0.046557
O O9 0.415576 0.886635 0.433282
O O10 0.980728 0.894066 0.255616
O O11 0.196822 0.159342 0.989719
O O12 0.769814 0.645953 0.497544
O O13 0.495441 0.408743 0.722264
O O14 0.857321 0.512743 0.589951
O O15 0.230952 0.238288 0.181281
O O16 0.161398 0.342921 0.818714
#
# Coordination Sequence:
#
# PCOD9001482 Si02
#       8
#     2   2   2   2   2   2   2   2
#     4   9  17  27  44  73  96 118 153 195 235 275
#     4   8  13  23  42  65  88 115 147 185 224 263
#     4   9  17  30  48  70  96 121 150 192 236 274
#     4  10  17  27  46  70  93 120 160 195 222 265
#     4   8  13  24  42  64  89 114 146 187 223 259
#     4  10  18  29  46  68  97 121 149 195 238 269
#     4   9  15  26  47  70  95 122 153 189 233 280
#     4   9  18  29  45  69  94 125 160 187 221 277
#
# _framework density 22.317405000000001
#
# number of rings (size 3 to 8) (size 9 to 14) (size 15 to 20)
#    0.000    3.000    0.000    6.000    0.000    0.500 
#    0.000    0.000    0.000   13.500    0.000    8.750 
#    0.000    0.000    0.000    0.000    0.000    0.000 
#
# Total GULP energy -89161.732307 kJ/mol
# GULP energy per Si atom -5572.608269 kJ/mol
# Density = 2.226661 g / cm^3
# Si number density = 22.317405 Si / 1000 Ang^3
#
#
#
# Elastic Constant Matrix: (Units=GPa)
#
#
# Indices 1 2 3 4 5 6 
#
# 1 39.8175 109.3997 -12.4416 0.0114 28.0636 -31.4116
# 2 109.3997 -382.9788 120.1715 -40.2361 -199.6716 -11.4817
# 3 -12.4416 120.1715 16.9055 4.1459 20.3255 1.8208
# 4 0.0114 -40.2361 4.1459 29.7397 -11.9075 -8.5075
# 5 28.0636 -199.6716 20.3255 -11.9075 -49.1431 4.3591
# 6 -31.4116 -11.4817 1.8208 -8.5075 4.3591 39.5455
#
#
#
# Elastic Compliance Matrix: (Units=1/GPa)
#
#
# Indices 1 2 3 4 5 6 
#
# 1 0.038115 0.003141 -0.007851 0.017137 0.004683 0.034719
# 2 0.003141 0.003182 -0.005354 0.001315 -0.013188 0.005402
# 3 -0.007851 -0.005354 0.049225 -0.003490 0.037154 -0.014904
# 4 0.017137 0.001315 -0.003490 0.040674 -0.004777 0.023431
# 5 0.004683 -0.013188 0.037154 -0.004777 0.051677 -0.008544
# 6 0.034719 0.005402 -0.014904 0.023431 -0.008544 0.061102
#
#
# Mechanical properties :
#
#
# Convention : Reuss Voigt Hill
#
# Bulk Modulus (GPa) = 14.20586 12.00038 13.10312
# Shear Modulus (GPa) = 17.38722 -32.19729 -7.40503
#
# Velocity S-wave (km/s) = 2.79424 -3.80241 -1.82353
# Velocity P-wave (km/s) = 4.09751 3.72678 1.20430
#
# Compressibility (1/GPa) = 0.07039350
#
# Stress axis : x y z
#
# Youngs Moduli (GPa) = 26.23654 314.28506 20.31489
#
# Poissons Ratio (x) = -0.98721 0.15949
# Poissons Ratio (y) = -0.08241 0.10877
# Poissons Ratio (z) = 0.20598 1.68276
#
# Static dielectric constant tensor:
#      x y z
#    x 1.855980 0.005450 0.000690 
#    y 0.005450 1.885410 -0.016390 
#    z 0.000690 -0.016390 1.832630 
# 
# From -- ./inp_files/281210.got.cif
#   From: 2010.05.17/outbox.cif.g08.bks.cpg/sg2_141_cif.got.tgz:281210.got - 2010.06.03 11:33:40.
