data_PCOD9001694
_publ_section_title
;
Structure prediction by ZEFSAII (Michael W. Deem and Ramdas Pophale) SiO2 
 PCOD9001694
Probable space group: P -1
;
_chemical_formula_sum "Si O2"
_cell_formula_units_Z 14
_cell_length_a 14.657749
_cell_length_b 11.015209
_cell_length_c 15.701748
_cell_angle_alpha 41.103948
_cell_angle_beta 153.040196
_cell_angle_gamma 121.304625
_cell_volume 649.915521
_symmetry_space_group_name_H-M "P -1"
_symmetry_group_IT_number 2
_symmetry_cell_setting 'triclinic'
loop_
_space_group_symop_operation_xyz
x,y,z
-x,-y,-z
loop_
_atom_site_type_symbol
_atom_site_label
_atom_site_fract_x
_atom_site_fract_y
_atom_site_fract_z
Si Si1 0.654659 0.487272 0.717204
Si Si2 0.754095 0.835227 0.258688
Si Si3 0.830961 0.775035 0.788373
Si Si4 0.580205 0.260940 0.282919
Si Si5 0.228394 0.784586 0.886923
Si Si6 0.436806 0.323685 0.938939
Si Si7 0.921911 0.495554 0.171888
O O1 0.500000 0.500000 0.500000
O O2 0.662111 0.697851 0.644726
O O3 0.606471 0.378980 0.815686
O O4 0.926833 0.324966 0.008024
O O5 0.725395 0.768684 0.176173
O O6 0.877152 0.620577 0.530391
O O7 0.880250 0.973691 0.298199
O O8 0.500000 0.000000 0.000000
O O9 0.714250 0.028897 0.558688
O O10 0.905514 0.667799 0.000311
O O11 0.683424 0.418465 0.295589
O O12 0.547989 0.240312 0.167000
O O13 0.323134 0.392105 0.041654
O O14 0.054054 0.701397 0.761459
O O15 0.371039 0.754832 0.934818
#
# Coordination Sequence:
#
# PCOD9001694 Si02
#       7
#     2   2   2   2   2   2   2
#     4  10  23  38  62  93 121 155 209 250 303 371
#     4  10  21  35  61  89 119 153 201 254 302 347
#     4  10  23  41  64  87 127 162 199 255 308 356
#     4  10  21  41  60  85 124 166 199 242 306 363
#     4   9  20  37  60  88 117 155 198 252 309 348
#     4   9  21  37  61  87 121 154 208 247 290 368
#     4  10  21  39  61  87 123 163 200 243 303 371
#
# _framework density 21.541260999999999
#
# number of rings (size 3 to 8) (size 9 to 14) (size 15 to 20)
#    0.000    2.286    0.000    0.857    6.000    9.714 
#    2.571    0.714    0.000    0.000    0.000    0.000 
#    0.000    0.000    0.000    0.000    0.000    0.000 
#
# Total GULP energy -78117.647818 kJ/mol
# GULP energy per Si atom -5579.831987 kJ/mol
# Density = 2.149223 g / cm^3
# Si number density = 21.541261 Si / 1000 Ang^3
#
#
#
# Elastic Constant Matrix: (Units=GPa)
#
#
# Indices 1 2 3 4 5 6 
#
# 1 69.0069 14.5951 3.1767 -2.6866 -9.9261 -0.8629
# 2 14.5951 102.8191 40.1747 -14.9091 -12.9867 -16.3322
# 3 3.1767 40.1747 72.2125 -18.8210 -5.0539 -0.7784
# 4 -2.6866 -14.9091 -18.8210 28.9711 1.9947 -10.2623
# 5 -9.9261 -12.9867 -5.0539 1.9947 30.2151 2.8087
# 6 -0.8629 -16.3322 -0.7784 -10.2623 2.8087 27.1101
#
#
#
# Elastic Compliance Matrix: (Units=1/GPa)
#
#
# Indices 1 2 3 4 5 6 
#
# 1 0.015533 -0.002136 0.000848 0.000177 0.004422 -0.001159
# 2 -0.002136 0.016024 -0.006381 0.007930 0.003475 0.012044
# 3 0.000848 -0.006381 0.019966 0.009930 0.000174 0.000497
# 4 0.000177 0.007930 0.009930 0.054220 -0.000839 0.025679
# 5 0.004422 0.003475 0.000174 -0.000839 0.036298 -0.001839
# 6 -0.001159 0.012044 0.000497 0.025679 -0.001839 0.054031
#
#
# Mechanical properties :
#
#
# Convention : Reuss Voigt Hill
#
# Bulk Modulus (GPa) = 27.63561 39.99240 33.81400
# Shear Modulus (GPa) = 22.37418 29.66538 26.01978
#
# Velocity S-wave (km/s) = 3.22633 3.71501 3.47926
# Velocity P-wave (km/s) = 5.17068 6.08338 5.64551
#
# Compressibility (1/GPa) = 0.03618520
#
# Stress axis : x y z
#
# Youngs Moduli (GPa) = 64.38075 62.40500 50.08410
#
# Poissons Ratio (x) = 0.13331 -0.04249
# Poissons Ratio (y) = 0.13753 0.31960
# Poissons Ratio (z) = -0.05461 0.39822
#
# Static dielectric constant tensor:
#      x y z
#    x 1.836210 0.060060 0.009920 
#    y 0.060060 1.906910 0.049630 
#    z 0.009920 0.049630 1.799640 
# 
# From -- ./inp_files/305736.got.cif
#   From: 2010.05.17/outbox.cif.g08.bks.cpg/sg2_153_cif.got.tgz:305736.got - 2010.06.03 11:33:40.
