data_PCOD9001138
_publ_section_title
;
Structure prediction by ZEFSAII (Michael W. Deem and Ramdas Pophale) SiO2 
 PCOD9001138
Probable space group: P -1
;
_chemical_formula_sum "Si O2"
_cell_formula_units_Z 14
_cell_length_a 19.038702
_cell_length_b 16.087367
_cell_length_c 7.536346
_cell_angle_alpha 53.704267
_cell_angle_beta 141.679277
_cell_angle_gamma 154.145154
_cell_volume 565.910575
_symmetry_space_group_name_H-M "P -1"
_symmetry_group_IT_number 2
_symmetry_cell_setting 'triclinic'
loop_
_space_group_symop_operation_xyz
x,y,z
-x,-y,-z
loop_
_atom_site_type_symbol
_atom_site_label
_atom_site_fract_x
_atom_site_fract_y
_atom_site_fract_z
Si Si1 0.617826 0.364146 0.507503
Si Si2 0.926979 0.502371 0.178604
Si Si3 0.281616 0.261850 0.430865
Si Si4 0.964130 0.111883 0.717709
Si Si5 0.787241 0.708112 0.384530
Si Si6 0.088350 0.721674 0.756183
Si Si7 0.774131 0.078513 0.892714
O O1 0.584938 0.461369 0.309932
O O2 0.842880 0.527975 0.618568
O O3 0.416703 0.135308 0.320214
O O4 0.702981 0.395380 0.831110
O O5 0.877477 0.367347 0.119492
O O6 0.000000 0.500000 0.500000
O O7 0.133875 0.746011 0.242319
O O8 0.500000 0.500000 0.500000
O O9 0.264357 0.245890 0.630141
O O10 0.068458 0.153402 0.053613
O O11 0.261174 0.131998 0.472868
O O12 0.137572 0.219626 0.761657
O O13 0.933163 0.209752 0.526619
O O14 0.011936 0.828273 0.761522
O O15 0.280370 0.919768 0.020724
#
# Coordination Sequence:
#
# PCOD9001138 Si02
#       7
#     2   2   2   2   2   2   2
#     4   9  19  36  58  87 107 154 195 228 282 337
#     4  10  21  34  53  84 122 149 183 235 283 336
#     4  11  23  39  60  90 115 148 196 244 293 353
#     4   9  22  39  59  85 116 156 192 236 299 342
#     4   9  21  40  61  84 122 153 189 245 290 343
#     4   9  20  37  58  80 113 151 189 240 281 336
#     4   9  19  37  59  81 111 152 195 229 282 341
#
# _framework density 24.738892
#
# number of rings (size 3 to 8) (size 9 to 14) (size 15 to 20)
#    0.000    3.143    0.000    2.143    4.000   10.286 
#    0.000    0.000    0.000    0.000    0.000    0.000 
#    0.000    0.000    0.000    0.000    0.000    0.000 
#
# Total GULP energy -78174.915691 kJ/mol
# GULP energy per Si atom -5583.922549 kJ/mol
# Density = 2.468258 g / cm^3
# Si number density = 24.738892 Si / 1000 Ang^3
#
#
#
# Elastic Constant Matrix: (Units=GPa)
#
#
# Indices 1 2 3 4 5 6 
#
# 1 59.8865 10.3942 6.1287 6.1943 -9.1064 -4.7155
# 2 10.3942 157.0913 40.8537 9.3685 -1.7491 -25.7594
# 3 6.1287 40.8537 78.7400 6.0251 -29.6036 1.4290
# 4 6.1943 9.3685 6.0251 51.6472 -3.7584 -14.6273
# 5 -9.1064 -1.7491 -29.6036 -3.7584 31.9458 2.5575
# 6 -4.7155 -25.7594 1.4290 -14.6273 2.5575 24.5514
#
#
#
# Elastic Compliance Matrix: (Units=1/GPa)
#
#
# Indices 1 2 3 4 5 6 
#
# 1 0.017952 -0.001548 0.002069 -0.001611 0.006757 0.000040
# 2 -0.001548 0.011143 -0.009808 0.002736 -0.009768 0.014613
# 3 0.002069 -0.009808 0.028589 -0.004683 0.027372 -0.017199
# 4 -0.001611 0.002736 -0.004683 0.024384 -0.003197 0.017695
# 5 0.006757 -0.009768 0.027372 -0.003197 0.059173 -0.018612
# 6 0.000040 0.014613 -0.017199 0.017695 -0.018612 0.069552
#
#
# Mechanical properties :
#
#
# Convention : Reuss Voigt Hill
#
# Bulk Modulus (GPa) = 25.56867 45.60788 35.58828
# Shear Modulus (GPa) = 20.62662 37.51829 29.07245
#
# Velocity S-wave (km/s) = 2.89065 3.89854 3.43180
# Velocity P-wave (km/s) = 4.63670 6.22419 5.48815
#
# Compressibility (1/GPa) = 0.03911036
#
# Stress axis : x y z
#
# Youngs Moduli (GPa) = 55.70266 89.74208 34.97831
#
# Poissons Ratio (x) = 0.13893 -0.07237
# Poissons Ratio (y) = 0.08623 0.34307
# Poissons Ratio (z) = -0.11524 0.88019
#
# Static dielectric constant tensor:
#      x y z
#    x 2.017220 0.010160 -0.004790 
#    y 0.010160 1.980030 -0.019900 
#    z -0.004790 -0.019900 2.027910 
# 
# From -- ./inp_files/354802.got.cif
#   From: 2010.05.17/outbox.cif.g08.bks.cpg/sg2_178_cif.got.tgz:354802.got - 2010.06.03 11:33:40.
