data_PCOD9001696
_publ_section_title
;
Structure prediction by ZEFSAII (Michael W. Deem and Ramdas Pophale) SiO2 
 PCOD9001696
Probable space group: P -1
;
_chemical_formula_sum "Si O2"
_cell_formula_units_Z 16
_cell_length_a 11.494029
_cell_length_b 9.752690
_cell_length_c 11.579390
_cell_angle_alpha 118.648881
_cell_angle_beta 50.426395
_cell_angle_gamma 115.238555
_cell_volume 863.884938
_symmetry_space_group_name_H-M "P -1"
_symmetry_group_IT_number 2
_symmetry_cell_setting 'triclinic'
loop_
_space_group_symop_operation_xyz
x,y,z
-x,-y,-z
loop_
_atom_site_type_symbol
_atom_site_label
_atom_site_fract_x
_atom_site_fract_y
_atom_site_fract_z
Si Si1 0.058752 0.048401 0.852594
Si Si2 0.651331 0.600415 0.003467
Si Si3 0.865418 0.579099 0.061922
Si Si4 0.646219 0.918078 0.472375
Si Si5 0.671237 0.593995 0.412103
Si Si6 0.433722 0.766062 0.355723
Si Si7 0.839254 0.479501 0.473929
Si Si8 0.083769 0.271716 0.281412
O O1 0.058202 0.235160 0.921354
O O2 0.229327 0.041855 0.693470
O O3 0.961913 0.917619 0.776193
O O4 0.000000 0.000000 0.000000
O O5 0.770958 0.527654 0.981922
O O6 0.576327 0.718095 0.179802
O O7 0.500000 0.500000 0.000000
O O8 0.757213 0.683001 0.867972
O O9 0.731891 0.560540 0.234369
O O10 0.000000 0.500000 0.000000
O O11 0.685919 0.785582 0.480856
O O12 0.492144 0.830385 0.470986
O O13 0.624129 0.085110 0.606191
O O14 0.500000 0.500000 0.500000
O O15 0.774983 0.531207 0.416411
O O16 0.298181 0.617890 0.400817
O O17 0.907703 0.639565 0.565218
O O18 0.957175 0.358446 0.333331
#
# Coordination Sequence:
#
# PCOD9001696 Si02
#       8
#     2   2   2   2   2   2   2   2
#     4  11  20  38  62  91 123 159 210 258 301 364
#     4  12  22  39  64  92 124 160 204 257 304 365
#     4  11  24  42  62  94 125 162 205 253 314 368
#     4  10  21  35  61  89 120 151 209 254 300 354
#     4  11  21  39  60  89 121 157 200 251 306 361
#     4  11  19  38  60  88 118 158 202 254 299 359
#     4  11  22  38  64  88 122 162 202 249 307 372
#     4  11  23  38  61  92 120 160 209 251 304 363
#
# _framework density 18.520985
#
# number of rings (size 3 to 8) (size 9 to 14) (size 15 to 20)
#    0.000    1.000    7.500    0.750    0.000    0.000 
#    2.250    3.750    0.000    1.500    0.000    0.000 
#    0.000    0.000    0.000    0.000    0.000    0.000 
#
# Total GULP energy -89100.741118 kJ/mol
# GULP energy per Si atom -5568.796320 kJ/mol
# Density = 1.847883 g / cm^3
# Si number density = 18.520985 Si / 1000 Ang^3
#
#
#
# Elastic Constant Matrix: (Units=GPa)
#
#
# Indices 1 2 3 4 5 6 
#
# 1 87.8618 36.3027 4.6389 2.9602 0.3937 4.7132
# 2 36.3027 87.8061 25.3785 -8.2295 0.1376 10.9856
# 3 4.6389 25.3785 56.5469 -11.6954 -12.1711 -2.6989
# 4 2.9602 -8.2295 -11.6954 27.9995 7.6787 -1.0456
# 5 0.3937 0.1376 -12.1711 7.6787 28.9574 3.5108
# 6 4.7132 10.9856 -2.6989 -1.0456 3.5108 32.6370
#
#
#
# Elastic Compliance Matrix: (Units=1/GPa)
#
#
# Indices 1 2 3 4 5 6 
#
# 1 0.014110 -0.006542 0.001395 -0.003176 0.001263 0.000042
# 2 -0.006542 0.017194 -0.007454 0.003383 -0.003419 -0.004983
# 3 0.001395 -0.007454 0.024003 0.005575 0.008191 0.003590
# 4 -0.003176 0.003383 0.005575 0.041920 -0.008999 0.002092
# 5 0.001263 -0.003419 0.008191 -0.008999 0.040729 -0.003024
# 6 0.000042 -0.004983 0.003590 0.002092 -0.003024 0.033000
#
#
# Mechanical properties :
#
#
# Convention : Reuss Voigt Hill
#
# Bulk Modulus (GPa) = 33.21633 40.53945 36.87789
# Shear Modulus (GPa) = 24.24932 28.97843 26.61388
#
# Velocity S-wave (km/s) = 3.62234 3.95983 3.79484
# Velocity P-wave (km/s) = 5.95554 6.54545 6.25745
#
# Compressibility (1/GPa) = 0.03010568
#
# Stress axis : x y z
#
# Youngs Moduli (GPa) = 70.87218 58.16099 41.66170
#
# Poissons Ratio (x) = 0.38048 -0.05813
# Poissons Ratio (y) = 0.46364 0.31054
# Poissons Ratio (z) = -0.09889 0.43352
#
# Static dielectric constant tensor:
#      x y z
#    x 1.700310 0.014700 -0.007420 
#    y 0.014700 1.668110 0.025200 
#    z -0.007420 0.025200 1.661310 
# 
# From -- ./inp_files/337155.got.cif
#   From: 2010.05.17/outbox.cif.g08.bks.cpg/sg2_169_cif.got.tgz:337155.got - 2010.06.03 11:33:40.
