data_PCOD9001335
_publ_section_title
;
Structure prediction by ZEFSAII (Michael W. Deem and Ramdas Pophale) SiO2 
 PCOD9001335
Probable space group: P -1
;
_chemical_formula_sum "Si O2"
_cell_formula_units_Z 12
_cell_length_a 9.404286
_cell_length_b 10.461732
_cell_length_c 7.094963
_cell_angle_alpha 80.272855
_cell_angle_beta 80.400801
_cell_angle_gamma 119.830188
_cell_volume 570.592494
_symmetry_space_group_name_H-M "P -1"
_symmetry_group_IT_number 2
_symmetry_cell_setting 'triclinic'
loop_
_space_group_symop_operation_xyz
x,y,z
-x,-y,-z
loop_
_atom_site_type_symbol
_atom_site_label
_atom_site_fract_x
_atom_site_fract_y
_atom_site_fract_z
Si Si1 0.758817 0.598874 0.874404
Si Si2 0.515840 0.426084 0.324919
Si Si3 0.872184 0.391493 0.713751
Si Si4 0.102927 0.774634 0.933688
Si Si5 0.451652 0.844703 0.654535
Si Si6 0.322783 0.956336 0.144821
O O1 0.657846 0.540292 0.110359
O O2 0.657900 0.638429 0.740160
O O3 0.770145 0.461763 0.809104
O O4 0.952681 0.738870 0.837061
O O5 0.500000 0.500000 0.500000
O O6 0.552822 0.295879 0.407053
O O7 0.755399 0.215197 0.710464
O O8 0.000000 0.500000 0.500000
O O9 0.970748 0.369541 0.870219
O O10 0.266018 0.785116 0.799147
O O11 0.187550 0.923247 0.017426
O O12 0.500000 0.000000 0.500000
O O13 0.608735 0.908873 0.754653
O O14 0.500000 0.000000 0.000000
#
# Coordination Sequence:
#
# PCOD9001335 Si02
#       6
#     2   2   2   2   2   2
#     4  11  23  43  65  98 140 169 221 290 336 396
#     4  11  27  44  66  97 139 178 220 279 353 400
#     4  10  21  34  71 101 129 171 229 279 331 394
#     4   9  21  38  67  98 128 171 230 278 324 401
#     4  11  23  42  67  96 132 178 228 274 334 410
#     4   8  18  36  59  92 130 161 216 271 326 379
#
# _framework density 21.030768999999999
#
# number of rings (size 3 to 8) (size 9 to 14) (size 15 to 20)
#    1.000    1.000    1.667    0.500    7.000    0.000 
#    3.000    1.667    0.000    0.000    0.000    0.000 
#    0.000    0.000    0.000    0.000    0.000    0.000 
#
# Total GULP energy -66839.849316 kJ/mol
# GULP energy per Si atom -5569.987443 kJ/mol
# Density = 2.098290 g / cm^3
# Si number density = 21.030769 Si / 1000 Ang^3
#
#
#
# Elastic Constant Matrix: (Units=GPa)
#
#
# Indices 1 2 3 4 5 6 
#
# 1 121.4289 35.2326 27.6226 3.8423 0.9871 26.0177
# 2 35.2326 85.6967 54.2312 10.9092 -8.9536 18.0208
# 3 27.6226 54.2312 128.6083 1.7143 -3.5740 -3.3555
# 4 3.8423 10.9092 1.7143 39.9144 -2.9751 -3.4272
# 5 0.9871 -8.9536 -3.5740 -2.9751 17.3008 -6.7051
# 6 26.0177 18.0208 -3.3555 -3.4272 -6.7051 33.3435
#
#
#
# Elastic Compliance Matrix: (Units=1/GPa)
#
#
# Indices 1 2 3 4 5 6 
#
# 1 0.011363 -0.001737 -0.002099 -0.001793 -0.005981 -0.009526
# 2 -0.001737 0.021376 -0.008730 -0.005924 0.004133 -0.010854
# 3 -0.002099 -0.008730 0.012134 0.002909 0.001801 0.008238
# 4 -0.001793 -0.005924 0.002909 0.027930 0.005910 0.008953
# 5 -0.005981 0.004133 0.001801 0.005910 0.068236 0.016944
# 6 -0.009526 -0.010854 0.008238 0.008953 0.016944 0.048447
#
#
# Mechanical properties :
#
#
# Convention : Reuss Voigt Hill
#
# Bulk Modulus (GPa) = 50.65578 63.32296 56.98937
# Shear Modulus (GPa) = 22.60415 32.68826 27.64620
#
# Velocity S-wave (km/s) = 3.28199 3.94675 3.62962
# Velocity P-wave (km/s) = 6.20490 7.13751 6.68748
#
# Compressibility (1/GPa) = 0.01974109
#
# Stress axis : x y z
#
# Youngs Moduli (GPa) = 88.00374 46.78083 82.41341
#
# Poissons Ratio (x) = 0.08125 0.17299
# Poissons Ratio (y) = 0.15285 0.71949
# Poissons Ratio (z) = 0.18472 0.40841
#
# Static dielectric constant tensor:
#      x y z
#    x 1.793810 0.028280 0.050820 
#    y 0.028280 1.799070 0.025290 
#    z 0.050820 0.025290 1.793690 
# 
# From -- ./inp_files/204510.got.cif
#   From: 2010.05.17/outbox.cif.g08.bks.cpg/sg2_103_cif.got.tgz:204510.got - 2010.06.03 11:33:40.
