data_PCOD9001787
_publ_section_title
;
Structure prediction by ZEFSAII (Michael W. Deem and Ramdas Pophale) SiO2 
 PCOD9001787
Probable space group: P -1
;
_chemical_formula_sum "Si O2"
_cell_formula_units_Z 16
_cell_length_a 11.122077
_cell_length_b 12.758030
_cell_length_c 11.833969
_cell_angle_alpha 41.420022
_cell_angle_beta 123.784441
_cell_angle_gamma 142.339467
_cell_volume 675.807048
_symmetry_space_group_name_H-M "P -1"
_symmetry_group_IT_number 2
_symmetry_cell_setting 'triclinic'
loop_
_space_group_symop_operation_xyz
x,y,z
-x,-y,-z
loop_
_atom_site_type_symbol
_atom_site_label
_atom_site_fract_x
_atom_site_fract_y
_atom_site_fract_z
Si Si1 0.274364 0.860157 0.868457
Si Si2 0.216125 0.263653 0.637256
Si Si3 0.673322 0.958817 0.018338
Si Si4 0.786369 0.768036 0.819582
Si Si5 0.979535 0.378635 0.478598
Si Si6 0.239695 0.172340 0.489868
Si Si7 0.195968 0.593394 0.846525
Si Si8 0.345820 0.074033 0.220684
O O1 0.145782 0.663512 0.872143
O O2 0.218199 0.871396 0.957387
O O3 0.308405 0.051869 0.666490
O O4 0.466255 0.894862 0.955416
O O5 0.348567 0.241208 0.795522
O O6 0.285570 0.322852 0.496063
O O7 0.164895 0.398389 0.546556
O O8 0.004156 0.011827 0.735238
O O9 0.747249 0.011857 0.884646
O O10 0.691594 0.739512 0.671516
O O11 0.676216 0.766484 0.868633
O O12 0.799793 0.590068 0.979584
O O13 0.943798 0.456465 0.287151
O O14 0.000000 0.500000 0.500000
O O15 0.782520 0.128116 0.598789
O O16 0.000000 0.000000 0.500000
O O17 0.425339 0.802120 0.765554
#
# Coordination Sequence:
#
# PCOD9001787 Si02
#       8
#     2   2   2   2   2   2   2   2
#     4   9  18  37  62  87 123 159 208 247 292 371
#     4   9  20  39  60  82 128 163 196 249 310 367
#     4   9  19  35  64  86 116 168 203 238 310 350
#     4  10  21  35  63  91 121 157 206 253 299 371
#     4  11  25  40  61  92 124 158 207 258 305 368
#     4   9  17  36  59  88 118 161 197 246 309 351
#     4  11  22  39  61  92 121 159 209 253 301 361
#     4  10  22  40  62  83 126 167 198 249 311 369
#
# _framework density 23.675397
#
# number of rings (size 3 to 8) (size 9 to 14) (size 15 to 20)
#    0.000    2.250    0.000    3.000    3.500    2.000 
#    2.250    6.250    0.000    6.750    0.000    0.000 
#    0.000    0.000    0.000    0.000    0.000    0.000 
#
# Total GULP energy -89376.428029 kJ/mol
# GULP energy per Si atom -5586.026752 kJ/mol
# Density = 2.362151 g / cm^3
# Si number density = 23.675397 Si / 1000 Ang^3
#
#
#
# Elastic Constant Matrix: (Units=GPa)
#
#
# Indices 1 2 3 4 5 6 
#
# 1 119.3885 48.2367 60.1951 14.4963 16.1903 -41.4277
# 2 48.2367 94.5096 51.4026 13.6795 8.3620 -42.0020
# 3 60.1951 51.4026 160.6764 30.0526 17.1587 -27.6967
# 4 14.4963 13.6795 30.0526 38.3768 1.0917 -6.0630
# 5 16.1903 8.3620 17.1587 1.0917 40.6484 -1.9028
# 6 -41.4277 -42.0020 -27.6967 -6.0630 -1.9028 60.8539
#
#
#
# Elastic Compliance Matrix: (Units=1/GPa)
#
#
# Indices 1 2 3 4 5 6 
#
# 1 0.013325 -0.002150 -0.002671 -0.001105 -0.003420 0.006154
# 2 -0.002150 0.017667 -0.002797 -0.001803 -0.001116 0.009242
# 3 -0.002671 -0.002797 0.009312 -0.005241 -0.002156 -0.000100
# 4 -0.001105 -0.001803 -0.005241 0.030967 0.002134 -0.001230
# 5 -0.003420 -0.001116 -0.002156 0.002134 0.026904 -0.003026
# 6 0.006154 0.009242 -0.000100 -0.001230 -0.003026 0.026739
#
#
# Mechanical properties :
#
#
# Convention : Reuss Voigt Hill
#
# Bulk Modulus (GPa) = 39.89208 77.13812 58.51510
# Shear Modulus (GPa) = 33.66848 42.29184 37.98016
#
# Velocity S-wave (km/s) = 3.77515 4.23107 4.00960
# Velocity P-wave (km/s) = 5.99070 7.51808 6.79743
#
# Compressibility (1/GPa) = 0.02506764
#
# Stress axis : x y z
#
# Youngs Moduli (GPa) = 75.04542 56.60317 107.38415
#
# Poissons Ratio (x) = 0.12172 0.28686
# Poissons Ratio (y) = 0.16138 0.30031
# Poissons Ratio (z) = 0.20047 0.15830
#
# Static dielectric constant tensor:
#      x y z
#    x 1.929250 0.045040 -0.013720 
#    y 0.045040 1.986100 -0.027630 
#    z -0.013720 -0.027630 1.887960 
# 
# From -- ./inp_files/263419.got.cif
#   From: 2010.05.17/outbox.cif.g08.bks.cpg/sg2_132_cif.got.tgz:263419.got - 2010.06.03 11:33:40.
