data_PCOD9001648
_publ_section_title
;
Structure prediction by ZEFSAII (Michael W. Deem and Ramdas Pophale) SiO2 
 PCOD9001648
Probable space group: P -1
;
_chemical_formula_sum "Si O2"
_cell_formula_units_Z 14
_cell_length_a 7.277007
_cell_length_b 8.871132
_cell_length_c 21.596241
_cell_angle_alpha 56.444244
_cell_angle_beta 53.875125
_cell_angle_gamma 33.937793
_cell_volume 622.404411
_symmetry_space_group_name_H-M "P -1"
_symmetry_group_IT_number 2
_symmetry_cell_setting 'triclinic'
loop_
_space_group_symop_operation_xyz
x,y,z
-x,-y,-z
loop_
_atom_site_type_symbol
_atom_site_label
_atom_site_fract_x
_atom_site_fract_y
_atom_site_fract_z
Si Si1 0.109012 0.385539 0.666674
Si Si2 0.786639 0.950503 0.031470
Si Si3 0.672252 0.314300 0.783532
Si Si4 0.361441 0.933661 0.266165
Si Si5 0.223269 0.391468 0.127824
Si Si6 0.158466 0.054355 0.411788
Si Si7 0.188795 0.752256 0.878399
O O1 0.266212 0.257810 0.733086
O O2 0.435352 0.152213 0.611279
O O3 0.787509 0.446320 0.710915
O O4 0.022034 0.645692 0.616697
O O5 0.905224 0.708375 0.103224
O O6 0.907433 0.846207 0.961346
O O7 0.404580 0.229725 0.063268
O O8 0.000000 0.000000 0.000000
O O9 0.616215 0.228556 0.753776
O O10 0.357708 0.518869 0.847513
O O11 0.991318 0.029400 0.819307
O O12 0.147171 0.000127 0.354193
O O13 0.205796 0.213045 0.208174
O O14 0.493827 0.354916 0.120812
O O15 0.000000 0.000000 0.500000
#
# Coordination Sequence:
#
# PCOD9001648 Si02
#       7
#     2   2   2   2   2   2   2
#     4  10  22  42  65  90 128 160 202 245 308 362
#     4  10  21  35  60  89 118 166 213 256 313 359
#     4  12  23  39  63  93 124 163 211 248 306 365
#     4  10  26  38  67  92 125 161 206 254 306 366
#     4  11  20  38  61  87 121 162 212 256 306 365
#     4  10  22  43  70  93 125 162 200 246 307 368
#     4  11  21  38  59  89 124 162 211 260 302 363
#
# _framework density 22.493414000000001
#
# number of rings (size 3 to 8) (size 9 to 14) (size 15 to 20)
#    0.857    0.571    1.429    6.429    4.000    0.000 
#    0.000    5.714    0.000    0.000    0.000    0.000 
#    0.000    0.000    0.000    0.000    0.000    0.000 
#
# Total GULP energy -78294.484437 kJ/mol
# GULP energy per Si atom -5592.463174 kJ/mol
# Density = 2.244222 g / cm^3
# Si number density = 22.493414 Si / 1000 Ang^3
#
#
#
# Elastic Constant Matrix: (Units=GPa)
#
#
# Indices 1 2 3 4 5 6 
#
# 1 65.9527 5.2481 30.2686 -6.7246 -4.6806 20.8127
# 2 5.2481 103.2697 14.8595 -23.6670 -0.6134 10.6102
# 3 30.2686 14.8595 125.1700 -2.4354 -13.1941 27.4143
# 4 -6.7246 -23.6670 -2.4354 33.8626 2.5920 -5.0130
# 5 -4.6806 -0.6134 -13.1941 2.5920 13.4762 7.3076
# 6 20.8127 10.6102 27.4143 -5.0130 7.3076 27.0931
#
#
#
# Elastic Compliance Matrix: (Units=1/GPa)
#
#
# Indices 1 2 3 4 5 6 
#
# 1 0.025695 0.001491 0.004090 -0.000820 0.031040 -0.032985
# 2 0.001491 0.011930 -0.000626 0.007909 0.001105 -0.004018
# 3 0.004090 -0.000626 0.018071 -0.006039 0.037878 -0.032516
# 4 -0.000820 0.007909 -0.006039 0.038670 -0.022408 0.016842
# 5 0.031040 0.001105 0.037878 -0.022408 0.190487 -0.118129
# 6 -0.032985 -0.004018 -0.032516 0.016842 -0.118129 0.131701
#
#
# Mechanical properties :
#
#
# Convention : Reuss Voigt Hill
#
# Bulk Modulus (GPa) = 15.24281 43.90498 29.57389
# Shear Modulus (GPa) = 11.66822 31.15412 21.41117
#
# Velocity S-wave (km/s) = 2.28006 3.72564 3.08861
# Velocity P-wave (km/s) = 3.70443 6.16998 5.08878
#
# Compressibility (1/GPa) = 0.06560472
#
# Stress axis : x y z
#
# Youngs Moduli (GPa) = 38.91796 83.82359 55.33653
#
# Poissons Ratio (x) = -0.12499 -0.22630
# Poissons Ratio (y) = -0.05803 0.03466
# Poissons Ratio (z) = -0.15916 0.05250
#
# Static dielectric constant tensor:
#      x y z
#    x 1.876890 -0.032510 -0.005430 
#    y -0.032510 1.837480 0.051260 
#    z -0.005430 0.051260 1.825710 
# 
# From -- ./inp_files/219628.got.cif
#   From: 2010.05.17/outbox.cif.g08.bks.cpg/sg2_110_cif.got.tgz:219628.got - 2010.06.03 11:33:40.
