data_PCOD9001840
_publ_section_title
;
Structure prediction by ZEFSAII (Michael W. Deem and Ramdas Pophale) SiO2 
 PCOD9001840
Probable space group: P -1
;
_chemical_formula_sum "Si O2"
_cell_formula_units_Z 16
_cell_length_a 11.883321
_cell_length_b 14.655645
_cell_length_c 7.014567
_cell_angle_alpha 58.472956
_cell_angle_beta 37.975901
_cell_angle_gamma 56.873075
_cell_volume 619.391122
_symmetry_space_group_name_H-M "P -1"
_symmetry_group_IT_number 2
_symmetry_cell_setting 'triclinic'
loop_
_space_group_symop_operation_xyz
x,y,z
-x,-y,-z
loop_
_atom_site_type_symbol
_atom_site_label
_atom_site_fract_x
_atom_site_fract_y
_atom_site_fract_z
Si Si1 0.168595 0.756843 0.254236
Si Si2 0.690970 0.907256 0.292184
Si Si3 0.572417 0.690922 0.750811
Si Si4 0.433501 0.682713 0.508285
Si Si5 0.750101 0.510958 0.151851
Si Si6 0.152513 0.523821 0.491416
Si Si7 0.865449 0.107732 0.215642
Si Si8 0.865843 0.927170 0.664738
O O1 0.133250 0.649194 0.317848
O O2 0.000737 0.808367 0.564429
O O3 0.379007 0.717895 0.099003
O O4 0.174647 0.852892 0.990727
O O5 0.671232 0.790097 0.525125
O O6 0.500000 0.000000 0.500000
O O7 0.703795 0.914298 0.036651
O O8 0.908405 0.908641 0.048006
O O9 0.503258 0.692762 0.620125
O O10 0.703990 0.567902 0.723594
O O11 0.626199 0.639034 0.176218
O O12 0.346891 0.577822 0.711875
O O13 0.265657 0.793870 0.589050
O O14 0.779537 0.482282 0.370546
O O15 0.952093 0.497403 0.802489
O O16 0.802628 0.998664 0.481163
O O17 0.000000 0.000000 0.500000
#
# Coordination Sequence:
#
# PCOD9001840 Si02
#       8
#     2   2   2   2   2   2   2   2
#     4  11  23  41  64  96 135 172 218 264 323 387
#     4  11  24  45  70  97 129 165 221 275 327 390
#     4  10  21  40  63  95 133 171 211 268 324 386
#     4   9  19  36  61  89 132 168 207 274 321 376
#     4   9  19  36  58  97 130 165 223 265 315 388
#     4  10  21  35  66  93 133 174 216 261 327 381
#     4  10  22  43  63  92 132 170 217 271 323 378
#     4  10  23  40  68  91 121 174 219 263 332 382
#
# _framework density 25.83182
#
# number of rings (size 3 to 8) (size 9 to 14) (size 15 to 20)
#    0.000    2.000    0.000    3.000    8.750    1.000 
#    2.250   11.250    0.000    0.000    0.000    0.000 
#    0.000    0.000    0.000    0.000    0.000    0.000 
#
# Total GULP energy -89515.127170 kJ/mol
# GULP energy per Si atom -5594.695448 kJ/mol
# Density = 2.577303 g / cm^3
# Si number density = 25.831820 Si / 1000 Ang^3
#
#
#
# Elastic Constant Matrix: (Units=GPa)
#
#
# Indices 1 2 3 4 5 6 
#
# 1 61.4423 3.0835 -13.2616 10.3380 -1.3794 -18.7785
# 2 3.0835 205.5128 68.2830 47.4630 -3.4775 -5.6740
# 3 -13.2616 68.2830 128.9571 35.2307 -0.2550 -4.8413
# 4 10.3380 47.4630 35.2307 64.6004 1.1477 -0.0969
# 5 -1.3794 -3.4775 -0.2550 1.1477 32.2930 1.4764
# 6 -18.7785 -5.6740 -4.8413 -0.0969 1.4764 30.7947
#
#
#
# Elastic Compliance Matrix: (Units=1/GPa)
#
#
# Indices 1 2 3 4 5 6 
#
# 1 0.022743 -0.000043 0.004572 -0.006089 0.000555 0.014534
# 2 -0.000043 0.006521 -0.002489 -0.003440 0.000769 0.000736
# 3 0.004572 -0.002489 0.011038 -0.004917 0.000004 0.004049
# 4 -0.006089 -0.003440 -0.004917 0.021677 -0.001211 -0.004994
# 5 0.000555 0.000769 0.000004 -0.001211 0.031163 -0.001017
# 6 0.014534 0.000736 0.004049 -0.004994 -0.001017 0.042141
#
#
# Mechanical properties :
#
#
# Convention : Reuss Voigt Hill
#
# Bulk Modulus (GPa) = 22.53135 56.90244 39.71690
# Shear Modulus (GPa) = 34.24737 48.05809 41.15273
#
# Velocity S-wave (km/s) = 3.64508 4.31794 3.99570
# Velocity P-wave (km/s) = 5.14361 6.85094 6.05773
#
# Compressibility (1/GPa) = 0.04438260
#
# Stress axis : x y z
#
# Youngs Moduli (GPa) = 43.96875 153.34889 90.59879
#
# Poissons Ratio (x) = 0.00666 -0.41423
# Poissons Ratio (y) = 0.00191 0.22546
# Poissons Ratio (z) = -0.20103 0.38161
#
# Static dielectric constant tensor:
#      x y z
#    x 2.247760 -0.052930 0.096920 
#    y -0.052930 2.011160 0.028880 
#    z 0.096920 0.028880 2.023880 
# 
# From -- ./inp_files/224282.got.cif
#   From: 2010.05.17/outbox.cif.g08.bks.cpg/sg2_113_cif.got.tgz:224282.got - 2010.06.03 11:33:40.
