data_PCOD9001077
_publ_section_title
;
Structure prediction by ZEFSAII (Michael W. Deem and Ramdas Pophale) SiO2 
 PCOD9001077
Probable space group: P -1
;
_chemical_formula_sum "Si O2"
_cell_formula_units_Z 12
_cell_length_a 10.176047
_cell_length_b 10.812732
_cell_length_c 7.489647
_cell_angle_alpha 42.913698
_cell_angle_beta 63.292053
_cell_angle_gamma 86.827822
_cell_volume 447.587500
_symmetry_space_group_name_H-M "P -1"
_symmetry_group_IT_number 2
_symmetry_cell_setting 'triclinic'
loop_
_space_group_symop_operation_xyz
x,y,z
-x,-y,-z
loop_
_atom_site_type_symbol
_atom_site_label
_atom_site_fract_x
_atom_site_fract_y
_atom_site_fract_z
Si Si1 0.578502 0.106966 0.027367
Si Si2 0.378508 0.538581 0.846869
Si Si3 0.216416 0.499701 0.338832
Si Si4 0.113794 0.654814 0.912191
Si Si5 0.723870 0.825503 0.217480
Si Si6 0.241401 0.089277 0.303964
O O1 0.420206 0.103009 0.225485
O O2 0.675134 0.985755 0.176458
O O3 0.713828 0.343143 0.706644
O O4 0.500000 0.000000 0.000000
O O5 0.291123 0.681181 0.706715
O O6 0.543820 0.626823 0.537569
O O7 0.371603 0.549428 0.054533
O O8 0.255732 0.303612 0.131591
O O9 0.161896 0.266823 0.671195
O O10 0.100524 0.553767 0.221377
O O11 0.112774 0.871057 0.685921
O O12 0.000000 0.500000 0.000000
O O13 0.778372 0.911157 0.897193
#
# Coordination Sequence:
#
# PCOD9001077 Si02
#       6
#     2   2   2   2   2   2
#     4  10  21  33  60  95 131 153 191 246 326 367
#     4  10  22  35  64  91 127 154 200 257 308 363
#     4  10  23  37  62  92 130 154 204 256 306 366
#     4  10  25  43  59  86 125 174 213 243 292 364
#     4  11  21  36  61 100 125 150 198 256 328 361
#     4  11  22  36  64  92 125 161 198 251 318 370
#
# _framework density 26.810403000000001
#
# number of rings (size 3 to 8) (size 9 to 14) (size 15 to 20)
#    1.000    0.667    3.333    1.000    4.667    2.000 
#    0.000    0.833    0.000    7.000    0.000    0.000 
#    0.000    0.000    0.000    0.000    0.000    0.000 
#
# Total GULP energy -66962.705184 kJ/mol
# GULP energy per Si atom -5580.225432 kJ/mol
# Density = 2.674938 g / cm^3
# Si number density = 26.810403 Si / 1000 Ang^3
#
#
#
# Elastic Constant Matrix: (Units=GPa)
#
#
# Indices 1 2 3 4 5 6 
#
# 1 57.1147 -0.6145 36.2540 8.1949 21.6947 -8.0564
# 2 -0.6145 53.4270 10.2416 5.9479 3.6742 -1.2045
# 3 36.2540 10.2416 101.1093 0.6020 40.4355 -21.3962
# 4 8.1949 5.9479 0.6020 44.9513 -4.4679 15.8217
# 5 21.6947 3.6742 40.4355 -4.4679 39.0891 -4.8210
# 6 -8.0564 -1.2045 -21.3962 15.8217 -4.8210 27.8656
#
#
#
# Elastic Compliance Matrix: (Units=1/GPa)
#
#
# Indices 1 2 3 4 5 6 
#
# 1 0.026628 0.002982 -0.003323 -0.009385 -0.011635 0.008592
# 2 0.002982 0.019739 -0.001824 -0.004139 -0.001807 0.002352
# 3 -0.003323 -0.001824 0.023448 -0.007804 -0.020941 0.017773
# 4 -0.009385 -0.004139 -0.007804 0.035359 0.014449 -0.026461
# 5 -0.011635 -0.001807 -0.020941 0.014449 0.053240 -0.018513
# 6 0.008592 0.002352 0.017773 -0.026461 -0.018513 0.063940
#
#
# Mechanical properties :
#
#
# Convention : Reuss Voigt Hill
#
# Bulk Modulus (GPa) = 15.27038 33.71257 24.49148
# Shear Modulus (GPa) = 20.11974 33.43254 26.77614
#
# Velocity S-wave (km/s) = 2.74240 3.53512 3.16368
# Velocity P-wave (km/s) = 3.96683 5.40967 4.74343
#
# Compressibility (1/GPa) = 0.06548624
#
# Stress axis : x y z
#
# Youngs Moduli (GPa) = 37.55484 50.66111 42.64669
#
# Poissons Ratio (x) = -0.15106 0.14171
# Poissons Ratio (y) = -0.11198 0.07777
# Poissons Ratio (z) = 0.12479 0.09238
#
# Static dielectric constant tensor:
#      x y z
#    x 2.276150 -0.072400 0.007820 
#    y -0.072400 2.069660 0.032960 
#    z 0.007820 0.032960 2.109160 
# 
# From -- ./inp_files/255760.got.cif
#   From: 2010.05.17/outbox.cif.g08.bks.cpg/sg2_128_cif.got.tgz:255760.got - 2010.06.03 11:33:40.
