data_PCOD9001802
_publ_section_title
;
Structure prediction by ZEFSAII (Michael W. Deem and Ramdas Pophale) SiO2 
 PCOD9001802
Probable space group: P -1
;
_chemical_formula_sum "Si O2"
_cell_formula_units_Z 16
_cell_length_a 20.181850
_cell_length_b 5.383146
_cell_length_c 18.988434
_cell_angle_alpha 64.027240
_cell_angle_beta 23.271799
_cell_angle_gamma 61.228639
_cell_volume 714.380045
_symmetry_space_group_name_H-M "P -1"
_symmetry_group_IT_number 2
_symmetry_cell_setting 'triclinic'
loop_
_space_group_symop_operation_xyz
x,y,z
-x,-y,-z
loop_
_atom_site_type_symbol
_atom_site_label
_atom_site_fract_x
_atom_site_fract_y
_atom_site_fract_z
Si Si1 0.190323 0.938540 0.405689
Si Si2 0.028584 0.037367 0.689948
Si Si3 0.340685 0.020658 0.918616
Si Si4 0.229220 0.250395 0.714999
Si Si5 0.568779 0.658186 0.077474
Si Si6 0.519879 0.956577 0.376642
Si Si7 0.827808 0.144381 0.283471
Si Si8 0.105974 0.353940 0.324207
O O1 0.380434 0.788947 0.216484
O O2 0.045366 0.793265 0.533646
O O3 0.172705 0.895226 0.511641
O O4 0.150733 0.258198 0.372979
O O5 0.865607 0.899626 0.878561
O O6 0.951253 0.327995 0.687980
O O7 0.113872 0.048383 0.681160
O O8 0.399958 0.682138 0.917338
O O9 0.396949 0.039874 0.780819
O O10 0.416706 0.219230 0.873224
O O11 0.380848 0.231202 0.509040
O O12 0.117361 0.562124 0.797252
O O13 0.332640 0.132289 0.698541
O O14 0.121112 0.040598 0.812643
O O15 0.717410 0.760456 0.876514
O O16 0.380644 0.759893 0.531383
#
# Coordination Sequence:
#
# PCOD9001802 Si02
#       8
#     2   2   2   2   2   2   2   2
#     4  11  23  41  71  88 128 176 213 262 328 376
#     4  11  24  41  62  92 135 162 215 267 321 378
#     4  11  25  41  63  96 132 167 209 273 315 376
#     4   9  21  36  61  90 121 158 215 263 298 391
#     4  11  25  44  65  98 128 170 219 262 317 380
#     4   9  21  37  62  87 126 159 214 255 320 364
#     4  10  21  35  64  88 120 161 212 252 318 373
#     4  10  24  45  61  98 129 167 215 271 316 380
#
# _framework density 22.397043
#
# number of rings (size 3 to 8) (size 9 to 14) (size 15 to 20)
#    0.750    1.000    1.250    1.875    8.750    0.000 
#    0.000    3.125    0.000    0.000    0.000    0.000 
#    0.000    0.000    0.000    0.000    0.000    0.000 
#
# Total GULP energy -89163.173869 kJ/mol
# GULP energy per Si atom -5572.698367 kJ/mol
# Density = 2.234607 g / cm^3
# Si number density = 22.397043 Si / 1000 Ang^3
#
#
#
# Elastic Constant Matrix: (Units=GPa)
#
#
# Indices 1 2 3 4 5 6 
#
# 1 173.3774 19.0398 3.0502 5.4030 -10.9317 13.5941
# 2 19.0398 65.3542 -2.6047 13.7978 -1.7514 15.9905
# 3 3.0502 -2.6047 102.0326 -0.2390 3.5114 -5.6800
# 4 5.4030 13.7978 -0.2390 13.4701 -4.5099 1.0759
# 5 -10.9317 -1.7514 3.5114 -4.5099 35.5545 -3.1956
# 6 13.5941 15.9905 -5.6800 1.0759 -3.1956 26.5023
#
#
#
# Elastic Compliance Matrix: (Units=1/GPa)
#
#
# Indices 1 2 3 4 5 6 
#
# 1 0.006201 -0.001039 -0.000403 -0.000705 0.001588 -0.002420
# 2 -0.001039 0.023850 -0.000040 -0.024088 -0.003391 -0.013297
# 3 -0.000403 -0.000040 0.009969 -0.000109 -0.000921 0.002261
# 4 -0.000705 -0.024088 -0.000109 0.102469 0.012706 0.012244
# 5 0.001588 -0.003391 -0.000921 0.012706 0.030527 0.004199
# 6 -0.002420 -0.013297 0.002261 0.012244 0.004199 0.047491
#
#
# Mechanical properties :
#
#
# Convention : Reuss Voigt Hill
#
# Bulk Modulus (GPa) = 26.98590 42.19276 34.58933
# Shear Modulus (GPa) = 21.20230 36.52398 28.86314
#
# Velocity S-wave (km/s) = 3.08012 4.04264 3.59375
# Velocity P-wave (km/s) = 4.97237 6.37730 5.71815
#
# Compressibility (1/GPa) = 0.03705639
#
# Stress axis : x y z
#
# Youngs Moduli (GPa) = 161.26926 41.92791 100.30980
#
# Poissons Ratio (x) = 0.04356 0.04042
# Poissons Ratio (y) = 0.16757 0.00402
# Poissons Ratio (z) = 0.06498 0.00168
#
# Static dielectric constant tensor:
#      x y z
#    x 1.831530 0.024220 0.018170 
#    y 0.024220 1.894130 0.020940 
#    z 0.018170 0.020940 1.842860 
# 
# From -- ./inp_files/574910.got.cif
#   From: 2010.05.17/outbox.cif.g08.bks.cpg/sg2_288_cif.got.tgz:574910.got - 2010.06.03 11:33:40.
