data_PCOD9001564
_publ_section_title
;
Structure prediction by ZEFSAII (Michael W. Deem and Ramdas Pophale) SiO2 
 PCOD9001564
Probable space group: P -1
;
_chemical_formula_sum "Si O2"
_cell_formula_units_Z 16
_cell_length_a 12.256611
_cell_length_b 7.324578
_cell_length_c 22.017547
_cell_angle_alpha 45.393193
_cell_angle_beta 153.107594
_cell_angle_gamma 129.177520
_cell_volume 636.425597
_symmetry_space_group_name_H-M "P -1"
_symmetry_group_IT_number 2
_symmetry_cell_setting 'triclinic'
loop_
_space_group_symop_operation_xyz
x,y,z
-x,-y,-z
loop_
_atom_site_type_symbol
_atom_site_label
_atom_site_fract_x
_atom_site_fract_y
_atom_site_fract_z
Si Si1 0.450682 0.157662 0.778404
Si Si2 0.720781 0.963541 0.856290
Si Si3 0.294598 0.290585 0.220536
Si Si4 0.103131 0.846579 0.854643
Si Si5 0.605095 0.686553 0.149405
Si Si6 0.768496 0.032337 0.541186
Si Si7 0.387249 0.353833 0.535265
Si Si8 0.942957 0.558189 0.545245
O O1 0.586125 0.936966 0.860697
O O2 0.409203 0.156301 0.830166
O O3 0.199082 0.205260 0.607731
O O4 0.609168 0.421856 0.788536
O O5 0.600811 0.221397 0.709148
O O6 0.698193 0.771270 0.832947
O O7 0.000000 0.000000 0.000000
O O8 0.485749 0.099068 0.391858
O O9 0.035704 0.238472 0.133918
O O10 0.232787 0.126796 0.856196
O O11 0.330316 0.665582 0.995904
O O12 0.901051 0.871444 0.696401
O O13 0.772970 0.442008 0.301124
O O14 0.892319 0.312015 0.534889
O O15 0.777164 0.873179 0.521239
O O16 0.500000 0.500000 0.500000
O O17 0.214437 0.510024 0.456740
#
# Coordination Sequence:
#
# PCOD9001564 Si02
#       8
#     2   2   2   2   2   2   2   2
#     4  10  21  40  62  88 115 157 207 243 294 364
#     4  10  22  37  57  88 124 152 189 255 310 344
#     4  10  21  38  64  89 115 155 206 253 296 351
#     4  10  21  35  58  88 122 158 198 246 300 360
#     4  10  21  37  57  86 123 163 196 237 304 364
#     4   9  20  35  59  86 117 153 192 249 304 339
#     4  10  22  35  58  92 118 152 206 249 293 365
#     4   9  20  38  60  83 116 159 199 242 297 357
#
# _framework density 25.140408000000001
#
# number of rings (size 3 to 8) (size 9 to 14) (size 15 to 20)
#    0.000    2.250    0.000    1.500   12.250    2.000 
#    0.000    3.125    0.000   15.750    0.000    0.000 
#    0.000    0.000    0.000    0.000    0.000    0.000 
#
# Total GULP energy -89458.954383 kJ/mol
# GULP energy per Si atom -5591.184649 kJ/mol
# Density = 2.508319 g / cm^3
# Si number density = 25.140408 Si / 1000 Ang^3
#
#
#
# Elastic Constant Matrix: (Units=GPa)
#
#
# Indices 1 2 3 4 5 6 
#
# 1 123.2942 39.7737 39.6725 8.9947 27.0441 6.3835
# 2 39.7737 84.3427 23.7982 10.1433 10.5960 -10.7782
# 3 39.6725 23.7982 182.1779 3.2948 19.3760 -11.4433
# 4 8.9947 10.1433 3.2948 25.0295 0.9188 -2.5271
# 5 27.0441 10.5960 19.3760 0.9188 42.3273 1.1843
# 6 6.3835 -10.7782 -11.4433 -2.5271 1.1843 40.4805
#
#
#
# Elastic Compliance Matrix: (Units=1/GPa)
#
#
# Indices 1 2 3 4 5 6 
#
# 1 0.011599 -0.004521 -0.001533 -0.002283 -0.005431 -0.003450
# 2 -0.004521 0.015288 -0.000589 -0.004024 -0.000704 0.004386
# 3 -0.001533 -0.000589 0.006204 0.000230 -0.001771 0.001905
# 4 -0.002283 -0.004024 0.000230 0.042522 0.001383 0.001968
# 5 -0.005431 -0.000704 -0.001771 0.001383 0.028068 -0.000567
# 6 -0.003450 0.004386 0.001905 0.001968 -0.000567 0.027093
#
#
# Mechanical properties :
#
#
# Convention : Reuss Voigt Hill
#
# Bulk Modulus (GPa) = 50.49625 66.25596 58.37611
# Shear Modulus (GPa) = 33.18690 40.67215 36.92952
#
# Velocity S-wave (km/s) = 3.63721 4.02655 3.83682
# Velocity P-wave (km/s) = 6.14559 6.93030 6.54971
#
# Compressibility (1/GPa) = 0.01980345
#
# Stress axis : x y z
#
# Youngs Moduli (GPa) = 86.21471 65.41228 161.19081
#
# Poissons Ratio (x) = 0.29574 0.24711
# Poissons Ratio (y) = 0.38979 0.09499
# Poissons Ratio (z) = 0.13217 0.03855
#
# Static dielectric constant tensor:
#      x y z
#    x 2.016080 0.024760 -0.013210 
#    y 0.024760 1.991280 -0.013070 
#    z -0.013210 -0.013070 2.026140 
# 
# From -- ./inp_files/593160.got.cif
#   From: 2010.05.17/outbox.cif.g08.bks.cpg/sg2_297_cif.got.tgz:593160.got - 2010.06.03 11:33:40.
