data_PCOD9001521
_publ_section_title
;
Structure prediction by ZEFSAII (Michael W. Deem and Ramdas Pophale) SiO2 
 PCOD9001521
Probable space group: P -1
;
_chemical_formula_sum "Si O2"
_cell_formula_units_Z 16
_cell_length_a 17.512712
_cell_length_b 26.286258
_cell_length_c 25.552835
_cell_angle_alpha 11.536429
_cell_angle_beta 157.426705
_cell_angle_gamma 159.698839
_cell_volume 814.530704
_symmetry_space_group_name_H-M "P -1"
_symmetry_group_IT_number 2
_symmetry_cell_setting 'triclinic'
loop_
_space_group_symop_operation_xyz
x,y,z
-x,-y,-z
loop_
_atom_site_type_symbol
_atom_site_label
_atom_site_fract_x
_atom_site_fract_y
_atom_site_fract_z
Si Si1 0.518431 0.080788 0.792994
Si Si2 0.786295 0.722104 0.342261
Si Si3 0.542446 0.926419 0.739214
Si Si4 0.820987 0.608167 0.922124
Si Si5 0.899851 0.147778 0.491239
Si Si6 0.021263 0.755622 0.792698
Si Si7 0.042242 0.158010 0.786949
Si Si8 0.312705 0.798703 0.339038
O O1 0.612872 0.395129 0.558649
O O2 0.549555 0.111125 0.718727
O O3 0.263680 0.895230 0.830701
O O4 0.661786 0.922610 0.062955
O O5 0.949145 0.777838 0.437615
O O6 0.918466 0.790433 0.302196
O O7 0.362060 0.959763 0.554036
O O8 0.786805 0.040775 0.757447
O O9 0.545519 0.077701 0.643935
O O10 0.429436 0.592714 0.016699
O O11 0.841979 0.647240 0.834254
O O12 0.917409 0.903109 0.715252
O O13 0.945296 0.420704 0.209168
O O14 0.000000 0.000000 0.500000
O O15 0.000000 0.500000 0.000000
O O16 0.179863 0.461721 0.594655
O O17 0.142067 0.941690 0.084843
#
# Coordination Sequence:
#
# PCOD9001521 Si02
#       8
#     2   2   2   2   2   2   2   2
#     4  10  22  39  63  88 117 161 190 253 305 346
#     4  10  21  43  60  86 123 155 213 241 291 348
#     4  10  23  36  61  83 126 156 200 240 312 340
#     4  10  24  39  58  91 120 151 206 236 305 344
#     4  10  23  40  61  83 124 164 197 254 283 349
#     4  12  24  41  66  95 124 153 196 244 298 369
#     4  10  22  35  59  88 116 160 199 249 290 361
#     4  10  21  35  57  87 121 149 198 246 306 358
#
# _framework density 19.643211999999998
#
# number of rings (size 3 to 8) (size 9 to 14) (size 15 to 20)
#    0.750    1.000    0.000    3.750    5.250    1.500 
#    0.000    4.375    0.000    0.000    0.000    0.000 
#    0.000    0.000    0.000    0.000    0.000    0.000 
#
# Total GULP energy -89368.861315 kJ/mol
# GULP energy per Si atom -5585.553832 kJ/mol
# Density = 1.959850 g / cm^3
# Si number density = 19.643212 Si / 1000 Ang^3
#
#
#
# Elastic Constant Matrix: (Units=GPa)
#
#
# Indices 1 2 3 4 5 6 
#
# 1 17.0728 5.8161 25.1968 -11.1137 -7.2928 -12.0133
# 2 5.8161 57.5500 17.7704 -2.2775 -8.6901 -10.3434
# 3 25.1968 17.7704 116.3736 -18.2889 -4.5415 -9.3880
# 4 -11.1137 -2.2775 -18.2889 24.7084 -8.1703 -1.3010
# 5 -7.2928 -8.6901 -4.5415 -8.1703 22.5638 0.1065
# 6 -12.0133 -10.3434 -9.3880 -1.3010 0.1065 32.2878
#
#
#
# Elastic Compliance Matrix: (Units=1/GPa)
#
#
# Indices 1 2 3 4 5 6 
#
# 1 -8.374309 -0.892788 0.692929 -5.080143 -4.734542 -3.389458
# 2 -0.892788 -0.074663 0.072214 -0.537638 -0.495779 -0.355131
# 3 0.692929 0.072214 -0.046536 0.430012 0.396776 0.283441
# 4 -5.080143 -0.537638 0.430012 -3.025610 -2.848355 -2.049900
# 5 -4.734542 -0.495779 0.396776 -2.848355 -2.619374 -1.911179
# 6 -3.389458 -0.355131 0.283441 -2.049900 -1.911179 -1.337799
#
#
# Mechanical properties :
#
#
# Convention : Reuss Voigt Hill
#
# Bulk Modulus (GPa) = -0.11428 32.06256 15.97414
# Shear Modulus (GPa) = -0.27563 25.39286 12.55861
#
# Velocity S-wave (km/s) = -0.37500 3.59932 2.53125
# Velocity P-wave (km/s) = 0.49578 5.79926 4.08568
#
# Compressibility (1/GPa) = -8.75079661
#
# Stress axis : x y z
#
# Youngs Moduli (GPa) = -0.11941 -13.39360 -21.48889
#
# Poissons Ratio (x) = -11.95764 14.89028
# Poissons Ratio (y) = -0.10661 1.55180
# Poissons Ratio (z) = 0.08274 0.96721
#
# Static dielectric constant tensor:
#      x y z
#    x 1.670470 0.011640 -0.001070 
#    y 0.011640 1.664630 0.012060 
#    z -0.001070 0.012060 1.695980 
# 
# From -- ./inp_files/458387.got.cif
#   From: 2010.05.17/outbox.cif.g08.bks.cpg/sg2_230_cif.got.tgz:458387.got - 2010.06.03 11:33:40.
