data_PCOD9001781
_publ_section_title
;
Structure prediction by ZEFSAII (Michael W. Deem and Ramdas Pophale) SiO2 
 PCOD9001781
Probable space group: P -1
;
_chemical_formula_sum "Si O2"
_cell_formula_units_Z 16
_cell_length_a 5.728899
_cell_length_b 15.432113
_cell_length_c 12.374704
_cell_angle_alpha 130.582160
_cell_angle_beta 91.251273
_cell_angle_gamma 101.050224
_cell_volume 799.575192
_symmetry_space_group_name_H-M "P -1"
_symmetry_group_IT_number 2
_symmetry_cell_setting 'triclinic'
loop_
_space_group_symop_operation_xyz
x,y,z
-x,-y,-z
loop_
_atom_site_type_symbol
_atom_site_label
_atom_site_fract_x
_atom_site_fract_y
_atom_site_fract_z
Si Si1 0.711081 0.170530 0.652122
Si Si2 0.279608 0.935756 0.212708
Si Si3 0.643930 0.145332 0.296510
Si Si4 0.827009 0.879480 0.488076
Si Si5 0.934084 0.121371 0.069632
Si Si6 0.992048 0.321538 0.609943
Si Si7 0.624013 0.698073 0.685723
Si Si8 0.197987 0.501038 0.594252
O O1 0.712959 0.158740 0.771295
O O2 0.432118 0.122157 0.570659
O O3 0.825565 0.296001 0.695010
O O4 0.085139 0.896691 0.441036
O O5 0.543833 0.022747 0.258519
O O6 0.141866 0.025966 0.338497
O O7 0.166444 0.885308 0.057396
O O8 0.747621 0.128175 0.167477
O O9 0.831099 0.239537 0.448273
O O10 0.427404 0.201907 0.310543
O O11 0.798525 0.743980 0.417581
O O12 0.158052 0.236237 0.182359
O O13 0.000000 0.000000 0.000000
O O14 0.082264 0.451860 0.667680
O O15 0.390505 0.628198 0.695304
O O16 0.679917 0.599216 0.528752
O O17 0.000000 0.500000 0.500000
#
# Coordination Sequence:
#
# PCOD9001781 Si02
#       8
#     2   2   2   2   2   2   2   2
#     4  10  24  37  61  89 127 166 217 262 312 369
#     4  12  22  38  59  86 128 174 208 250 310 380
#     4  12  22  40  57  90 129 169 209 252 316 383
#     4  10  21  39  57  91 124 166 211 261 314 366
#     4  12  25  38  58  91 131 174 207 251 315 386
#     4  10  21  35  63  84 129 147 208 264 319 363
#     4  11  23  38  60  90 125 160 210 251 327 372
#     4  11  21  38  65  90 118 158 204 272 319 372
#
# _framework density 20.010624
#
# number of rings (size 3 to 8) (size 9 to 14) (size 15 to 20)
#    0.750    0.250    5.000    2.625    0.000    1.000 
#    0.000    0.000    0.000    0.750    0.000    4.375 
#    0.000    0.000    0.000    0.000    0.000    0.000 
#
# Total GULP energy -89209.076923 kJ/mol
# GULP energy per Si atom -5575.567308 kJ/mol
# Density = 1.996508 g / cm^3
# Si number density = 20.010624 Si / 1000 Ang^3
#
#
#
# Elastic Constant Matrix: (Units=GPa)
#
#
# Indices 1 2 3 4 5 6 
#
# 1 80.2910 24.2615 13.1848 -16.6215 6.7083 6.2778
# 2 24.2615 148.1607 26.1625 -32.2258 2.0735 27.7779
# 3 13.1848 26.1625 60.1327 -26.3535 8.1062 9.1538
# 4 -16.6215 -32.2258 -26.3535 33.1225 -3.2918 3.9956
# 5 6.7083 2.0735 8.1062 -3.2918 15.3657 2.7839
# 6 6.2778 27.7779 9.1538 3.9956 2.7839 37.3626
#
#
#
# Elastic Compliance Matrix: (Units=1/GPa)
#
#
# Indices 1 2 3 4 5 6 
#
# 1 0.014641 -0.000174 0.001739 0.008475 -0.004873 -0.003300
# 2 -0.000174 0.011595 0.003043 0.015173 0.002171 -0.011122
# 3 0.001739 0.003043 0.030676 0.028862 -0.008906 -0.012493
# 4 0.008475 0.015173 0.028862 0.075558 0.000263 -0.027876
# 5 -0.004873 0.002171 -0.008906 0.000263 0.072401 -0.004036
# 6 -0.003300 -0.011122 -0.012493 -0.027876 -0.004036 0.041930
#
#
# Mechanical properties :
#
#
# Convention : Reuss Voigt Hill
#
# Bulk Modulus (GPa) = 15.12212 46.20021 30.66116
# Shear Modulus (GPa) = 19.25816 32.16852 25.71334
#
# Velocity S-wave (km/s) = 3.10562 4.01380 3.58856
# Velocity P-wave (km/s) = 4.52032 6.67973 5.70316
#
# Compressibility (1/GPa) = 0.06612831
#
# Stress axis : x y z
#
# Youngs Moduli (GPa) = 68.29947 86.24041 32.59858
#
# Poissons Ratio (x) = 0.01504 -0.05669
# Poissons Ratio (y) = 0.01191 -0.09920
# Poissons Ratio (z) = -0.11877 -0.26243
#
# Static dielectric constant tensor:
#      x y z
#    x 1.801250 0.015460 -0.048950 
#    y 0.015460 1.812700 -0.030070 
#    z -0.048950 -0.030070 1.736830 
# 
# From -- ./inp_files/367954.got.cif
#   From: 2010.05.17/outbox.cif.g08.bks.cpg/sg2_184_cif.got.tgz:367954.got - 2010.06.03 11:33:40.
