data_PCOD9001780
_publ_section_title
;
Structure prediction by ZEFSAII (Michael W. Deem and Ramdas Pophale) SiO2 
 PCOD9001780
Probable space group: P -1
;
_chemical_formula_sum "Si O2"
_cell_formula_units_Z 12
_cell_length_a 11.373180
_cell_length_b 9.818379
_cell_length_c 6.777830
_cell_angle_alpha 66.166459
_cell_angle_beta 78.505768
_cell_angle_gamma 38.217422
_cell_volume 418.849343
_symmetry_space_group_name_H-M "P -1"
_symmetry_group_IT_number 2
_symmetry_cell_setting 'triclinic'
loop_
_space_group_symop_operation_xyz
x,y,z
-x,-y,-z
loop_
_atom_site_type_symbol
_atom_site_label
_atom_site_fract_x
_atom_site_fract_y
_atom_site_fract_z
Si Si1 0.153661 0.538277 0.448824
Si Si2 0.236308 0.035906 0.798999
Si Si3 0.850578 0.829157 0.690768
Si Si4 0.647744 0.731053 0.810910
Si Si5 0.726988 0.316135 0.081422
Si Si6 0.733124 0.256133 0.567470
O O1 0.328737 0.282145 0.432558
O O2 0.198915 0.670152 0.369453
O O3 0.967264 0.681090 0.288937
O O4 0.067017 0.596557 0.663586
O O5 0.266118 0.012809 0.563418
O O6 0.437342 0.908841 0.876427
O O7 0.188885 0.909239 0.927289
O O8 0.758174 0.767053 0.833221
O O9 0.807652 0.015958 0.727610
O O10 0.746566 0.472337 0.953635
O O11 0.790621 0.231741 0.336017
O O12 0.500000 0.500000 0.000000
O O13 0.500000 0.500000 0.500000
#
# Coordination Sequence:
#
# PCOD9001780 Si02
#       6
#     2   2   2   2   2   2
#     4  10  21  35  63  83 112 150 198 221 281 340
#     4   8  19  33  56  80 114 142 195 217 273 335
#     4   9  20  35  57  87 114 145 194 233 272 340
#     4  11  19  38  60  87 117 145 182 246 285 318
#     4   9  19  35  56  85 115 146 187 233 282 337
#     4  11  21  40  62  82 111 158 191 230 278 342
#
# _framework density 28.649918
#
# number of rings (size 3 to 8) (size 9 to 14) (size 15 to 20)
#    1.000    1.333    0.000    4.500    0.000    0.667 
#    0.000    1.667    0.000    0.000    0.000    0.000 
#    0.000    0.000    0.000    0.000    0.000    0.000 
#
# Total GULP energy -66953.688847 kJ/mol
# GULP energy per Si atom -5579.474071 kJ/mol
# Density = 2.858471 g / cm^3
# Si number density = 28.649918 Si / 1000 Ang^3
#
#
#
# Elastic Constant Matrix: (Units=GPa)
#
#
# Indices 1 2 3 4 5 6 
#
# 1 208.0335 98.7445 51.3386 1.4583 -39.0264 25.2319
# 2 98.7445 126.2912 28.8660 18.4774 -9.5620 24.2586
# 3 51.3386 28.8660 67.6992 2.6188 -10.2044 28.4318
# 4 1.4583 18.4774 2.6188 43.4013 14.2603 -6.6017
# 5 -39.0264 -9.5620 -10.2044 14.2603 46.9478 -7.3911
# 6 25.2319 24.2586 28.4318 -6.6017 -7.3911 79.6862
#
#
#
# Elastic Compliance Matrix: (Units=1/GPa)
#
#
# Indices 1 2 3 4 5 6 
#
# 1 0.010072 -0.006793 -0.004338 0.001039 0.005898 0.001059
# 2 -0.006793 0.014526 0.000246 -0.006003 -0.001280 -0.002975
# 3 -0.004338 0.000246 0.020779 -0.002395 0.000704 -0.006248
# 4 0.001039 -0.006003 -0.002395 0.029315 -0.009165 0.003932
# 5 0.005898 -0.001280 0.000704 -0.009165 0.028910 0.000193
# 6 0.001059 -0.002975 -0.006248 0.003932 0.000193 0.015692
#
#
# Mechanical properties :
#
#
# Convention : Reuss Voigt Hill
#
# Bulk Modulus (GPa) = 42.35836 84.43578 63.39707
# Shear Modulus (GPa) = 33.57232 48.87872 41.22552
#
# Velocity S-wave (km/s) = 3.42689 4.13494 3.79745
# Velocity P-wave (km/s) = 5.52042 7.23412 6.43457
#
# Compressibility (1/GPa) = 0.02360809
#
# Stress axis : x y z
#
# Youngs Moduli (GPa) = 99.28276 68.84298 48.12628
#
# Poissons Ratio (x) = 0.46763 0.20877
# Poissons Ratio (y) = 0.67439 -0.01185
# Poissons Ratio (z) = 0.43068 -0.01696
#
# Static dielectric constant tensor:
#      x y z
#    x 2.193240 -0.015300 -0.093640 
#    y -0.015300 2.198240 -0.037180 
#    z -0.093640 -0.037180 2.409690 
# 
# From -- ./inp_files/243449.got.cif
#   From: 2010.05.17/outbox.cif.g08.bks.cpg/sg2_122_cif.got.tgz:243449.got - 2010.06.03 11:33:40.
