data_PCOD9001524
_publ_section_title
;
Structure prediction by ZEFSAII (Michael W. Deem and Ramdas Pophale) SiO2 
 PCOD9001524
Probable space group: P -1
;
_chemical_formula_sum "Si O2"
_cell_formula_units_Z 16
_cell_length_a 11.548251
_cell_length_b 15.423002
_cell_length_c 13.644074
_cell_angle_alpha 69.217549
_cell_angle_beta 127.803983
_cell_angle_gamma 150.236157
_cell_volume 850.262295
_symmetry_space_group_name_H-M "P -1"
_symmetry_group_IT_number 2
_symmetry_cell_setting 'triclinic'
loop_
_space_group_symop_operation_xyz
x,y,z
-x,-y,-z
loop_
_atom_site_type_symbol
_atom_site_label
_atom_site_fract_x
_atom_site_fract_y
_atom_site_fract_z
Si Si1 0.380431 0.280995 0.362943
Si Si2 0.754385 0.169306 0.930721
Si Si3 0.570962 0.052378 0.666610
Si Si4 0.700154 0.970733 0.619652
Si Si5 0.278767 0.582269 0.104983
Si Si6 0.689384 0.960057 0.105396
Si Si7 0.116408 0.293571 0.556639
Si Si8 0.681663 0.763528 0.430439
O O1 0.360008 0.170719 0.343681
O O2 0.629869 0.491309 0.366922
O O3 0.461614 0.307138 0.508428
O O4 0.041649 0.137810 0.245705
O O5 0.728781 0.169121 0.801919
O O6 0.499029 0.089709 0.887280
O O7 0.097467 0.389051 0.056921
O O8 0.683406 0.024537 0.983565
O O9 0.559947 0.125962 0.547310
O O10 0.702817 0.033528 0.693199
O O11 0.204947 0.835849 0.585592
O O12 0.011595 0.164515 0.640507
O O13 0.521512 0.767419 0.084639
O O14 0.452915 0.668282 0.264006
O O15 0.000000 0.500000 0.000000
O O16 0.234598 0.295636 0.528855
O O17 0.000000 0.000000 0.500000
#
# Coordination Sequence:
#
# PCOD9001524 Si02
#       8
#     2   2   2   2   2   2   2   2
#     4  12  22  34  63  87 119 152 196 248 300 342
#     4  10  21  39  58  79 126 156 188 237 298 356
#     4   9  20  42  60  83 116 158 199 252 293 337
#     4   9  21  40  58  86 117 147 207 259 281 338
#     4  10  22  34  53  84 120 156 191 224 290 362
#     4  10  21  36  55  89 119 151 187 241 291 364
#     4  10  21  35  57  88 117 146 196 243 296 349
#     4  12  20  36  60  88 124 156 187 243 302 350
#
# _framework density 18.817723000000001
#
# number of rings (size 3 to 8) (size 9 to 14) (size 15 to 20)
#    0.750    1.000    2.500    1.875    5.250    3.500 
#    0.000    0.625    0.000    5.250    0.000    0.000 
#    0.000    0.000    0.000    0.000    0.000    0.000 
#
# Total GULP energy -89177.760577 kJ/mol
# GULP energy per Si atom -5573.610036 kJ/mol
# Density = 1.877489 g / cm^3
# Si number density = 18.817723 Si / 1000 Ang^3
#
#
#
# Elastic Constant Matrix: (Units=GPa)
#
#
# Indices 1 2 3 4 5 6 
#
# 1 48.8342 -0.0671 4.6062 -0.0600 0.5292 -13.1430
# 2 -0.0671 62.5285 8.0721 17.1775 5.3466 -18.9092
# 3 4.6062 8.0721 81.4217 15.4514 0.1393 2.1417
# 4 -0.0600 17.1775 15.4514 25.4425 2.4936 -0.2975
# 5 0.5292 5.3466 0.1393 2.4936 16.7921 -4.7442
# 6 -13.1430 -18.9092 2.1417 -0.2975 -4.7442 16.8689
#
#
#
# Elastic Compliance Matrix: (Units=1/GPa)
#
#
# Indices 1 2 3 4 5 6 
#
# 1 0.033388 0.016620 -0.002968 -0.009615 0.008452 0.047228
# 2 0.016620 0.041588 -0.001543 -0.027131 0.007632 0.061431
# 3 -0.002968 -0.001543 0.014214 -0.007658 -0.000093 -0.006009
# 4 -0.009615 -0.027131 -0.007658 0.062907 -0.011360 -0.039017
# 5 0.008452 0.007632 -0.000093 -0.011360 0.068185 0.034128
# 6 0.047228 0.061431 -0.006009 -0.039017 0.034128 0.174611
#
#
# Mechanical properties :
#
#
# Convention : Reuss Voigt Hill
#
# Bulk Modulus (GPa) = 8.81793 24.22298 16.52046
# Shear Modulus (GPa) = 12.24056 23.83225 18.03640
#
# Velocity S-wave (km/s) = 2.55322 3.56262 3.09929
# Velocity P-wave (km/s) = 3.65897 5.46108 4.64820
#
# Compressibility (1/GPa) = 0.11340529
#
# Stress axis : x y z
#
# Youngs Moduli (GPa) = 29.95130 24.04561 70.35194
#
# Poissons Ratio (x) = -0.39964 0.20884
# Poissons Ratio (y) = -0.49779 0.10859
# Poissons Ratio (z) = 0.08891 0.03711
#
# Static dielectric constant tensor:
#      x y z
#    x 1.644650 -0.012170 0.015450 
#    y -0.012170 1.699280 -0.011010 
#    z 0.015450 -0.011010 1.670890 
# 
# From -- ./inp_files/461021.got.cif
#   From: 2010.05.17/outbox.cif.g08.bks.cpg/sg2_231_cif.got.tgz:461021.got - 2010.06.03 11:33:40.
