data_PCOD9001176
_publ_section_title
;
Structure prediction by ZEFSAII (Michael W. Deem and Ramdas Pophale) SiO2 
 PCOD9001176
Probable space group: P -1
;
_chemical_formula_sum "Si O2"
_cell_formula_units_Z 16
_cell_length_a 10.052154
_cell_length_b 13.923614
_cell_length_c 11.165094
_cell_angle_alpha 140.723290
_cell_angle_beta 123.942143
_cell_angle_gamma 43.146140
_cell_volume 676.461156
_symmetry_space_group_name_H-M "P -1"
_symmetry_group_IT_number 2
_symmetry_cell_setting 'triclinic'
loop_
_space_group_symop_operation_xyz
x,y,z
-x,-y,-z
loop_
_atom_site_type_symbol
_atom_site_label
_atom_site_fract_x
_atom_site_fract_y
_atom_site_fract_z
Si Si1 0.550302 0.766042 0.702086
Si Si2 0.157749 0.596840 0.598718
Si Si3 0.577907 0.841903 0.065997
Si Si4 0.854143 0.934373 0.884296
Si Si5 0.807712 0.471419 0.905182
Si Si6 0.606914 0.375210 0.047640
Si Si7 0.195853 0.750198 0.520568
Si Si8 0.965086 0.155269 0.866980
O O1 0.758506 0.607374 0.599994
O O2 0.407035 0.701583 0.547391
O O3 0.446476 0.964954 0.779854
O O4 0.568986 0.780448 0.867477
O O5 0.267013 0.583346 0.763051
O O6 0.202501 0.686746 0.598387
O O7 0.935081 0.754557 0.670635
O O8 0.373183 0.912748 0.099146
O O9 0.777656 0.668636 0.057687
O O10 0.878260 0.888122 0.993573
O O11 0.000000 0.000000 0.000000
O O12 0.578905 0.564253 0.906446
O O13 0.858486 0.354893 0.697487
O O14 0.915689 0.329474 0.931614
O O15 0.500000 0.500000 0.000000
O O16 0.776550 0.196544 0.885674
O O17 0.049996 0.970925 0.656079
#
# Coordination Sequence:
#
# PCOD9001176 Si02
#       8
#     2   2   2   2   2   2   2   2
#     4  11  22  37  58  86 120 154 195 239 287 346
#     4  11  20  34  62  87 117 151 194 243 291 336
#     4  11  23  38  59  86 117 157 195 236 292 349
#     4  11  20  36  63  88 115 146 197 246 287 341
#     4  11  21  36  59  87 118 150 193 245 293 343
#     4   9  19  33  55  87 114 145 187 241 293 334
#     4  12  20  35  60  90 117 149 197 244 286 343
#     4  10  21  34  55  90 118 147 188 248 293 338
#
# _framework density 23.652505000000001
#
# number of rings (size 3 to 8) (size 9 to 14) (size 15 to 20)
#    0.000    1.250    5.000    3.000    0.000    0.500 
#    0.000    0.625    0.000    6.750    0.000    0.000 
#    0.000    0.000    0.000    0.000    0.000    0.000 
#
# Total GULP energy -89247.711978 kJ/mol
# GULP energy per Si atom -5577.981999 kJ/mol
# Density = 2.359867 g / cm^3
# Si number density = 23.652505 Si / 1000 Ang^3
#
#
#
# Elastic Constant Matrix: (Units=GPa)
#
#
# Indices 1 2 3 4 5 6 
#
# 1 86.5149 4.2226 36.2777 5.0624 -8.0227 12.0167
# 2 4.2226 155.1257 48.5924 31.3027 -5.1390 21.0620
# 3 36.2777 48.5924 116.0723 31.7703 -31.0655 -3.2003
# 4 5.0624 31.3027 31.7703 43.6760 -6.8456 -3.4635
# 5 -8.0227 -5.1390 -31.0655 -6.8456 36.5832 5.9171
# 6 12.0167 21.0620 -3.2003 -3.4635 5.9171 25.6066
#
#
#
# Elastic Compliance Matrix: (Units=1/GPa)
#
#
# Indices 1 2 3 4 5 6 
#
# 1 0.015583 0.003063 -0.006353 -0.000205 0.000143 -0.010687
# 2 0.003063 0.010301 -0.004224 -0.005656 -0.000743 -0.011031
# 3 -0.006353 -0.004224 0.017133 -0.006640 0.010466 0.005281
# 4 -0.000205 -0.005656 -0.006640 0.032202 -0.001860 0.008704
# 5 0.000143 -0.000743 0.010466 -0.001860 0.036923 -0.006932
# 6 -0.010687 -0.011031 0.005281 0.008704 -0.006932 0.056580
#
#
# Mechanical properties :
#
#
# Convention : Reuss Voigt Hill
#
# Bulk Modulus (GPa) = 35.72887 59.54427 47.63657
# Shear Modulus (GPa) = 25.89607 39.08118 32.48862
#
# Velocity S-wave (km/s) = 3.31245 4.06927 3.71021
# Velocity P-wave (km/s) = 5.45603 6.87807 6.20790
#
# Compressibility (1/GPa) = 0.02798857
#
# Stress axis : x y z
#
# Youngs Moduli (GPa) = 64.17381 97.08020 58.36525
#
# Poissons Ratio (x) = -0.29735 0.37078
# Poissons Ratio (y) = -0.19656 0.24656
# Poissons Ratio (z) = 0.40768 0.41011
#
# Static dielectric constant tensor:
#      x y z
#    x 2.081510 0.041210 0.030330 
#    y 0.041210 1.926950 0.099790 
#    z 0.030330 0.099790 1.833370 
# 
# From -- ./inp_files/434331.got.cif
#   From: 2010.05.17/outbox.cif.g08.bks.cpg/sg2_218_cif.got.tgz:434331.got - 2010.06.03 11:33:40.
