data_PCOD9001230
_publ_section_title
;
Structure prediction by ZEFSAII (Michael W. Deem and Ramdas Pophale) SiO2 
 PCOD9001230
Probable space group: P -1
;
_chemical_formula_sum "Si O2"
_cell_formula_units_Z 16
_cell_length_a 18.808735
_cell_length_b 11.296020
_cell_length_c 11.174538
_cell_angle_alpha 44.123085
_cell_angle_beta 38.880894
_cell_angle_gamma 73.580993
_cell_volume 804.137745
_symmetry_space_group_name_H-M "P -1"
_symmetry_group_IT_number 2
_symmetry_cell_setting 'triclinic'
loop_
_space_group_symop_operation_xyz
x,y,z
-x,-y,-z
loop_
_atom_site_type_symbol
_atom_site_label
_atom_site_fract_x
_atom_site_fract_y
_atom_site_fract_z
Si Si1 0.704197 0.162914 0.179960
Si Si2 0.236831 0.731603 0.232464
Si Si3 0.060043 0.397507 0.350067
Si Si4 0.049578 0.337197 0.928857
Si Si5 0.909275 0.893399 0.317913
Si Si6 0.808375 0.409056 0.204162
Si Si7 0.607062 0.746805 0.727628
Si Si8 0.471995 0.981880 0.258161
O O1 0.601135 0.149937 0.424733
O O2 0.667822 0.928985 0.409897
O O3 0.686296 0.223057 0.028907
O O4 0.866970 0.358672 0.872659
O O5 0.152301 0.491367 0.572039
O O6 0.108665 0.741411 0.361956
O O7 0.358797 0.906429 0.040427
O O8 0.085071 0.285011 0.501118
O O9 0.144617 0.441217 0.083830
O O10 0.146759 0.451267 0.836749
O O11 0.982356 0.091372 0.172737
O O12 0.914978 0.344254 0.106355
O O13 0.745101 0.794201 0.576367
O O14 0.000000 0.000000 0.000000
O O15 0.640233 0.190881 0.568950
O O16 0.536042 0.820477 0.856625
O O17 0.500000 0.500000 0.000000
#
# Coordination Sequence:
#
# PCOD9001230 Si02
#       8
#     2   2   2   2   2   2   2   2
#     4   9  19  36  53  81 112 152 192 220 280 345
#     4  11  19  34  56  85 109 150 189 232 280 334
#     4  10  21  34  58  80 114 151 189 236 277 335
#     4  10  21  37  63  80 113 148 199 242 269 337
#     4  12  23  36  56  90 120 146 184 237 293 334
#     4   9  19  42  59  82 104 155 205 230 277 328
#     4  10  22  36  54  85 117 151 178 228 290 338
#     4   9  20  34  59  80 114 147 189 229 277 345
#
# _framework density 19.897089000000001
#
# number of rings (size 3 to 8) (size 9 to 14) (size 15 to 20)
#    0.750    1.250    1.250    3.000    3.500    2.000 
#    0.000    0.000    0.000    0.750    0.000    0.000 
#    0.000    0.000    0.000    0.000    0.000    0.000 
#
# Total GULP energy -89207.107583 kJ/mol
# GULP energy per Si atom -5575.444224 kJ/mol
# Density = 1.985180 g / cm^3
# Si number density = 19.897089 Si / 1000 Ang^3
#
#
#
# Elastic Constant Matrix: (Units=GPa)
#
#
# Indices 1 2 3 4 5 6 
#
# 1 111.8923 30.9997 58.1076 -17.9570 -21.1385 10.0423
# 2 30.9997 54.9101 32.4413 -25.8677 -7.4800 11.3953
# 3 58.1076 32.4413 98.8956 -30.1825 -26.0161 0.1345
# 4 -17.9570 -25.8677 -30.1825 24.8987 2.4043 -11.8346
# 5 -21.1385 -7.4800 -26.0161 2.4043 53.1561 -5.1743
# 6 10.0423 11.3953 0.1345 -11.8346 -5.1743 25.4545
#
#
#
# Elastic Compliance Matrix: (Units=1/GPa)
#
#
# Indices 1 2 3 4 5 6 
#
# 1 0.015002 -0.006601 -0.011047 -0.013877 -0.000666 -0.009492
# 2 -0.006601 0.039446 0.006855 0.047955 0.004910 0.008203
# 3 -0.011047 0.006855 0.033781 0.052160 0.013481 0.028102
# 4 -0.013877 0.047955 0.052160 0.173903 0.025687 0.069806
# 5 -0.000666 0.004910 0.013481 0.025687 0.026160 0.015254
# 6 -0.009492 0.008203 0.028102 0.069806 0.015254 0.074766
#
#
# Mechanical properties :
#
#
# Convention : Reuss Voigt Hill
#
# Bulk Modulus (GPa) = 15.00526 56.53278 35.76902
# Shear Modulus (GPa) = 12.28936 30.31183 21.30059
#
# Velocity S-wave (km/s) = 2.48794 3.90735 3.27546
# Velocity P-wave (km/s) = 3.97630 6.98790 5.68514
#
# Compressibility (1/GPa) = 0.06664332
#
# Stress axis : x y z
#
# Youngs Moduli (GPa) = 66.65900 25.35115 29.60280
#
# Poissons Ratio (x) = 0.16734 0.32701
# Poissons Ratio (y) = 0.44001 -0.20293
# Poissons Ratio (z) = 0.73635 -0.17378
#
# Static dielectric constant tensor:
#      x y z
#    x 1.719400 0.028970 -0.003500 
#    y 0.028970 1.707490 0.038090 
#    z -0.003500 0.038090 1.754180 
# 
# From -- ./inp_files/464286.got.cif
#   From: 2010.05.17/outbox.cif.g08.bks.cpg/sg2_233_cif.got.tgz:464286.got - 2010.06.03 11:33:40.
