data_PCOD9001683
_publ_section_title
;
Structure prediction by ZEFSAII (Michael W. Deem and Ramdas Pophale) SiO2 
 PCOD9001683
Probable space group: P -1
;
_chemical_formula_sum "Si O2"
_cell_formula_units_Z 16
_cell_length_a 10.552550
_cell_length_b 14.260099
_cell_length_c 8.029567
_cell_angle_alpha 140.128822
_cell_angle_beta 115.308704
_cell_angle_gamma 54.091405
_cell_volume 626.787714
_symmetry_space_group_name_H-M "P -1"
_symmetry_group_IT_number 2
_symmetry_cell_setting 'triclinic'
loop_
_space_group_symop_operation_xyz
x,y,z
-x,-y,-z
loop_
_atom_site_type_symbol
_atom_site_label
_atom_site_fract_x
_atom_site_fract_y
_atom_site_fract_z
Si Si1 0.473002 0.239641 0.792873
Si Si2 0.328815 0.598588 0.273580
Si Si3 0.814501 0.269899 0.963827
Si Si4 0.308495 0.092950 0.703440
Si Si5 0.821612 0.610881 0.405927
Si Si6 0.987962 0.311082 0.636829
Si Si7 0.169694 0.120558 0.002509
Si Si8 0.228199 0.816409 0.812468
O O1 0.412413 0.187825 0.855442
O O2 0.337798 0.276485 0.627928
O O3 0.614529 0.074645 0.583521
O O4 0.460200 0.420375 0.060067
O O5 0.349423 0.684945 0.569362
O O6 0.169258 0.581110 0.201627
O O7 0.280144 0.712529 0.237434
O O8 0.810262 0.447693 0.224914
O O9 0.757898 0.225007 0.043049
O O10 0.998431 0.147734 0.881106
O O11 0.134749 0.206901 0.692125
O O12 0.291484 0.059105 0.838287
O O13 0.962241 0.589531 0.330954
O O14 0.839600 0.710883 0.706388
O O15 0.932181 0.191840 0.344358
O O16 0.219737 0.989159 0.998656
#
# Coordination Sequence:
#
# PCOD9001683 Si02
#       8
#     2   2   2   2   2   2   2   2
#     4   9  21  40  56  89 120 152 204 254 290 356
#     4   9  20  38  62  84 119 157 196 247 299 348
#     4  11  21  35  59  89 124 156 192 251 305 344
#     4  10  21  35  61  86 119 159 198 243 310 346
#     4  10  22  34  59  90 118 155 201 248 300 356
#     4   9  19  36  58  90 119 148 205 241 299 363
#     4  12  21  35  57  89 124 156 194 245 302 363
#     4  10  23  37  56  93 126 152 197 248 300 359
#
# _framework density 25.526983999999999
#
# number of rings (size 3 to 8) (size 9 to 14) (size 15 to 20)
#    0.750    1.250    2.500    0.750    3.500    4.000 
#    2.250    0.625    0.000    3.000    0.000    0.000 
#    0.000    0.000    0.000    0.000    0.000    0.000 
#
# Total GULP energy -89578.288756 kJ/mol
# GULP energy per Si atom -5598.643047 kJ/mol
# Density = 2.546888 g / cm^3
# Si number density = 25.526984 Si / 1000 Ang^3
#
#
#
# Elastic Constant Matrix: (Units=GPa)
#
#
# Indices 1 2 3 4 5 6 
#
# 1 52.7047 55.3287 21.4171 1.9681 -20.9465 23.7767
# 2 55.3287 114.1706 27.4602 4.8156 -13.3280 42.8306
# 3 21.4171 27.4602 61.7061 -3.3430 -12.4430 19.8380
# 4 1.9681 4.8156 -3.3430 37.8945 5.3832 -3.9739
# 5 -20.9465 -13.3280 -12.4430 5.3832 44.4119 0.2399
# 6 23.7767 42.8306 19.8380 -3.9739 0.2399 51.7817
#
#
#
# Elastic Compliance Matrix: (Units=1/GPa)
#
#
# Indices 1 2 3 4 5 6 
#
# 1 0.050259 -0.018862 -0.003649 -0.003698 0.017504 -0.006443
# 2 -0.018862 0.021165 -0.000667 -0.002346 -0.002400 -0.008758
# 3 -0.003649 -0.000667 0.020336 0.000967 0.003689 -0.005506
# 4 -0.003698 -0.002346 0.000967 0.028340 -0.005642 0.005469
# 5 0.017504 -0.002400 0.003689 -0.005642 0.031813 -0.008046
# 6 -0.006443 -0.008758 -0.005506 0.005469 -0.008046 0.032081
#
#
# Mechanical properties :
#
#
# Convention : Reuss Voigt Hill
#
# Bulk Modulus (GPa) = 22.02540 48.55483 35.29011
# Shear Modulus (GPa) = 20.36784 35.10933 27.73858
#
# Velocity S-wave (km/s) = 2.82777 3.71264 3.30000
# Velocity P-wave (km/s) = 4.39417 6.11886 5.32678
#
# Compressibility (1/GPa) = 0.04540212
#
# Stress axis : x y z
#
# Youngs Moduli (GPa) = 19.89678 47.24844 49.17435
#
# Poissons Ratio (x) = 0.89122 0.17946
# Poissons Ratio (y) = 0.37530 0.03281
# Poissons Ratio (z) = 0.07261 0.03152
#
# Static dielectric constant tensor:
#      x y z
#    x 2.071000 -0.032110 0.014060 
#    y -0.032110 1.984770 -0.022260 
#    z 0.014060 -0.022260 1.985050 
# 
# From -- ./inp_files/271225.got.cif
#   From: 2010.05.17/outbox.cif.g08.bks.cpg/sg2_136_cif.got.tgz:271225.got - 2010.06.03 11:33:40.
