data_PCOD9001732
_publ_section_title
;
Structure prediction by ZEFSAII (Michael W. Deem and Ramdas Pophale) SiO2 
 PCOD9001732
Probable space group: P -1
;
_chemical_formula_sum "Si O2"
_cell_formula_units_Z 12
_cell_length_a 7.237149
_cell_length_b 8.513892
_cell_length_c 21.849871
_cell_angle_alpha 149.004422
_cell_angle_beta 39.346754
_cell_angle_gamma 126.359132
_cell_volume 429.330424
_symmetry_space_group_name_H-M "P -1"
_symmetry_group_IT_number 2
_symmetry_cell_setting 'triclinic'
loop_
_space_group_symop_operation_xyz
x,y,z
-x,-y,-z
loop_
_atom_site_type_symbol
_atom_site_label
_atom_site_fract_x
_atom_site_fract_y
_atom_site_fract_z
Si Si1 0.468099 0.672336 0.160806
Si Si2 0.953696 0.563515 0.317112
Si Si3 0.931310 0.249260 0.834237
Si Si4 0.121200 0.535208 0.565253
Si Si5 0.509987 0.588912 0.690116
Si Si6 0.035298 0.092421 0.940218
O O1 0.261112 0.722554 0.169635
O O2 0.726833 0.864703 0.159605
O O3 0.228276 0.726276 0.293532
O O4 0.684746 0.333791 0.979957
O O5 0.702850 0.637992 0.353112
O O6 0.787494 0.580271 0.429209
O O7 0.100482 0.193687 0.142656
O O8 0.106613 0.900867 0.680392
O O9 0.096742 0.544392 0.890320
O O10 0.775180 0.496881 0.638373
O O11 0.302652 0.370390 0.406201
O O12 0.275118 0.917402 0.872205
#
# Coordination Sequence:
#
# PCOD9001732 Si02
#       6
#     2   2   2   2   2   2
#     4   9  17  37  57  82 118 144 185 231 276 330
#     4  10  21  35  62  84 109 150 189 226 278 331
#     4   9  17  35  59  79 116 151 174 235 285 315
#     4  11  19  36  63  80 115 148 183 239 272 326
#     4   9  20  38  58  81 112 154 184 218 293 332
#     4   8  18  37  56  81 111 150 183 217 287 330
#
# _framework density 27.950498
#
# number of rings (size 3 to 8) (size 9 to 14) (size 15 to 20)
#    2.000    0.667    1.667    0.500    0.000    2.000 
#    0.000    3.333    0.000    0.000    0.000    0.000 
#    0.000    0.000    0.000    0.000    0.000    0.000 
#
# Total GULP energy -66912.164053 kJ/mol
# GULP energy per Si atom -5576.013671 kJ/mol
# Density = 2.788688 g / cm^3
# Si number density = 27.950498 Si / 1000 Ang^3
#
#
#
# Elastic Constant Matrix: (Units=GPa)
#
#
# Indices 1 2 3 4 5 6 
#
# 1 76.7188 5.2055 8.6559 10.3258 -5.3561 3.2518
# 2 5.2055 57.5160 9.4293 -1.8142 -4.8601 12.7810
# 3 8.6559 9.4293 119.9654 19.3649 -8.8498 -5.0756
# 4 10.3258 -1.8142 19.3649 48.9894 6.6575 3.2135
# 5 -5.3561 -4.8601 -8.8498 6.6575 36.4610 -4.3376
# 6 3.2518 12.7810 -5.0756 3.2135 -4.3376 33.2260
#
#
#
# Elastic Compliance Matrix: (Units=1/GPa)
#
#
# Indices 1 2 3 4 5 6 
#
# 1 0.013733 -0.001018 -0.000249 -0.003128 0.002347 -0.000382
# 2 -0.001018 0.019714 -0.002126 0.002223 0.000611 -0.007944
# 3 -0.000249 -0.002126 0.009612 -0.004469 0.003205 0.003161
# 4 -0.003128 0.002223 -0.004469 0.024043 -0.006157 -0.004361
# 5 0.002347 0.000611 0.003205 -0.006157 0.030299 0.004576
# 6 -0.000382 -0.007944 0.003161 -0.004361 0.004576 0.034692
#
#
# Mechanical properties :
#
#
# Convention : Reuss Voigt Hill
#
# Bulk Modulus (GPa) = 27.56783 33.42019 30.49401
# Shear Modulus (GPa) = 33.11909 39.12923 36.12416
#
# Velocity S-wave (km/s) = 3.44600 3.74565 3.59894
# Velocity P-wave (km/s) = 5.07126 5.53980 5.31070
#
# Compressibility (1/GPa) = 0.03627417
#
# Stress axis : x y z
#
# Youngs Moduli (GPa) = 72.81859 50.72507 104.03283
#
# Poissons Ratio (x) = 0.05162 0.02591
# Poissons Ratio (y) = 0.07410 0.22117
# Poissons Ratio (z) = 0.01813 0.10784
#
# Static dielectric constant tensor:
#      x y z
#    x 2.169980 -0.040250 -0.011410 
#    y -0.040250 2.223720 -0.040450 
#    z -0.011410 -0.040450 2.122370 
# 
# From -- ./inp_files/211264.got.cif
#   From: 2010.05.17/outbox.cif.g08.bks.cpg/sg2_106_cif.got.tgz:211264.got - 2010.06.03 11:33:40.
