data_PCOD9001574
_publ_section_title
;
Structure prediction by ZEFSAII (Michael W. Deem and Ramdas Pophale) SiO2 
 PCOD9001574
Probable space group: P -1
;
_chemical_formula_sum "Si O2"
_cell_formula_units_Z 16
_cell_length_a 8.514840
_cell_length_b 18.652508
_cell_length_c 18.516334
_cell_angle_alpha 22.392498
_cell_angle_beta 36.705427
_cell_angle_gamma 45.751652
_cell_volume 657.275647
_symmetry_space_group_name_H-M "P -1"
_symmetry_group_IT_number 2
_symmetry_cell_setting 'triclinic'
loop_
_space_group_symop_operation_xyz
x,y,z
-x,-y,-z
loop_
_atom_site_type_symbol
_atom_site_label
_atom_site_fract_x
_atom_site_fract_y
_atom_site_fract_z
Si Si1 0.324208 0.426816 0.328719
Si Si2 0.818195 0.181308 0.528072
Si Si3 0.834877 0.560574 0.092854
Si Si4 0.068214 0.744709 0.050683
Si Si5 0.797684 0.110327 0.296048
Si Si6 0.862205 0.194976 0.649557
Si Si7 0.594076 0.743308 0.150697
Si Si8 0.765358 0.917437 0.218383
O O1 0.634198 0.520310 0.137246
O O2 0.258243 0.303708 0.542110
O O3 0.181139 0.265347 0.474788
O O4 0.187090 0.599232 0.192312
O O5 0.901499 0.356328 0.280193
O O6 0.784277 0.283750 0.521347
O O7 0.527721 0.066965 0.717426
O O8 0.030789 0.047176 0.591721
O O9 0.664211 0.647632 0.139186
O O10 0.104017 0.719160 0.842235
O O11 0.153156 0.778336 0.903923
O O12 0.156721 0.947515 0.867537
O O13 0.749745 0.676217 0.224047
O O14 0.500000 0.000000 0.500000
O O15 0.712560 0.260556 0.712937
O O16 0.733361 0.971445 0.891219
O O17 0.000000 0.000000 0.000000
#
# Coordination Sequence:
#
# PCOD9001574 Si02
#       8
#     2   2   2   2   2   2   2   2
#     4  11  24  39  61  92 134 172 215 262 320 379
#     4  11  22  40  66  92 132 170 219 270 323 390
#     4  10  23  42  61  95 126 167 213 274 329 400
#     4  11  22  40  63  92 129 170 220 273 328 388
#     4  11  24  46  72  95 123 168 224 287 348 392
#     4  11  20  36  60  88 129 175 215 261 311 390
#     4  10  21  35  58  90 128 175 219 256 316 386
#     4  11  24  39  63  99 139 181 214 256 318 389
#
# _framework density 24.342907
#
# number of rings (size 3 to 8) (size 9 to 14) (size 15 to 20)
#    0.000    1.250    3.750    3.000    1.750    5.500 
#    0.000    2.500    0.000    5.250    0.000    0.000 
#    0.000    0.000    0.000    0.000    0.000    0.000 
#
# Total GULP energy -89151.729049 kJ/mol
# GULP energy per Si atom -5571.983066 kJ/mol
# Density = 2.428750 g / cm^3
# Si number density = 24.342907 Si / 1000 Ang^3
#
#
#
# Elastic Constant Matrix: (Units=GPa)
#
#
# Indices 1 2 3 4 5 6 
#
# 1 142.5441 39.3340 50.9806 1.2712 -34.3851 -26.5363
# 2 39.3340 66.4228 32.1335 -11.3608 -5.8931 -7.4298
# 3 50.9806 32.1335 141.3759 -12.7026 -24.5232 -27.2494
# 4 1.2712 -11.3608 -12.7026 28.6642 -11.0820 -3.2892
# 5 -34.3851 -5.8931 -24.5232 -11.0820 62.2929 -10.2055
# 6 -26.5363 -7.4298 -27.2494 -3.2892 -10.2055 39.2650
#
#
#
# Elastic Compliance Matrix: (Units=1/GPa)
#
#
# Indices 1 2 3 4 5 6 
#
# 1 0.012116 -0.005181 0.000258 0.001805 0.008205 0.009671
# 2 -0.005181 0.020275 -0.002510 0.006673 -0.000921 -0.001087
# 3 0.000258 -0.002510 0.011656 0.008338 0.007695 0.010487
# 4 0.001805 0.006673 0.008338 0.049413 0.016433 0.016680
# 5 0.008205 -0.000921 0.007695 0.016433 0.029693 0.019805
# 6 0.009671 -0.001087 0.010487 0.016680 0.019805 0.045621
#
#
# Mechanical properties :
#
#
# Convention : Reuss Voigt Hill
#
# Bulk Modulus (GPa) = 34.26832 66.13766 50.20299
# Shear Modulus (GPa) = 25.85735 41.23741 33.54738
#
# Velocity S-wave (km/s) = 3.26270 4.12031 3.71633
# Velocity P-wave (km/s) = 5.31991 7.06145 6.25162
#
# Compressibility (1/GPa) = 0.02918147
#
# Stress axis : x y z
#
# Youngs Moduli (GPa) = 82.53260 49.32075 85.79270
#
# Poissons Ratio (x) = 0.25555 -0.02213
# Poissons Ratio (y) = 0.42763 0.21533
# Poissons Ratio (z) = -0.02129 0.12379
#
# Static dielectric constant tensor:
#      x y z
#    x 1.976590 -0.004140 0.056230 
#    y -0.004140 2.093930 0.018030 
#    z 0.056230 0.018030 2.045010 
# 
# From -- ./inp_files/591585.got.cif
#   From: 2010.05.17/outbox.cif.g08.bks.cpg/sg2_296_cif.got.tgz:591585.got - 2010.06.03 11:33:40.
