data_PCOD9001478
_publ_section_title
;
Structure prediction by ZEFSAII (Michael W. Deem and Ramdas Pophale) SiO2 
 PCOD9001478
Probable space group: P -1
;
_chemical_formula_sum "Si O2"
_cell_formula_units_Z 16
_cell_length_a 16.911764
_cell_length_b 12.633957
_cell_length_c 23.675856
_cell_angle_alpha 17.957798
_cell_angle_beta 30.566762
_cell_angle_gamma 37.136796
_cell_volume 785.382816
_symmetry_space_group_name_H-M "P -1"
_symmetry_group_IT_number 2
_symmetry_cell_setting 'triclinic'
loop_
_space_group_symop_operation_xyz
x,y,z
-x,-y,-z
loop_
_atom_site_type_symbol
_atom_site_label
_atom_site_fract_x
_atom_site_fract_y
_atom_site_fract_z
Si Si1 0.355370 0.795683 0.270157
Si Si2 0.779578 0.325198 0.091445
Si Si3 0.385522 0.371190 0.869260
Si Si4 0.929697 0.246180 0.257313
Si Si5 0.040204 0.328260 0.682994
Si Si6 0.259008 0.388272 0.242833
Si Si7 0.407823 0.313732 0.067352
Si Si8 0.097977 0.051743 0.141614
O O1 0.465534 0.527470 0.313767
O O2 0.176951 0.649610 0.440602
O O3 0.415945 0.141759 0.021247
O O4 0.377190 0.934717 0.249448
O O5 0.695013 0.323973 0.206195
O O6 0.665277 0.415281 0.066431
O O7 0.868176 0.995022 0.194306
O O8 0.918440 0.648526 0.849959
O O9 0.265066 0.103376 0.042853
O O10 0.979925 0.098790 0.241337
O O11 0.805151 0.971047 0.504192
O O12 0.882852 0.616229 0.080761
O O13 0.888375 0.394874 0.778074
O O14 0.970676 0.264449 0.694983
O O15 0.407326 0.579288 0.089442
O O16 0.320297 0.319941 0.177646
#
# Coordination Sequence:
#
# PCOD9001478 Si02
#       8
#     2   2   2   2   2   2   2   2
#     4  10  21  35  56  85 114 150 193 232 280 337
#     4   9  20  38  58  85 117 146 184 232 284 338
#     4   9  18  35  56  81 119 154 182 230 284 334
#     4   9  19  35  58  84 111 149 187 227 280 332
#     4  11  22  34  57  89 114 146 189 231 283 338
#     4  11  23  39  61  82 107 152 198 236 281 331
#     4  10  23  42  58  79 113 151 195 239 279 332
#     4   9  18  34  54  83 119 144 178 230 281 337
#
# _framework density 20.372229999999998
#
# number of rings (size 3 to 8) (size 9 to 14) (size 15 to 20)
#    0.000    2.250    0.000    3.750    0.000    9.000 
#    0.000    1.250    0.000    8.250    0.000    0.000 
#    0.000    0.000    0.000    0.000    0.000    0.000 
#
# Total GULP energy -89174.446594 kJ/mol
# GULP energy per Si atom -5573.402912 kJ/mol
# Density = 2.032586 g / cm^3
# Si number density = 20.372230 Si / 1000 Ang^3
#
#
#
# Elastic Constant Matrix: (Units=GPa)
#
#
# Indices 1 2 3 4 5 6 
#
# 1 88.0929 43.6330 36.4154 10.3481 -16.6454 1.2438
# 2 43.6330 119.6012 65.4520 15.1972 -12.1869 -4.0660
# 3 36.4154 65.4520 74.1082 0.7612 -11.5378 -4.6658
# 4 10.3481 15.1972 0.7612 28.6624 -7.8493 -6.9718
# 5 -16.6454 -12.1869 -11.5378 -7.8493 26.3986 -7.0321
# 6 1.2438 -4.0660 -4.6658 -6.9718 -7.0321 24.5791
#
#
#
# Elastic Compliance Matrix: (Units=1/GPa)
#
#
# Indices 1 2 3 4 5 6 
#
# 1 0.015985 -0.001968 -0.005348 -0.003510 0.005361 -0.001611
# 2 -0.001968 0.019030 -0.016643 -0.011114 -0.004168 -0.004257
# 3 -0.005348 -0.016643 0.033113 0.015710 0.011138 0.011446
# 4 -0.003510 -0.011114 0.015710 0.052887 0.021212 0.022391
# 5 0.005361 -0.004168 0.011138 0.021212 0.056747 0.023406
# 6 -0.001611 -0.004257 0.011446 0.022391 0.023406 0.055283
#
#
# Mechanical properties :
#
#
# Convention : Reuss Voigt Hill
#
# Bulk Modulus (GPa) = 49.47575 63.64479 56.56027
# Shear Modulus (GPa) = 17.37936 25.01480 21.19708
#
# Velocity S-wave (km/s) = 2.92394 3.50792 3.22916
# Velocity P-wave (km/s) = 5.97811 6.90769 6.45964
#
# Compressibility (1/GPa) = 0.02021192
#
# Stress axis : x y z
#
# Youngs Moduli (GPa) = 62.55962 52.54989 30.19917
#
# Poissons Ratio (x) = 0.10340 0.16149
# Poissons Ratio (y) = 0.12310 0.50260
# Poissons Ratio (z) = 0.33454 0.87457
#
# Static dielectric constant tensor:
#      x y z
#    x 1.746070 -0.035930 -0.007550 
#    y -0.035930 1.831590 -0.034590 
#    z -0.007550 -0.034590 1.731470 
# 
# From -- ./inp_files/613157.got.cif
#   From: 2010.05.17/outbox.cif.g08.bks.cpg/sg2_307_cif.got.tgz:613157.got - 2010.06.03 11:33:40.
