data_PCOD9001185
_publ_section_title
;
Structure prediction by ZEFSAII (Michael W. Deem and Ramdas Pophale) SiO2 
 PCOD9001185
Probable space group: P -1
;
_chemical_formula_sum "Si O2"
_cell_formula_units_Z 14
_cell_length_a 8.655218
_cell_length_b 18.018407
_cell_length_c 5.307094
_cell_angle_alpha 113.537025
_cell_angle_beta 59.743342
_cell_angle_gamma 127.045571
_cell_volume 565.078320
_symmetry_space_group_name_H-M "P -1"
_symmetry_group_IT_number 2
_symmetry_cell_setting 'triclinic'
loop_
_space_group_symop_operation_xyz
x,y,z
-x,-y,-z
loop_
_atom_site_type_symbol
_atom_site_label
_atom_site_fract_x
_atom_site_fract_y
_atom_site_fract_z
Si Si1 0.161173 0.452077 0.662007
Si Si2 0.203802 0.771515 0.595150
Si Si3 0.475766 0.418998 0.095743
Si Si4 0.195910 0.630940 0.761960
Si Si5 0.549784 0.763212 0.011011
Si Si6 0.744521 0.063826 0.925829
Si Si7 0.027061 0.887272 0.698415
O O1 0.278308 0.400406 0.398420
O O2 0.315928 0.525828 0.842738
O O3 0.173072 0.531699 0.573956
O O4 0.953145 0.388977 0.901733
O O5 0.124854 0.669472 0.638215
O O6 0.227704 0.833935 0.905374
O O7 0.070503 0.800057 0.568203
O O8 0.417371 0.800053 0.316714
O O9 0.446312 0.317515 0.926151
O O10 0.500000 0.500000 0.000000
O O11 0.421695 0.708850 0.789613
O O12 0.782503 0.842495 0.865612
O O13 0.842428 0.049572 0.083058
O O14 0.872080 0.063705 0.580088
O O15 0.500000 0.000000 0.000000
#
# Coordination Sequence:
#
# PCOD9001185 Si02
#       7
#     2   2   2   2   2   2   2
#     4   9  21  36  55  88 119 186 218 287 323 393
#     4  10  24  39  68  95 133 175 220 276 332 401
#     4  10  21  34  56  83 129 166 235 271 339 375
#     4  10  21  39  61  85 137 168 239 269 342 382
#     4  11  24  39  61 100 128 176 227 280 328 407
#     4  10  23  47  74 102 136 174 217 273 338 409
#     4  10  25  43  73 102 134 177 220 273 339 400
#
# _framework density 24.775328999999999
#
# number of rings (size 3 to 8) (size 9 to 14) (size 15 to 20)
#    0.857    1.143    0.000    2.143    8.000    0.000 
#    0.000    5.714    0.000    0.000    0.000    0.000 
#    0.000    0.000    0.000    0.000    0.000    0.000 
#
# Total GULP energy -78222.437888 kJ/mol
# GULP energy per Si atom -5587.316992 kJ/mol
# Density = 2.471894 g / cm^3
# Si number density = 24.775329 Si / 1000 Ang^3
#
#
#
# Elastic Constant Matrix: (Units=GPa)
#
#
# Indices 1 2 3 4 5 6 
#
# 1 79.0681 25.6306 44.1820 -8.5160 -10.1408 24.0260
# 2 25.6306 60.2954 19.7767 -8.3856 -6.8328 14.1053
# 3 44.1820 19.7767 124.1775 -18.1426 -3.8071 16.2855
# 4 -8.5160 -8.3856 -18.1426 23.5972 6.5757 -10.8898
# 5 -10.1408 -6.8328 -3.8071 6.5757 41.9620 -2.5519
# 6 24.0260 14.1053 16.2855 -10.8898 -2.5519 50.5938
#
#
#
# Elastic Compliance Matrix: (Units=1/GPa)
#
#
# Indices 1 2 3 4 5 6 
#
# 1 0.019504 -0.004940 -0.005631 -0.003038 0.003476 -0.006551
# 2 -0.004940 0.020037 -0.000591 0.003481 0.001334 -0.002233
# 3 -0.005631 -0.000591 0.011032 0.006990 -0.001508 0.000716
# 4 -0.003038 0.003481 0.006990 0.054383 -0.007474 0.009551
# 5 0.003476 0.001334 -0.001508 -0.007474 0.025811 -0.001844
# 6 -0.006551 -0.002233 0.000716 0.009551 -0.001844 0.025231
#
#
# Mechanical properties :
#
#
# Convention : Reuss Voigt Hill
#
# Bulk Modulus (GPa) = 35.40021 49.19107 42.29564
# Shear Modulus (GPa) = 26.63286 34.82739 30.73013
#
# Velocity S-wave (km/s) = 3.28224 3.75337 3.52568
# Velocity P-wave (km/s) = 5.35571 6.21946 5.80368
#
# Compressibility (1/GPa) = 0.02824842
#
# Stress axis : x y z
#
# Youngs Moduli (GPa) = 51.27033 49.90877 90.64764
#
# Poissons Ratio (x) = 0.24656 0.51043
# Poissons Ratio (y) = 0.25328 0.05358
# Poissons Ratio (z) = 0.28870 0.02950
#
# Static dielectric constant tensor:
#      x y z
#    x 2.077160 -0.108490 0.035260 
#    y -0.108490 2.112090 0.040740 
#    z 0.035260 0.040740 1.962730 
# 
# From -- ./inp_files/53391.got.cif
#   From: 2010.05.17/outbox.cif.g08.bks.cpg/sg2_27_cif.got.tgz:53391.got - 2010.06.03 11:33:40.
