data_PCOD9001407
_publ_section_title
;
Structure prediction by ZEFSAII (Michael W. Deem and Ramdas Pophale) SiO2 
 PCOD9001407
Probable space group: P -1
;
_chemical_formula_sum "Si O2"
_cell_formula_units_Z 16
_cell_length_a 5.401071
_cell_length_b 12.486293
_cell_length_c 18.485386
_cell_angle_alpha 56.164363
_cell_angle_beta 108.324275
_cell_angle_gamma 125.980663
_cell_volume 837.799251
_symmetry_space_group_name_H-M "P -1"
_symmetry_group_IT_number 2
_symmetry_cell_setting 'triclinic'
loop_
_space_group_symop_operation_xyz
x,y,z
-x,-y,-z
loop_
_atom_site_type_symbol
_atom_site_label
_atom_site_fract_x
_atom_site_fract_y
_atom_site_fract_z
Si Si1 0.945316 0.001219 0.791195
Si Si2 0.215961 0.629517 0.045944
Si Si3 0.293391 0.446742 0.863152
Si Si4 0.258497 0.978221 0.382255
Si Si5 0.817913 0.852571 0.089022
Si Si6 0.928294 0.132186 0.442538
Si Si7 0.247576 0.283398 0.287918
Si Si8 0.234473 0.804701 0.841942
O O1 0.107565 0.101520 0.838436
O O2 0.898919 0.082142 0.686889
O O3 0.592288 0.880505 0.826869
O O4 0.134541 0.922310 0.815499
O O5 0.412823 0.552064 0.077153
O O6 0.462039 0.771893 0.064343
O O7 0.912848 0.541774 0.099224
O O8 0.165232 0.692691 0.944118
O O9 0.113038 0.279300 0.874091
O O10 0.439020 0.579328 0.767092
O O11 0.621909 0.058049 0.393974
O O12 0.225512 0.123840 0.335815
O O13 0.131359 0.858722 0.481621
O O14 0.000000 0.000000 0.000000
O O15 0.177558 0.281345 0.367229
O O16 0.000000 0.000000 0.500000
O O17 0.975047 0.270742 0.219193
#
# Coordination Sequence:
#
# PCOD9001407 Si02
#       8
#     2   2   2   2   2   2   2   2
#     4  11  21  33  57  84 110 142 186 230 275 320
#     4  10  22  37  50  81 107 150 195 221 271 311
#     4  10  24  36  54  79 108 159 189 223 274 317
#     4   9  19  33  56  85 110 138 176 227 283 330
#     4  10  21  37  57  77 110 150 194 235 262 312
#     4   9  17  34  56  83 109 139 173 220 285 339
#     4  10  21  35  55  79 119 142 182 225 277 342
#     4  11  21  34  55  81 109 150 182 231 278 313
#
# _framework density 19.097653999999999
#
# number of rings (size 3 to 8) (size 9 to 14) (size 15 to 20)
#    0.750    1.250    2.500    1.500    3.500    2.000 
#    0.000    0.000    0.000    0.750    0.000    8.750 
#    0.000    0.000    0.000    0.000    0.000    0.000 
#
# Total GULP energy -89094.563500 kJ/mol
# GULP energy per Si atom -5568.410219 kJ/mol
# Density = 1.905419 g / cm^3
# Si number density = 19.097654 Si / 1000 Ang^3
#
#
#
# Elastic Constant Matrix: (Units=GPa)
#
#
# Indices 1 2 3 4 5 6 
#
# 1 79.5212 7.8823 40.5061 -4.2987 -7.6178 10.3561
# 2 7.8823 54.6189 34.4859 7.5530 -5.5610 6.0380
# 3 40.5061 34.4859 145.1865 6.7515 -16.5720 12.3253
# 4 -4.2987 7.5530 6.7515 26.1041 7.2683 -4.4313
# 5 -7.6178 -5.5610 -16.5720 7.2683 36.9030 -4.5203
# 6 10.3561 6.0380 12.3253 -4.4313 -4.5203 23.2890
#
#
#
# Elastic Compliance Matrix: (Units=1/GPa)
#
#
# Indices 1 2 3 4 5 6 
#
# 1 0.015353 0.000533 -0.004134 0.002629 0.000360 -0.004207
# 2 0.000533 0.022803 -0.004611 -0.006714 0.002241 -0.004551
# 3 -0.004134 -0.004611 0.009833 -0.003152 0.003226 -0.002144
# 4 0.002629 -0.006714 -0.003152 0.045760 -0.009789 0.009047
# 5 0.000360 0.002241 0.003226 -0.009789 0.031098 0.001725
# 6 -0.004207 -0.004551 -0.002144 0.009047 0.001725 0.049181
#
#
# Mechanical properties :
#
#
# Convention : Reuss Voigt Hill
#
# Bulk Modulus (GPa) = 31.68087 49.45281 40.56684
# Shear Modulus (GPa) = 24.87909 30.35602 27.61756
#
# Velocity S-wave (km/s) = 3.61325 3.99120 3.80692
# Velocity P-wave (km/s) = 5.83372 6.86953 6.37271
#
# Compressibility (1/GPa) = 0.03156479
#
# Stress axis : x y z
#
# Youngs Moduli (GPa) = 65.13541 43.85468 101.69932
#
# Poissons Ratio (x) = -0.02336 0.42040
# Poissons Ratio (y) = -0.03470 0.46889
# Poissons Ratio (z) = 0.26926 0.20219
#
# Static dielectric constant tensor:
#      x y z
#    x 1.734240 -0.019780 -0.028950 
#    y -0.019780 1.687320 -0.004860 
#    z -0.028950 -0.004860 1.719070 
# 
# From -- ./inp_files/108056.got.cif
#   From: 2010.05.17/outbox.cif.g08.bks.cpg/sg2_55_cif.got.tgz:108056.got - 2010.06.03 11:33:40.
