data_PCOD9001878
_publ_section_title
;
Structure prediction by ZEFSAII (Michael W. Deem and Ramdas Pophale) SiO2 
 PCOD9001878
Probable space group: P -1
;
_chemical_formula_sum "Si O2"
_cell_formula_units_Z 14
_cell_length_a 14.382426
_cell_length_b 15.974340
_cell_length_c 16.595009
_cell_angle_alpha 18.021388
_cell_angle_beta 43.470312
_cell_angle_gamma 42.449941
_cell_volume 790.823396
_symmetry_space_group_name_H-M "P -1"
_symmetry_group_IT_number 2
_symmetry_cell_setting 'triclinic'
loop_
_space_group_symop_operation_xyz
x,y,z
-x,-y,-z
loop_
_atom_site_type_symbol
_atom_site_label
_atom_site_fract_x
_atom_site_fract_y
_atom_site_fract_z
Si Si1 0.305041 0.513407 0.544713
Si Si2 0.097708 0.710004 0.229488
Si Si3 0.365282 0.647890 0.555855
Si Si4 0.361103 0.357163 0.305145
Si Si5 0.726879 0.059722 0.957045
Si Si6 0.601934 0.785168 0.936149
Si Si7 0.463866 0.171526 0.241650
O O1 0.292571 0.540398 0.623871
O O2 0.469778 0.429818 0.497227
O O3 0.256500 0.804544 0.263926
O O4 0.238864 0.272496 0.769281
O O5 0.211161 0.542321 0.249608
O O6 0.186576 0.797636 0.166391
O O7 0.000000 0.500000 0.500000
O O8 0.000000 0.000000 0.000000
O O9 0.333041 0.977780 0.281790
O O10 0.344854 0.499326 0.788503
O O11 0.372570 0.211046 0.344260
O O12 0.421827 0.117360 0.552229
O O13 0.460367 0.573354 0.043568
O O14 0.565320 0.141741 0.010820
O O15 0.617550 0.808275 0.809357
#
# Coordination Sequence:
#
# PCOD9001878 Si02
#       7
#     2   2   2   2   2   2   2
#     4   9  17  29  43  64  98 131 162 192 240 305
#     4  12  24  36  52  73 103 135 179 217 245 289
#     4   9  17  26  42  70  98 129 155 196 241 297
#     4  10  21  35  51  73  99 134 173 210 256 289
#     4  10  19  30  47  65  95 135 168 196 245 297
#     4  10  17  27  48  70 100 126 163 194 244 309
#     4  10  19  33  54  74 100 132 170 208 247 317
#
# _framework density 17.703068999999999
#
# number of rings (size 3 to 8) (size 9 to 14) (size 15 to 20)
#    0.000    2.000    1.429    3.429    4.000    3.429 
#    0.000    0.000    0.000    0.000    0.000    0.000 
#    0.000   22.857    0.000    0.000    0.000    0.000 
#
# Total GULP energy -78004.814451 kJ/mol
# GULP energy per Si atom -5571.772461 kJ/mol
# Density = 1.766278 g / cm^3
# Si number density = 17.703069 Si / 1000 Ang^3
#
#
#
# Elastic Constant Matrix: (Units=GPa)
#
#
# Indices 1 2 3 4 5 6 
#
# 1 45.0487 24.6602 22.2288 3.1116 -2.2601 14.6178
# 2 24.6602 55.0741 8.4085 -5.7897 4.7814 10.4575
# 3 22.2288 8.4085 100.3256 -16.5309 3.1451 11.1935
# 4 3.1116 -5.7897 -16.5309 19.0941 6.2856 7.6562
# 5 -2.2601 4.7814 3.1451 6.2856 34.1852 -0.9343
# 6 14.6178 10.4575 11.1935 7.6562 -0.9343 14.2389
#
#
#
# Elastic Compliance Matrix: (Units=1/GPa)
#
#
# Indices 1 2 3 4 5 6 
#
# 1 0.042952 -0.018989 -0.010787 -0.021729 0.010229 -0.009315
# 2 -0.018989 0.047243 0.021339 0.073599 -0.025360 -0.073215
# 3 -0.010787 0.021339 0.029318 0.066195 -0.020331 -0.064573
# 4 -0.021729 0.073599 0.066195 0.247024 -0.069285 -0.221155
# 5 0.010229 -0.025360 -0.020331 -0.069285 0.049852 0.064632
# 6 -0.009315 -0.073215 -0.064573 -0.221155 0.064632 0.307481
#
#
# Mechanical properties :
#
#
# Convention : Reuss Voigt Hill
#
# Bulk Modulus (GPa) = 9.74293 34.56038 22.15166
# Shear Modulus (GPa) = 6.45196 23.18036 14.81616
#
# Velocity S-wave (km/s) = 1.91114 3.62249 2.89611
# Velocity P-wave (km/s) = 3.22264 6.08779 4.87066
#
# Compressibility (1/GPa) = 0.10263853
#
# Stress axis : x y z
#
# Youngs Moduli (GPa) = 23.28157 21.16714 34.10857
#
# Poissons Ratio (x) = 0.40195 0.36793
# Poissons Ratio (y) = 0.44210 -0.72783
# Poissons Ratio (z) = 0.25114 -0.45168
#
# Static dielectric constant tensor:
#      x y z
#    x 1.620560 0.027490 0.018000 
#    y 0.027490 1.611480 0.003090 
#    z 0.018000 0.003090 1.599620 
# 
# From -- ./inp_files/73776.got.cif
#   From: 2010.05.17/outbox.cif.g08.bks.cpg/sg2_37_cif.got.tgz:73776.got - 2010.06.03 11:33:40.
