data_PCOD9001874
_publ_section_title
;
Structure prediction by ZEFSAII (Michael W. Deem and Ramdas Pophale) SiO2 
 PCOD9001874
Probable space group: P -1
;
_chemical_formula_sum "Si O2"
_cell_formula_units_Z 16
_cell_length_a 24.930647
_cell_length_b 7.281992
_cell_length_c 8.690799
_cell_angle_alpha 35.333881
_cell_angle_beta 125.072273
_cell_angle_gamma 114.656020
_cell_volume 742.355102
_symmetry_space_group_name_H-M "P -1"
_symmetry_group_IT_number 2
_symmetry_cell_setting 'triclinic'
loop_
_space_group_symop_operation_xyz
x,y,z
-x,-y,-z
loop_
_atom_site_type_symbol
_atom_site_label
_atom_site_fract_x
_atom_site_fract_y
_atom_site_fract_z
Si Si1 0.966298 0.108295 0.121398
Si Si2 0.169933 0.864689 0.274003
Si Si3 0.170358 0.596576 0.790706
Si Si4 0.313431 0.676179 0.670387
Si Si5 0.686115 0.577047 0.818326
Si Si6 0.438581 0.732839 0.303296
Si Si7 0.438327 0.467130 0.810860
Si Si8 0.037121 0.574407 0.764671
O O1 0.969985 0.265298 0.188464
O O2 0.895524 0.223049 0.855387
O O3 0.983051 0.738372 0.444332
O O4 0.021079 0.220020 0.019855
O O5 0.164828 0.826003 0.477032
O O6 0.240346 0.674967 0.479590
O O7 0.173079 0.232713 0.983890
O O8 0.107673 0.632754 0.773649
O O9 0.241630 0.596667 0.987991
O O10 0.371240 0.559509 0.730095
O O11 0.318542 0.044067 0.479429
O O12 0.318580 0.464786 0.976703
O O13 0.627834 0.406869 0.764483
O O14 0.500000 0.500000 0.500000
O O15 0.441416 0.704004 0.511474
O O16 0.440827 0.100252 0.008855
O O17 0.500000 0.500000 0.000000
#
# Coordination Sequence:
#
# PCOD9001874 Si02
#       8
#     2   2   2   2   2   2   2   2
#     4  10  21  36  53  77 110 146 184 231 284 336
#     4  10  21  36  57  82 109 145 187 234 284 335
#     4  10  21  36  57  82 109 145 187 234 284 335
#     4  10  21  40  60  84 119 153 190 238 289 340
#     4  10  21  40  60  84 119 153 190 238 289 340
#     4  12  24  40  63  91 120 155 195 235 284 338
#     4  12  24  40  63  91 120 155 195 235 284 338
#     4  10  21  36  53  77 110 146 184 231 284 336
#
# _framework density 21.553025999999999
#
# number of rings (size 3 to 8) (size 9 to 14) (size 15 to 20)
#    0.000    1.500    0.000    5.250    0.000    4.000 
#    0.000    3.750    0.000    0.000    0.000    0.000 
#    0.000    0.000    0.000    0.000    0.000    0.000 
#
# Total GULP energy -89408.279816 kJ/mol
# GULP energy per Si atom -5588.017489 kJ/mol
# Density = 2.150397 g / cm^3
# Si number density = 21.553026 Si / 1000 Ang^3
#
#
#
# Elastic Constant Matrix: (Units=GPa)
#
#
# Indices 1 2 3 4 5 6 
#
# 1 137.6459 5.1502 30.0455 17.9682 17.0608 18.3868
# 2 5.1502 55.5463 21.0955 5.7417 10.6665 21.4495
# 3 30.0455 21.0955 75.6883 10.7514 7.6666 13.4256
# 4 17.9682 5.7417 10.7514 31.9528 11.5400 8.0554
# 5 17.0608 10.6665 7.6666 11.5400 34.6505 3.5497
# 6 18.3868 21.4495 13.4256 8.0554 3.5497 30.9431
#
#
#
# Elastic Compliance Matrix: (Units=1/GPa)
#
#
# Indices 1 2 3 4 5 6 
#
# 1 0.009253 0.003329 -0.002947 -0.002084 -0.003665 -0.005565
# 2 0.003329 0.028392 -0.005400 0.002568 -0.008087 -0.019057
# 3 -0.002947 -0.005400 0.016405 -0.002845 0.000528 -0.000943
# 4 -0.002084 0.002568 -0.002845 0.039119 -0.011324 -0.008192
# 5 -0.003665 -0.008087 0.000528 -0.011324 0.036157 0.006355
# 6 -0.005565 -0.019057 -0.000943 -0.008192 0.006355 0.050647
#
#
# Mechanical properties :
#
#
# Convention : Reuss Voigt Hill
#
# Bulk Modulus (GPa) = 22.71978 42.38476 32.55227
# Shear Modulus (GPa) = 24.42838 33.68190 29.05514
#
# Velocity S-wave (km/s) = 3.37027 3.95745 3.67560
# Velocity P-wave (km/s) = 5.07042 6.37102 5.75756
#
# Compressibility (1/GPa) = 0.04401452
#
# Stress axis : x y z
#
# Youngs Moduli (GPa) = 108.06979 35.22160 60.95712
#
# Poissons Ratio (x) = -0.11726 0.17963
# Poissons Ratio (y) = -0.35979 0.32917
# Poissons Ratio (z) = 0.31846 0.19020
#
# Static dielectric constant tensor:
#      x y z
#    x 1.778010 0.017140 0.027110 
#    y 0.017140 1.794540 -0.004100 
#    z 0.027110 -0.004100 1.766170 
# 
# From -- ./inp_files/351975.got.cif
#   From: 2010.05.17/outbox.cif.g08.bks.cpg/sg2_176_cif.got.tgz:351975.got - 2010.06.03 11:33:40.
