data_PCOD9001415
_publ_section_title
;
Structure prediction by ZEFSAII (Michael W. Deem and Ramdas Pophale) SiO2 
 PCOD9001415
Probable space group: P -1
;
_chemical_formula_sum "Si O2"
_cell_formula_units_Z 16
_cell_length_a 22.819627
_cell_length_b 19.190652
_cell_length_c 8.738934
_cell_angle_alpha 55.546044
_cell_angle_beta 47.705196
_cell_angle_gamma 17.121014
_cell_volume 778.968785
_symmetry_space_group_name_H-M "P -1"
_symmetry_group_IT_number 2
_symmetry_cell_setting 'triclinic'
loop_
_space_group_symop_operation_xyz
x,y,z
-x,-y,-z
loop_
_atom_site_type_symbol
_atom_site_label
_atom_site_fract_x
_atom_site_fract_y
_atom_site_fract_z
Si Si1 0.475559 0.120377 0.335828
Si Si2 0.507128 0.585323 0.803744
Si Si3 0.660211 0.809073 0.818266
Si Si4 0.481693 0.676487 0.055030
Si Si5 0.310329 0.700649 0.719918
Si Si6 0.136582 0.236994 0.674763
Si Si7 0.973770 0.891708 0.467442
Si Si8 0.105732 0.617139 0.334247
O O1 0.486405 0.099332 0.160203
O O2 0.213633 0.421585 0.456079
O O3 0.500000 0.000000 0.500000
O O4 0.679066 0.965643 0.261602
O O5 0.373738 0.707584 0.726559
O O6 0.776144 0.343865 0.597288
O O7 0.500000 0.500000 0.000000
O O8 0.420502 0.731116 0.914324
O O9 0.754392 0.797573 0.578501
O O10 0.889496 0.523407 0.816415
O O11 0.500000 0.000000 0.000000
O O12 0.660808 0.418377 0.101358
O O13 0.648516 0.588278 0.902308
O O14 0.246001 0.904521 0.286619
O O15 0.500000 0.500000 0.500000
O O16 0.080505 0.967297 0.707057
O O17 0.069895 0.228723 0.686406
O O18 0.003889 0.783285 0.432478
#
# Coordination Sequence:
#
# PCOD9001415 Si02
#       8
#     2   2   2   2   2   2   2   2
#     4   9  19  38  58  79 109 143 184 223 267 328
#     4   9  19  34  55  82 109 143 187 225 267 320
#     4   9  18  34  59  85 106 136 182 225 269 327
#     4   9  20  37  55  81 112 143 182 224 270 328
#     4   9  19  36  58  81 106 144 188 221 269 330
#     4   9  19  36  55  77 112 145 171 225 277 314
#     4  10  21  38  57  78 113 146 176 230 275 312
#     4  10  21  35  55  82 111 142 182 224 272 323
#
# _framework density 20.539974999999998
#
# number of rings (size 3 to 8) (size 9 to 14) (size 15 to 20)
#    0.000    2.750    0.000    0.750    0.000   13.500 
#    0.000    8.750    0.000    0.000    0.000    0.000 
#    0.000    0.000    0.000    0.000    0.000    0.000 
#
# Total GULP energy -89151.363350 kJ/mol
# GULP energy per Si atom -5571.960209 kJ/mol
# Density = 2.049323 g / cm^3
# Si number density = 20.539975 Si / 1000 Ang^3
#
#
#
# Elastic Constant Matrix: (Units=GPa)
#
#
# Indices 1 2 3 4 5 6 
#
# 1 113.9125 15.0005 22.0982 1.7600 4.8859 -13.6178
# 2 15.0005 70.1804 19.1774 4.7184 14.3370 -2.9982
# 3 22.0982 19.1774 82.5886 27.4406 9.8698 -3.2541
# 4 1.7600 4.7184 27.4406 24.0411 1.0139 2.9560
# 5 4.8859 14.3370 9.8698 1.0139 26.2833 0.0899
# 6 -13.6178 -2.9982 -3.2541 2.9560 0.0899 42.3965
#
#
#
# Elastic Compliance Matrix: (Units=1/GPa)
#
#
# Indices 1 2 3 4 5 6 
#
# 1 0.009836 -0.001307 -0.003154 0.002816 -0.000048 0.002628
# 2 -0.001307 0.016897 -0.002597 0.000008 -0.008001 0.000592
# 3 -0.003154 -0.002597 0.022682 -0.025199 -0.005550 0.002313
# 4 0.002816 0.000008 -0.025199 0.070621 0.006231 -0.005966
# 5 -0.000048 -0.008001 -0.005550 0.006231 0.044270 -0.001536
# 6 0.002628 0.000592 0.002313 -0.005966 -0.001536 0.025070
#
#
# Mechanical properties :
#
#
# Convention : Reuss Voigt Hill
#
# Bulk Modulus (GPa) = 28.33047 42.13706 35.23377
# Shear Modulus (GPa) = 23.22779 32.57121 27.89950
#
# Velocity S-wave (km/s) = 3.36647 3.98646 3.68951
# Velocity P-wave (km/s) = 5.37900 6.46130 5.94483
#
# Compressibility (1/GPa) = 0.03529768
#
# Stress axis : x y z
#
# Youngs Moduli (GPa) = 101.67212 59.18063 44.08710
#
# Poissons Ratio (x) = 0.07738 0.13907
# Poissons Ratio (y) = 0.13293 0.11449
# Poissons Ratio (z) = 0.32071 0.15369
#
# Static dielectric constant tensor:
#      x y z
#    x 1.783560 0.036790 -0.011130 
#    y 0.036790 1.803990 -0.024080 
#    z -0.011130 -0.024080 1.718170 
# 
# From -- ./inp_files/348474.got.cif
#   From: 2010.05.17/outbox.cif.g08.bks.cpg/sg2_175_cif.got.tgz:348474.got - 2010.06.03 11:33:40.
