data_PCOD9001839
_publ_section_title
;
Structure prediction by ZEFSAII (Michael W. Deem and Ramdas Pophale) SiO2 
 PCOD9001839
Probable space group: P -1
;
_chemical_formula_sum "Si O2"
_cell_formula_units_Z 16
_cell_length_a 13.064852
_cell_length_b 25.302826
_cell_length_c 8.104049
_cell_angle_alpha 51.815655
_cell_angle_beta 113.446046
_cell_angle_gamma 155.858179
_cell_volume 737.169900
_symmetry_space_group_name_H-M "P -1"
_symmetry_group_IT_number 2
_symmetry_cell_setting 'triclinic'
loop_
_space_group_symop_operation_xyz
x,y,z
-x,-y,-z
loop_
_atom_site_type_symbol
_atom_site_label
_atom_site_fract_x
_atom_site_fract_y
_atom_site_fract_z
Si Si1 0.339766 0.445249 0.659913
Si Si2 0.750130 0.951064 0.975611
Si Si3 0.402972 0.279172 0.175335
Si Si4 0.410130 0.280608 0.782780
Si Si5 0.657246 0.052486 0.655580
Si Si6 0.794635 0.619541 0.810541
Si Si7 0.261863 0.058093 0.618682
Si Si8 0.783029 0.112197 0.132390
O O1 0.500000 0.500000 0.500000
O O2 0.363468 0.538802 0.487972
O O3 0.540372 0.529746 0.774804
O O4 0.007305 0.237788 0.879663
O O5 0.659242 0.972805 0.806674
O O6 0.089619 0.125492 0.811550
O O7 0.564289 0.783445 0.120267
O O8 0.739600 0.945423 0.177782
O O9 0.437371 0.221364 0.361286
O O10 0.413367 0.289792 0.963981
O O11 0.641551 0.462826 0.043852
O O12 0.072288 0.117428 0.321107
O O13 0.989447 0.262089 0.439099
O O14 0.500000 0.000000 0.500000
O O15 0.467579 0.971992 0.844387
O O16 0.995990 0.753758 0.831318
O O17 0.361656 0.041587 0.650952
#
# Coordination Sequence:
#
# PCOD9001839 Si02
#       8
#     2   2   2   2   2   2   2   2
#     4  12  21  39  64  98 125 157 222 271 310 374
#     4  10  21  40  62  93 127 170 209 260 322 378
#     4  10  21  37  61  96 131 159 209 271 321 371
#     4  10  21  35  66  93 125 166 208 268 324 364
#     4  10  24  43  65  91 132 171 217 259 316 393
#     4  11  22  40  66  91 130 169 214 267 312 379
#     4  10  22  37  60  97 130 160 214 266 314 384
#     4  11  25  40  65  93 126 174 211 263 327 373
#
# _framework density 21.704630999999999
#
# number of rings (size 3 to 8) (size 9 to 14) (size 15 to 20)
#    0.000    1.500    3.750    1.125    5.250    1.500 
#    0.000    1.250    0.000    0.000    0.000    0.000 
#    0.000    0.000    0.000    0.000    0.000    0.000 
#
# Total GULP energy -89419.412230 kJ/mol
# GULP energy per Si atom -5588.713264 kJ/mol
# Density = 2.165523 g / cm^3
# Si number density = 21.704631 Si / 1000 Ang^3
#
#
#
# Elastic Constant Matrix: (Units=GPa)
#
#
# Indices 1 2 3 4 5 6 
#
# 1 119.0801 10.2623 47.4530 -7.8383 29.7180 5.2377
# 2 10.2623 42.7540 8.3662 6.8235 6.8766 2.2711
# 3 47.4530 8.3662 115.3325 -7.3088 32.0297 6.3962
# 4 -7.8383 6.8235 -7.3088 20.8482 -3.6730 4.2454
# 5 29.7180 6.8766 32.0297 -3.6730 60.3708 -5.0866
# 6 5.2377 2.2711 6.3962 4.2454 -5.0866 36.7470
#
#
#
# Elastic Compliance Matrix: (Units=1/GPa)
#
#
# Indices 1 2 3 4 5 6 
#
# 1 0.010967 -0.001918 -0.003091 0.003417 -0.003483 -0.001784
# 2 -0.001918 0.026002 -0.001146 -0.009938 -0.002037 -0.000268
# 3 -0.003091 -0.001146 0.011612 0.002991 -0.004536 -0.002483
# 4 0.003417 -0.009938 0.002991 0.055022 0.000649 -0.006660
# 5 -0.003483 -0.002037 -0.004536 0.000649 0.021318 0.004288
# 6 -0.001784 -0.000268 -0.002483 -0.006660 0.004288 0.029279
#
#
# Mechanical properties :
#
#
# Convention : Reuss Voigt Hill
#
# Bulk Modulus (GPa) = 27.56963 45.48106 36.52535
# Shear Modulus (GPa) = 27.99522 37.66555 32.83039
#
# Velocity S-wave (km/s) = 3.59531 4.17030 3.89343
# Velocity P-wave (km/s) = 5.47401 6.64744 6.08906
#
# Compressibility (1/GPa) = 0.03627179
#
# Stress axis : x y z
#
# Youngs Moduli (GPa) = 91.18125 38.45833 86.11509
#
# Poissons Ratio (x) = 0.07377 0.26614
# Poissons Ratio (y) = 0.17490 0.09871
# Poissons Ratio (z) = 0.28180 0.04408
#
# Static dielectric constant tensor:
#      x y z
#    x 1.836100 -0.133200 -0.099270 
#    y -0.133200 2.288710 0.264890 
#    z -0.099270 0.264890 1.944410 
# 
# From -- ./inp_files/284741.got.cif
#   From: 2010.05.17/outbox.cif.g08.bks.cpg/sg2_143_cif.got.tgz:284741.got - 2010.06.03 11:33:40.
