data_PCOD9001981
_publ_section_title
;
Structure prediction by ZEFSAII (Michael W. Deem and Ramdas Pophale) SiO2 
 PCOD9001981
Probable space group: P -1
;
_chemical_formula_sum "Si O2"
_cell_formula_units_Z 16
_cell_length_a 13.120833
_cell_length_b 11.183036
_cell_length_c 6.964257
_cell_angle_alpha 64.588648
_cell_angle_beta 92.502098
_cell_angle_gamma 131.668189
_cell_volume 643.765377
_symmetry_space_group_name_H-M "P -1"
_symmetry_group_IT_number 2
_symmetry_cell_setting 'triclinic'
loop_
_space_group_symop_operation_xyz
x,y,z
-x,-y,-z
loop_
_atom_site_type_symbol
_atom_site_label
_atom_site_fract_x
_atom_site_fract_y
_atom_site_fract_z
Si Si1 0.970331 0.153505 0.864129
Si Si2 0.408088 0.809257 0.399567
Si Si3 0.726070 0.536191 0.160160
Si Si4 0.302135 0.202940 0.162216
Si Si5 0.531983 0.875775 0.961148
Si Si6 0.928870 0.564593 0.860110
Si Si7 0.103464 0.981870 0.611327
Si Si8 0.824752 0.284642 0.727117
O O1 0.916557 0.048537 0.140152
O O2 0.948103 0.290405 0.741936
O O3 0.146585 0.304845 0.783626
O O4 0.854918 0.982237 0.824841
O O5 0.399862 0.674382 0.622293
O O6 0.430764 0.774460 0.207966
O O7 0.245639 0.724506 0.466876
O O8 0.505150 0.034708 0.247351
O O9 0.668366 0.619334 0.013309
O O10 0.812073 0.532119 0.006732
O O11 0.263182 0.153221 0.418152
O O12 0.421455 0.212754 0.082384
O O13 0.684941 0.069732 0.934094
O O14 0.860442 0.441770 0.749656
O O15 0.048622 0.786849 0.673975
O O16 0.000000 0.500000 0.000000
O O17 0.000000 0.000000 0.500000
#
# Coordination Sequence:
#
# PCOD9001981 Si02
#       8
#     2   2   2   2   2   2   2   2
#     4  10  21  36  55  89 118 148 195 220 290 364
#     4   9  20  38  60  81 108 145 204 244 273 329
#     4  11  22  34  53  89 114 150 188 231 287 348
#     4  11  22  37  61  82 118 159 186 229 298 340
#     4   8  20  39  60  82 105 149 203 238 281 335
#     4  11  21  34  52  84 125 143 183 228 284 351
#     4  11  22  36  53  85 127 153 174 235 281 349
#     4   9  18  36  58  81 112 146 188 238 283 333
#
# _framework density 24.853774999999999
#
# number of rings (size 3 to 8) (size 9 to 14) (size 15 to 20)
#    0.750    1.250    5.000    0.375    3.500    1.000 
#    0.000    0.625    5.500    0.750    0.000    0.000 
#    0.000    0.000    0.000    0.000    0.000    0.000 
#
# Total GULP energy -89232.982072 kJ/mol
# GULP energy per Si atom -5577.061379 kJ/mol
# Density = 2.479721 g / cm^3
# Si number density = 24.853775 Si / 1000 Ang^3
#
#
#
# Elastic Constant Matrix: (Units=GPa)
#
#
# Indices 1 2 3 4 5 6 
#
# 1 110.5896 22.6298 55.3408 -11.5001 11.2841 -38.5928
# 2 22.6298 80.9856 32.7070 -16.7110 16.7823 -16.9075
# 3 55.3408 32.7070 173.6766 -19.3069 9.5127 -30.4610
# 4 -11.5001 -16.7110 -19.3069 29.9491 -10.6412 11.4042
# 5 11.2841 16.7823 9.5127 -10.6412 23.3057 -5.3628
# 6 -38.5928 -16.9075 -30.4610 11.4042 -5.3628 51.7516
#
#
#
# Elastic Compliance Matrix: (Units=1/GPa)
#
#
# Indices 1 2 3 4 5 6 
#
# 1 0.013669 -0.000443 -0.002747 -0.001310 -0.003861 0.008320
# 2 -0.000443 0.016155 -0.001604 0.003952 -0.008440 0.002258
# 3 -0.002747 -0.001604 0.007407 0.002681 0.000984 0.001299
# 4 -0.001310 0.003952 0.002681 0.044818 0.015695 -0.006358
# 5 -0.003861 -0.008440 0.000984 0.015695 0.057020 -0.002608
# 6 0.008320 0.002258 0.001299 -0.006358 -0.002608 0.028161
#
#
# Mechanical properties :
#
#
# Convention : Reuss Voigt Hill
#
# Bulk Modulus (GPa) = 36.17415 65.17856 50.67636
# Shear Modulus (GPa) = 26.87720 37.97288 32.42504
#
# Velocity S-wave (km/s) = 3.29205 3.91301 3.61589
# Velocity P-wave (km/s) = 5.38856 6.83354 6.15361
#
# Compressibility (1/GPa) = 0.02764405
#
# Stress axis : x y z
#
# Youngs Moduli (GPa) = 73.15772 61.89958 135.00852
#
# Poissons Ratio (x) = 0.02743 0.37085
# Poissons Ratio (y) = 0.03242 0.21649
# Poissons Ratio (z) = 0.20096 0.09926
#
# Static dielectric constant tensor:
#      x y z
#    x 2.033380 0.045200 -0.012360 
#    y 0.045200 2.051840 0.028600 
#    z -0.012360 0.028600 2.004370 
# 
# From -- ./inp_files/304633.got.cif
#   From: 2010.05.17/outbox.cif.g08.bks.cpg/sg2_153_cif.got.tgz:304633.got - 2010.06.03 11:33:40.
