data_PCOD9001684
_publ_section_title
;
Structure prediction by ZEFSAII (Michael W. Deem and Ramdas Pophale) SiO2 
 PCOD9001684
Probable space group: P -1
;
_chemical_formula_sum "Si O2"
_cell_formula_units_Z 16
_cell_length_a 20.807775
_cell_length_b 11.439249
_cell_length_c 26.091713
_cell_angle_alpha 31.928660
_cell_angle_beta 10.513253
_cell_angle_gamma 32.124488
_cell_volume 594.302375
_symmetry_space_group_name_H-M "P -1"
_symmetry_group_IT_number 2
_symmetry_cell_setting 'triclinic'
loop_
_space_group_symop_operation_xyz
x,y,z
-x,-y,-z
loop_
_atom_site_type_symbol
_atom_site_label
_atom_site_fract_x
_atom_site_fract_y
_atom_site_fract_z
Si Si1 0.259175 0.291581 0.750036
Si Si2 0.249225 0.308551 0.420137
Si Si3 0.907698 0.789631 0.525073
Si Si4 0.458139 0.834301 0.648830
Si Si5 0.565286 0.410002 0.658994
Si Si6 0.814721 0.238021 0.240301
Si Si7 0.146243 0.716437 0.628994
Si Si8 0.592581 0.048017 0.056548
O O1 0.558528 0.275272 0.477151
O O2 0.016539 0.525924 0.837069
O O3 0.485819 0.271163 0.631876
O O4 0.964853 0.130506 0.039639
O O5 0.363638 0.249584 0.294288
O O6 0.479845 0.202114 0.325060
O O7 0.187966 0.571456 0.380788
O O8 0.870526 0.204158 0.759286
O O9 0.033492 0.030215 0.326979
O O10 0.718876 0.808723 0.721196
O O11 0.651105 0.605074 0.556893
O O12 0.631787 0.056260 0.419515
O O13 0.220054 0.544304 0.849490
O O14 0.820732 0.365811 0.425040
O O15 0.538519 0.160279 0.794046
O O16 0.179328 0.105082 0.022865
#
# Coordination Sequence:
#
# PCOD9001684 Si02
#       8
#     2   2   2   2   2   2   2   2
#     4  10  21  35  61  86 127 154 193 244 296 356
#     4  10  23  43  62  89 117 154 207 249 296 347
#     4  10  21  41  69  84 114 157 208 251 284 352
#     4  11  23  36  56  88 127 157 186 250 304 347
#     4  10  22  35  56  88 120 157 194 237 296 359
#     4  10  21  38  54  89 123 157 195 237 298 360
#     4   9  20  37  58  91 113 157 204 240 287 359
#     4  10  21  38  66  86 116 156 205 245 289 350
#
# _framework density 26.922322000000001
#
# number of rings (size 3 to 8) (size 9 to 14) (size 15 to 20)
#    0.000    2.000    0.000    3.000   10.500    0.000 
#    9.000    3.125    0.000    0.000    0.000    0.000 
#    0.000    0.000    0.000    0.000    0.000    0.000 
#
# Total GULP energy -89355.483722 kJ/mol
# GULP energy per Si atom -5584.717733 kJ/mol
# Density = 2.686105 g / cm^3
# Si number density = 26.922322 Si / 1000 Ang^3
#
#
#
# Elastic Constant Matrix: (Units=GPa)
#
#
# Indices 1 2 3 4 5 6 
#
# 1 63.8478 7.9725 13.8743 2.1688 23.4498 17.8598
# 2 7.9725 169.6147 11.3630 -4.6348 16.0933 15.3190
# 3 13.8743 11.3630 58.0029 -11.0527 18.6144 -0.8837
# 4 2.1688 -4.6348 -11.0527 25.4639 -0.1893 13.1289
# 5 23.4498 16.0933 18.6144 -0.1893 29.1821 -2.2322
# 6 17.8598 15.3190 -0.8837 13.1289 -2.2322 51.7669
#
#
#
# Elastic Compliance Matrix: (Units=1/GPa)
#
#
# Indices 1 2 3 4 5 6 
#
# 1 0.027787 0.002298 0.001994 0.005263 -0.025804 -0.012680
# 2 0.002298 0.006782 0.000725 0.003318 -0.006326 -0.003902
# 3 0.001994 0.000725 0.024829 0.012947 -0.018103 -0.004543
# 4 0.005263 0.003318 0.012947 0.053611 -0.015257 -0.016831
# 5 -0.025804 -0.006326 -0.018103 -0.015257 0.071271 0.017408
# 6 -0.012680 -0.003902 -0.004543 -0.016831 0.017408 0.029788
#
#
# Mechanical properties :
#
#
# Convention : Reuss Voigt Hill
#
# Bulk Modulus (GPa) = 14.40279 39.76501 27.08390
# Shear Modulus (GPa) = 22.00886 38.49962 30.25424
#
# Velocity S-wave (km/s) = 2.86229 3.78567 3.35589
# Velocity P-wave (km/s) = 4.03546 5.82329 5.00978
#
# Compressibility (1/GPa) = 0.06943097
#
# Stress axis : x y z
#
# Youngs Moduli (GPa) = 35.98763 147.43995 40.27513
#
# Poissons Ratio (x) = -0.33876 -0.08030
# Poissons Ratio (y) = -0.08269 -0.02918
# Poissons Ratio (z) = -0.07175 -0.10683
#
# Static dielectric constant tensor:
#      x y z
#    x 2.204020 0.074740 -0.011820 
#    y 0.074740 2.182100 -0.014500 
#    z -0.011820 -0.014500 2.119760 
# 
# From -- ./inp_files/406733.got.cif
#   From: 2010.05.17/outbox.cif.g08.bks.cpg/sg2_204_cif.got.tgz:406733.got - 2010.06.03 11:33:40.
