data_PCOD9001930
_publ_section_title
;
Structure prediction by ZEFSAII (Michael W. Deem and Ramdas Pophale) SiO2 
 PCOD9001930
Probable space group: P -1
;
_chemical_formula_sum "Si O2"
_cell_formula_units_Z 14
_cell_length_a 9.579381
_cell_length_b 11.634465
_cell_length_c 11.469377
_cell_angle_alpha 61.992568
_cell_angle_beta 37.541149
_cell_angle_gamma 52.397145
_cell_volume 616.815547
_symmetry_space_group_name_H-M "P -1"
_symmetry_group_IT_number 2
_symmetry_cell_setting 'triclinic'
loop_
_space_group_symop_operation_xyz
x,y,z
-x,-y,-z
loop_
_atom_site_type_symbol
_atom_site_label
_atom_site_fract_x
_atom_site_fract_y
_atom_site_fract_z
Si Si1 0.515500 0.181929 0.170845
Si Si2 0.271308 0.120828 0.883433
Si Si3 0.753732 0.118030 0.303885
Si Si4 0.271372 0.490038 0.232021
Si Si5 0.243400 0.420417 0.795471
Si Si6 0.966086 0.812144 0.250666
Si Si7 0.605323 0.566742 0.549997
O O1 0.619228 0.149057 0.250835
O O2 0.278861 0.339633 0.252267
O O3 0.503629 0.041956 0.190536
O O4 0.756941 0.190016 0.943712
O O5 0.328909 0.249033 0.830323
O O6 0.168474 0.154664 0.801983
O O7 0.025995 0.121596 0.111274
O O8 0.576570 0.259482 0.426411
O O9 0.807660 0.951246 0.371626
O O10 0.029626 0.647109 0.314012
O O11 0.665498 0.535852 0.660760
O O12 0.500000 0.500000 0.000000
O O13 0.452825 0.472903 0.667739
O O14 0.189806 0.464393 0.673653
O O15 0.000000 0.500000 0.000000
#
# Coordination Sequence:
#
# PCOD9001930 Si02
#       7
#     2   2   2   2   2   2   2
#     4   7  13  24  46  78 107 134 171 213 262 318
#     4   9  15  29  51  78 103 137 179 215 265 305
#     4   8  13  28  50  77 105 130 177 218 257 319
#     4   9  16  30  55  83 112 140 164 217 279 323
#     4  11  22  35  57  77 105 145 184 230 248 299
#     4   8  14  25  52  81 106 139 161 214 282 316
#     4  10  21  36  54  84 104 137 189 215 261 317
#
# _framework density 22.697222
#
# number of rings (size 3 to 8) (size 9 to 14) (size 15 to 20)
#    0.000    3.143    1.429    2.571    0.000    0.000 
#    0.000    7.143    0.000   12.857    0.000    0.000 
#    0.000    0.000    0.000    0.000    0.000    0.000 
#
# Total GULP energy -78064.666432 kJ/mol
# GULP energy per Si atom -5576.047602 kJ/mol
# Density = 2.264556 g / cm^3
# Si number density = 22.697222 Si / 1000 Ang^3
#
#
#
# Elastic Constant Matrix: (Units=GPa)
#
#
# Indices 1 2 3 4 5 6 
#
# 1 35.2238 42.2920 26.6013 5.1603 12.3150 6.8343
# 2 42.2920 230.2852 45.4812 24.3846 7.0742 15.4290
# 3 26.6013 45.4812 121.8172 -9.6325 20.8300 12.3733
# 4 5.1603 24.3846 -9.6325 17.0425 4.3424 -1.9788
# 5 12.3150 7.0742 20.8300 4.3424 21.2078 0.7560
# 6 6.8343 15.4290 12.3733 -1.9788 0.7560 33.3942
#
#
#
# Elastic Compliance Matrix: (Units=1/GPa)
#
#
# Indices 1 2 3 4 5 6 
#
# 1 0.048387 -0.006859 -0.004074 -0.002315 -0.021160 -0.004882
# 2 -0.006859 0.007508 -0.003417 -0.012707 0.007498 -0.001721
# 3 -0.004074 -0.003417 0.014345 0.017657 -0.014145 -0.001536
# 4 -0.002315 -0.012707 0.017657 0.096341 -0.031708 0.006229
# 5 -0.021160 0.007498 -0.014145 -0.031708 0.077235 0.002480
# 6 -0.004882 -0.001721 -0.001536 0.006229 0.002480 0.032622
#
#
# Mechanical properties :
#
#
# Convention : Reuss Voigt Hill
#
# Bulk Modulus (GPa) = 24.07420 68.45280 46.26350
# Shear Modulus (GPa) = 15.67469 32.52568 24.10018
#
# Velocity S-wave (km/s) = 2.63078 3.78964 3.26208
# Velocity P-wave (km/s) = 4.45620 7.02660 5.88348
#
# Compressibility (1/GPa) = 0.04153824
#
# Stress axis : x y z
#
# Youngs Moduli (GPa) = 20.66672 133.19876 69.70866
#
# Poissons Ratio (x) = 0.91367 0.28401
# Poissons Ratio (y) = 0.14176 0.23821
# Poissons Ratio (z) = 0.08420 0.45517
#
# Static dielectric constant tensor:
#      x y z
#    x 1.839130 -0.008160 0.002220 
#    y -0.008160 1.912160 0.001390 
#    z 0.002220 0.001390 1.918540 
# 
# From -- ./inp_files/401949.got.cif
#   From: 2010.05.17/outbox.cif.g08.bks.cpg/sg2_201_cif.got.tgz:401949.got - 2010.06.03 11:33:40.
