data_PCOD9001135
_publ_section_title
;
Structure prediction by ZEFSAII (Michael W. Deem and Ramdas Pophale) SiO2 
 PCOD9001135
Probable space group: P -1
;
_chemical_formula_sum "Si O2"
_cell_formula_units_Z 15
_cell_length_a 11.399472
_cell_length_b 12.114923
_cell_length_c 14.582843
_cell_angle_alpha 69.218902
_cell_angle_beta 108.252801
_cell_angle_gamma 155.827711
_cell_volume 770.734012
_symmetry_space_group_name_H-M "P -1"
_symmetry_group_IT_number 2
_symmetry_cell_setting 'triclinic'
loop_
_space_group_symop_operation_xyz
x,y,z
-x,-y,-z
loop_
_atom_site_type_symbol
_atom_site_label
_atom_site_fract_x
_atom_site_fract_y
_atom_site_fract_z
Si Si1 0.411189 0.434869 0.134747
Si Si2 0.000000 0.000000 0.000000
Si Si3 0.802808 0.542015 0.809865
Si Si4 0.022027 0.697350 0.126791
Si Si5 0.322588 0.959650 0.936562
Si Si6 0.412448 0.904174 0.610840
Si Si7 0.412766 0.167613 0.210927
Si Si8 0.208314 0.631372 0.303741
O O1 0.265092 0.385049 0.194682
O O2 0.436032 0.319742 0.207433
O O3 0.713045 0.744977 0.078796
O O4 0.195008 0.235887 0.054864
O O5 0.559383 0.260580 0.887234
O O6 0.773839 0.473449 0.718382
O O7 0.116063 0.770792 0.854044
O O8 0.173130 0.709222 0.199140
O O9 0.686300 0.388590 0.146186
O O10 0.136197 0.903822 0.157284
O O11 0.114097 0.802630 0.016507
O O12 0.500000 0.000000 0.000000
O O13 0.555807 0.907080 0.683841
O O14 0.074340 0.604621 0.633257
O O15 0.500000 0.000000 0.500000
O O16 0.528195 0.108254 0.644219
#
# Coordination Sequence:
#
# PCOD9001135 Si02
#       8
#     2   1   2   2   2   2   2   2
#     4  11  24  39  52  80 116 161 200 236 279 321
#     4  10  24  36  52  74 112 162 216 236 248 312
#     4  12  25  36  55  81 118 161 193 238 279 340
#     4  10  21  34  53  80 109 150 196 235 276 315
#     4  12  24  35  52  80 116 159 203 236 271 329
#     4  10  21  40  66  90 108 136 184 245 306 360
#     4  10  22  36  59  79 113 149 186 243 285 337
#     4  10  21  38  56  85 115 143 179 234 302 345
#
# _framework density 19.461966
#
# number of rings (size 3 to 8) (size 9 to 14) (size 15 to 20)
#    0.000    1.333    1.333    4.000   14.933    0.000 
#    0.000    0.000    0.000    1.600    0.000    0.000 
#    0.000    0.000    0.000    0.000    0.000    0.000 
#
# Total GULP energy -83584.174963 kJ/mol
# GULP energy per Si atom -5572.278331 kJ/mol
# Density = 1.941767 g / cm^3
# Si number density = 19.461966 Si / 1000 Ang^3
#
#
#
# Elastic Constant Matrix: (Units=GPa)
#
#
# Indices 1 2 3 4 5 6 
#
# 1 48.3205 43.7942 87.2038 7.4694 -44.1195 -10.5052
# 2 43.7942 78.0188 -41.2365 0.5098 31.4386 4.5072
# 3 87.2038 -41.2365 -19.6156 -13.6345 28.5803 -4.1810
# 4 7.4694 0.5098 -13.6345 17.6646 6.0225 -2.4731
# 5 -44.1195 31.4386 28.5803 6.0225 -10.4571 6.1643
# 6 -10.5052 4.5072 -4.1810 -2.4731 6.1643 25.3451
#
#
#
# Elastic Compliance Matrix: (Units=1/GPa)
#
#
# Indices 1 2 3 4 5 6 
#
# 1 0.006258 0.001903 0.000670 0.003242 -0.013469 0.005958
# 2 0.001903 0.008978 -0.004998 -0.005505 0.000746 -0.002351
# 3 0.000670 -0.004998 0.022269 0.002249 0.041360 -0.005000
# 4 0.003242 -0.005505 0.002249 0.054342 0.010431 0.005459
# 5 -0.013469 0.000746 0.041360 0.010431 0.073240 -0.015688
# 6 0.005958 -0.002351 -0.005000 0.005459 -0.015688 0.045866
#
#
# Mechanical properties :
#
#
# Convention : Reuss Voigt Hill
#
# Bulk Modulus (GPa) = 30.62228 31.80519 31.21373
# Shear Modulus (GPa) = 22.05674 7.64132 14.84903
#
# Velocity S-wave (km/s) = 3.37014 1.98363 2.76520
# Velocity P-wave (km/s) = 5.55989 4.65017 5.12526
#
# Compressibility (1/GPa) = 0.03265597
#
# Stress axis : x y z
#
# Youngs Moduli (GPa) = 159.80614 111.37773 44.90497
#
# Poissons Ratio (x) = -0.21200 -0.03008
# Poissons Ratio (y) = -0.30419 0.22443
# Poissons Ratio (z) = -0.10704 0.55666
#
# Static dielectric constant tensor:
#      x y z
#    x 1.640150 -0.061410 -0.130420 
#    y -0.061410 1.657230 -0.045670 
#    z -0.130420 -0.045670 1.515830 
# 
# From -- ./inp_files/452046.got.cif
#   From: 2010.05.17/outbox.cif.g08.bks.cpg/sg2_227_cif.got.tgz:452046.got - 2010.06.03 11:33:40.
