data_PCOD9001460
_publ_section_title
;
Structure prediction by ZEFSAII (Michael W. Deem and Ramdas Pophale) SiO2 
 PCOD9001460
Probable space group: P -1
;
_chemical_formula_sum "Si O2"
_cell_formula_units_Z 16
_cell_length_a 21.300192
_cell_length_b 25.240971
_cell_length_c 9.885640
_cell_angle_alpha 141.134288
_cell_angle_beta 133.926860
_cell_angle_gamma 14.449820
_cell_volume 768.136347
_symmetry_space_group_name_H-M "P -1"
_symmetry_group_IT_number 2
_symmetry_cell_setting 'triclinic'
loop_
_space_group_symop_operation_xyz
x,y,z
-x,-y,-z
loop_
_atom_site_type_symbol
_atom_site_label
_atom_site_fract_x
_atom_site_fract_y
_atom_site_fract_z
Si Si1 0.161460 0.217635 0.016071
Si Si2 0.397798 0.682182 0.937562
Si Si3 0.670730 0.678722 0.563297
Si Si4 0.158030 0.720859 0.666886
Si Si5 0.486566 0.666369 0.321572
Si Si6 0.899153 0.286069 0.722584
Si Si7 0.880138 0.615794 0.248315
Si Si8 0.577055 0.895637 0.623160
O O1 0.082549 0.350840 0.037514
O O2 0.211854 0.232506 0.247426
O O3 0.958438 0.326113 0.943101
O O4 0.450672 0.911143 0.806237
O O5 0.468437 0.616806 0.073222
O O6 0.275797 0.703223 0.759034
O O7 0.656066 0.468621 0.808032
O O8 0.151522 0.976289 0.146073
O O9 0.632778 0.614118 0.370392
O O10 0.956697 0.451031 0.592411
O O11 0.584978 0.807301 0.555453
O O12 0.338356 0.523307 0.666883
O O13 0.165938 0.652697 0.413473
O O14 0.182682 0.972471 0.524501
O O15 0.707013 0.795271 0.214220
O O16 0.674611 0.781211 0.392468
#
# Coordination Sequence:
#
# PCOD9001460 Si02
#       8
#     2   2   2   2   2   2   2   2
#     4  10  21  36  55  80 115 149 191 238 287 346
#     4  10  22  40  67  89 123 162 195 249 305 356
#     4  10  21  36  56  79 114 153 187 241 288 339
#     4  10  22  43  61  94 124 154 204 246 299 367
#     4  10  23  39  62  92 124 158 203 248 298 361
#     4  10  23  39  62  92 123 160 198 251 300 354
#     4  10  21  35  56  81 110 151 193 238 282 343
#     4  10  21  36  55  81 112 149 196 235 285 343
#
# _framework density 20.829635
#
# number of rings (size 3 to 8) (size 9 to 14) (size 15 to 20)
#    0.000    2.000    0.000    3.750    3.500    8.500 
#    2.250    0.000    0.000    0.000    0.000    0.000 
#    0.000    0.000    0.000    0.000    0.000    0.000 
#
# Total GULP energy -89329.685453 kJ/mol
# GULP energy per Si atom -5583.105341 kJ/mol
# Density = 2.078223 g / cm^3
# Si number density = 20.829635 Si / 1000 Ang^3
#
#
#
# Elastic Constant Matrix: (Units=GPa)
#
#
# Indices 1 2 3 4 5 6 
#
# 1 71.4174 37.9329 17.3336 -2.1865 -8.2572 -11.1870
# 2 37.9329 122.7270 12.4113 1.5105 -10.0576 18.7284
# 3 17.3336 12.4113 46.4230 -4.5747 -8.7822 3.1505
# 4 -2.1865 1.5105 -4.5747 15.6487 -4.9532 -6.4165
# 5 -8.2572 -10.0576 -8.7822 -4.9532 23.5392 -1.9672
# 6 -11.1870 18.7284 3.1505 -6.4165 -1.9672 40.5446
#
#
#
# Elastic Compliance Matrix: (Units=1/GPa)
#
#
# Indices 1 2 3 4 5 6 
#
# 1 0.022102 -0.007779 -0.005076 0.008879 0.005386 0.011753
# 2 -0.007779 0.011980 -0.000201 -0.005676 0.000406 -0.008543
# 3 -0.005076 -0.000201 0.026399 0.009600 0.009889 -0.001360
# 4 0.008879 -0.005676 0.009600 0.083573 0.023418 0.018688
# 5 0.005386 0.000406 0.009889 0.023418 0.053734 0.006843
# 6 0.011753 -0.008543 -0.001360 0.018688 0.006843 0.035249
#
#
# Mechanical properties :
#
#
# Convention : Reuss Voigt Hill
#
# Bulk Modulus (GPa) = 29.09712 41.76920 35.43316
# Shear Modulus (GPa) = 18.47706 27.47248 22.97477
#
# Velocity S-wave (km/s) = 2.98158 3.63562 3.32472
# Velocity P-wave (km/s) = 5.08454 6.14166 5.63793
#
# Compressibility (1/GPa) = 0.03436767
#
# Stress axis : x y z
#
# Youngs Moduli (GPa) = 45.24549 83.47376 37.87972
#
# Poissons Ratio (x) = 0.64937 0.19229
# Poissons Ratio (y) = 0.35198 0.00761
# Poissons Ratio (z) = 0.22969 0.01677
#
# Static dielectric constant tensor:
#      x y z
#    x 1.729040 -0.016990 -0.000980 
#    y -0.016990 1.783680 0.032790 
#    z -0.000980 0.032790 1.770730 
# 
# From -- ./inp_files/337842.got.cif
#   From: 2010.05.17/outbox.cif.g08.bks.cpg/sg2_169_cif.got.tgz:337842.got - 2010.06.03 11:33:40.
