data_PCOD9001002
_publ_section_title
;
Structure prediction by ZEFSAII (Michael W. Deem and Ramdas Pophale) SiO2 
 PCOD9001002
Probable space group: P -1
;
_chemical_formula_sum "Si O2"
_cell_formula_units_Z 16
_cell_length_a 18.091161
_cell_length_b 20.944234
_cell_length_c 9.889257
_cell_angle_alpha 54.373161
_cell_angle_beta 42.587225
_cell_angle_gamma 20.321242
_cell_volume 782.265952
_symmetry_space_group_name_H-M "P -1"
_symmetry_group_IT_number 2
_symmetry_cell_setting 'triclinic'
loop_
_space_group_symop_operation_xyz
x,y,z
-x,-y,-z
loop_
_atom_site_type_symbol
_atom_site_label
_atom_site_fract_x
_atom_site_fract_y
_atom_site_fract_z
Si Si1 0.806684 0.086173 0.000861
Si Si2 0.424567 0.837056 0.254376
Si Si3 0.844282 0.286432 0.421438
Si Si4 0.664253 0.662531 0.863779
Si Si5 0.771992 0.290739 0.810917
Si Si6 0.602391 0.104966 0.479617
Si Si7 0.686722 0.266110 0.430013
Si Si8 0.307821 0.204391 0.529659
O O1 0.603417 0.209275 0.991044
O O2 0.648792 0.144414 0.261012
O O3 0.827891 0.162119 0.918639
O O4 0.122419 0.847475 0.821705
O O5 0.516300 0.790838 0.342533
O O6 0.271341 0.852977 0.442493
O O7 0.644876 0.688436 0.018166
O O8 0.185362 0.061399 0.260823
O O9 0.721421 0.332202 0.668687
O O10 0.790550 0.262275 0.401257
O O11 0.657038 0.489854 0.410900
O O12 0.644409 0.759150 0.692412
O O13 0.965013 0.420337 0.724167
O O14 0.500000 0.500000 0.000000
O O15 0.065614 0.141516 0.636318
O O16 0.408503 0.172689 0.577171
O O17 0.500000 0.000000 0.500000
#
# Coordination Sequence:
#
# PCOD9001002 Si02
#       8
#     2   2   2   2   2   2   2   2
#     4  11  20  38  62  88 129 167 197 244 300 363
#     4  11  21  39  59  90 127 152 199 250 305 356
#     4  10  21  33  51  87 125 167 202 231 286 367
#     4  10  23  42  67  89 113 161 204 250 301 356
#     4  11  22  33  56  90 131 160 200 242 304 363
#     4  10  23  38  60  89 121 162 200 247 303 357
#     4  11  20  35  58  87 132 166 197 239 296 367
#     4  10  24  47  66  86 115 155 211 256 299 359
#
# _framework density 20.453403000000002
#
# number of rings (size 3 to 8) (size 9 to 14) (size 15 to 20)
#    0.000    1.500    3.750    2.250    3.500    1.500 
#    2.250    0.625    0.000    0.000    0.000    0.000 
#    0.000    0.000    0.000    0.000    0.000    0.000 
#
# Total GULP energy -89245.213246 kJ/mol
# GULP energy per Si atom -5577.825828 kJ/mol
# Density = 2.040685 g / cm^3
# Si number density = 20.453403 Si / 1000 Ang^3
#
#
#
# Elastic Constant Matrix: (Units=GPa)
#
#
# Indices 1 2 3 4 5 6 
#
# 1 80.9340 20.8842 24.7461 4.5365 24.5059 -1.5615
# 2 20.8842 95.4190 16.1369 16.2030 7.1892 12.8326
# 3 24.7461 16.1369 64.0333 8.0601 31.0747 1.1110
# 4 4.5365 16.2030 8.0601 20.2003 -5.6409 9.4179
# 5 24.5059 7.1892 31.0747 -5.6409 36.6994 1.3801
# 6 -1.5615 12.8326 1.1110 9.4179 1.3801 18.9253
#
#
#
# Elastic Compliance Matrix: (Units=1/GPa)
#
#
# Indices 1 2 3 4 5 6 
#
# 1 0.017966 -0.002452 0.003149 -0.012880 -0.016560 0.010578
# 2 -0.002452 0.013253 -0.000609 -0.007846 -0.001455 -0.005143
# 3 0.003149 -0.000609 0.038662 -0.036125 -0.041001 0.019370
# 4 -0.012880 -0.007846 -0.036125 0.116060 0.060663 -0.055802
# 5 -0.016560 -0.001455 -0.041001 0.060663 0.083922 -0.034281
# 6 0.010578 -0.005143 0.019370 -0.055802 -0.034281 0.086331
#
#
# Mechanical properties :
#
#
# Convention : Reuss Voigt Hill
#
# Bulk Modulus (GPa) = 14.27417 40.43565 27.35491
# Shear Modulus (GPa) = 13.17971 27.07295 20.12633
#
# Velocity S-wave (km/s) = 2.54121 3.64213 3.14029
# Velocity P-wave (km/s) = 3.95024 6.12368 5.15285
#
# Compressibility (1/GPa) = 0.07005661
#
# Stress axis : x y z
#
# Youngs Moduli (GPa) = 55.66062 75.45209 25.86533
#
# Poissons Ratio (x) = 0.18504 -0.08146
# Poissons Ratio (y) = 0.13651 0.01576
# Poissons Ratio (z) = -0.17529 0.04596
#
# Static dielectric constant tensor:
#      x y z
#    x 1.732420 -0.054000 0.018020 
#    y -0.054000 1.783280 -0.011730 
#    z 0.018020 -0.011730 1.727160 
# 
# From -- ./inp_files/337654.got.cif
#   From: 2010.05.17/outbox.cif.g08.bks.cpg/sg2_169_cif.got.tgz:337654.got - 2010.06.03 11:33:40.
