data_PCOD9001221
_publ_section_title
;
Structure prediction by ZEFSAII (Michael W. Deem and Ramdas Pophale) SiO2 
 PCOD9001221
Probable space group: P -1
;
_chemical_formula_sum "Si O2"
_cell_formula_units_Z 14
_cell_length_a 7.722704
_cell_length_b 8.995165
_cell_length_c 10.188521
_cell_angle_alpha 111.575837
_cell_angle_beta 111.745859
_cell_angle_gamma 68.032652
_cell_volume 587.703692
_symmetry_space_group_name_H-M "P -1"
_symmetry_group_IT_number 2
_symmetry_cell_setting 'triclinic'
loop_
_space_group_symop_operation_xyz
x,y,z
-x,-y,-z
loop_
_atom_site_type_symbol
_atom_site_label
_atom_site_fract_x
_atom_site_fract_y
_atom_site_fract_z
Si Si1 0.970332 0.476447 0.137813
Si Si2 0.728841 0.131929 0.455874
Si Si3 0.301119 0.232838 0.281292
Si Si4 0.359844 0.687493 0.013056
Si Si5 0.331430 0.186795 0.762249
Si Si6 0.252527 0.009782 0.947196
Si Si7 0.074602 0.034398 0.317626
O O1 0.850331 0.339632 0.058508
O O2 0.834352 0.641751 0.218956
O O3 0.166749 0.409010 0.251847
O O4 0.000000 0.500000 0.000000
O O5 0.515612 0.236376 0.386776
O O6 0.895217 0.128793 0.394222
O O7 0.703818 0.943793 0.392103
O O8 0.816244 0.132629 0.625246
O O9 0.199011 0.154220 0.341465
O O10 0.293065 0.113075 0.115909
O O11 0.355603 0.812806 0.930976
O O12 0.500000 0.500000 0.000000
O O13 0.460313 0.777219 0.179369
O O14 0.317225 0.093010 0.864951
O O15 0.030118 0.018590 0.855528
#
# Coordination Sequence:
#
# PCOD9001221 Si02
#       7
#     2   2   2   2   2   2   2
#     4  11  23  37  55  96 134 156 199 272 315 359
#     4  10  23  41  64  88 127 167 210 254 308 379
#     4  12  22  37  66  92 123 163 210 260 314 363
#     4  10  21  34  57  90 124 155 198 258 312 360
#     4  10  21  39  62  89 126 163 210 251 317 372
#     4  11  20  35  67  91 119 160 209 259 306 371
#     4  10  23  39  61  94 124 162 213 257 307 375
#
# _framework density 23.821529000000002
#
# number of rings (size 3 to 8) (size 9 to 14) (size 15 to 20)
#    0.000    1.429    4.286    1.286    2.000    0.000 
#    0.000    0.714    0.000    7.714    0.000    0.000 
#    0.000    0.000    0.000    0.000    0.000    0.000 
#
# Total GULP energy -78142.191771 kJ/mol
# GULP energy per Si atom -5581.585126 kJ/mol
# Density = 2.376731 g / cm^3
# Si number density = 23.821529 Si / 1000 Ang^3
#
#
#
# Elastic Constant Matrix: (Units=GPa)
#
#
# Indices 1 2 3 4 5 6 
#
# 1 97.8634 19.3553 27.0493 -29.3344 23.6168 -2.3839
# 2 19.3553 111.8638 18.7267 -32.0775 2.8444 -19.4553
# 3 27.0493 18.7267 75.4534 -44.1979 6.1413 -10.2172
# 4 -29.3344 -32.0775 -44.1979 44.3451 -5.0296 11.6627
# 5 23.6168 2.8444 6.1413 -5.0296 40.3454 -10.8343
# 6 -2.3839 -19.4553 -10.2172 11.6627 -10.8343 43.1245
#
#
#
# Elastic Compliance Matrix: (Units=1/GPa)
#
#
# Indices 1 2 3 4 5 6 
#
# 1 0.015377 -0.000049 0.001560 0.011794 -0.008900 -0.004228
# 2 -0.000049 0.012477 0.005068 0.013236 0.000965 0.003490
# 3 0.001560 0.005068 0.034174 0.038672 -0.001768 -0.000433
# 4 0.011794 0.013236 0.038672 0.079718 -0.005722 -0.007211
# 5 -0.008900 0.000965 -0.001768 -0.005722 0.031925 0.009092
# 6 -0.004228 0.003490 -0.000433 -0.007211 0.009092 0.028661
#
#
# Mechanical properties :
#
#
# Convention : Reuss Voigt Hill
#
# Bulk Modulus (GPa) = 13.30019 46.16036 29.73027
# Shear Modulus (GPa) = 23.33867 40.23295 31.78581
#
# Velocity S-wave (km/s) = 3.13346 4.11412 3.65681
# Velocity P-wave (km/s) = 4.32282 6.47979 5.50792
#
# Compressibility (1/GPa) = 0.07518692
#
# Stress axis : x y z
#
# Youngs Moduli (GPa) = 65.03302 80.14464 29.26185
#
# Poissons Ratio (x) = 0.00391 -0.04565
# Poissons Ratio (y) = 0.00318 -0.14830
# Poissons Ratio (z) = -0.10145 -0.40618
#
# Static dielectric constant tensor:
#      x y z
#    x 1.999410 -0.062460 0.048850 
#    y -0.062460 1.941850 -0.019240 
#    z 0.048850 -0.019240 2.036900 
# 
# From -- ./inp_files/376740.got.cif
#   From: 2010.05.17/outbox.cif.g08.bks.cpg/sg2_189_cif.got.tgz:376740.got - 2010.06.03 11:33:40.
