data_PCOD9001142
_publ_section_title
;
Structure prediction by ZEFSAII (Michael W. Deem and Ramdas Pophale) SiO2 
 PCOD9001142
Probable space group: P -1
;
_chemical_formula_sum "Si O2"
_cell_formula_units_Z 16
_cell_length_a 14.316715
_cell_length_b 25.988145
_cell_length_c 23.575702
_cell_angle_alpha 10.253178
_cell_angle_beta 147.001646
_cell_angle_gamma 144.693817
_cell_volume 846.478566
_symmetry_space_group_name_H-M "P -1"
_symmetry_group_IT_number 2
_symmetry_cell_setting 'triclinic'
loop_
_space_group_symop_operation_xyz
x,y,z
-x,-y,-z
loop_
_atom_site_type_symbol
_atom_site_label
_atom_site_fract_x
_atom_site_fract_y
_atom_site_fract_z
Si Si1 0.661014 0.845968 0.175675
Si Si2 0.343203 0.929816 0.634173
Si Si3 0.979917 0.161879 0.600702
Si Si4 0.216703 0.338223 0.227150
Si Si5 0.421798 0.829403 0.592958
Si Si6 0.007068 0.186016 0.124133
Si Si7 0.561974 0.567611 0.544473
Si Si8 0.154846 0.300916 0.367050
O O1 0.644963 0.649161 0.437848
O O2 0.541613 0.710645 0.215472
O O3 0.863505 0.844489 0.268240
O O4 0.577639 0.163695 0.804042
O O5 0.274079 0.074587 0.500724
O O6 0.511245 0.046105 0.566940
O O7 0.195044 0.036308 0.398047
O O8 0.344449 0.586385 0.012658
O O9 0.785091 0.148558 0.535605
O O10 0.027303 0.901687 0.862789
O O11 0.984518 0.473011 0.233952
O O12 0.210623 0.261607 0.373066
O O13 0.024921 0.490603 0.949702
O O14 0.500000 0.000000 0.500000
O O15 0.500000 0.500000 0.000000
O O16 0.878710 0.012655 0.284055
O O17 0.704542 0.562179 0.671576
#
# Coordination Sequence:
#
# PCOD9001142 Si02
#       8
#     2   2   2   2   2   2   2   2
#     4  10  22  34  50  81 108 145 182 220 273 320
#     4  11  21  37  52  80 113 142 185 232 265 323
#     4  12  21  36  51  82 112 147 176 223 267 339
#     4  10  24  37  56  82 113 146 191 226 268 329
#     4  12  22  35  57  83 106 148 188 216 283 343
#     4  11  21  31  56  76 114 148 178 212 274 318
#     4  10  21  34  54  75 110 145 183 224 262 329
#     4  10  22  38  57  82 111 156 187 219 276 325
#
# _framework density 18.901837
#
# number of rings (size 3 to 8) (size 9 to 14) (size 15 to 20)
#    0.000    1.250    3.750    3.000    3.500    7.500 
#    0.000    0.000    0.000    0.000    0.000    5.250 
#    0.000    0.000    0.000    0.000    0.000    0.000 
#
# Total GULP energy -89439.284607 kJ/mol
# GULP energy per Si atom -5589.955288 kJ/mol
# Density = 1.885882 g / cm^3
# Si number density = 18.901837 Si / 1000 Ang^3
#
#
#
# Elastic Constant Matrix: (Units=GPa)
#
#
# Indices 1 2 3 4 5 6 
#
# 1 68.1911 55.9906 2.2792 6.5655 -4.6833 10.5993
# 2 55.9906 130.1688 17.7963 -3.2800 0.6501 17.2154
# 3 2.2792 17.7963 18.4070 -7.7912 4.6004 6.8130
# 4 6.5655 -3.2800 -7.7912 22.1233 -7.3803 4.3842
# 5 -4.6833 0.6501 4.6004 -7.3803 17.8287 -4.0245
# 6 10.5993 17.2154 6.8130 4.3842 -4.0245 36.7407
#
#
#
# Elastic Compliance Matrix: (Units=1/GPa)
#
#
# Indices 1 2 3 4 5 6 
#
# 1 0.024832 -0.011337 0.005415 -0.005879 0.002686 -0.001860
# 2 -0.011337 0.014327 -0.010979 0.001860 -0.000272 -0.001659
# 3 0.005415 -0.010979 0.084437 0.025379 -0.013195 -0.016549
# 4 -0.005879 0.001860 0.025379 0.063382 0.015886 -0.009705
# 5 0.002686 -0.000272 -0.013195 0.015886 0.068457 0.007402
# 6 -0.001860 -0.001659 -0.016549 -0.009705 0.007402 0.033569
#
#
# Mechanical properties :
#
#
# Convention : Reuss Voigt Hill
#
# Bulk Modulus (GPa) = 11.13653 40.98879 26.06266
# Shear Modulus (GPa) = 14.17481 24.71858 19.44670
#
# Velocity S-wave (km/s) = 2.74143 3.62018 3.21101
# Velocity P-wave (km/s) = 3.99063 6.26151 5.25032
#
# Compressibility (1/GPa) = 0.08979461
#
# Stress axis : x y z
#
# Youngs Moduli (GPa) = 40.27076 69.79602 11.84312
#
# Poissons Ratio (x) = 0.79128 -0.06413
# Poissons Ratio (y) = 0.45655 0.13003
# Poissons Ratio (z) = -0.21808 0.76631
#
# Static dielectric constant tensor:
#      x y z
#    x 1.656370 -0.000820 0.062140 
#    y -0.000820 1.663230 0.050480 
#    z 0.062140 0.050480 1.442700 
# 
# From -- ./inp_files/108608.got.cif
#   From: 2010.05.17/outbox.cif.g08.bks.cpg/sg2_55_cif.got.tgz:108608.got - 2010.06.03 11:33:40.
