data_PCOD9001747
_publ_section_title
;
Structure prediction by ZEFSAII (Michael W. Deem and Ramdas Pophale) SiO2 
 PCOD9001747
Probable space group: P -1
;
_chemical_formula_sum "Si O2"
_cell_formula_units_Z 14
_cell_length_a 25.625843
_cell_length_b 11.151410
_cell_length_c 13.842647
_cell_angle_alpha 29.831151
_cell_angle_beta 17.785241
_cell_angle_gamma 25.517980
_cell_volume 519.514323
_symmetry_space_group_name_H-M "P -1"
_symmetry_group_IT_number 2
_symmetry_cell_setting 'triclinic'
loop_
_space_group_symop_operation_xyz
x,y,z
-x,-y,-z
loop_
_atom_site_type_symbol
_atom_site_label
_atom_site_fract_x
_atom_site_fract_y
_atom_site_fract_z
Si Si1 0.350495 0.578371 0.806776
Si Si2 0.666618 0.556942 0.866546
Si Si3 0.313886 0.260283 0.855500
Si Si4 0.267008 0.983913 0.522275
Si Si5 0.536894 0.212178 0.219991
Si Si6 0.860828 0.402061 0.268075
Si Si7 0.795427 0.961094 0.627644
O O1 0.247515 0.573992 0.088681
O O2 0.502201 0.689189 0.489186
O O3 0.215588 0.785255 0.815487
O O4 0.500508 0.254218 0.741565
O O5 0.674541 0.321932 0.946391
O O6 0.431884 0.773457 0.148679
O O7 0.749087 0.766432 0.557960
O O8 0.194182 0.463741 0.836345
O O9 0.392966 0.951320 0.888594
O O10 0.197871 0.270251 0.150000
O O11 0.179134 0.084990 0.500026
O O12 0.320259 0.476943 0.421373
O O13 0.500000 0.000000 0.500000
O O14 0.923876 0.085791 0.359263
O O15 0.000000 0.500000 0.000000
#
# Coordination Sequence:
#
# PCOD9001747 Si02
#       7
#     2   2   2   2   2   2   2
#     4  10  17  27  47  74 111 135 163 208 278 306
#     4  10  17  28  46  74 109 136 167 207 269 315
#     4  11  19  33  54  78 110 138 164 219 271 307
#     4  10  19  28  46  79 113 130 167 220 270 311
#     4   9  18  35  52  77 112 137 169 216 266 313
#     4  10  21  36  52  74 106 144 180 210 252 310
#     4  10  19  31  49  78 108 134 172 214 263 309
#
# _framework density 26.948246000000001
#
# number of rings (size 3 to 8) (size 9 to 14) (size 15 to 20)
#    0.000    2.000    7.143    1.714    2.000    2.857 
#    0.000    0.000    0.000    0.000    0.000    5.000 
#    0.000    1.143    0.000    0.000    0.000    0.000 
#
# Total GULP energy -78237.914095 kJ/mol
# GULP energy per Si atom -5588.422435 kJ/mol
# Density = 2.688691 g / cm^3
# Si number density = 26.948246 Si / 1000 Ang^3
#
#
#
# Elastic Constant Matrix: (Units=GPa)
#
#
# Indices 1 2 3 4 5 6 
#
# 1 129.4266 25.4963 50.5242 -28.5136 4.8082 -2.2719
# 2 25.4963 99.3803 55.7993 -28.2697 -7.7777 19.9342
# 3 50.5242 55.7993 90.0365 -46.0931 0.8560 2.9017
# 4 -28.5136 -28.2697 -46.0931 58.8298 7.0794 -8.0954
# 5 4.8082 -7.7777 0.8560 7.0794 49.7224 -24.1063
# 6 -2.2719 19.9342 2.9017 -8.0954 -24.1063 47.4852
#
#
#
# Elastic Compliance Matrix: (Units=1/GPa)
#
#
# Indices 1 2 3 4 5 6 
#
# 1 0.010004 0.000712 -0.005565 0.000963 -0.000750 0.000303
# 2 0.000712 0.017407 -0.011640 -0.001327 -0.000329 -0.006955
# 3 -0.005565 -0.011640 0.029219 0.015444 -0.001769 0.004569
# 4 0.000963 -0.001327 0.015444 0.029747 -0.003327 0.003042
# 5 -0.000750 -0.000329 -0.001769 -0.003327 0.027145 0.013423
# 6 0.000303 -0.006955 0.004569 0.003042 0.013423 0.031047
#
#
# Mechanical properties :
#
#
# Convention : Reuss Voigt Hill
#
# Bulk Modulus (GPa) = 42.29180 64.72035 53.50608
# Shear Modulus (GPa) = 26.96376 43.67571 35.31974
#
# Velocity S-wave (km/s) = 3.16662 4.03019 3.62422
# Velocity P-wave (km/s) = 5.39423 6.76205 6.11649
#
# Compressibility (1/GPa) = 0.02364524
#
# Stress axis : x y z
#
# Youngs Moduli (GPa) = 99.96303 57.44900 34.22431
#
# Poissons Ratio (x) = -0.04093 0.19045
# Poissons Ratio (y) = -0.07122 0.39836
# Poissons Ratio (z) = 0.55628 0.66869
#
# Static dielectric constant tensor:
#      x y z
#    x 2.138670 -0.032280 -0.001330 
#    y -0.032280 2.201670 0.020760 
#    z -0.001330 0.020760 2.140240 
# 
# From -- ./inp_files/543924.got.cif
#   From: 2010.05.17/outbox.cif.g08.bks.cpg/sg2_272_cif.got.tgz:543924.got - 2010.06.03 11:33:40.
