data_PCOD9001803
_publ_section_title
;
Structure prediction by ZEFSAII (Michael W. Deem and Ramdas Pophale) SiO2 
 PCOD9001803
Probable space group: P -1
;
_chemical_formula_sum "Si O2"
_cell_formula_units_Z 16
_cell_length_a 28.571611
_cell_length_b 5.294600
_cell_length_c 18.497279
_cell_angle_alpha 94.237032
_cell_angle_beta 163.014295
_cell_angle_gamma 78.983697
_cell_volume 742.298191
_symmetry_space_group_name_H-M "P -1"
_symmetry_group_IT_number 2
_symmetry_cell_setting 'triclinic'
loop_
_space_group_symop_operation_xyz
x,y,z
-x,-y,-z
loop_
_atom_site_type_symbol
_atom_site_label
_atom_site_fract_x
_atom_site_fract_y
_atom_site_fract_z
Si Si1 0.770370 0.243199 0.986814
Si Si2 0.451708 0.102447 0.348006
Si Si3 0.089713 0.956695 0.356790
Si Si4 0.033126 0.216581 0.503196
Si Si5 0.032430 0.267825 0.139531
Si Si6 0.807494 0.900669 0.777064
Si Si7 0.651441 0.591463 0.251677
Si Si8 0.319627 0.060202 0.817801
O O1 0.648325 0.561627 0.792474
O O2 0.666101 0.061437 0.854404
O O3 0.901229 0.265390 0.241822
O O4 0.891000 0.071965 0.093698
O O5 0.500000 0.000000 0.500000
O O6 0.620098 0.017080 0.542305
O O7 0.205122 0.944546 0.597290
O O8 0.102554 0.165893 0.320914
O O9 0.196238 0.640059 0.482070
O O10 0.000000 0.500000 0.500000
O O11 0.233636 0.098579 0.768924
O O12 0.000000 0.000000 0.500000
O O13 0.179118 0.156575 0.290818
O O14 0.923205 0.596262 0.975193
O O15 0.901453 0.110961 0.931885
O O16 0.722092 0.657947 0.282142
O O17 0.500000 0.500000 0.000000
O O18 0.527376 0.875948 0.115551
#
# Coordination Sequence:
#
# PCOD9001803 Si02
#       8
#     2   2   2   2   2   2   2   2
#     4  11  25  40  65  97 127 168 225 261 315 399
#     4  12  23  41  65  97 134 170 209 270 327 375
#     4  10  21  35  64  88 121 155 213 262 312 376
#     4  11  25  44  68  90 131 182 218 267 327 385
#     4  10  21  39  63  90 116 168 205 251 321 375
#     4  10  22  40  61  85 130 162 204 255 312 386
#     4   9  19  37  60  88 120 155 198 271 323 364
#     4   9  21  38  62  89 123 158 213 265 321 380
#
# _framework density 21.554679
#
# number of rings (size 3 to 8) (size 9 to 14) (size 15 to 20)
#    0.000    1.750    0.000    3.375   10.500    0.000 
#    2.250    3.750    0.000    0.000    0.000    0.000 
#    0.000    0.000    0.000    0.000    0.000    0.000 
#
# Total GULP energy -89272.036737 kJ/mol
# GULP energy per Si atom -5579.502296 kJ/mol
# Density = 2.150562 g / cm^3
# Si number density = 21.554679 Si / 1000 Ang^3
#
#
#
# Elastic Constant Matrix: (Units=GPa)
#
#
# Indices 1 2 3 4 5 6 
#
# 1 128.4363 22.5125 58.3465 -20.6971 32.7689 16.7776
# 2 22.5125 102.1682 38.8359 -8.5632 6.9245 25.6752
# 3 58.3465 38.8359 94.0511 -18.5418 30.8027 2.0555
# 4 -20.6971 -8.5632 -18.5418 40.0168 6.9262 -7.7446
# 5 32.7689 6.9245 30.8027 6.9262 33.1909 9.2511
# 6 16.7776 25.6752 2.0555 -7.7446 9.2511 32.4444
#
#
#
# Elastic Compliance Matrix: (Units=1/GPa)
#
#
# Indices 1 2 3 4 5 6 
#
# 1 0.013536 0.000178 -0.003412 0.006976 -0.011107 -0.002092
# 2 0.000178 0.019208 -0.015925 -0.010791 0.019062 -0.022295
# 3 -0.003412 -0.015925 0.037066 0.024876 -0.041177 0.029698
# 4 0.006976 -0.010791 0.024876 0.051460 -0.046517 0.028903
# 5 -0.011107 0.019062 -0.041177 -0.046517 0.097781 -0.045718
# 6 -0.002092 -0.022295 0.029698 0.028903 -0.045718 0.067601
#
#
# Mechanical properties :
#
#
# Convention : Reuss Voigt Hill
#
# Bulk Modulus (GPa) = 31.75459 62.67171 47.21315
# Shear Modulus (GPa) = 14.90452 34.79447 24.84949
#
# Velocity S-wave (km/s) = 2.63244 4.02212 3.39906
# Velocity P-wave (km/s) = 4.89936 7.12101 6.11198
#
# Compressibility (1/GPa) = 0.03149151
#
# Stress axis : x y z
#
# Youngs Moduli (GPa) = 73.87664 52.06057 26.97882
#
# Poissons Ratio (x) = -0.00924 0.09205
# Poissons Ratio (y) = -0.01311 0.42964
# Poissons Ratio (z) = 0.25208 0.82906
#
# Static dielectric constant tensor:
#      x y z
#    x 1.804480 -0.117070 -0.013180 
#    y -0.117070 2.030750 0.023760 
#    z -0.013180 0.023760 1.821080 
# 
# From -- ./inp_files/579481.got.cif
#   From: 2010.05.17/outbox.cif.g08.bks.cpg/sg2_290_cif.got.tgz:579481.got - 2010.06.03 11:33:40.
