data_PCOD9001318
_publ_section_title
;
Structure prediction by ZEFSAII (Michael W. Deem and Ramdas Pophale) SiO2 
 PCOD9001318
Probable space group: P -1
;
_chemical_formula_sum "Si O2"
_cell_formula_units_Z 16
_cell_length_a 8.960921
_cell_length_b 8.941522
_cell_length_c 27.568901
_cell_angle_alpha 138.706243
_cell_angle_beta 37.637069
_cell_angle_gamma 108.940109
_cell_volume 660.029510
_symmetry_space_group_name_H-M "P -1"
_symmetry_group_IT_number 2
_symmetry_cell_setting 'triclinic'
loop_
_space_group_symop_operation_xyz
x,y,z
-x,-y,-z
loop_
_atom_site_type_symbol
_atom_site_label
_atom_site_fract_x
_atom_site_fract_y
_atom_site_fract_z
Si Si1 0.762884 0.429467 0.951786
Si Si2 0.116730 0.805544 0.667617
Si Si3 0.975580 0.583396 0.442158
Si Si4 0.496735 0.690519 0.674854
Si Si5 0.828494 0.365949 0.021553
Si Si6 0.252572 0.918901 0.565621
Si Si7 0.656972 0.052466 0.551891
Si Si8 0.852325 0.343969 0.113409
O O1 0.887874 0.605953 0.949888
O O2 0.625062 0.469647 0.050662
O O3 0.500000 0.500000 0.000000
O O4 0.048084 0.061300 0.781621
O O5 0.500000 0.500000 0.500000
O O6 0.938650 0.674554 0.680673
O O7 0.029995 0.939545 0.667972
O O8 0.685357 0.703140 0.585188
O O9 0.274946 0.429797 0.365260
O O10 0.841087 0.852936 0.504334
O O11 0.474580 0.444001 0.603792
O O12 0.137688 0.005329 0.854914
O O13 0.665266 0.453356 0.136608
O O14 0.000000 0.500000 0.000000
O O15 0.114627 0.040163 0.576596
O O16 0.420053 0.014990 0.576633
O O17 0.403885 0.403818 0.719930
O O18 0.000000 0.000000 0.000000
#
# Coordination Sequence:
#
# PCOD9001318 Si02
#       8
#     2   2   2   2   2   2   2   2
#     4  11  24  42  68 100 134 171 224 275 331 393
#     4  11  19  38  65  94 127 170 215 276 328 390
#     4  10  21  34  63  92 126 156 214 276 326 376
#     4  10  21  38  59  95 120 163 215 267 325 390
#     4  10  22  39  64  89 129 176 218 257 329 398
#     4  10  21  36  62  89 126 166 212 265 331 390
#     4  11  21  40  61  94 124 170 215 270 330 389
#     4  11  23  43  67  93 133 181 220 260 329 411
#
# _framework density 24.241339
#
# number of rings (size 3 to 8) (size 9 to 14) (size 15 to 20)
#    0.000    1.500    2.500    3.750    3.500    0.500 
#    2.250    0.625    0.000    0.000    0.000    0.000 
#    0.000    0.000    0.000    0.000    0.000    0.000 
#
# Total GULP energy -89193.320302 kJ/mol
# GULP energy per Si atom -5574.582519 kJ/mol
# Density = 2.418616 g / cm^3
# Si number density = 24.241339 Si / 1000 Ang^3
#
#
#
# Elastic Constant Matrix: (Units=GPa)
#
#
# Indices 1 2 3 4 5 6 
#
# 1 151.2449 53.3006 48.5203 13.8331 6.4610 -36.3491
# 2 53.3006 125.5781 33.1384 12.4899 16.1601 -29.4867
# 3 48.5203 33.1384 103.5964 30.5108 16.2839 -1.1808
# 4 13.8331 12.4899 30.5108 38.4572 0.8965 15.8798
# 5 6.4610 16.1601 16.2839 0.8965 44.4784 3.9882
# 6 -36.3491 -29.4867 -1.1808 15.8798 3.9882 53.0991
#
#
#
# Elastic Compliance Matrix: (Units=1/GPa)
#
#
# Indices 1 2 3 4 5 6 
#
# 1 0.010207 -0.001364 -0.003068 -0.003814 -0.000445 0.007336
# 2 -0.001364 0.011622 -0.000581 -0.005854 -0.004374 0.007586
# 3 -0.003068 -0.000581 0.015492 -0.011613 -0.004939 0.001766
# 4 -0.003814 -0.005854 -0.011613 0.046863 0.007846 -0.020724
# 5 -0.000445 -0.004374 -0.004939 0.007846 0.026430 -0.007175
# 6 0.007336 0.007586 0.001766 -0.020724 -0.007175 0.034843
#
#
# Mechanical properties :
#
#
# Convention : Reuss Voigt Hill
#
# Bulk Modulus (GPa) = 36.63474 72.25978 54.44726
# Shear Modulus (GPa) = 30.38006 43.57094 36.97550
#
# Velocity S-wave (km/s) = 3.54394 4.24415 3.90976
# Velocity P-wave (km/s) = 5.64724 7.34100 6.54911
#
# Compressibility (1/GPa) = 0.02729650
#
# Stress axis : x y z
#
# Youngs Moduli (GPa) = 97.96778 86.04610 64.54864
#
# Poissons Ratio (x) = 0.11735 0.19802
# Poissons Ratio (y) = 0.13361 0.03749
# Poissons Ratio (z) = 0.30054 0.04997
#
# Static dielectric constant tensor:
#      x y z
#    x 1.991420 -0.010220 0.072930 
#    y -0.010220 2.073260 0.045140 
#    z 0.072930 0.045140 2.059930 
# 
# From -- ./inp_files/616719.got.cif
#   From: 2010.05.17/outbox.cif.g08.bks.cpg/sg2_309_cif.got.tgz:616719.got - 2010.06.03 11:33:40.
