data_PCOD9001938
_publ_section_title
;
Structure prediction by ZEFSAII (Michael W. Deem and Ramdas Pophale) SiO2 
 PCOD9001938
Probable space group: P -1
;
_chemical_formula_sum "Si O2"
_cell_formula_units_Z 14
_cell_length_a 11.049777
_cell_length_b 9.930328
_cell_length_c 14.029913
_cell_angle_alpha 34.867324
_cell_angle_beta 42.827296
_cell_angle_gamma 65.802789
_cell_volume 520.274653
_symmetry_space_group_name_H-M "P -1"
_symmetry_group_IT_number 2
_symmetry_cell_setting 'triclinic'
loop_
_space_group_symop_operation_xyz
x,y,z
-x,-y,-z
loop_
_atom_site_type_symbol
_atom_site_label
_atom_site_fract_x
_atom_site_fract_y
_atom_site_fract_z
Si Si1 0.725054 0.015888 0.215070
Si Si2 0.616597 0.131468 0.627626
Si Si3 0.509128 0.535536 0.112001
Si Si4 0.053106 0.281956 0.253881
Si Si5 0.413884 0.700326 0.259467
Si Si6 0.986494 0.741236 0.254362
Si Si7 0.897311 0.002877 0.313359
O O1 0.489517 0.886176 0.401106
O O2 0.817834 0.811556 0.263540
O O3 0.794237 0.099392 0.235165
O O4 0.841006 0.215482 0.943707
O O5 0.542637 0.264394 0.673986
O O6 0.861572 0.316617 0.374022
O O7 0.551830 0.822586 0.876228
O O8 0.499695 0.565142 0.214726
O O9 0.290776 0.269916 0.372579
O O10 0.708613 0.514829 0.981093
O O11 0.000000 0.000000 0.500000
O O12 0.020489 0.213539 0.200523
O O13 0.170439 0.566904 0.455003
O O14 0.500000 0.000000 0.000000
O O15 0.036879 0.919485 0.216802
#
# Coordination Sequence:
#
# PCOD9001938 Si02
#       7
#     2   2   2   2   2   2   2
#     4   9  19  37  59  89 120 155 199 241 304 354
#     4  10  21  36  54  92 122 146 200 252 293 355
#     4   9  20  40  61  85 115 163 200 245 303 344
#     4  10  22  39  60  84 122 161 198 244 304 355
#     4   9  18  36  59  87 119 147 201 251 289 348
#     4   8  18  37  59  88 116 163 190 237 316 344
#     4   9  19  40  62  82 116 162 203 238 292 368
#
# _framework density 26.908864999999999
#
# number of rings (size 3 to 8) (size 9 to 14) (size 15 to 20)
#    0.857    2.000    0.000    0.000    2.000    3.429 
#   12.857    2.857    0.000    0.000    0.000    0.000 
#    0.000    0.000    0.000    0.000    0.000    0.000 
#
# Total GULP energy -78198.767688 kJ/mol
# GULP energy per Si atom -5585.626263 kJ/mol
# Density = 2.684762 g / cm^3
# Si number density = 26.908865 Si / 1000 Ang^3
#
#
#
# Elastic Constant Matrix: (Units=GPa)
#
#
# Indices 1 2 3 4 5 6 
#
# 1 105.6734 33.8780 1.0568 24.4326 -3.2620 5.9464
# 2 33.8780 79.2011 17.9557 12.7849 3.5891 25.8466
# 3 1.0568 17.9557 94.8673 27.7152 -11.0208 -7.2100
# 4 24.4326 12.7849 27.7152 35.4108 -0.5132 9.4906
# 5 -3.2620 3.5891 -11.0208 -0.5132 33.6664 4.0679
# 6 5.9464 25.8466 -7.2100 9.4906 4.0679 38.0974
#
#
#
# Elastic Compliance Matrix: (Units=1/GPa)
#
#
# Indices 1 2 3 4 5 6 
#
# 1 0.015142 -0.008342 0.006711 -0.014751 0.003376 0.007880
# 2 -0.008342 0.022552 -0.008543 0.008918 -0.003767 -0.017434
# 3 0.006711 -0.008543 0.019722 -0.020348 0.006149 0.012894
# 4 -0.014751 0.008918 -0.020348 0.056704 -0.005624 -0.021124
# 5 0.003376 -0.003767 0.006149 -0.005624 0.032220 0.001153
# 6 0.007880 -0.017434 0.012894 -0.021124 0.001153 0.044426
#
#
# Mechanical properties :
#
#
# Convention : Reuss Voigt Hill
#
# Bulk Modulus (GPa) = 26.97825 42.83588 34.90707
# Shear Modulus (GPa) = 22.37446 36.55835 29.46640
#
# Velocity S-wave (km/s) = 2.88669 3.68992 3.31274
# Velocity P-wave (km/s) = 4.59980 5.84015 5.25669
#
# Compressibility (1/GPa) = 0.03706689
#
# Stress axis : x y z
#
# Youngs Moduli (GPa) = 66.04327 44.34278 50.70417
#
# Poissons Ratio (x) = 0.36989 -0.34026
# Poissons Ratio (y) = 0.55090 0.43319
# Poissons Ratio (z) = -0.44320 0.37884
#
# Static dielectric constant tensor:
#      x y z
#    x 2.111310 -0.062460 0.102090 
#    y -0.062460 2.170340 -0.101940 
#    z 0.102090 -0.101940 2.359830 
# 
# From -- ./inp_files/517663.got.cif
#   From: 2010.05.17/outbox.cif.g08.bks.cpg/sg2_259_cif.got.tgz:517663.got - 2010.06.03 11:33:40.
