data_PCOD9001004
_publ_section_title
;
Structure prediction by ZEFSAII (Michael W. Deem and Ramdas Pophale) SiO2 
 PCOD9001004
Probable space group: P -1
;
_chemical_formula_sum "Si O2"
_cell_formula_units_Z 16
_cell_length_a 7.469314
_cell_length_b 10.751499
_cell_length_c 8.624162
_cell_angle_alpha 98.830533
_cell_angle_beta 59.925835
_cell_angle_gamma 100.245477
_cell_volume 588.094090
_symmetry_space_group_name_H-M "P -1"
_symmetry_group_IT_number 2
_symmetry_cell_setting 'triclinic'
loop_
_space_group_symop_operation_xyz
x,y,z
-x,-y,-z
loop_
_atom_site_type_symbol
_atom_site_label
_atom_site_fract_x
_atom_site_fract_y
_atom_site_fract_z
Si Si1 0.416983 0.264788 0.220911
Si Si2 0.669182 0.488648 0.060279
Si Si3 0.281322 0.869655 0.158906
Si Si4 0.230723 0.610336 0.561283
Si Si5 0.102892 0.270308 0.074497
Si Si6 0.724663 0.971811 0.091488
Si Si7 0.459051 0.867363 0.583100
Si Si8 0.979631 0.367073 0.679521
O O1 0.536126 0.405035 0.229688
O O2 0.228854 0.270107 0.184990
O O3 0.378073 0.173173 0.366444
O O4 0.596044 0.210360 0.031239
O O5 0.500000 0.500000 0.000000
O O6 0.769659 0.629319 0.077894
O O7 0.852381 0.424752 0.884514
O O8 0.477949 0.915043 0.192166
O O9 0.080805 0.783836 0.295604
O O10 0.232021 0.985867 0.096901
O O11 0.408098 0.731992 0.494698
O O12 0.132194 0.612057 0.432113
O O13 0.094689 0.666030 0.768840
O O14 0.198195 0.458406 0.587501
O O15 0.133032 0.136901 0.956807
O O16 0.735347 0.090991 0.223389
O O17 0.500000 0.000000 0.500000
#
# Coordination Sequence:
#
# PCOD9001004 Si02
#       8
#     2   2   2   2   2   2   2   2
#     4   8  16  32  53  76 100 129 175 214 246 301
#     4   8  14  28  56  81  96 125 170 216 251 284
#     4   8  14  29  53  76  95 133 176 213 244 289
#     4  10  21  33  52  76 104 137 168 210 262 305
#     4   9  17  32  54  78 101 133 171 212 251 295
#     4   9  17  30  51  76 105 133 171 207 246 307
#     4  11  22  35  51  75 106 140 168 206 263 312
#     4   9  17  33  51  72 102 134 175 213 249 299
#
# _framework density 27.206530000000001
#
# number of rings (size 3 to 8) (size 9 to 14) (size 15 to 20)
#    0.000    3.000    0.000    2.250    0.000    0.500 
#    0.000   12.500    0.000   20.250    0.000    0.000 
#    0.000    0.000    0.000    0.000    0.000    0.000 
#
# Total GULP energy -89121.024952 kJ/mol
# GULP energy per Si atom -5570.064059 kJ/mol
# Density = 2.714461 g / cm^3
# Si number density = 27.206530 Si / 1000 Ang^3
#
#
#
# Elastic Constant Matrix: (Units=GPa)
#
#
# Indices 1 2 3 4 5 6 
#
# 1 68.9998 27.9469 27.2656 -0.7729 6.4226 1.5642
# 2 27.9469 158.2018 41.8671 -44.3725 3.6826 11.4329
# 3 27.2656 41.8671 87.1700 -17.3821 -5.1288 4.0538
# 4 -0.7729 -44.3725 -17.3821 39.5159 -7.1417 10.5627
# 5 6.4226 3.6826 -5.1288 -7.1417 35.1685 7.2621
# 6 1.5642 11.4329 4.0538 10.5627 7.2621 25.0366
#
#
#
# Elastic Compliance Matrix: (Units=1/GPa)
#
#
# Indices 1 2 3 4 5 6 
#
# 1 0.020603 -0.006646 -0.007478 -0.015418 -0.009831 0.012315
# 2 -0.006646 0.015191 0.001001 0.024113 0.008666 -0.019371
# 3 -0.007478 0.001001 0.016864 0.012755 0.008492 -0.010565
# 4 -0.015418 0.024113 0.012755 0.077037 0.028728 -0.052947
# 5 -0.009831 0.008666 0.008492 0.028728 0.042412 -0.029140
# 6 0.012315 -0.019371 -0.010565 -0.052947 -0.029140 0.080519
#
#
# Mechanical properties :
#
#
# Convention : Reuss Voigt Hill
#
# Bulk Modulus (GPa) = 37.85908 56.50341 47.18124
# Shear Modulus (GPa) = 17.38069 34.43035 25.90552
#
# Velocity S-wave (km/s) = 2.53028 3.56127 3.08909
# Velocity P-wave (km/s) = 4.74152 6.14196 5.48660
#
# Compressibility (1/GPa) = 0.02641374
#
# Stress axis : x y z
#
# Youngs Moduli (GPa) = 48.53743 65.82647 59.29717
#
# Poissons Ratio (x) = 0.43749 0.44340
# Poissons Ratio (y) = 0.32258 -0.05938
# Poissons Ratio (z) = 0.36294 -0.06592
#
# Static dielectric constant tensor:
#      x y z
#    x 2.221990 0.069000 -0.047860 
#    y 0.069000 2.295500 -0.083210 
#    z -0.047860 -0.083210 2.206580 
# 
# From -- ./inp_files/188403.got.cif
#   From: 2010.05.17/outbox.cif.g08.bks.cpg/sg2_95_cif.got.tgz:188403.got - 2010.06.03 11:33:40.
