data_PCOD9001887
_publ_section_title
;
Structure prediction by ZEFSAII (Michael W. Deem and Ramdas Pophale) SiO2 
 PCOD9001887
Probable space group: P -1
;
_chemical_formula_sum "Si O2"
_cell_formula_units_Z 16
_cell_length_a 8.286162
_cell_length_b 14.808962
_cell_length_c 10.869405
_cell_angle_alpha 113.582018
_cell_angle_beta 140.667693
_cell_angle_gamma 70.173148
_cell_volume 773.757457
_symmetry_space_group_name_H-M "P -1"
_symmetry_group_IT_number 2
_symmetry_cell_setting 'triclinic'
loop_
_space_group_symop_operation_xyz
x,y,z
-x,-y,-z
loop_
_atom_site_type_symbol
_atom_site_label
_atom_site_fract_x
_atom_site_fract_y
_atom_site_fract_z
Si Si1 0.554010 0.715877 0.532237
Si Si2 0.702232 0.770235 0.924281
Si Si3 0.792108 0.238603 0.244898
Si Si4 0.365834 0.680966 0.071931
Si Si5 0.872948 0.605847 0.447407
Si Si6 0.793790 0.899600 0.700248
Si Si7 0.926426 0.389201 0.909624
Si Si8 0.147396 0.879795 0.142022
O O1 0.628017 0.727797 0.723871
O O2 0.763839 0.657885 0.537807
O O3 0.559872 0.830684 0.553909
O O4 0.305111 0.654981 0.327798
O O5 0.448756 0.808892 0.862709
O O6 0.823970 0.676327 0.015382
O O7 0.935043 0.842401 0.090271
O O8 0.909089 0.326371 0.439067
O O9 0.020803 0.156605 0.318545
O O10 0.704786 0.294491 0.096685
O O11 0.628897 0.618288 0.219785
O O12 0.156951 0.630364 0.007543
O O13 0.354106 0.791629 0.184019
O O14 0.000000 0.500000 0.500000
O O15 0.747226 0.014708 0.710464
O O16 0.973860 0.892064 0.923477
O O17 0.000000 0.500000 0.000000
#
# Coordination Sequence:
#
# PCOD9001887 Si02
#       8
#     2   2   2   2   2   2   2   2
#     4   9  20  39  56  81 114 143 189 235 271 335
#     4  10  21  36  53  83 119 147 180 230 279 332
#     4  10  21  36  53  83 119 147 180 230 279 332
#     4   9  20  39  56  81 114 143 189 235 271 335
#     4  10  21  37  57  78 104 145 194 233 278 324
#     4   8  15  33  61  84 109 148 187 227 278 331
#     4  10  21  37  57  78 104 145 194 233 278 324
#     4   8  15  33  61  84 109 148 187 227 278 331
#
# _framework density 20.678314
#
# number of rings (size 3 to 8) (size 9 to 14) (size 15 to 20)
#    0.000    2.750    0.000    2.250    3.500    2.500 
#    4.500   10.000    0.000    0.000    0.000   22.750 
#    0.000    0.000    0.000    0.000    0.000    0.000 
#
# Total GULP energy -89077.432909 kJ/mol
# GULP energy per Si atom -5567.339557 kJ/mol
# Density = 2.063125 g / cm^3
# Si number density = 20.678314 Si / 1000 Ang^3
#
#
#
# Elastic Constant Matrix: (Units=GPa)
#
#
# Indices 1 2 3 4 5 6 
#
# 1 38.1743 6.1325 13.2538 4.2590 13.4631 -0.6875
# 2 6.1325 135.2084 21.7378 28.2382 15.9131 -3.6565
# 3 13.2538 21.7378 94.9765 11.5980 12.3242 11.8877
# 4 4.2590 28.2382 11.5980 35.6412 5.5889 1.3792
# 5 13.4631 15.9131 12.3242 5.5889 24.6199 -4.3269
# 6 -0.6875 -3.6565 11.8877 1.3792 -4.3269 10.7672
#
#
#
# Elastic Compliance Matrix: (Units=1/GPa)
#
#
# Indices 1 2 3 4 5 6 
#
# 1 0.033172 0.001159 -0.002145 -0.001295 -0.017899 -0.002147
# 2 0.001159 0.009577 -0.001607 -0.006799 -0.003687 0.004490
# 3 -0.002145 -0.001607 0.015052 -0.001210 -0.008674 -0.020632
# 4 -0.001295 -0.006799 -0.001210 0.034792 -0.003399 -0.006878
# 5 -0.017899 -0.003687 -0.008674 -0.003399 0.063743 0.033233
# 6 -0.002147 0.004490 -0.020632 -0.006878 0.033233 0.131277
#
#
# Mechanical properties :
#
#
# Convention : Reuss Voigt Hill
#
# Bulk Modulus (GPa) = 19.00584 38.95637 28.98111
# Shear Modulus (GPa) = 16.11155 29.35468 22.73311
#
# Velocity S-wave (km/s) = 2.79436 3.77183 3.31927
# Velocity P-wave (km/s) = 4.42972 6.15216 5.36057
#
# Compressibility (1/GPa) = 0.05261540
#
# Stress axis : x y z
#
# Youngs Moduli (GPa) = 30.14560 104.41558 66.43761
#
# Poissons Ratio (x) = -0.12104 0.14251
# Poissons Ratio (y) = -0.03494 0.10676
# Poissons Ratio (z) = 0.06466 0.16780
#
# Static dielectric constant tensor:
#      x y z
#    x 1.770040 0.014130 0.005120 
#    y 0.014130 1.762220 -0.026630 
#    z 0.005120 -0.026630 1.859060 
# 
# From -- ./inp_files/396145.got.cif
#   From: 2010.05.17/outbox.cif.g08.bks.cpg/sg2_199_cif.got.tgz:396145.got - 2010.06.03 11:33:40.
