data_PCOD9001143
_publ_section_title
;
Structure prediction by ZEFSAII (Michael W. Deem and Ramdas Pophale) SiO2 
 PCOD9001143
Probable space group: P -1
;
_chemical_formula_sum "Si O2"
_cell_formula_units_Z 16
_cell_length_a 17.614439
_cell_length_b 5.414530
_cell_length_c 8.562414
_cell_angle_alpha 94.575736
_cell_angle_beta 76.095811
_cell_angle_gamma 53.186733
_cell_volume 607.754799
_symmetry_space_group_name_H-M "P -1"
_symmetry_group_IT_number 2
_symmetry_cell_setting 'triclinic'
loop_
_space_group_symop_operation_xyz
x,y,z
-x,-y,-z
loop_
_atom_site_type_symbol
_atom_site_label
_atom_site_fract_x
_atom_site_fract_y
_atom_site_fract_z
Si Si1 0.091742 0.567741 0.392654
Si Si2 0.261089 0.607658 0.375515
Si Si3 0.530221 0.842460 0.304858
Si Si4 0.243055 0.891396 0.105356
Si Si5 0.413396 0.780936 0.805931
Si Si6 0.297486 0.299912 0.647777
Si Si7 0.900937 0.779374 0.346317
Si Si8 0.109608 0.900189 0.916299
O O1 0.163221 0.657079 0.367418
O O2 0.160304 0.225592 0.252796
O O3 0.070374 0.511656 0.575545
O O4 0.987684 0.797496 0.361901
O O5 0.316607 0.313720 0.455774
O O6 0.306187 0.621230 0.195785
O O7 0.212369 0.919805 0.524074
O O8 0.508979 0.605999 0.257538
O O9 0.652312 0.582189 0.267286
O O10 0.500000 0.000000 0.500000
O O11 0.526127 0.080969 0.200716
O O12 0.323276 0.903677 0.976490
O O13 0.174158 0.846245 0.033212
O O14 0.354800 0.950800 0.677566
O O15 0.179810 0.567593 0.763198
O O16 0.901063 0.823812 0.164894
O O17 0.000000 0.000000 0.000000
#
# Coordination Sequence:
#
# PCOD9001143 Si02
#       8
#     2   2   2   2   2   2   2   2
#     4  10  21  34  54  77 114 166 209 261 317 376
#     4  10  21  38  56  79 119 167 208 255 319 375
#     4  10  21  41  72 101 126 162 208 264 323 386
#     4  11  23  36  58  89 123 163 210 263 326 369
#     4  10  22  39  68  97 129 156 213 263 321 376
#     4   9  23  38  63  91 125 169 212 263 305 388
#     4   9  21  35  50  76 109 159 220 262 304 368
#     4  11  22  38  58  85 127 166 218 266 321 363
#
# _framework density 26.326407
#
# number of rings (size 3 to 8) (size 9 to 14) (size 15 to 20)
#    0.750    1.250    1.250    1.500    7.000    6.500 
#    0.000    0.000    0.000    1.500    0.000    0.000 
#    0.000    0.000    0.000    0.000    0.000    0.000 
#
# Total GULP energy -89278.862786 kJ/mol
# GULP energy per Si atom -5579.928924 kJ/mol
# Density = 2.626649 g / cm^3
# Si number density = 26.326407 Si / 1000 Ang^3
#
#
#
# Elastic Constant Matrix: (Units=GPa)
#
#
# Indices 1 2 3 4 5 6 
#
# 1 46.9546 15.0852 25.0601 -13.0281 4.1817 1.7599
# 2 15.0852 118.5363 42.7419 -20.2676 -2.7673 11.1170
# 3 25.0601 42.7419 136.4456 -44.1071 -11.2008 7.3212
# 4 -13.0281 -20.2676 -44.1071 49.9894 5.6031 -0.6314
# 5 4.1817 -2.7673 -11.2008 5.6031 34.1095 -13.3198
# 6 1.7599 11.1170 7.3212 -0.6314 -13.3198 34.2502
#
#
#
# Elastic Compliance Matrix: (Units=1/GPa)
#
#
# Indices 1 2 3 4 5 6 
#
# 1 0.025135 -0.001266 -0.003383 0.003675 -0.005817 -0.002352
# 2 -0.001266 0.009987 -0.002234 0.001856 -0.001313 -0.003176
# 3 -0.003383 -0.002234 0.011484 0.008059 0.002513 -0.000430
# 4 0.003675 0.001856 0.008059 0.029207 -0.003800 -0.003453
# 5 -0.005817 -0.001313 0.002513 -0.003800 0.037045 0.014525
# 6 -0.002352 -0.003176 -0.000430 -0.003453 0.014525 0.036025
#
#
# Mechanical properties :
#
#
# Convention : Reuss Voigt Hill
#
# Bulk Modulus (GPa) = 30.44944 51.96789 41.20867
# Shear Modulus (GPa) = 28.80235 38.27312 33.53774
#
# Velocity S-wave (km/s) = 3.31123 3.81700 3.57307
# Velocity P-wave (km/s) = 5.11959 6.26168 5.71922
#
# Compressibility (1/GPa) = 0.03284132
#
# Stress axis : x y z
#
# Youngs Moduli (GPa) = 39.78460 100.12882 87.07478
#
# Poissons Ratio (x) = 0.12673 0.29462
# Poissons Ratio (y) = 0.05036 0.19449
# Poissons Ratio (z) = 0.13461 0.22365
#
# Static dielectric constant tensor:
#      x y z
#    x 2.128170 0.020070 -0.047040 
#    y 0.020070 2.147040 0.033440 
#    z -0.047040 0.033440 2.091710 
# 
# From -- ./inp_files/80771.got.cif
#   From: 2010.05.17/outbox.cif.g08.bks.cpg/sg2_41_cif.got.tgz:80771.got - 2010.06.03 11:33:40.
