data_PCOD9001222
_publ_section_title
;
Structure prediction by ZEFSAII (Michael W. Deem and Ramdas Pophale) SiO2 
 PCOD9001222
Probable space group: P -1
;
_chemical_formula_sum "Si O2"
_cell_formula_units_Z 16
_cell_length_a 10.332673
_cell_length_b 11.553979
_cell_length_c 9.339692
_cell_angle_alpha 49.546137
_cell_angle_beta 88.716728
_cell_angle_gamma 59.418629
_cell_volume 644.833717
_symmetry_space_group_name_H-M "P -1"
_symmetry_group_IT_number 2
_symmetry_cell_setting 'triclinic'
loop_
_space_group_symop_operation_xyz
x,y,z
-x,-y,-z
loop_
_atom_site_type_symbol
_atom_site_label
_atom_site_fract_x
_atom_site_fract_y
_atom_site_fract_z
Si Si1 0.397973 0.071708 0.798804
Si Si2 0.410857 0.360612 0.360802
Si Si3 0.991633 0.676601 0.626712
Si Si4 0.061911 0.657916 0.946761
Si Si5 0.781570 0.256799 0.808140
Si Si6 0.946436 0.682292 0.225226
Si Si7 0.599975 0.060827 0.373209
Si Si8 0.040302 0.958029 0.277697
O O1 0.405725 0.224876 0.584555
O O2 0.212393 0.176350 0.782203
O O3 0.458007 0.896265 0.825498
O O4 0.500000 0.000000 0.000000
O O5 0.393036 0.534928 0.303167
O O6 0.563057 0.225781 0.350785
O O7 0.240553 0.488300 0.159794
O O8 0.063870 0.576723 0.859936
O O9 0.014607 0.525955 0.631426
O O10 0.794636 0.863174 0.513240
O O11 0.068030 0.775710 0.493953
O O12 0.015136 0.869988 0.749024
O O13 0.922297 0.738112 0.011108
O O14 0.902753 0.315766 0.738081
O O15 0.800288 0.146339 0.752193
O O16 0.877519 0.092724 0.063969
O O17 0.500000 0.000000 0.500000
#
# Coordination Sequence:
#
# PCOD9001222 Si02
#       8
#     2   2   2   2   2   2   2   2
#     4  11  23  34  56  87 124 156 198 247 300 359
#     4   9  20  39  56  82 121 159 194 240 304 352
#     4  12  22  36  66  90 122 158 204 250 293 364
#     4  10  23  38  62  90 123 160 200 248 302 356
#     4   9  18  38  62  86 120 156 196 256 296 355
#     4  10  21  34  57  91 115 147 204 247 304 343
#     4  10  22  37  56  85 125 161 190 240 311 356
#     4   9  19  36  60  91 118 154 207 246 296 350
#
# _framework density 24.812598999999999
#
# number of rings (size 3 to 8) (size 9 to 14) (size 15 to 20)
#    0.000    2.250    0.000    5.250    5.250    4.000 
#    0.000    2.500    0.000    0.750    0.000    0.000 
#    0.000    0.000    0.000    0.000    0.000    0.000 
#
# Total GULP energy -89241.044258 kJ/mol
# GULP energy per Si atom -5577.565266 kJ/mol
# Density = 2.475612 g / cm^3
# Si number density = 24.812599 Si / 1000 Ang^3
#
#
#
# Elastic Constant Matrix: (Units=GPa)
#
#
# Indices 1 2 3 4 5 6 
#
# 1 16.2914 17.3519 11.5279 5.5235 -0.3260 3.5354
# 2 17.3519 180.2406 10.8393 5.1833 -2.0618 4.1032
# 3 11.5279 10.8393 104.7746 14.0008 -5.1199 10.2425
# 4 5.5235 5.1833 14.0008 42.1534 7.9640 -8.8255
# 5 -0.3260 -2.0618 -5.1199 7.9640 26.1816 -2.1565
# 6 3.5354 4.1032 10.2425 -8.8255 -2.1565 33.2002
#
#
#
# Elastic Compliance Matrix: (Units=1/GPa)
#
#
# Indices 1 2 3 4 5 6 
#
# 1 0.077476 -0.006643 -0.005716 -0.009414 0.001523 -0.008069
# 2 -0.006643 0.006188 0.000123 -0.000028 0.000431 -0.000075
# 3 -0.005716 0.000123 0.011283 -0.004420 0.003172 -0.003856
# 4 -0.009414 -0.000028 -0.004420 0.030252 -0.009379 0.009802
# 5 0.001523 0.000431 0.003172 -0.009379 0.041640 -0.000982
# 6 -0.008069 -0.000075 -0.003856 0.009802 -0.000982 0.034720
#
#
# Mechanical properties :
#
#
# Convention : Reuss Voigt Hill
#
# Bulk Modulus (GPa) = 14.18955 42.30497 28.24726
# Shear Modulus (GPa) = 20.03828 37.74621 28.89225
#
# Velocity S-wave (km/s) = 2.84489 3.90455 3.41606
# Velocity P-wave (km/s) = 4.06476 6.11671 5.19310
#
# Compressibility (1/GPa) = 0.07047439
#
# Stress axis : x y z
#
# Youngs Moduli (GPa) = 12.90730 161.61012 88.62759
#
# Poissons Ratio (x) = 1.07359 0.50658
# Poissons Ratio (y) = 0.08574 -0.01089
# Poissons Ratio (z) = 0.07378 -0.01987
#
# Static dielectric constant tensor:
#      x y z
#    x 2.064790 0.057250 -0.005760 
#    y 0.057250 2.062150 -0.025210 
#    z -0.005760 -0.025210 2.092750 
# 
# From -- ./inp_files/310979.got.cif
#   From: 2010.05.17/outbox.cif.g08.bks.cpg/sg2_156_cif.got.tgz:310979.got - 2010.06.03 11:33:40.
