data_PCOD9001493
_publ_section_title
;
Structure prediction by ZEFSAII (Michael W. Deem and Ramdas Pophale) SiO2 
 PCOD9001493
Probable space group: P -1
;
_chemical_formula_sum "Si O2"
_cell_formula_units_Z 16
_cell_length_a 8.148678
_cell_length_b 20.132528
_cell_length_c 17.849625
_cell_angle_alpha 150.783969
_cell_angle_beta 23.745192
_cell_angle_gamma 143.466210
_cell_volume 575.382554
_symmetry_space_group_name_H-M "P -1"
_symmetry_group_IT_number 2
_symmetry_cell_setting 'triclinic'
loop_
_space_group_symop_operation_xyz
x,y,z
-x,-y,-z
loop_
_atom_site_type_symbol
_atom_site_label
_atom_site_fract_x
_atom_site_fract_y
_atom_site_fract_z
Si Si1 0.457342 0.402862 0.641035
Si Si2 0.903689 0.246690 0.433193
Si Si3 0.583394 0.105456 0.818789
Si Si4 0.024244 0.498898 0.722511
Si Si5 0.029426 0.998279 0.221518
Si Si6 0.143371 0.739302 0.001259
Si Si7 0.898419 0.864527 0.514927
Si Si8 0.218727 0.365393 0.187837
O O1 0.145846 0.297819 0.629721
O O2 0.415018 0.550434 0.841143
O O3 0.633815 0.312575 0.546776
O O4 0.805649 0.421305 0.450832
O O5 0.877186 0.346118 0.614477
O O6 0.814377 0.091897 0.342322
O O7 0.371700 0.254592 0.215801
O O8 0.795923 0.099068 0.643597
O O9 0.518724 0.959557 0.741081
O O10 0.869195 0.189688 0.842562
O O11 0.224642 0.208346 0.052134
O O12 0.500000 0.500000 0.500000
O O13 0.000260 0.583506 0.892938
O O14 0.795424 0.593136 0.850891
O O15 0.996417 0.080977 0.394015
O O16 0.500000 0.000000 0.000000
O O17 0.935101 0.843112 0.131746
#
# Coordination Sequence:
#
# PCOD9001493 Si02
#       8
#     2   2   2   2   2   2   2   2
#     4  10  21  35  56  89 112 147 190 243 279 328
#     4   9  17  33  51  82 114 137 180 242 279 324
#     4  10  21  41  56  81 119 154 190 233 276 348
#     4   9  19  31  54  85 110 146 180 233 286 329
#     4   9  19  33  53  82 109 141 184 237 278 334
#     4   9  17  33  53  79 109 149 182 226 282 334
#     4  10  23  38  59  83 115 155 192 227 287 338
#     4  10  21  36  58  86 120 144 192 238 280 335
#
# _framework density 27.807585
#
# number of rings (size 3 to 8) (size 9 to 14) (size 15 to 20)
#    0.000    2.500    1.250    0.000    7.000    2.000 
#    0.000    1.250    0.000    7.500    0.000    0.000 
#    0.000    0.000    0.000    0.000    0.000    0.000 
#
# Total GULP energy -89502.358625 kJ/mol
# GULP energy per Si atom -5593.897414 kJ/mol
# Density = 2.774429 g / cm^3
# Si number density = 27.807585 Si / 1000 Ang^3
#
#
#
# Elastic Constant Matrix: (Units=GPa)
#
#
# Indices 1 2 3 4 5 6 
#
# 1 81.3669 10.4645 34.7078 7.1961 21.3609 -12.6755
# 2 10.4645 93.8567 46.9235 32.0006 5.8044 0.9427
# 3 34.7078 46.9235 114.8666 13.9801 16.6569 6.5521
# 4 7.1961 32.0006 13.9801 48.9289 -8.1516 0.3287
# 5 21.3609 5.8044 16.6569 -8.1516 53.6112 18.9183
# 6 -12.6755 0.9427 6.5521 0.3287 18.9183 39.9574
#
#
#
# Elastic Compliance Matrix: (Units=1/GPa)
#
#
# Indices 1 2 3 4 5 6 
#
# 1 0.019859 0.003008 -0.005593 -0.005346 -0.011826 0.012789
# 2 0.003008 0.017318 -0.006311 -0.010653 -0.003987 0.003556
# 3 -0.005593 -0.006311 0.012964 0.001357 0.000502 -0.004000
# 4 -0.005346 -0.010653 0.001357 0.029450 0.009621 -0.006464
# 5 -0.011826 -0.003987 0.000502 0.009621 0.031757 -0.018855
# 6 0.012789 0.003556 -0.004000 -0.006464 -0.018855 0.038636
#
#
# Mechanical properties :
#
#
# Convention : Reuss Voigt Hill
#
# Bulk Modulus (GPa) = 30.91428 52.69799 41.80613
# Shear Modulus (GPa) = 28.00188 41.69914 34.85051
#
# Velocity S-wave (km/s) = 3.17675 3.87662 3.54400
# Velocity P-wave (km/s) = 4.95954 6.24737 5.64033
#
# Compressibility (1/GPa) = 0.03234751
#
# Stress axis : x y z
#
# Youngs Moduli (GPa) = 50.35550 57.74479 77.13545
#
# Poissons Ratio (x) = -0.17368 0.43143
# Poissons Ratio (y) = -0.15146 0.48682
# Poissons Ratio (z) = 0.28164 0.36444
#
# Static dielectric constant tensor:
#      x y z
#    x 2.216820 0.066660 -0.078400 
#    y 0.066660 2.165640 0.028070 
#    z -0.078400 0.028070 2.263800 
# 
# From -- ./inp_files/338116.got.cif
#   From: 2010.05.17/outbox.cif.g08.bks.cpg/sg2_170_cif.got.tgz:338116.got - 2010.06.03 11:33:40.
