data_PCOD9001212
_publ_section_title
;
Structure prediction by ZEFSAII (Michael W. Deem and Ramdas Pophale) SiO2 
 PCOD9001212
Probable space group: P -1
;
_chemical_formula_sum "Si O2"
_cell_formula_units_Z 12
_cell_length_a 5.779684
_cell_length_b 13.482916
_cell_length_c 14.032598
_cell_angle_alpha 147.970701
_cell_angle_beta 107.385891
_cell_angle_gamma 58.411019
_cell_volume 467.777380
_symmetry_space_group_name_H-M "P -1"
_symmetry_group_IT_number 2
_symmetry_cell_setting 'triclinic'
loop_
_space_group_symop_operation_xyz
x,y,z
-x,-y,-z
loop_
_atom_site_type_symbol
_atom_site_label
_atom_site_fract_x
_atom_site_fract_y
_atom_site_fract_z
Si Si1 0.107162 0.044020 0.844424
Si Si2 0.674721 0.688777 0.712601
Si Si3 0.358171 0.498659 0.835858
Si Si4 0.670877 0.694415 0.130771
Si Si5 0.221650 0.922190 0.552757
Si Si6 0.849485 0.270277 0.260434
O O1 0.446682 0.894209 0.785703
O O2 0.066325 0.969661 0.674366
O O3 0.994524 0.956188 0.843769
O O4 0.972731 0.305028 0.039849
O O5 0.783294 0.462489 0.484698
O O6 0.460798 0.694943 0.772219
O O7 0.940804 0.718820 0.779720
O O8 0.417974 0.338488 0.802107
O O9 0.520754 0.331683 0.634055
O O10 0.500039 0.639670 0.990639
O O11 0.647420 0.924335 0.306383
O O12 0.000000 0.500000 0.000000
O O13 0.000000 0.000000 0.500000
#
# Coordination Sequence:
#
# PCOD9001212 Si02
#       6
#     2   2   2   2   2   2
#     4  10  21  34  57  86 119 151 204 250 298 360
#     4   8  16  33  56  87 115 155 193 244 311 366
#     4  11  23  37  58  85 112 162 206 251 307 350
#     4  11  21  41  57  73 119 161 203 255 297 349
#     4  12  23  39  57  84 121 165 204 246 302 360
#     4   8  16  32  59  84 116 155 195 240 313 366
#
# _framework density 25.653230000000001
#
# number of rings (size 3 to 8) (size 9 to 14) (size 15 to 20)
#    1.000    1.000    3.333    1.500    2.333    0.000 
#    0.000    0.000    0.000    4.000    0.000    4.667 
#    0.000    0.000    0.000    0.000    0.000    0.000 
#
# Total GULP energy -67041.326092 kJ/mol
# GULP energy per Si atom -5586.777174 kJ/mol
# Density = 2.559484 g / cm^3
# Si number density = 25.653230 Si / 1000 Ang^3
#
#
#
# Elastic Constant Matrix: (Units=GPa)
#
#
# Indices 1 2 3 4 5 6 
#
# 1 143.1854 19.0194 23.0193 -5.5958 21.3338 21.1878
# 2 19.0194 56.5009 29.2080 -5.6698 -0.8595 7.7971
# 3 23.0193 29.2080 168.7815 14.0417 -2.5954 5.8842
# 4 -5.5958 -5.6698 14.0417 39.4906 -0.2616 -6.4206
# 5 21.3338 -0.8595 -2.5954 -0.2616 47.1956 12.1547
# 6 21.1878 7.7971 5.8842 -6.4206 12.1547 20.6928
#
#
#
# Elastic Compliance Matrix: (Units=1/GPa)
#
#
# Indices 1 2 3 4 5 6 
#
# 1 0.008644 -0.001645 -0.000709 0.000144 -0.002261 -0.006657
# 2 -0.001645 0.021191 -0.003463 0.003116 0.002446 -0.005786
# 3 -0.000709 -0.003463 0.006969 -0.003327 0.001031 -0.001589
# 4 0.000144 0.003116 -0.003327 0.028587 -0.002616 0.010032
# 5 -0.002261 0.002446 0.001031 -0.002616 0.026184 -0.015092
# 6 -0.006657 -0.005786 -0.001589 0.010032 -0.015092 0.069752
#
#
# Mechanical properties :
#
#
# Convention : Reuss Voigt Hill
#
# Bulk Modulus (GPa) = 39.72816 56.77346 48.25081
# Shear Modulus (GPa) = 27.57117 41.29055 34.43086
#
# Velocity S-wave (km/s) = 3.28192 4.01629 3.66753
# Velocity P-wave (km/s) = 5.46640 6.60959 6.06499
#
# Compressibility (1/GPa) = 0.02517106
#
# Stress axis : x y z
#
# Youngs Moduli (GPa) = 115.68844 47.19007 143.49678
#
# Poissons Ratio (x) = 0.07761 0.10173
# Poissons Ratio (y) = 0.19026 0.49689
# Poissons Ratio (z) = 0.08202 0.16341
#
# Static dielectric constant tensor:
#      x y z
#    x 2.116640 -0.025090 -0.074210 
#    y -0.025090 2.009640 -0.003220 
#    z -0.074210 -0.003220 1.998290 
# 
# From -- ./inp_files/335993.got.cif
#   From: 2010.05.17/outbox.cif.g08.bks.cpg/sg2_168_cif.got.tgz:335993.got - 2010.06.03 11:33:40.
