data_PCOD9001254
_publ_section_title
;
Structure prediction by ZEFSAII (Michael W. Deem and Ramdas Pophale) SiO2 
 PCOD9001254
Probable space group: P -1
;
_chemical_formula_sum "Si O2"
_cell_formula_units_Z 14
_cell_length_a 6.788440
_cell_length_b 10.356489
_cell_length_c 11.272176
_cell_angle_alpha 73.697554
_cell_angle_beta 95.868324
_cell_angle_gamma 57.619760
_cell_volume 610.372534
_symmetry_space_group_name_H-M "P -1"
_symmetry_group_IT_number 2
_symmetry_cell_setting 'triclinic'
loop_
_space_group_symop_operation_xyz
x,y,z
-x,-y,-z
loop_
_atom_site_type_symbol
_atom_site_label
_atom_site_fract_x
_atom_site_fract_y
_atom_site_fract_z
Si Si1 0.185560 0.151235 0.679809
Si Si2 0.842790 0.359147 0.052311
Si Si3 0.503447 0.508208 0.790892
Si Si4 0.481275 0.783040 0.221303
Si Si5 0.078966 0.814704 0.564026
Si Si6 0.278884 0.097983 0.269460
Si Si7 0.222674 0.920000 0.943351
O O1 0.260006 0.269654 0.698028
O O2 0.965991 0.233688 0.553668
O O3 0.433717 0.992086 0.671635
O O4 0.174614 0.059280 0.815574
O O5 0.686002 0.472924 0.124894
O O6 0.740145 0.454805 0.896818
O O7 0.772161 0.227394 0.080698
O O8 0.131665 0.247910 0.126156
O O9 0.561250 0.358011 0.750142
O O10 0.350677 0.680102 0.665858
O O11 0.293905 0.942039 0.252404
O O12 0.447508 0.848290 0.067049
O O13 0.886460 0.831331 0.642974
O O14 0.000000 0.000000 0.500000
O O15 0.000000 0.000000 0.000000
#
# Coordination Sequence:
#
# PCOD9001254 Si02
#       7
#     2   2   2   2   2   2   2
#     4  10  21  34  59  86 116 152 190 232 284 348
#     4   9  17  34  60  83 116 146 194 231 286 330
#     4   9  19  34  56  87 113 156 185 242 279 336
#     4   9  20  33  57  85 117 145 192 237 289 326
#     4  11  22  38  61  80 116 155 199 228 284 348
#     4   9  19  36  58  88 110 154 189 233 284 337
#     4  11  18  33  61  89 112 146 193 237 281 336
#
# _framework density 22.936813999999998
#
# number of rings (size 3 to 8) (size 9 to 14) (size 15 to 20)
#    0.857    1.429    1.429    2.571    0.000    0.571 
#    0.000    0.714    0.000   48.857    0.000    0.000 
#    0.000    0.000    0.000    0.000    0.000    0.000 
#
# Total GULP energy -78054.335849 kJ/mol
# GULP energy per Si atom -5575.309704 kJ/mol
# Density = 2.288461 g / cm^3
# Si number density = 22.936814 Si / 1000 Ang^3
#
#
#
# Elastic Constant Matrix: (Units=GPa)
#
#
# Indices 1 2 3 4 5 6 
#
# 1 14.1778 -7.6893 9.8558 -2.2657 0.4819 2.0410
# 2 -7.6893 70.8956 14.7460 -2.2891 2.4292 0.1318
# 3 9.8558 14.7460 143.9268 -14.4528 22.1954 10.5059
# 4 -2.2657 -2.2891 -14.4528 38.6961 -4.5079 7.7394
# 5 0.4819 2.4292 22.1954 -4.5079 29.7148 6.7494
# 6 2.0410 0.1318 10.5059 7.7394 6.7494 19.3388
#
#
#
# Elastic Compliance Matrix: (Units=1/GPa)
#
#
# Indices 1 2 3 4 5 6 
#
# 1 0.082575 0.010276 -0.006299 0.005650 0.005555 -0.009563
# 2 0.010276 0.015703 -0.002269 0.000830 0.000474 -0.000456
# 3 -0.006299 -0.002269 0.008964 0.002961 -0.005146 -0.003579
# 4 0.005650 0.000830 0.002961 0.031454 0.006258 -0.016983
# 5 0.005555 0.000474 -0.005146 0.006258 0.041690 -0.014848
# 6 -0.009563 -0.000456 -0.003579 -0.016983 -0.014848 0.066645
#
#
# Mechanical properties :
#
#
# Convention : Reuss Voigt Hill
#
# Bulk Modulus (GPa) = 9.03677 29.20281 19.11979
# Shear Modulus (GPa) = 17.82528 31.68913 24.75721
#
# Velocity S-wave (km/s) = 2.79076 3.72100 3.28893
# Velocity P-wave (km/s) = 3.78588 5.58754 4.77250
#
# Compressibility (1/GPa) = 0.11065899
#
# Stress axis : x y z
#
# Youngs Moduli (GPa) = 12.11016 63.68167 111.55841
#
# Poissons Ratio (x) = -0.65439 0.70267
# Poissons Ratio (y) = -0.12444 0.25313
# Poissons Ratio (z) = 0.07628 0.14449
#
# Static dielectric constant tensor:
#      x y z
#    x 1.879280 -0.025660 0.042950 
#    y -0.025660 1.918520 -0.018930 
#    z 0.042950 -0.018930 1.924240 
# 
# From -- ./inp_files/389784.got.cif
#   From: 2010.05.17/outbox.cif.g08.bks.cpg/sg2_195_cif.got.tgz:389784.got - 2010.06.03 11:33:40.
