data_PCOD9001306
_publ_section_title
;
Structure prediction by ZEFSAII (Michael W. Deem and Ramdas Pophale) SiO2 
 PCOD9001306
Probable space group: P -1
;
_chemical_formula_sum "Si O2"
_cell_formula_units_Z 14
_cell_length_a 10.114606
_cell_length_b 9.376818
_cell_length_c 15.552664
_cell_angle_alpha 73.069569
_cell_angle_beta 35.131904
_cell_angle_gamma 61.789125
_cell_volume 734.654170
_symmetry_space_group_name_H-M "P -1"
_symmetry_group_IT_number 2
_symmetry_cell_setting 'triclinic'
loop_
_space_group_symop_operation_xyz
x,y,z
-x,-y,-z
loop_
_atom_site_type_symbol
_atom_site_label
_atom_site_fract_x
_atom_site_fract_y
_atom_site_fract_z
Si Si1 0.215471 0.933340 0.188157
Si Si2 0.691818 0.864989 0.036458
Si Si3 0.818753 0.435365 0.240350
Si Si4 0.104245 0.845587 0.536381
Si Si5 0.775680 0.843975 0.370363
Si Si6 0.321469 0.207913 0.757790
Si Si7 0.748201 0.508395 0.469265
O O1 0.459005 0.824623 0.135525
O O2 0.003181 0.873286 0.286617
O O3 0.068267 0.093220 0.298149
O O4 0.323395 0.978255 0.036609
O O5 0.672453 0.894098 0.143121
O O6 0.953620 0.720213 0.892481
O O7 0.822291 0.601478 0.172761
O O8 0.811381 0.460901 0.343144
O O9 0.549521 0.433413 0.364990
O O10 0.392274 0.814662 0.411771
O O11 0.113204 0.672361 0.528511
O O12 0.000000 0.000000 0.500000
O O13 0.800207 0.824872 0.257215
O O14 0.792674 0.671448 0.429796
O O15 0.500000 0.000000 0.500000
#
# Coordination Sequence:
#
# PCOD9001306 Si02
#       7
#     2   2   2   2   2   2   2
#     4  11  23  36  60  86 119 159 193 238 304 351
#     4  11  21  37  58  87 119 156 197 240 295 355
#     4   9  17  34  60  85 112 149 202 244 284 347
#     4  11  19  38  63  87 113 158 208 241 276 360
#     4  11  21  38  61  90 122 154 194 249 297 342
#     4  10  21  34  62  89 113 151 202 245 288 345
#     4   9  19  35  61  90 111 155 205 242 286 349
#
# _framework density 19.056584999999998
#
# number of rings (size 3 to 8) (size 9 to 14) (size 15 to 20)
#    0.000    1.714    4.286    2.143    0.000    0.571 
#    0.000    3.571    0.000    0.000    0.000    0.000 
#    0.000    0.000    0.000    0.000    0.000    0.000 
#
# Total GULP energy -78004.230973 kJ/mol
# GULP energy per Si atom -5571.730784 kJ/mol
# Density = 1.901321 g / cm^3
# Si number density = 19.056585 Si / 1000 Ang^3
#
#
#
# Elastic Constant Matrix: (Units=GPa)
#
#
# Indices 1 2 3 4 5 6 
#
# 1 65.2502 37.7028 22.9573 -4.8531 -12.1255 5.7294
# 2 37.7028 101.6152 21.7671 -11.8025 -10.5900 -0.0834
# 3 22.9573 21.7671 78.9751 6.0545 -2.2349 5.2494
# 4 -4.8531 -11.8025 6.0545 23.2076 -3.1579 -1.2790
# 5 -12.1255 -10.5900 -2.2349 -3.1579 29.0115 -7.4876
# 6 5.7294 -0.0834 5.2494 -1.2790 -7.4876 24.4020
#
#
#
# Elastic Compliance Matrix: (Units=1/GPa)
#
#
# Indices 1 2 3 4 5 6 
#
# 1 0.022179 -0.006133 -0.004708 0.003524 0.006529 -0.002028
# 2 -0.006133 0.013987 -0.002765 0.007313 0.004085 0.003719
# 3 -0.004708 -0.002765 0.015483 -0.007110 -0.003509 -0.003684
# 4 0.003524 0.007313 -0.007110 0.051259 0.010920 0.006765
# 5 0.006529 0.004085 -0.003509 0.010920 0.042960 0.012990
# 6 -0.002028 0.003719 -0.003684 0.006765 0.012990 0.046602
#
#
# Mechanical properties :
#
#
# Convention : Reuss Voigt Hill
#
# Bulk Modulus (GPa) = 40.91740 45.63278 43.27509
# Shear Modulus (GPa) = 21.94654 26.21844 24.08249
#
# Velocity S-wave (km/s) = 3.39728 3.71323 3.55876
# Velocity P-wave (km/s) = 6.07510 6.51015 6.29638
#
# Compressibility (1/GPa) = 0.02443948
#
# Stress axis : x y z
#
# Youngs Moduli (GPa) = 45.08796 71.49555 64.58572
#
# Poissons Ratio (x) = 0.43846 0.30404
# Poissons Ratio (y) = 0.27651 0.17855
# Poissons Ratio (z) = 0.21225 0.19766
#
# Static dielectric constant tensor:
#      x y z
#    x 1.678030 -0.059170 0.010840 
#    y -0.059170 1.734570 -0.024650 
#    z 0.010840 -0.024650 1.667830 
# 
# From -- ./inp_files/175273.got.cif
#   From: 2010.05.17/outbox.cif.g08.bks.cpg/sg2_88_cif.got.tgz:175273.got - 2010.06.03 11:33:40.
