data_PCOD9001252
_publ_section_title
;
Structure prediction by ZEFSAII (Michael W. Deem and Ramdas Pophale) SiO2 
 PCOD9001252
Probable space group: P -1
;
_chemical_formula_sum "Si O2"
_cell_formula_units_Z 14
_cell_length_a 16.178658
_cell_length_b 10.123653
_cell_length_c 10.677699
_cell_angle_alpha 151.120740
_cell_angle_beta 108.133756
_cell_angle_gamma 57.997108
_cell_volume 664.546872
_symmetry_space_group_name_H-M "P -1"
_symmetry_group_IT_number 2
_symmetry_cell_setting 'triclinic'
loop_
_space_group_symop_operation_xyz
x,y,z
-x,-y,-z
loop_
_atom_site_type_symbol
_atom_site_label
_atom_site_fract_x
_atom_site_fract_y
_atom_site_fract_z
Si Si1 0.805240 0.798593 0.453844
Si Si2 0.565046 0.663639 0.828895
Si Si3 0.238332 0.856020 0.681047
Si Si4 0.359818 0.782972 0.904885
Si Si5 0.097662 0.014557 0.528502
Si Si6 0.745400 0.576973 0.462031
Si Si7 0.280494 0.478072 0.011144
O O1 0.821916 0.584661 0.405703
O O2 0.740538 0.727652 0.265547
O O3 0.904970 0.749408 0.385781
O O4 0.737656 0.187872 0.779064
O O5 0.660771 0.388991 0.561255
O O6 0.480474 0.581285 0.754886
O O7 0.613117 0.707942 0.014485
O O8 0.500000 0.000000 0.000000
O O9 0.285945 0.974584 0.906525
O O10 0.143815 0.077678 0.726628
O O11 0.205408 0.655817 0.586312
O O12 0.320876 0.553888 0.737667
O O13 0.334434 0.056429 0.220390
O O14 0.187740 0.652151 0.216135
O O15 0.000000 0.000000 0.500000
#
# Coordination Sequence:
#
# PCOD9001252 Si02
#       7
#     2   2   2   2   2   2   2
#     4  10  21  41  59  81 123 153 188 239 296 338
#     4  11  19  36  60  89 118 156 200 238 281 337
#     4   9  21  34  61  86 119 147 197 239 289 330
#     4  10  21  34  59  83 116 155 200 230 278 339
#     4   9  21  40  65  89 113 149 193 241 295 349
#     4  10  21  37  58  83 117 160 189 236 284 340
#     4   9  23  36  62  83 119 153 189 241 286 339
#
# _framework density 21.066987000000001
#
# number of rings (size 3 to 8) (size 9 to 14) (size 15 to 20)
#    1.714    0.571    1.429    1.286    2.000    2.857 
#    0.000    5.000    0.000    1.714    0.000    0.000 
#    0.000    0.000    0.000    0.000    0.000    0.000 
#
# Total GULP energy -77944.819561 kJ/mol
# GULP energy per Si atom -5567.487112 kJ/mol
# Density = 2.101904 g / cm^3
# Si number density = 21.066987 Si / 1000 Ang^3
#
#
#
# Elastic Constant Matrix: (Units=GPa)
#
#
# Indices 1 2 3 4 5 6 
#
# 1 101.5820 34.5238 7.8263 -6.2329 6.0707 31.2405
# 2 34.5238 39.1162 -1.2545 -6.0966 -4.4260 30.1401
# 3 7.8263 -1.2545 71.2055 -4.1242 23.2216 5.6028
# 4 -6.2329 -6.0966 -4.1242 20.1176 7.4533 3.0631
# 5 6.0707 -4.4260 23.2216 7.4533 19.3597 -0.2498
# 6 31.2405 30.1401 5.6028 3.0631 -0.2498 37.4406
#
#
#
# Elastic Compliance Matrix: (Units=1/GPa)
#
#
# Indices 1 2 3 4 5 6 
#
# 1 0.016902 -0.006056 0.005949 0.013439 -0.019140 -0.011345
# 2 -0.006056 0.103431 0.017820 0.052450 -0.017122 -0.085281
# 3 0.005949 0.017820 0.037681 0.041296 -0.059258 -0.028721
# 4 0.013439 0.052450 0.041296 0.122151 -0.089689 -0.070208
# 5 -0.019140 -0.017122 -0.059258 -0.089689 0.159956 0.047026
# 6 -0.011345 -0.085281 -0.028721 -0.070208 0.047026 0.115183
#
#
# Mechanical properties :
#
#
# Convention : Reuss Voigt Hill
#
# Bulk Modulus (GPa) = 5.16961 32.67722 18.92341
# Shear Modulus (GPa) = 8.55641 26.77078 17.66360
#
# Velocity S-wave (km/s) = 2.01751 3.56862 2.89874
# Velocity P-wave (km/s) = 2.80826 5.70305 4.49506
#
# Compressibility (1/GPa) = 0.19343832
#
# Stress axis : x y z
#
# Youngs Moduli (GPa) = 59.16588 9.66831 26.53860
#
# Poissons Ratio (x) = 0.05855 -0.15787
# Poissons Ratio (y) = 0.35832 -0.47292
# Poissons Ratio (z) = -0.35196 -0.17229
#
# Static dielectric constant tensor:
#      x y z
#    x 1.768370 0.056820 0.021200 
#    y 0.056820 1.801770 0.010480 
#    z 0.021200 0.010480 1.780400 
# 
# From -- ./inp_files/326869.got.cif
#   From: 2010.05.17/outbox.cif.g08.bks.cpg/sg2_164_cif.got.tgz:326869.got - 2010.06.03 11:33:40.
