data_PCOD9001054
_publ_section_title
;
Structure prediction by ZEFSAII (Michael W. Deem and Ramdas Pophale) SiO2 
 PCOD9001054
Probable space group: P -1
;
_chemical_formula_sum "Si O2"
_cell_formula_units_Z 16
_cell_length_a 7.787104
_cell_length_b 7.835203
_cell_length_c 22.442037
_cell_angle_alpha 52.825831
_cell_angle_beta 124.003873
_cell_angle_gamma 83.122778
_cell_volume 652.194140
_symmetry_space_group_name_H-M "P -1"
_symmetry_group_IT_number 2
_symmetry_cell_setting 'triclinic'
loop_
_space_group_symop_operation_xyz
x,y,z
-x,-y,-z
loop_
_atom_site_type_symbol
_atom_site_label
_atom_site_fract_x
_atom_site_fract_y
_atom_site_fract_z
Si Si1 0.272739 0.130035 0.681498
Si Si2 0.110104 0.904050 0.879901
Si Si3 0.153881 0.685871 0.534376
Si Si4 0.640875 0.723140 0.942972
Si Si5 0.788117 0.863655 0.048799
Si Si6 0.184443 0.218207 0.310705
Si Si7 0.811265 0.242780 0.642035
Si Si8 0.196461 0.121318 0.462683
O O1 0.143164 0.097523 0.606961
O O2 0.302215 0.353809 0.619287
O O3 0.012049 0.286113 0.645735
O O4 0.535769 0.852152 0.828859
O O5 0.379255 0.806588 0.913875
O O6 0.126300 0.979655 0.934352
O O7 0.130910 0.633057 0.939674
O O8 0.847963 0.187877 0.731088
O O9 0.068834 0.725573 0.578219
O O10 0.296720 0.811884 0.526210
O O11 0.726711 0.873426 0.964981
O O12 0.037193 0.512972 0.184417
O O13 0.500000 0.000000 0.000000
O O14 0.106131 0.303573 0.346854
O O15 0.080601 0.063938 0.298492
O O16 0.530254 0.975144 0.430857
O O17 0.500000 0.500000 0.500000
#
# Coordination Sequence:
#
# PCOD9001054 Si02
#       8
#     2   2   2   2   2   2   2   2
#     4  10  21  36  61  82 116 160 206 243 299 364
#     4   9  19  32  52  83 122 154 193 244 307 353
#     4  10  21  40  56  88 117 166 202 240 301 374
#     4   9  18  36  52  83 116 152 199 254 286 358
#     4  10  21  33  57  90 122 156 196 251 311 359
#     4  11  22  38  59  94 125 151 200 261 308 356
#     4  11  21  34  57  93 125 158 191 256 319 355
#     4  10  23  37  59  87 123 156 197 250 306 361
#
# _framework density 24.532571999999998
#
# number of rings (size 3 to 8) (size 9 to 14) (size 15 to 20)
#    0.000    2.000    2.500    0.750   10.500    0.000 
#    2.250    0.000    0.000    1.500    0.000    0.000 
#    0.000    0.000    0.000    0.000    0.000    0.000 
#
# Total GULP energy -89412.046641 kJ/mol
# GULP energy per Si atom -5588.252915 kJ/mol
# Density = 2.447674 g / cm^3
# Si number density = 24.532572 Si / 1000 Ang^3
#
#
#
# Elastic Constant Matrix: (Units=GPa)
#
#
# Indices 1 2 3 4 5 6 
#
# 1 41.7669 8.0329 0.5650 8.5254 -3.3985 12.1964
# 2 8.0329 123.0675 24.9622 3.6860 -5.1190 10.7870
# 3 0.5650 24.9622 98.2522 16.3085 -14.3185 -2.7596
# 4 8.5254 3.6860 16.3085 26.8670 -3.4661 -2.3367
# 5 -3.3985 -5.1190 -14.3185 -3.4661 20.1224 -0.3904
# 6 12.1964 10.7870 -2.7596 -2.3367 -0.3904 27.3590
#
#
#
# Elastic Compliance Matrix: (Units=1/GPa)
#
#
# Indices 1 2 3 4 5 6 
#
# 1 0.030949 -0.000681 0.002168 -0.011728 0.004300 -0.014250
# 2 -0.000681 0.008959 -0.002327 0.000161 0.000469 -0.003443
# 3 0.002168 -0.002327 0.013131 -0.007256 0.007883 0.000768
# 4 -0.011728 0.000161 -0.007256 0.046185 0.001015 0.008392
# 5 0.004300 0.000469 0.007883 0.001015 0.056318 -0.000416
# 6 -0.014250 -0.003443 0.000768 0.008392 -0.000416 0.045049
#
#
# Mechanical properties :
#
#
# Convention : Reuss Voigt Hill
#
# Bulk Modulus (GPa) = 19.47068 36.68966 28.08017
# Shear Modulus (GPa) = 22.79043 30.17144 26.48094
#
# Velocity S-wave (km/s) = 3.05123 3.51073 3.28902
# Velocity P-wave (km/s) = 4.51301 5.60550 5.08866
#
# Compressibility (1/GPa) = 0.05135927
#
# Stress axis : x y z
#
# Youngs Moduli (GPa) = 32.31133 111.62520 76.15312
#
# Poissons Ratio (x) = 0.07599 -0.16510
# Poissons Ratio (y) = 0.02200 0.17722
# Poissons Ratio (z) = -0.07005 0.25977
#
# Static dielectric constant tensor:
#      x y z
#    x 1.977930 -0.010100 0.045100 
#    y -0.010100 1.964430 0.012440 
#    z 0.045100 0.012440 1.928140 
# 
# From -- ./inp_files/254373.got.cif
#   From: 2010.05.17/outbox.cif.g08.bks.cpg/sg2_128_cif.got.tgz:254373.got - 2010.06.03 11:33:40.
