data_PCOD9001681
_publ_section_title
;
Structure prediction by ZEFSAII (Michael W. Deem and Ramdas Pophale) SiO2 
 PCOD9001681
Probable space group: P -1
;
_chemical_formula_sum "Si O2"
_cell_formula_units_Z 16
_cell_length_a 10.200344
_cell_length_b 20.508096
_cell_length_c 8.120613
_cell_angle_alpha 120.066055
_cell_angle_beta 57.430766
_cell_angle_gamma 152.586871
_cell_volume 657.943866
_symmetry_space_group_name_H-M "P -1"
_symmetry_group_IT_number 2
_symmetry_cell_setting 'triclinic'
loop_
_space_group_symop_operation_xyz
x,y,z
-x,-y,-z
loop_
_atom_site_type_symbol
_atom_site_label
_atom_site_fract_x
_atom_site_fract_y
_atom_site_fract_z
Si Si1 0.673732 0.851639 0.461633
Si Si2 0.392392 0.569246 0.777326
Si Si3 0.516135 0.380050 0.859579
Si Si4 0.175663 0.758155 0.169550
Si Si5 0.455889 0.737475 0.792443
Si Si6 0.094153 0.976207 0.776757
Si Si7 0.975711 0.692243 0.869422
Si Si8 0.943411 0.205128 0.390341
O O1 0.608173 0.738445 0.314372
O O2 0.450017 0.774235 0.664592
O O3 0.670892 0.898986 0.356592
O O4 0.000000 0.000000 0.500000
O O5 0.141500 0.406898 0.779826
O O6 0.285118 0.589147 0.747198
O O7 0.702316 0.655662 0.642269
O O8 0.435360 0.629308 0.999288
O O9 0.807734 0.542759 0.806576
O O10 0.277141 0.347561 0.997542
O O11 0.213169 0.832286 0.384586
O O12 0.157664 0.782505 0.027270
O O13 0.381666 0.769802 0.019404
O O14 0.784769 0.841098 0.718958
O O15 0.150403 0.918612 0.745082
O O16 0.000000 0.000000 0.000000
O O17 0.109916 0.763212 0.689552
#
# Coordination Sequence:
#
# PCOD9001681 Si02
#       8
#     2   2   2   2   2   2   2   2
#     4  10  21  35  61  84 114 156 209 251 289 351
#     4   9  19  37  60  88 118 164 199 243 300 369
#     4   9  18  36  60  88 115 154 206 252 291 360
#     4  11  22  37  58  91 134 153 190 254 312 370
#     4  10  22  37  57  92 120 155 200 249 309 357
#     4  10  21  43  66  84 112 159 218 253 289 357
#     4   9  20  35  59  92 122 152 192 252 312 362
#     4  10  21  38  64  90 115 163 208 244 303 360
#
# _framework density 24.318185
#
# number of rings (size 3 to 8) (size 9 to 14) (size 15 to 20)
#    0.000    2.250    0.000    3.750    7.000    0.000 
#    4.500    2.500    0.000    0.000    0.000    0.000 
#    0.000    0.000    0.000    0.000    0.000    0.000 
#
# Total GULP energy -89325.433695 kJ/mol
# GULP energy per Si atom -5582.839606 kJ/mol
# Density = 2.426284 g / cm^3
# Si number density = 24.318185 Si / 1000 Ang^3
#
#
#
# Elastic Constant Matrix: (Units=GPa)
#
#
# Indices 1 2 3 4 5 6 
#
# 1 83.1106 32.5295 23.4786 -25.0514 9.9751 -21.6994
# 2 32.5295 67.3775 52.5426 -4.5162 -1.0060 -12.8667
# 3 23.4786 52.5426 150.4614 -5.1001 7.2134 -15.6445
# 4 -25.0514 -4.5162 -5.1001 37.6013 0.6761 0.7764
# 5 9.9751 -1.0060 7.2134 0.6761 28.4774 -14.2467
# 6 -21.6994 -12.8667 -15.6445 0.7764 -14.2467 40.7579
#
#
#
# Elastic Compliance Matrix: (Units=1/GPa)
#
#
# Indices 1 2 3 4 5 6 
#
# 1 0.021922 -0.009402 0.001313 0.013597 -0.005078 0.007173
# 2 -0.009402 0.025820 -0.007763 -0.004416 0.007758 0.002962
# 3 0.001313 -0.007763 0.009417 0.001250 -0.002701 0.000895
# 4 0.013597 -0.004416 0.001250 0.035275 -0.003933 0.004278
# 5 -0.005078 0.007758 -0.002701 -0.003933 0.045250 0.014601
# 6 0.007173 0.002962 0.000895 0.004278 0.014601 0.034655
#
#
# Mechanical properties :
#
#
# Convention : Reuss Voigt Hill
#
# Bulk Modulus (GPa) = 39.28607 57.56122 48.42364
# Shear Modulus (GPa) = 23.52603 34.19392 28.85997
#
# Velocity S-wave (km/s) = 3.11372 3.75387 3.44868
# Velocity P-wave (km/s) = 5.39603 6.51998 5.98445
#
# Compressibility (1/GPa) = 0.02545432
#
# Stress axis : x y z
#
# Youngs Moduli (GPa) = 45.61596 38.72902 106.18744
#
# Poissons Ratio (x) = 0.36414 -0.13939
# Poissons Ratio (y) = 0.42889 0.82437
# Poissons Ratio (z) = -0.05988 0.30067
#
# Static dielectric constant tensor:
#      x y z
#    x 2.001390 0.021080 0.062360 
#    y 0.021080 2.003670 -0.010260 
#    z 0.062360 -0.010260 1.934340 
# 
# From -- ./inp_files/283219.got.cif
#   From: 2010.05.17/outbox.cif.g08.bks.cpg/sg2_142_cif.got.tgz:283219.got - 2010.06.03 11:33:40.
