data_PCOD9001093
_publ_section_title
;
Structure prediction by ZEFSAII (Michael W. Deem and Ramdas Pophale) SiO2 
 PCOD9001093
Probable space group: P -1
;
_chemical_formula_sum "Si O2"
_cell_formula_units_Z 16
_cell_length_a 11.294455
_cell_length_b 8.860743
_cell_length_c 11.279789
_cell_angle_alpha 106.924978
_cell_angle_beta 115.085022
_cell_angle_gamma 116.398858
_cell_volume 738.571894
_symmetry_space_group_name_H-M "P -1"
_symmetry_group_IT_number 2
_symmetry_cell_setting 'triclinic'
loop_
_space_group_symop_operation_xyz
x,y,z
-x,-y,-z
loop_
_atom_site_type_symbol
_atom_site_label
_atom_site_fract_x
_atom_site_fract_y
_atom_site_fract_z
Si Si1 0.759089 0.422051 0.919514
Si Si2 0.080235 0.021713 0.711428
Si Si3 0.162808 0.194153 0.047594
Si Si4 0.453969 0.305026 0.366540
Si Si5 0.229729 0.439216 0.589923
Si Si6 0.974549 0.662102 0.300350
Si Si7 0.582501 0.664175 0.182978
Si Si8 0.312324 0.908386 0.359101
O O1 0.843060 0.621403 0.916690
O O2 0.566206 0.339150 0.834830
O O3 0.754865 0.253073 0.814350
O O4 0.857045 0.506207 0.105818
O O5 0.028780 0.148740 0.660614
O O6 0.251126 0.103095 0.733078
O O7 0.148526 0.122479 0.891950
O O8 0.920244 0.777587 0.589769
O O9 0.329228 0.256967 0.196335
O O10 0.000000 0.000000 0.000000
O O11 0.500000 0.500000 0.500000
O O12 0.631918 0.377621 0.401104
O O13 0.347464 0.108512 0.365218
O O14 0.122428 0.457462 0.645410
O O15 0.343956 0.403928 0.707063
O O16 0.171269 0.780871 0.374537
O O17 0.500000 0.500000 0.000000
O O18 0.500000 0.000000 0.500000
#
# Coordination Sequence:
#
# PCOD9001093 Si02
#       8
#     2   2   2   2   2   2   2   2
#     4  11  22  40  66  93 131 167 214 263 324 386
#     4  10  21  33  64  99 128 157 215 267 321 372
#     4  11  21  38  65  97 127 164 217 265 319 378
#     4  12  24  43  67  96 130 167 219 270 326 383
#     4  11  21  37  66  97 131 161 219 275 315 370
#     4  10  21  40  63  92 129 173 212 259 319 391
#     4  11  17  36  65  99 123 165 212 267 314 386
#     4  12  28  43  64  93 131 174 216 261 331 396
#
# _framework density 21.663430000000002
#
# number of rings (size 3 to 8) (size 9 to 14) (size 15 to 20)
#    0.000    1.000    5.000    5.625    3.500    0.000 
#    0.000    1.250    2.750    0.000    0.000    0.000 
#    0.000    0.000    0.000    0.000    0.000    0.000 
#
# Total GULP energy -89415.580066 kJ/mol
# GULP energy per Si atom -5588.473754 kJ/mol
# Density = 2.161412 g / cm^3
# Si number density = 21.663430 Si / 1000 Ang^3
#
#
#
# Elastic Constant Matrix: (Units=GPa)
#
#
# Indices 1 2 3 4 5 6 
#
# 1 126.4711 20.5401 20.1524 15.4472 9.4788 34.0503
# 2 20.5401 54.2439 18.1713 15.1275 -1.6319 13.8299
# 3 20.1524 18.1713 93.5077 15.9817 14.2789 -2.9731
# 4 15.4472 15.1275 15.9817 30.5882 0.2536 3.9583
# 5 9.4788 -1.6319 14.2789 0.2536 32.1442 10.0895
# 6 34.0503 13.8299 -2.9731 3.9583 10.0895 36.8502
#
#
#
# Elastic Compliance Matrix: (Units=1/GPa)
#
#
# Indices 1 2 3 4 5 6 
#
# 1 0.011506 0.000177 -0.002490 -0.003200 0.001160 -0.010873
# 2 0.000177 0.025495 -0.004915 -0.008751 0.006978 -0.011099
# 3 -0.002490 -0.004915 0.014590 -0.004923 -0.008527 0.008186
# 4 -0.003200 -0.008751 -0.004923 0.041080 0.002093 0.000858
# 5 0.001160 0.006978 -0.008527 0.002093 0.039755 -0.015489
# 6 -0.010873 -0.011099 0.008186 0.000858 -0.015489 0.046158
#
#
# Mechanical properties :
#
#
# Convention : Reuss Voigt Hill
#
# Bulk Modulus (GPa) = 26.92967 43.55002 35.23984
# Shear Modulus (GPa) = 24.34031 34.27377 29.30704
#
# Velocity S-wave (km/s) = 3.35560 3.98188 3.68208
# Velocity P-wave (km/s) = 5.24131 6.42551 5.86338
#
# Compressibility (1/GPa) = 0.03713376
#
# Stress axis : x y z
#
# Youngs Moduli (GPa) = 86.90870 39.22306 68.54020
#
# Poissons Ratio (x) = -0.00693 0.17068
# Poissons Ratio (y) = -0.01535 0.33690
# Poissons Ratio (z) = 0.21642 0.19279
#
# Static dielectric constant tensor:
#      x y z
#    x 1.755140 -0.055810 0.127990 
#    y -0.055810 1.714710 0.119030 
#    z 0.127990 0.119030 1.600170 
# 
# From -- ./inp_files/331727.got.cif
#   From: 2010.05.17/outbox.cif.g08.bks.cpg/sg2_166_cif.got.tgz:331727.got - 2010.06.03 11:33:40.
