data_PCOD9001724
_publ_section_title
;
Structure prediction by ZEFSAII (Michael W. Deem and Ramdas Pophale) SiO2 
 PCOD9001724
Probable space group: P -1
;
_chemical_formula_sum "Si O2"
_cell_formula_units_Z 16
_cell_length_a 5.210361
_cell_length_b 12.268936
_cell_length_c 24.291762
_cell_angle_alpha 28.988888
_cell_angle_beta 117.825853
_cell_angle_gamma 122.778259
_cell_volume 632.661242
_symmetry_space_group_name_H-M "P -1"
_symmetry_group_IT_number 2
_symmetry_cell_setting 'triclinic'
loop_
_space_group_symop_operation_xyz
x,y,z
-x,-y,-z
loop_
_atom_site_type_symbol
_atom_site_label
_atom_site_fract_x
_atom_site_fract_y
_atom_site_fract_z
Si Si1 0.579213 0.391520 0.783780
Si Si2 0.086217 0.045339 0.637030
Si Si3 0.626674 0.584102 0.815239
Si Si4 0.422916 0.320412 0.020736
Si Si5 0.802550 0.009276 0.148170
Si Si6 0.158621 0.822180 0.627427
Si Si7 0.247550 0.375848 0.598335
Si Si8 0.426470 0.718690 0.553962
O O1 0.642134 0.394158 0.854076
O O2 0.336535 0.521665 0.679454
O O3 0.880567 0.580277 0.705123
O O4 0.467153 0.142857 0.852054
O O5 0.844527 0.180129 0.535052
O O6 0.323584 0.235947 0.615506
O O7 0.932381 0.798547 0.764168
O O8 0.179375 0.944219 0.635574
O O9 0.445008 0.725028 0.700728
O O10 0.442558 0.468629 0.901174
O O11 0.669529 0.186116 0.091269
O O12 0.095366 0.139828 0.083293
O O13 0.500000 0.500000 0.000000
O O14 0.881925 0.831167 0.278145
O O15 0.284622 0.057113 0.497752
O O16 0.490943 0.576567 0.569537
O O17 0.000000 0.500000 0.500000
#
# Coordination Sequence:
#
# PCOD9001724 Si02
#       8
#     2   2   2   2   2   2   2   2
#     4  10  23  42  63  94 139 175 232 277 344 413
#     4   9  19  36  60  92 133 172 229 279 347 405
#     4  10  24  40  65  93 130 181 228 287 340 404
#     4  12  28  49  76 102 138 178 236 291 350 405
#     4  11  27  47  73 107 137 185 227 287 348 410
#     4  10  21  35  61  94 128 181 224 279 339 409
#     4   9  19  42  65  98 141 177 226 282 345 415
#     4   9  19  37  57  95 130 180 224 280 342 410
#
# _framework density 25.289997
#
# number of rings (size 3 to 8) (size 9 to 14) (size 15 to 20)
#    0.000    2.000    0.000    1.500    7.000    7.000 
#   11.250    0.000    0.000    0.000    0.000    0.000 
#    0.000    0.000    0.000    0.000    0.000    0.000 
#
# Total GULP energy -89287.043264 kJ/mol
# GULP energy per Si atom -5580.440204 kJ/mol
# Density = 2.523244 g / cm^3
# Si number density = 25.289997 Si / 1000 Ang^3
#
#
#
# Elastic Constant Matrix: (Units=GPa)
#
#
# Indices 1 2 3 4 5 6 
#
# 1 54.3775 16.7216 6.0996 -4.7913 -19.5281 -26.2710
# 2 16.7216 158.9071 35.0502 5.4804 -3.1468 -24.5836
# 3 6.0996 35.0502 53.8108 -35.8331 -39.4649 -31.8317
# 4 -4.7913 5.4804 -35.8331 3.6522 -16.4692 -21.2720
# 5 -19.5281 -3.1468 -39.4649 -16.4692 17.0312 -15.2828
# 6 -26.2710 -24.5836 -31.8317 -21.2720 -15.2828 22.1021
#
#
#
# Elastic Compliance Matrix: (Units=1/GPa)
#
#
# Indices 1 2 3 4 5 6 
#
# 1 0.020514 0.000482 -0.006906 -0.011336 0.000769 0.004595
# 2 0.000482 0.007577 -0.002255 -0.000941 0.000433 0.005145
# 3 -0.006906 -0.002255 0.007636 -0.006270 -0.004920 -0.009156
# 4 -0.011336 -0.000941 -0.006270 0.022646 -0.019440 -0.015198
# 5 0.000769 0.000433 -0.004920 -0.019440 0.019982 -0.010583
# 6 0.004595 0.005145 -0.009156 -0.015198 -0.010583 0.021298
#
#
# Mechanical properties :
#
#
# Convention : Reuss Voigt Hill
#
# Bulk Modulus (GPa) = 54.44357 42.53755 48.49056
# Shear Modulus (GPa) = 40.60641 22.50536 31.55588
#
# Velocity S-wave (km/s) = 4.01138 2.98634 3.53620
# Velocity P-wave (km/s) = 6.55967 5.36166 5.99069
#
# Compressibility (1/GPa) = 0.01836764
#
# Stress axis : x y z
#
# Youngs Moduli (GPa) = 48.74816 131.98165 130.96154
#
# Poissons Ratio (x) = -0.06356 0.90438
# Poissons Ratio (y) = -0.02347 0.29534
# Poissons Ratio (z) = 0.33664 0.29764
#
# Static dielectric constant tensor:
#      x y z
#    x 2.099630 0.032500 0.068870 
#    y 0.032500 2.143640 0.031640 
#    z 0.068870 0.031640 2.051430 
# 
# From -- ./inp_files/549299.got.cif
#   From: 2010.05.17/outbox.cif.g08.bks.cpg/sg2_275_cif.got.tgz:549299.got - 2010.06.03 11:33:40.
