data_PCOD9001015
_publ_section_title
;
Structure prediction by ZEFSAII (Michael W. Deem and Ramdas Pophale) SiO2 
 PCOD9001015
Probable space group: P -1
;
_chemical_formula_sum "Si O2"
_cell_formula_units_Z 16
_cell_length_a 18.420596
_cell_length_b 9.585831
_cell_length_c 12.141405
_cell_angle_alpha 48.046020
_cell_angle_beta 139.543876
_cell_angle_gamma 100.755517
_cell_volume 770.383713
_symmetry_space_group_name_H-M "P -1"
_symmetry_group_IT_number 2
_symmetry_cell_setting 'triclinic'
loop_
_space_group_symop_operation_xyz
x,y,z
-x,-y,-z
loop_
_atom_site_type_symbol
_atom_site_label
_atom_site_fract_x
_atom_site_fract_y
_atom_site_fract_z
Si Si1 0.154015 0.659758 0.605065
Si Si2 0.637373 0.708408 0.777102
Si Si3 0.636053 0.962088 0.447092
Si Si4 0.076787 0.088528 0.971580
Si Si5 0.364270 0.329084 0.814994
Si Si6 0.575937 0.338892 0.364147
Si Si7 0.095174 0.152474 0.315609
Si Si8 0.910487 0.514166 0.720382
O O1 0.262547 0.520946 0.697084
O O2 0.994440 0.800945 0.288766
O O3 0.140248 0.886694 0.513080
O O4 0.229034 0.449035 0.896658
O O5 0.685418 0.738058 0.701009
O O6 0.553621 0.602326 0.740699
O O7 0.500000 0.000000 0.500000
O O8 0.769971 0.888268 0.567435
O O9 0.581910 0.199921 0.335016
O O10 0.493842 0.058152 0.159925
O O11 0.031182 0.315445 0.873945
O O12 0.253995 0.864779 0.287757
O O13 0.000000 0.000000 0.000000
O O14 0.447528 0.417896 0.816324
O O15 0.251208 0.359842 0.582507
O O16 0.074669 0.286648 0.334047
O O17 0.953836 0.345541 0.968763
#
# Coordination Sequence:
#
# PCOD9001015 Si02
#       8
#     2   2   2   2   2   2   2   2
#     4  11  18  34  56  84 107 137 175 227 265 314
#     4  10  22  33  50  84 110 140 178 219 264 315
#     4  11  20  34  52  79 110 144 176 218 262 313
#     4  11  17  32  56  88 107 127 176 232 268 305
#     4  11  18  32  58  81 107 130 183 228 262 306
#     4  11  17  31  54  83 106 134 169 223 272 309
#     4  11  20  35  58  79 110 142 175 214 274 317
#     4  10  21  33  53  88 109 133 173 229 267 316
#
# _framework density 20.76887
#
# number of rings (size 3 to 8) (size 9 to 14) (size 15 to 20)
#    0.000    1.250    8.750    1.125    0.000    0.500 
#    0.000    3.750    0.000    6.000    0.000    0.000 
#    0.000    0.000    0.000    0.000    0.000    0.000 
#
# Total GULP energy -89311.344760 kJ/mol
# GULP energy per Si atom -5581.959048 kJ/mol
# Density = 2.072160 g / cm^3
# Si number density = 20.768870 Si / 1000 Ang^3
#
#
#
# Elastic Constant Matrix: (Units=GPa)
#
#
# Indices 1 2 3 4 5 6 
#
# 1 27.3934 16.3936 16.6971 6.7088 -3.0855 1.9669
# 2 16.3936 93.8550 39.5848 6.7829 -11.1519 -8.6751
# 3 16.6971 39.5848 160.2261 38.2242 -19.1501 0.8800
# 4 6.7088 6.7829 38.2242 25.6046 4.8262 8.5302
# 5 -3.0855 -11.1519 -19.1501 4.8262 23.2131 1.6283
# 6 1.9669 -8.6751 0.8800 8.5302 1.6283 10.8373
#
#
#
# Elastic Compliance Matrix: (Units=1/GPa)
#
#
# Indices 1 2 3 4 5 6 
#
# 1 0.043957 -0.007430 -0.001118 -0.005020 0.003121 -0.010352
# 2 -0.007430 0.015507 0.000553 -0.011710 0.007827 0.021758
# 3 -0.001118 0.000553 0.018381 -0.040700 0.021785 0.027915
# 4 -0.005020 -0.011710 -0.040700 0.155607 -0.063942 -0.118031
# 5 0.003121 0.007827 0.021785 -0.063942 0.075509 0.042914
# 6 -0.010352 0.021758 0.027915 -0.118031 0.042914 0.195758
#
#
# Mechanical properties :
#
#
# Convention : Reuss Voigt Hill
#
# Bulk Modulus (GPa) = 16.16667 47.42507 31.79587
# Shear Modulus (GPa) = 9.23655 25.85095 17.54375
#
# Velocity S-wave (km/s) = 2.11115 3.53185 2.90955
# Velocity P-wave (km/s) = 3.70724 6.28619 5.16042
#
# Compressibility (1/GPa) = 0.06185566
#
# Stress axis : x y z
#
# Youngs Moduli (GPa) = 22.74943 64.48828 54.40400
#
# Poissons Ratio (x) = 0.47913 0.06080
# Poissons Ratio (y) = 0.16902 -0.03008
# Poissons Ratio (z) = 0.02543 -0.03565
#
# Static dielectric constant tensor:
#      x y z
#    x 1.771800 0.004280 -0.009450 
#    y 0.004280 1.781400 0.008670 
#    z -0.009450 0.008670 1.806660 
# 
# From -- ./inp_files/469243.got.cif
#   From: 2010.05.17/outbox.cif.g08.bks.cpg/sg2_235_cif.got.tgz:469243.got - 2010.06.03 11:33:40.
