data_PCOD9001455
_publ_section_title
;
Structure prediction by ZEFSAII (Michael W. Deem and Ramdas Pophale) SiO2 
 PCOD9001455
Probable space group: P -1
;
_chemical_formula_sum "Si O2"
_cell_formula_units_Z 16
_cell_length_a 11.889935
_cell_length_b 5.260582
_cell_length_c 11.652713
_cell_angle_alpha 77.220201
_cell_angle_beta 102.836770
_cell_angle_gamma 81.886798
_cell_volume 679.015365
_symmetry_space_group_name_H-M "P -1"
_symmetry_group_IT_number 2
_symmetry_cell_setting 'triclinic'
loop_
_space_group_symop_operation_xyz
x,y,z
-x,-y,-z
loop_
_atom_site_type_symbol
_atom_site_label
_atom_site_fract_x
_atom_site_fract_y
_atom_site_fract_z
Si Si1 0.753993 0.072188 0.754502
Si Si2 0.112831 0.617139 0.374376
Si Si3 0.415214 0.242247 0.852376
Si Si4 0.094944 0.631533 0.624031
Si Si5 0.750761 0.965149 0.309073
Si Si6 0.659513 0.815945 0.535070
Si Si7 0.535465 0.560463 0.700023
Si Si8 0.365497 0.187791 0.082444
O O1 0.871766 0.176447 0.741254
O O2 0.646138 0.316745 0.731851
O O3 0.714196 0.944633 0.642270
O O4 0.752172 0.874573 0.881058
O O5 0.073749 0.740369 0.477674
O O6 0.245084 0.454447 0.439100
O O7 0.028193 0.412969 0.348020
O O8 0.337739 0.032603 0.815944
O O9 0.424071 0.440716 0.727858
O O10 0.549457 0.086950 0.910584
O O11 0.363324 0.360899 0.949802
O O12 0.166848 0.327887 0.657002
O O13 0.169200 0.815847 0.687427
O O14 0.671176 0.975691 0.405616
O O15 0.541691 0.731231 0.567865
O O16 0.569304 0.711241 0.804989
#
# Coordination Sequence:
#
# PCOD9001455 Si02
#       8
#     2   2   2   2   2   2   2   2
#     4   9  16  32  54  82 105 136 183 232 268 317
#     4   9  18  32  58  79 110 147 178 227 266 325
#     4  10  21  35  56  75 109 147 183 231 275 321
#     4  10  22  35  55  85 114 147 186 218 275 335
#     4  11  23  37  53  84 120 147 178 226 278 331
#     4   9  18  32  54  80 114 138 180 220 277 329
#     4   9  18  33  53  81 103 139 186 231 266 329
#     4   9  19  36  56  80 100 140 197 226 270 327
#
# _framework density 23.563531999999999
#
# number of rings (size 3 to 8) (size 9 to 14) (size 15 to 20)
#    0.000    2.500    1.250    0.375    3.500    2.000 
#    0.000    5.625    0.000    1.500    0.000    0.000 
#    0.000    0.000    0.000    0.000    0.000    0.000 
#
# Total GULP energy -89263.070298 kJ/mol
# GULP energy per Si atom -5578.941894 kJ/mol
# Density = 2.350990 g / cm^3
# Si number density = 23.563532 Si / 1000 Ang^3
#
#
#
# Elastic Constant Matrix: (Units=GPa)
#
#
# Indices 1 2 3 4 5 6 
#
# 1 89.6911 34.0441 40.6309 -3.9121 -16.5930 40.9089
# 2 34.0441 91.5085 25.8975 2.7179 -10.7595 32.2702
# 3 40.6309 25.8975 84.9202 8.0568 -18.2357 23.2406
# 4 -3.9121 2.7179 8.0568 24.6327 2.0139 -0.6204
# 5 -16.5930 -10.7595 -18.2357 2.0139 28.2083 -3.9327
# 6 40.9089 32.2702 23.2406 -0.6204 -3.9327 56.9140
#
#
#
# Elastic Compliance Matrix: (Units=1/GPa)
#
#
# Indices 1 2 3 4 5 6 
#
# 1 0.020691 -0.001592 -0.005425 0.004448 0.006167 -0.011280
# 2 -0.001592 0.014525 -0.001031 -0.001941 0.003174 -0.006473
# 3 -0.005425 -0.001031 0.017734 -0.007266 0.008081 -0.002278
# 4 0.004448 -0.001941 -0.007266 0.044396 -0.005859 0.000950
# 5 0.006167 0.003174 0.008081 -0.005859 0.045027 -0.006484
# 6 -0.011280 -0.006473 -0.002278 0.000950 -0.006484 0.029841
#
#
# Mechanical properties :
#
#
# Convention : Reuss Voigt Hill
#
# Bulk Modulus (GPa) = 27.13356 51.91831 39.52593
# Shear Modulus (GPa) = 24.92587 32.98750 28.95669
#
# Velocity S-wave (km/s) = 3.25594 3.74563 3.50934
# Velocity P-wave (km/s) = 5.06704 6.38651 5.76465
#
# Compressibility (1/GPa) = 0.03685473
#
# Stress axis : x y z
#
# Youngs Moduli (GPa) = 48.33066 68.84584 56.38821
#
# Poissons Ratio (x) = 0.10957 0.30591
# Poissons Ratio (y) = 0.07692 0.05814
# Poissons Ratio (z) = 0.26220 0.07099
#
# Static dielectric constant tensor:
#      x y z
#    x 1.943930 0.005300 -0.040930 
#    y 0.005300 2.048960 -0.096380 
#    z -0.040930 -0.096380 1.925350 
# 
# From -- ./inp_files/64714.got.cif
#   From: 2010.05.17/outbox.cif.g08.bks.cpg/sg2_33_cif.got.tgz:64714.got - 2010.06.03 11:33:40.
