data_PCOD9001860
_publ_section_title
;
Structure prediction by ZEFSAII (Michael W. Deem and Ramdas Pophale) SiO2 
 PCOD9001860
Probable space group: P -1
;
_chemical_formula_sum "Si O2"
_cell_formula_units_Z 16
_cell_length_a 9.321074
_cell_length_b 14.126853
_cell_length_c 14.293237
_cell_angle_alpha 28.599077
_cell_angle_beta 80.835397
_cell_angle_gamma 75.847095
_cell_volume 867.325512
_symmetry_space_group_name_H-M "P -1"
_symmetry_group_IT_number 2
_symmetry_cell_setting 'triclinic'
loop_
_space_group_symop_operation_xyz
x,y,z
-x,-y,-z
loop_
_atom_site_type_symbol
_atom_site_label
_atom_site_fract_x
_atom_site_fract_y
_atom_site_fract_z
Si Si1 0.071839 0.622382 0.110419
Si Si2 0.619210 0.314239 0.905013
Si Si3 0.319234 0.292111 0.018673
Si Si4 0.395213 0.082343 0.851829
Si Si5 0.792911 0.608759 0.262087
Si Si6 0.941229 0.323675 0.266507
Si Si7 0.552250 0.388507 0.493008
Si Si8 0.084808 0.079207 0.283056
O O1 0.236398 0.627514 0.118611
O O2 0.965090 0.589001 0.236775
O O3 0.057099 0.443142 0.196115
O O4 0.997020 0.829790 0.882909
O O5 0.491252 0.291722 0.011915
O O6 0.538461 0.482132 0.693372
O O7 0.660113 0.099801 0.032750
O O8 0.288561 0.283969 0.916744
O O9 0.210995 0.505249 0.875231
O O10 0.250839 0.119305 0.223566
O O11 0.263194 0.254130 0.760975
O O12 0.499616 0.179717 0.687709
O O13 0.500000 0.000000 0.000000
O O14 0.724078 0.407658 0.450655
O O15 0.000037 0.220039 0.253290
O O16 0.918722 0.147272 0.492018
O O17 0.500000 0.500000 0.500000
#
# Coordination Sequence:
#
# PCOD9001860 Si02
#       8
#     2   2   2   2   2   2   2   2
#     4  10  21  36  50  79 115 131 168 217 269 306
#     4  11  22  33  51  79 110 140 170 218 263 302
#     4   9  17  32  52  81 103 133 179 208 254 305
#     4  11  18  33  55  73 100 139 184 218 244 298
#     4   8  17  34  50  75  99 138 181 212 252 299
#     4   9  18  36  59  78 102 133 175 210 254 318
#     4   9  17  33  52  71  95 132 186 215 247 296
#     4   9  18  36  61  79  96 138 174 209 256 316
#
# _framework density 18.447514000000002
#
# number of rings (size 3 to 8) (size 9 to 14) (size 15 to 20)
#    0.000    2.750    3.750    1.500    0.000    4.500 
#    0.000    5.000    0.000    3.000    0.000    0.000 
#    0.000    0.000    0.000    0.000    0.000    0.000 
#
# Total GULP energy -89125.826567 kJ/mol
# GULP energy per Si atom -5570.364160 kJ/mol
# Density = 1.840553 g / cm^3
# Si number density = 18.447514 Si / 1000 Ang^3
#
#
#
# Elastic Constant Matrix: (Units=GPa)
#
#
# Indices 1 2 3 4 5 6 
#
# 1 138.7974 19.7585 24.2368 4.2164 -28.2103 0.1562
# 2 19.7585 49.7037 -4.5804 -4.1688 -7.4063 -11.3752
# 3 24.2368 -4.5804 94.9036 7.7653 -27.1224 5.0429
# 4 4.2164 -4.1688 7.7653 24.2161 -3.1203 -9.4426
# 5 -28.2103 -7.4063 -27.1224 -3.1203 22.0252 1.2511
# 6 0.1562 -11.3752 5.0429 -9.4426 1.2511 16.8920
#
#
#
# Elastic Compliance Matrix: (Units=1/GPa)
#
#
# Indices 1 2 3 4 5 6 
#
# 1 0.010394 -0.003515 0.001865 -0.003534 0.014271 -0.006053
# 2 -0.003515 0.031607 0.002017 0.018457 0.009502 0.030328
# 3 0.001865 0.002017 0.018462 -0.006368 0.025446 -0.009615
# 4 -0.003534 0.018457 -0.006368 0.067483 0.000441 0.052053
# 5 0.014271 0.009502 0.025446 0.000441 0.098750 -0.008397
# 6 -0.006053 0.030328 -0.009615 0.052053 -0.008397 0.112268
#
#
# Mechanical properties :
#
#
# Convention : Reuss Voigt Hill
#
# Bulk Modulus (GPa) = 16.34061 40.24827 28.29444
# Shear Modulus (GPa) = 13.94194 28.89266 21.41730
#
# Velocity S-wave (km/s) = 2.75210 3.96183 3.41102
# Velocity P-wave (km/s) = 4.35613 6.54165 5.55738
#
# Compressibility (1/GPa) = 0.06119721
#
# Stress axis : x y z
#
# Youngs Moduli (GPa) = 96.20776 31.63832 54.16497
#
# Poissons Ratio (x) = 0.11122 -0.10102
# Poissons Ratio (y) = 0.33819 -0.10925
# Poissons Ratio (z) = -0.17944 -0.06381
#
# Static dielectric constant tensor:
#      x y z
#    x 1.640460 -0.045570 -0.022420 
#    y -0.045570 1.666670 -0.014620 
#    z -0.022420 -0.014620 1.686110 
# 
# From -- ./inp_files/318570.got.cif
#   From: 2010.05.17/outbox.cif.g08.bks.cpg/sg2_160_cif.got.tgz:318570.got - 2010.06.03 11:33:40.
