data_PCOD9001114
_publ_section_title
;
Structure prediction by ZEFSAII (Michael W. Deem and Ramdas Pophale) SiO2 
 PCOD9001114
Probable space group: P -1
;
_chemical_formula_sum "Si O2"
_cell_formula_units_Z 14
_cell_length_a 10.521744
_cell_length_b 11.446985
_cell_length_c 11.192599
_cell_angle_alpha 119.340591
_cell_angle_beta 80.397659
_cell_angle_gamma 48.865893
_cell_volume 590.392914
_symmetry_space_group_name_H-M "P -1"
_symmetry_group_IT_number 2
_symmetry_cell_setting 'triclinic'
loop_
_space_group_symop_operation_xyz
x,y,z
-x,-y,-z
loop_
_atom_site_type_symbol
_atom_site_label
_atom_site_fract_x
_atom_site_fract_y
_atom_site_fract_z
Si Si1 0.451849 0.566429 0.331163
Si Si2 0.093781 0.135155 0.240369
Si Si3 0.173786 0.882933 0.756454
Si Si4 0.760546 0.633798 0.659614
Si Si5 0.425672 0.423525 0.032827
Si Si6 0.786133 0.769338 0.945754
Si Si7 0.838983 0.424786 0.075423
O O1 0.231178 0.822751 0.576209
O O2 0.616281 0.346549 0.297492
O O3 0.609661 0.551962 0.243682
O O4 0.369586 0.531242 0.227789
O O5 0.161379 0.172610 0.141327
O O6 0.040556 0.035574 0.148502
O O7 0.842502 0.415733 0.486216
O O8 0.335311 0.891287 0.161945
O O9 0.075082 0.117371 0.909904
O O10 0.761916 0.654344 0.813234
O O11 0.000000 0.500000 0.500000
O O12 0.490432 0.938359 0.814256
O O13 0.226544 0.529071 0.030450
O O14 0.500000 0.500000 0.000000
O O15 0.037387 0.550326 0.879181
#
# Coordination Sequence:
#
# PCOD9001114 Si02
#       7
#     2   2   2   2   2   2   2
#     4  10  21  34  51  85 122 154 193 230 280 338
#     4  11  20  36  59  86 117 151 196 233 285 339
#     4  11  21  31  57  88 113 154 196 236 281 337
#     4   9  22  39  62  88 107 139 196 254 295 332
#     4  10  21  38  52  82 131 163 183 223 281 349
#     4  10  21  39  64  84 111 147 192 250 291 330
#     4  11  21  37  54  83 124 155 188 230 283 349
#
# _framework density 23.71302
#
# number of rings (size 3 to 8) (size 9 to 14) (size 15 to 20)
#    0.000    1.714    4.286    1.286    6.000    0.571 
#    0.000    0.714    0.000    7.714    0.000    0.000 
#    0.000    0.000    0.000    0.000    0.000    0.000 
#
# Total GULP energy -78070.777476 kJ/mol
# GULP energy per Si atom -5576.484105 kJ/mol
# Density = 2.365905 g / cm^3
# Si number density = 23.713020 Si / 1000 Ang^3
#
#
#
# Elastic Constant Matrix: (Units=GPa)
#
#
# Indices 1 2 3 4 5 6 
#
# 1 82.0073 18.7822 17.0175 -9.4502 -8.6091 -29.7516
# 2 18.7822 96.7428 12.7536 -21.4360 2.7276 -27.3208
# 3 17.0175 12.7536 125.4755 -16.3321 -5.4988 -0.0556
# 4 -9.4502 -21.4360 -16.3321 28.6540 -0.5217 6.3126
# 5 -8.6091 2.7276 -5.4988 -0.5217 34.5235 -6.2338
# 6 -29.7516 -27.3208 -0.0556 6.3126 -6.2338 38.4404
#
#
#
# Elastic Compliance Matrix: (Units=1/GPa)
#
#
# Indices 1 2 3 4 5 6 
#
# 1 0.019579 0.001753 -0.002115 0.002925 0.007546 0.017140
# 2 0.001753 0.015125 -0.000512 0.009247 0.001249 0.010790
# 3 -0.002115 -0.000512 0.008930 0.004605 0.000525 -0.002659
# 4 0.002925 0.009247 0.004605 0.045058 0.001724 0.001723
# 5 0.007546 0.001249 0.000525 0.001724 0.032988 0.011795
# 6 0.017140 0.010790 -0.002659 0.001723 0.011795 0.048575
#
#
# Mechanical properties :
#
#
# Convention : Reuss Voigt Hill
#
# Bulk Modulus (GPa) = 23.87406 44.59246 34.23326
# Shear Modulus (GPa) = 26.88723 37.36839 32.12781
#
# Velocity S-wave (km/s) = 3.37094 3.97402 3.68483
# Velocity P-wave (km/s) = 5.02401 6.31688 5.70717
#
# Compressibility (1/GPa) = 0.04188646
#
# Stress axis : x y z
#
# Youngs Moduli (GPa) = 51.07607 66.11769 111.98626
#
# Poissons Ratio (x) = -0.11593 0.23680
# Poissons Ratio (y) = -0.08956 0.05734
# Poissons Ratio (z) = 0.10800 0.03385
#
# Static dielectric constant tensor:
#      x y z
#    x 2.051680 -0.034520 0.014050 
#    y -0.034520 1.924060 -0.009650 
#    z 0.014050 -0.009650 1.956110 
# 
# From -- ./inp_files/312642.got.cif
#   From: 2010.05.17/outbox.cif.g08.bks.cpg/sg2_157_cif.got.tgz:312642.got - 2010.06.03 11:33:40.
