data_PCOD9001025
_publ_section_title
;
Structure prediction by ZEFSAII (Michael W. Deem and Ramdas Pophale) SiO2 
 PCOD9001025
Probable space group: P -1
;
_chemical_formula_sum "Si O2"
_cell_formula_units_Z 14
_cell_length_a 8.568890
_cell_length_b 12.525667
_cell_length_c 8.322400
_cell_angle_alpha 84.220128
_cell_angle_beta 42.717364
_cell_angle_gamma 96.327431
_cell_volume 579.998904
_symmetry_space_group_name_H-M "P -1"
_symmetry_group_IT_number 2
_symmetry_cell_setting 'triclinic'
loop_
_space_group_symop_operation_xyz
x,y,z
-x,-y,-z
loop_
_atom_site_type_symbol
_atom_site_label
_atom_site_fract_x
_atom_site_fract_y
_atom_site_fract_z
Si Si1 0.954489 0.328019 0.461392
Si Si2 0.821119 0.326009 0.094007
Si Si3 0.485460 0.163924 0.924449
Si Si4 0.020212 0.845484 0.816647
Si Si5 0.551589 0.578562 0.792973
Si Si6 0.741804 0.986123 0.618614
Si Si7 0.224762 0.520192 0.623081
O O1 0.690688 0.278353 0.738842
O O2 0.959951 0.447474 0.365969
O O3 0.980760 0.242623 0.314298
O O4 0.177782 0.342543 0.407414
O O5 0.636879 0.351418 0.102943
O O6 0.718224 0.370137 0.326394
O O7 0.872833 0.207802 0.106934
O O8 0.077044 0.413144 0.849398
O O9 0.612300 0.073108 0.776906
O O10 0.257344 0.155515 0.982410
O O11 0.404801 0.129882 0.174004
O O12 0.188243 0.967843 0.621362
O O13 0.564278 0.503308 0.637514
O O14 0.500000 0.500000 0.000000
O O15 0.000000 0.000000 0.500000
#
# Coordination Sequence:
#
# PCOD9001025 Si02
#       7
#     2   2   2   2   2   2   2
#     4  10  21  33  54  82 109 149 193 234 284 332
#     4  10  22  38  56  83 112 154 196 237 283 338
#     4   9  17  30  55  81 113 142 179 235 282 335
#     4   9  19  34  55  83 112 144 189 232 282 340
#     4  12  24  37  57  79 118 157 196 243 281 332
#     4   8  15  31  53  85 111 137 179 233 281 334
#     4  10  22  38  55  78 112 154 199 237 286 329
#
# _framework density 24.137978
#
# number of rings (size 3 to 8) (size 9 to 14) (size 15 to 20)
#    0.000    2.286    1.429    0.857    2.000    3.429 
#    0.000    0.000    0.000    0.857    0.000   35.000 
#    0.000    0.000    0.000    0.000    0.000    0.000 
#
# Total GULP energy -78095.931479 kJ/mol
# GULP energy per Si atom -5578.280820 kJ/mol
# Density = 2.408304 g / cm^3
# Si number density = 24.137978 Si / 1000 Ang^3
#
#
#
# Elastic Constant Matrix: (Units=GPa)
#
#
# Indices 1 2 3 4 5 6 
#
# 1 92.3476 32.8232 34.4415 -2.1605 -18.9930 -41.7857
# 2 32.8232 63.5150 29.3198 1.4412 -3.9333 -39.6993
# 3 34.4415 29.3198 107.4436 -12.6574 -16.4107 -17.8860
# 4 -2.1605 1.4412 -12.6574 49.5828 -0.2121 5.2450
# 5 -18.9930 -3.9333 -16.4107 -0.2121 34.7703 8.5202
# 6 -41.7857 -39.6993 -17.8860 5.2450 8.5202 53.4177
#
#
#
# Elastic Compliance Matrix: (Units=1/GPa)
#
#
# Indices 1 2 3 4 5 6 
#
# 1 0.019094 0.000392 -0.003310 -0.001414 0.005629 0.013360
# 2 0.000392 0.033710 -0.006658 -0.005273 -0.005143 0.024468
# 3 -0.003310 -0.006658 0.012576 0.003745 0.004478 -0.004409
# 4 -0.001414 -0.005273 0.003745 0.021886 0.002064 -0.006248
# 5 0.005629 -0.005143 0.004478 0.002064 0.034258 -0.003586
# 6 0.013360 0.024468 -0.004409 -0.006248 -0.003586 0.047065
#
#
# Mechanical properties :
#
#
# Convention : Reuss Voigt Hill
#
# Bulk Modulus (GPa) = 21.63232 50.71946 36.17589
# Shear Modulus (GPa) = 24.61230 38.66893 31.64062
#
# Velocity S-wave (km/s) = 3.19666 4.00684 3.62446
# Velocity P-wave (km/s) = 4.75460 6.51646 5.70397
#
# Compressibility (1/GPa) = 0.04622713
#
# Stress axis : x y z
#
# Youngs Moduli (GPa) = 52.37337 29.66489 79.51383
#
# Poissons Ratio (x) = -0.01163 0.26321
# Poissons Ratio (y) = -0.02052 0.52941
# Poissons Ratio (z) = 0.17337 0.19751
#
# Static dielectric constant tensor:
#      x y z
#    x 2.023520 -0.012990 0.040570 
#    y -0.012990 1.929880 -0.018560 
#    z 0.040570 -0.018560 1.996770 
# 
# From -- ./inp_files/35759.got.cif
#   From: 2010.05.17/outbox.cif.g08.bks.cpg/sg2_18_cif.got.tgz:35759.got - 2010.06.03 11:33:40.
