data_PCOD9001748
_publ_section_title
;
Structure prediction by ZEFSAII (Michael W. Deem and Ramdas Pophale) SiO2 
 PCOD9001748
Probable space group: P -1
;
_chemical_formula_sum "Si O2"
_cell_formula_units_Z 16
_cell_length_a 19.963559
_cell_length_b 8.382430
_cell_length_c 8.937343
_cell_angle_alpha 50.606675
_cell_angle_beta 131.851127
_cell_angle_gamma 138.963435
_cell_volume 704.528933
_symmetry_space_group_name_H-M "P -1"
_symmetry_group_IT_number 2
_symmetry_cell_setting 'triclinic'
loop_
_space_group_symop_operation_xyz
x,y,z
-x,-y,-z
loop_
_atom_site_type_symbol
_atom_site_label
_atom_site_fract_x
_atom_site_fract_y
_atom_site_fract_z
Si Si1 0.159840 0.120379 0.761219
Si Si2 0.414892 0.435479 0.044155
Si Si3 0.405029 0.988753 0.463012
Si Si4 0.483642 0.706628 0.283095
Si Si5 0.091019 0.588446 0.888612
Si Si6 0.082976 0.942635 0.084068
Si Si7 0.241493 0.416219 0.188382
Si Si8 0.822651 0.525547 0.640545
O O1 0.198946 0.152601 0.204428
O O2 0.121610 0.273389 0.526135
O O3 0.132138 0.875338 0.773519
O O4 0.291790 0.322027 0.867553
O O5 0.471306 0.667288 0.109544
O O6 0.398796 0.205398 0.251270
O O7 0.500000 0.500000 0.000000
O O8 0.287025 0.731443 0.420799
O O9 0.500000 0.000000 0.500000
O O10 0.432223 0.042217 0.647946
O O11 0.500000 0.500000 0.500000
O O12 0.365756 0.621939 0.216526
O O13 0.105691 0.533657 0.116670
O O14 0.174588 0.533462 0.969535
O O15 0.971507 0.352827 0.797713
O O16 0.099004 0.013126 0.892024
O O17 0.000000 0.000000 0.000000
O O18 0.217870 0.364397 0.359646
#
# Coordination Sequence:
#
# PCOD9001748 Si02
#       8
#     2   2   2   2   2   2   2   2
#     4  12  22  40  67  93 126 169 216 260 323 386
#     4  11  23  38  61  96 128 171 222 258 311 392
#     4  11  19  39  62  88 130 171 212 265 321 373
#     4  10  21  35  62  89 128 172 213 258 320 376
#     4   9  21  41  67  91 125 164 210 267 326 372
#     4  10  21  41  71  91 126 171 212 269 328 376
#     4   9  18  41  63  88 129 168 203 269 322 372
#     4  10  22  37  65  92 127 162 210 264 318 380
#
# _framework density 22.710211000000001
#
# number of rings (size 3 to 8) (size 9 to 14) (size 15 to 20)
#    0.750    1.000    3.750    1.125    1.750    0.500 
#    0.000    6.875    5.500    0.000    0.000    0.000 
#    0.000    0.000    0.000    0.000    0.000    0.000 
#
# Total GULP energy -89283.887072 kJ/mol
# GULP energy per Si atom -5580.242942 kJ/mol
# Density = 2.265852 g / cm^3
# Si number density = 22.710211 Si / 1000 Ang^3
#
#
#
# Elastic Constant Matrix: (Units=GPa)
#
#
# Indices 1 2 3 4 5 6 
#
# 1 70.0790 -1.3569 -0.7334 -2.3621 -8.4141 2.4607
# 2 -1.3569 146.0852 25.4930 5.2326 2.6577 -10.4947
# 3 -0.7334 25.4930 65.8581 -15.3816 3.4246 -3.3575
# 4 -2.3621 5.2326 -15.3816 18.5043 1.1301 -2.1082
# 5 -8.4141 2.6577 3.4246 1.1301 29.1145 2.0947
# 6 2.4607 -10.4947 -3.3575 -2.1082 2.0947 33.2225
#
#
#
# Elastic Compliance Matrix: (Units=1/GPa)
#
#
# Indices 1 2 3 4 5 6 
#
# 1 0.014893 -0.000162 0.000373 0.001850 0.004295 -0.001270
# 2 -0.000162 0.007920 -0.004280 -0.005609 -0.000174 0.001736
# 3 0.000373 -0.004280 0.021731 0.019761 -0.002987 0.002259
# 4 0.001850 -0.005609 0.019761 0.073135 -0.004477 0.005011
# 5 0.004295 -0.000174 -0.002987 -0.004477 0.036363 -0.003252
# 6 -0.001270 0.001736 0.002259 0.005011 -0.003252 0.031494
#
#
# Mechanical properties :
#
#
# Convention : Reuss Voigt Hill
#
# Bulk Modulus (GPa) = 27.46941 36.53639 32.00290
# Shear Modulus (GPa) = 24.29434 33.40957 28.85195
#
# Velocity S-wave (km/s) = 3.27426 3.83969 3.56819
# Velocity P-wave (km/s) = 5.13967 5.98169 5.57660
#
# Compressibility (1/GPa) = 0.03640413
#
# Stress axis : x y z
#
# Youngs Moduli (GPa) = 67.14586 126.27049 46.01733
#
# Poissons Ratio (x) = 0.02050 -0.01715
# Poissons Ratio (y) = 0.01090 0.19695
# Poissons Ratio (z) = -0.02502 0.54043
#
# Static dielectric constant tensor:
#      x y z
#    x 1.876560 -0.019310 0.033190 
#    y -0.019310 1.926550 0.062320 
#    z 0.033190 0.062320 1.740480 
# 
# From -- ./inp_files/352041.got.cif
#   From: 2010.05.17/outbox.cif.g08.bks.cpg/sg2_177_cif.got.tgz:352041.got - 2010.06.03 11:33:40.
