data_PCOD9001979
_publ_section_title
;
Structure prediction by ZEFSAII (Michael W. Deem and Ramdas Pophale) SiO2 
 PCOD9001979
Probable space group: P -1
;
_chemical_formula_sum "Si O2"
_cell_formula_units_Z 16
_cell_length_a 14.191503
_cell_length_b 14.678900
_cell_length_c 9.028341
_cell_angle_alpha 86.869662
_cell_angle_beta 129.714561
_cell_angle_gamma 135.148335
_cell_volume 692.634089
_symmetry_space_group_name_H-M "P -1"
_symmetry_group_IT_number 2
_symmetry_cell_setting 'triclinic'
loop_
_space_group_symop_operation_xyz
x,y,z
-x,-y,-z
loop_
_atom_site_type_symbol
_atom_site_label
_atom_site_fract_x
_atom_site_fract_y
_atom_site_fract_z
Si Si1 0.909114 0.490140 0.058220
Si Si2 0.560742 0.178466 0.132661
Si Si3 0.962815 0.581750 0.570558
Si Si4 0.114893 0.137331 0.734575
Si Si5 0.346677 0.093776 0.508180
Si Si6 0.864785 0.976460 0.990483
Si Si7 0.365189 0.903188 0.529399
Si Si8 0.027838 0.203903 0.402879
O O1 0.612205 0.317929 0.779531
O O2 0.981803 0.460133 0.250931
O O3 0.000000 0.500000 0.000000
O O4 0.070497 0.686095 0.228881
O O5 0.770073 0.245743 0.267234
O O6 0.529271 0.111130 0.268074
O O7 0.715888 0.375676 0.260043
O O8 0.265436 0.995810 0.811519
O O9 0.919466 0.654702 0.578415
O O10 0.201381 0.277776 0.705207
O O11 0.271375 0.178636 0.009014
O O12 0.000000 0.000000 0.500000
O O13 0.885705 0.019419 0.621741
O O14 0.395567 0.022546 0.616695
O O15 0.292648 0.064639 0.279900
O O16 0.030591 0.148640 0.255095
O O17 0.000000 0.000000 0.000000
O O18 0.500000 0.000000 0.500000
#
# Coordination Sequence:
#
# PCOD9001979 Si02
#       8
#     2   2   2   2   2   2   2   2
#     4  11  23  35  56  90 132 154 191 235 284 370
#     4  10  21  36  55  88 124 153 188 236 284 360
#     4  10  22  36  54  88 125 153 191 229 286 365
#     4   9  20  39  63  88 108 152 212 258 298 342
#     4  11  20  37  63  84 120 164 191 241 305 350
#     4   9  21  37  58  84 111 149 204 253 294 337
#     4  11  21  35  56  90 127 159 194 230 290 366
#     4  11  19  35  65  81 110 157 194 235 300 345
#
# _framework density 23.10022
#
# number of rings (size 3 to 8) (size 9 to 14) (size 15 to 20)
#    0.000    1.750    1.250    3.375    3.500    0.000 
#    0.000    0.000    0.000   30.000    0.000    0.000 
#    0.000    0.000    0.000    0.000    0.000    0.000 
#
# Total GULP energy -89150.882466 kJ/mol
# GULP energy per Si atom -5571.930154 kJ/mol
# Density = 2.304764 g / cm^3
# Si number density = 23.100220 Si / 1000 Ang^3
#
#
#
# Elastic Constant Matrix: (Units=GPa)
#
#
# Indices 1 2 3 4 5 6 
#
# 1 103.1364 23.8599 -1.9968 -4.4729 -11.2577 -1.7979
# 2 23.8599 109.2100 46.9970 -17.1435 -10.8180 1.5311
# 3 -1.9968 46.9970 57.9503 -5.0734 -16.7174 0.8940
# 4 -4.4729 -17.1435 -5.0734 44.3187 8.2245 -13.0605
# 5 -11.2577 -10.8180 -16.7174 8.2245 20.7653 -6.3360
# 6 -1.7979 1.5311 0.8940 -13.0605 -6.3360 33.2665
#
#
#
# Elastic Compliance Matrix: (Units=1/GPa)
#
#
# Indices 1 2 3 4 5 6 
#
# 1 0.012254 -0.005092 0.007696 -0.001273 0.011412 0.002364
# 2 -0.005092 0.017358 -0.016417 0.006043 -0.009340 -0.000039
# 3 0.007696 -0.016417 0.039064 -0.005661 0.030438 0.003696
# 4 -0.001273 0.006043 -0.005661 0.028788 -0.010737 0.009062
# 5 0.011412 -0.009340 0.030438 -0.010737 0.081772 0.011588
# 6 0.002364 -0.000039 0.003696 0.009062 0.011588 0.035855
#
#
# Mechanical properties :
#
#
# Convention : Reuss Voigt Hill
#
# Bulk Modulus (GPa) = 24.36066 45.33520 34.84793
# Shear Modulus (GPa) = 19.50074 33.09920 26.29997
#
# Velocity S-wave (km/s) = 2.90863 3.78941 3.37785
# Velocity P-wave (km/s) = 4.67426 6.23011 5.50740
#
# Compressibility (1/GPa) = 0.04104979
#
# Stress axis : x y z
#
# Youngs Moduli (GPa) = 81.60306 57.61049 25.59925
#
# Poissons Ratio (x) = 0.29333 -0.19700
# Poissons Ratio (y) = 0.41549 0.42027
# Poissons Ratio (z) = -0.62799 0.94580
#
# Static dielectric constant tensor:
#      x y z
#    x 1.880110 -0.040000 -0.152100 
#    y -0.040000 1.913940 -0.087320 
#    z -0.152100 -0.087320 1.628090 
# 
# From -- ./inp_files/315153.got.cif
#   From: 2010.05.17/outbox.cif.g08.bks.cpg/sg2_158_cif.got.tgz:315153.got - 2010.06.03 11:33:40.
