data_PCOD9001308
_publ_section_title
;
Structure prediction by ZEFSAII (Michael W. Deem and Ramdas Pophale) SiO2 
 PCOD9001308
Probable space group: P -1
;
_chemical_formula_sum "Si O2"
_cell_formula_units_Z 16
_cell_length_a 9.796116
_cell_length_b 19.158227
_cell_length_c 5.400397
_cell_angle_alpha 112.470222
_cell_angle_beta 71.343875
_cell_angle_gamma 72.053916
_cell_volume 772.749858
_symmetry_space_group_name_H-M "P -1"
_symmetry_group_IT_number 2
_symmetry_cell_setting 'triclinic'
loop_
_space_group_symop_operation_xyz
x,y,z
-x,-y,-z
loop_
_atom_site_type_symbol
_atom_site_label
_atom_site_fract_x
_atom_site_fract_y
_atom_site_fract_z
Si Si1 0.040647 0.315583 0.500072
Si Si2 0.144116 0.977948 0.083012
Si Si3 0.767378 0.696747 0.146542
Si Si4 0.622963 0.191442 0.503698
Si Si5 0.852527 0.511904 0.774013
Si Si6 0.915272 0.141263 0.657037
Si Si7 0.396423 0.522935 0.345414
Si Si8 0.183181 0.725357 0.711954
O O1 0.159123 0.280846 0.622418
O O2 0.914251 0.420096 0.753384
O O3 0.934549 0.267031 0.440072
O O4 0.135123 0.308333 0.173049
O O5 0.117229 0.921889 0.230627
O O6 0.314616 0.906555 0.764189
O O7 0.091363 0.074081 0.338553
O O8 0.000000 0.000000 0.000000
O O9 0.573239 0.758740 0.288068
O O10 0.795053 0.600839 0.070666
O O11 0.750366 0.179597 0.635588
O O12 0.675250 0.248228 0.374821
O O13 0.706127 0.526541 0.694403
O O14 0.000000 0.500000 0.500000
O O15 0.921346 0.213157 0.921038
O O16 0.500000 0.500000 0.500000
O O17 0.269902 0.624481 0.580118
O O18 0.500000 0.500000 0.000000
#
# Coordination Sequence:
#
# PCOD9001308 Si02
#       8
#     2   2   2   2   2   2   2   2
#     4  10  24  40  56  82 119 164 201 244 298 354
#     4   8  16  34  55  92 118 149 184 246 297 359
#     4  11  23  38  60  84 118 155 205 252 295 346
#     4  10  21  34  62  92 118 150 199 255 299 352
#     4   9  21  40  59  79 112 164 208 243 291 356
#     4   9  18  33  61  88 119 149 196 241 298 364
#     4  11  25  39  57  87 123 156 198 261 308 342
#     4  10  23  36  60  85 119 159 203 244 300 364
#
# _framework density 20.705276999999999
#
# number of rings (size 3 to 8) (size 9 to 14) (size 15 to 20)
#    0.000    2.250    0.000    1.125    8.750    8.000 
#    0.000    0.000    0.000    1.500    0.000    0.000 
#    0.000    0.000    0.000    0.000    0.000    0.000 
#
# Total GULP energy -89111.393168 kJ/mol
# GULP energy per Si atom -5569.462073 kJ/mol
# Density = 2.065815 g / cm^3
# Si number density = 20.705277 Si / 1000 Ang^3
#
#
#
# Elastic Constant Matrix: (Units=GPa)
#
#
# Indices 1 2 3 4 5 6 
#
# 1 119.8170 21.6610 47.0900 0.7268 7.1815 -14.8607
# 2 21.6610 38.2804 29.9419 4.0694 4.9437 -13.2127
# 3 47.0900 29.9419 107.8711 25.7971 13.0340 -7.1354
# 4 0.7268 4.0694 25.7971 40.8723 -2.4218 1.3781
# 5 7.1815 4.9437 13.0340 -2.4218 35.3050 -1.0925
# 6 -14.8607 -13.2127 -7.1354 1.3781 -1.0925 25.0583
#
#
#
# Elastic Compliance Matrix: (Units=1/GPa)
#
#
# Indices 1 2 3 4 5 6 
#
# 1 0.010996 -0.001237 -0.004860 0.002852 0.000060 0.004331
# 2 -0.001237 0.040579 -0.009759 0.001473 -0.001177 0.017751
# 3 -0.004860 -0.009759 0.016786 -0.009711 -0.004598 -0.002915
# 4 0.002852 0.001473 -0.009711 0.030745 0.004853 -0.001776
# 5 0.000060 -0.001177 -0.004598 0.004853 0.030482 -0.000832
# 6 0.004331 0.017751 -0.002915 -0.001776 -0.000832 0.051067
#
#
# Mechanical properties :
#
#
# Convention : Reuss Voigt Hill
#
# Bulk Modulus (GPa) = 27.28648 51.48380 39.38514
# Shear Modulus (GPa) = 22.26349 31.39886 26.83117
#
# Velocity S-wave (km/s) = 3.28267 3.89841 3.60371
# Velocity P-wave (km/s) = 5.25119 6.72179 6.03148
#
# Compressibility (1/GPa) = 0.03664818
#
# Stress axis : x y z
#
# Youngs Moduli (GPa) = 90.94331 24.64330 59.57426
#
# Poissons Ratio (x) = 0.03049 0.28951
# Poissons Ratio (y) = 0.11251 0.58141
# Poissons Ratio (z) = 0.44196 0.24050
#
# Static dielectric constant tensor:
#      x y z
#    x 1.694390 -0.078920 0.067730 
#    y -0.078920 1.570330 0.173080 
#    z 0.067730 0.173080 1.701920 
# 
# From -- ./inp_files/44216.got.cif
#   From: 2010.05.17/outbox.cif.g08.bks.cpg/sg2_23_cif.got.tgz:44216.got - 2010.06.03 11:33:40.
