data_PCOD9001426
_publ_section_title
;
Structure prediction by ZEFSAII (Michael W. Deem and Ramdas Pophale) SiO2 
 PCOD9001426
Probable space group: P -1
;
_chemical_formula_sum "Si O2"
_cell_formula_units_Z 14
_cell_length_a 6.479377
_cell_length_b 13.921104
_cell_length_c 10.046202
_cell_angle_alpha 55.279595
_cell_angle_beta 121.026730
_cell_angle_gamma 112.344910
_cell_volume 633.410928
_symmetry_space_group_name_H-M "P -1"
_symmetry_group_IT_number 2
_symmetry_cell_setting 'triclinic'
loop_
_space_group_symop_operation_xyz
x,y,z
-x,-y,-z
loop_
_atom_site_type_symbol
_atom_site_label
_atom_site_fract_x
_atom_site_fract_y
_atom_site_fract_z
Si Si1 0.761034 0.889814 0.570751
Si Si2 0.690989 0.753302 0.080343
Si Si3 0.026965 0.323231 0.217318
Si Si4 0.883919 0.082609 0.001683
Si Si5 0.401588 0.522965 0.098631
Si Si6 0.329961 0.118427 0.750254
Si Si7 0.666002 0.153857 0.327517
O O1 0.942488 0.798481 0.753548
O O2 0.709494 0.840896 0.443119
O O3 0.525674 0.862572 0.605578
O O4 0.782565 0.031764 0.452513
O O5 0.613786 0.613791 0.160731
O O6 0.699900 0.798077 0.199694
O O7 0.491656 0.817250 0.878104
O O8 0.942662 0.796182 0.054624
O O9 0.285540 0.403782 0.228171
O O10 0.869491 0.264373 0.336244
O O11 0.827702 0.401568 0.034153
O O12 0.853730 0.000513 0.187271
O O13 0.608334 0.093745 0.865155
O O14 0.000000 0.000000 0.000000
O O15 0.500000 0.500000 0.000000
#
# Coordination Sequence:
#
# PCOD9001426 Si02
#       7
#     2   2   2   2   2   2   2
#     4  11  22  36  56  89 124 149 183 233 289 345
#     4  10  21  38  60  84 111 151 196 234 277 336
#     4  10  21  38  61  83 114 153 190 238 289 335
#     4   9  18  34  56  82 116 154 188 226 274 337
#     4  10  22  40  61  85 109 147 201 245 280 334
#     4  10  21  35  55  84 117 151 188 228 281 342
#     4  10  22  36  57  90 122 152 187 229 284 344
#
# _framework density 22.102556
#
# number of rings (size 3 to 8) (size 9 to 14) (size 15 to 20)
#    0.000    2.000    0.000    4.714    0.000   12.571 
#    0.000    0.714    0.000    2.571    0.000    0.000 
#    0.000    0.000    0.000    0.000    0.000    0.000 
#
# Total GULP energy -77945.362940 kJ/mol
# GULP energy per Si atom -5567.525924 kJ/mol
# Density = 2.205225 g / cm^3
# Si number density = 22.102556 Si / 1000 Ang^3
#
#
#
# Elastic Constant Matrix: (Units=GPa)
#
#
# Indices 1 2 3 4 5 6 
#
# 1 104.3676 47.6669 20.9229 -16.9632 -15.5870 12.2230
# 2 47.6669 141.8465 24.4080 -26.4244 -29.9983 21.1600
# 3 20.9229 24.4080 60.2719 -9.1668 -11.4157 -9.5684
# 4 -16.9632 -26.4244 -9.1668 40.2001 -0.1871 -21.9990
# 5 -15.5870 -29.9983 -11.4157 -0.1871 39.6575 -7.4988
# 6 12.2230 21.1600 -9.5684 -21.9990 -7.4988 49.3956
#
#
#
# Elastic Compliance Matrix: (Units=1/GPa)
#
#
# Indices 1 2 3 4 5 6 
#
# 1 0.012069 -0.002663 -0.002635 0.002125 0.001765 -0.001142
# 2 -0.002663 0.010648 -0.001582 0.004987 0.006383 -0.001019
# 3 -0.002635 -0.001582 0.022305 0.008689 0.006208 0.010462
# 4 0.002125 0.004987 0.008689 0.041592 0.010936 0.019205
# 5 0.001765 0.006383 0.006208 0.010936 0.034104 0.008079
# 6 -0.001142 -0.001019 0.010462 0.019205 0.008079 0.032770
#
#
# Mechanical properties :
#
#
# Convention : Reuss Voigt Hill
#
# Bulk Modulus (GPa) = 31.98779 54.72017 43.35398
# Shear Modulus (GPa) = 28.14243 40.08317 34.11280
#
# Velocity S-wave (km/s) = 3.57216 4.26315 3.93286
# Velocity P-wave (km/s) = 5.61405 7.00312 6.34671
#
# Compressibility (1/GPa) = 0.03126193
#
# Stress axis : x y z
#
# Youngs Moduli (GPa) = 82.85992 93.91568 44.83297
#
# Poissons Ratio (x) = 0.25008 0.11814
# Poissons Ratio (y) = 0.22064 0.07092
# Poissons Ratio (z) = 0.21834 0.14856
#
# Static dielectric constant tensor:
#      x y z
#    x 1.864380 0.046660 0.000030 
#    y 0.046660 1.889680 -0.018950 
#    z 0.000030 -0.018950 1.922730 
# 
# From -- ./inp_files/366759.got.cif
#   From: 2010.05.17/outbox.cif.g08.bks.cpg/sg2_184_cif.got.tgz:366759.got - 2010.06.03 11:33:40.
