data_PCOD9001064
_publ_section_title
;
Structure prediction by ZEFSAII (Michael W. Deem and Ramdas Pophale) SiO2 
 PCOD9001064
Probable space group: P -1
;
_chemical_formula_sum "Si O2"
_cell_formula_units_Z 16
_cell_length_a 15.690352
_cell_length_b 12.817997
_cell_length_c 11.897997
_cell_angle_alpha 26.537602
_cell_angle_beta 40.227654
_cell_angle_gamma 51.013353
_cell_volume 678.308074
_symmetry_space_group_name_H-M "P -1"
_symmetry_group_IT_number 2
_symmetry_cell_setting 'triclinic'
loop_
_space_group_symop_operation_xyz
x,y,z
-x,-y,-z
loop_
_atom_site_type_symbol
_atom_site_label
_atom_site_fract_x
_atom_site_fract_y
_atom_site_fract_z
Si Si1 0.354204 0.869252 0.644428
Si Si2 0.657567 0.139177 0.702063
Si Si3 0.452460 0.565879 0.653666
Si Si4 0.074781 0.250541 0.800130
Si Si5 0.580467 0.322241 0.028856
Si Si6 0.925172 0.701914 0.493710
Si Si7 0.280183 0.508166 0.508088
Si Si8 0.247932 0.130694 0.316406
O O1 0.429108 0.698903 0.661845
O O2 0.314805 0.755864 0.913008
O O3 0.464708 0.099240 0.334998
O O4 0.246125 0.937669 0.603002
O O5 0.636641 0.347810 0.435687
O O6 0.720507 0.263575 0.632678
O O7 0.760492 0.997353 0.671901
O O8 0.500000 0.000000 0.000000
O O9 0.609811 0.618603 0.418646
O O10 0.396054 0.291115 0.998811
O O11 0.146421 0.279920 0.574588
O O12 0.151138 0.331693 0.762272
O O13 0.984166 0.457835 0.676215
O O14 0.022929 0.964637 0.140283
O O15 0.500000 0.500000 0.000000
O O16 0.652565 0.406595 0.760687
O O17 0.841442 0.703566 0.692851
#
# Coordination Sequence:
#
# PCOD9001064 Si02
#       8
#     2   2   2   2   2   2   2   2
#     4  10  21  33  58  96 130 169 220 267 348 420
#     4  11  24  43  64 105 141 181 226 276 353 423
#     4  11  22  40  64 101 133 180 223 276 350 420
#     4  10  26  46  73 100 138 184 235 297 345 413
#     4  11  21  36  53  94 139 166 210 275 346 422
#     4  10  25  50  69 101 135 185 242 287 355 405
#     4  12  23  41  66  98 141 176 228 286 353 413
#     4  11  23  41  72  92 135 187 223 285 342 423
#
# _framework density 23.588103
#
# number of rings (size 3 to 8) (size 9 to 14) (size 15 to 20)
#    0.000    1.250    3.750    1.125    7.000    4.000 
#    0.000    1.250    0.000    0.000    0.000    0.000 
#    0.000    0.000    0.000    0.000    0.000    0.000 
#
# Total GULP energy -89140.990622 kJ/mol
# GULP energy per Si atom -5571.311914 kJ/mol
# Density = 2.353442 g / cm^3
# Si number density = 23.588103 Si / 1000 Ang^3
#
#
#
# Elastic Constant Matrix: (Units=GPa)
#
#
# Indices 1 2 3 4 5 6 
#
# 1 53.0920 23.5145 14.3826 -8.3906 -1.9594 28.3311
# 2 23.5145 124.5681 5.7768 -13.9494 1.2703 41.0211
# 3 14.3826 5.7768 93.4240 -14.8687 -2.7623 13.8071
# 4 -8.3906 -13.9494 -14.8687 30.3928 9.8041 -4.3893
# 5 -1.9594 1.2703 -2.7623 9.8041 31.1856 -10.2273
# 6 28.3311 41.0211 13.8071 -4.3893 -10.2273 44.0444
#
#
#
# Elastic Compliance Matrix: (Units=1/GPa)
#
#
# Indices 1 2 3 4 5 6 
#
# 1 0.031741 0.003292 -0.000197 0.009606 -0.009249 -0.024612
# 2 0.003292 0.013919 0.002260 0.008683 -0.008426 -0.016881
# 3 -0.000197 0.002260 0.012538 0.007304 -0.003235 -0.005932
# 4 0.009606 0.008683 0.007304 0.046954 -0.019223 -0.016340
# 5 -0.009249 -0.008426 -0.003235 -0.019223 0.045261 0.023405
# 6 -0.024612 -0.016881 -0.005932 -0.016340 0.023405 0.059923
#
#
# Mechanical properties :
#
#
# Convention : Reuss Voigt Hill
#
# Bulk Modulus (GPa) = 14.51224 39.82577 27.16900
# Shear Modulus (GPa) = 22.46242 36.28522 29.37382
#
# Velocity S-wave (km/s) = 3.08925 3.92635 3.53268
# Velocity P-wave (km/s) = 4.34630 6.12172 5.30876
#
# Compressibility (1/GPa) = 0.06890736
#
# Stress axis : x y z
#
# Youngs Moduli (GPa) = 31.50537 71.84637 79.75814
#
# Poissons Ratio (x) = -0.23654 0.01573
# Poissons Ratio (y) = -0.10373 -0.18026
# Poissons Ratio (z) = 0.00622 -0.16238
#
# Static dielectric constant tensor:
#      x y z
#    x 1.980800 -0.046400 -0.004510 
#    y -0.046400 1.994560 -0.001170 
#    z -0.004510 -0.001170 1.946470 
# 
# From -- ./inp_files/66733.got.cif
#   From: 2010.05.17/outbox.cif.g08.bks.cpg/sg2_34_cif.got.tgz:66733.got - 2010.06.03 11:33:40.
