data_PCOD9001903
_publ_section_title
;
Structure prediction by ZEFSAII (Michael W. Deem and Ramdas Pophale) SiO2 
 PCOD9001903
Probable space group: P -1
;
_chemical_formula_sum "Si O2"
_cell_formula_units_Z 16
_cell_length_a 27.486612
_cell_length_b 5.490853
_cell_length_c 5.327451
_cell_angle_alpha 61.941915
_cell_angle_beta 79.204055
_cell_angle_gamma 61.996757
_cell_volume 625.893222
_symmetry_space_group_name_H-M "P -1"
_symmetry_group_IT_number 2
_symmetry_cell_setting 'triclinic'
loop_
_space_group_symop_operation_xyz
x,y,z
-x,-y,-z
loop_
_atom_site_type_symbol
_atom_site_label
_atom_site_fract_x
_atom_site_fract_y
_atom_site_fract_z
Si Si1 0.602787 0.574773 0.861389
Si Si2 0.838215 0.635569 0.826363
Si Si3 0.960403 0.954994 0.255662
Si Si4 0.812704 0.143884 0.939535
Si Si5 0.070613 0.530085 0.612390
Si Si6 0.732379 0.073198 0.416196
Si Si7 0.707895 0.559882 0.572285
Si Si8 0.566156 0.319914 0.519689
O O1 0.585026 0.448223 0.189065
O O2 0.586963 0.430506 0.698981
O O3 0.668642 0.468016 0.826639
O O4 0.580102 0.951665 0.687338
O O5 0.829101 0.335047 0.031825
O O6 0.884773 0.511426 0.624238
O O7 0.854124 0.849445 0.889003
O O8 0.776026 0.880010 0.685780
O O9 0.928097 0.799451 0.218836
O O10 0.004554 0.728110 0.522299
O O11 0.922080 0.271239 0.270821
O O12 0.000000 0.000000 0.000000
O O13 0.772241 0.399079 0.662651
O O14 0.773840 0.024445 0.174754
O O15 0.704312 0.423637 0.371232
O O16 0.693209 0.914586 0.461618
O O17 0.500000 0.500000 0.500000
#
# Coordination Sequence:
#
# PCOD9001903 Si02
#       8
#     2   2   2   2   2   2   2   2
#     4  12  26  44  74 107 140 192 240 291 362 425
#     4  10  21  36  55  84 109 151 193 238 308 370
#     4  10  21  36  54  78 107 147 184 243 300 348
#     4  10  21  37  57  81 117 152 193 249 305 368
#     4  10  21  36  54  79 112 139 192 243 289 373
#     4  10  21  39  57  84 120 157 197 259 311 372
#     4  10  23  37  59  88 123 159 211 259 315 388
#     4  12  26  49  73 107 147 189 240 300 357 423
#
# _framework density 25.563462999999999
#
# number of rings (size 3 to 8) (size 9 to 14) (size 15 to 20)
#    0.000    1.500    0.000    4.500    3.500    2.000 
#    0.000    0.000    0.000    0.000    0.000    0.000 
#    0.000    0.000    0.000    0.000    0.000    0.000 
#
# Total GULP energy -89307.857438 kJ/mol
# GULP energy per Si atom -5581.741090 kJ/mol
# Density = 2.550528 g / cm^3
# Si number density = 25.563463 Si / 1000 Ang^3
#
#
#
# Elastic Constant Matrix: (Units=GPa)
#
#
# Indices 1 2 3 4 5 6 
#
# 1 117.9468 65.6444 26.2045 1.7577 3.8764 40.4564
# 2 65.6444 179.3014 46.0122 4.1755 22.2743 47.3921
# 3 26.2045 46.0122 118.2384 14.5201 -15.4321 31.1990
# 4 1.7577 4.1755 14.5201 46.7397 1.8128 5.8769
# 5 3.8764 22.2743 -15.4321 1.8128 37.0579 0.5745
# 6 40.4564 47.3921 31.1990 5.8769 0.5745 67.9222
#
#
#
# Elastic Compliance Matrix: (Units=1/GPa)
#
#
# Indices 1 2 3 4 5 6 
#
# 1 0.011893 -0.003124 -0.000097 0.000454 0.000647 -0.004904
# 2 -0.003124 0.009075 -0.002945 0.000863 -0.006348 -0.003139
# 3 -0.000097 -0.002945 0.011727 -0.003259 0.006871 -0.003050
# 4 0.000454 0.000863 -0.003259 0.022594 -0.003008 -0.001305
# 5 0.000647 -0.006348 0.006871 -0.003008 0.033728 0.000863
# 6 -0.004904 -0.003139 -0.003050 -0.001305 0.000863 0.021341
#
#
# Mechanical properties :
#
#
# Convention : Reuss Voigt Hill
#
# Bulk Modulus (GPa) = 49.11172 76.80097 62.95634
# Shear Modulus (GPa) = 38.61687 48.85233 43.73460
#
# Velocity S-wave (km/s) = 3.89090 4.37627 4.14070
# Velocity P-wave (km/s) = 6.28003 7.45950 6.89503
#
# Compressibility (1/GPa) = 0.02036174
#
# Stress axis : x y z
#
# Youngs Moduli (GPa) = 84.08526 110.19320 85.27406
#
# Poissons Ratio (x) = 0.34422 0.00830
# Poissons Ratio (y) = 0.26266 0.25115
# Poissons Ratio (z) = 0.00819 0.32455
#
# Static dielectric constant tensor:
#      x y z
#    x 0.040710 0.628080 0.014920 
#    y 0.628080 1.902180 -0.012910 
#    z 0.014920 -0.012910 2.079690 
# 
# From -- ./inp_files/127955.got.cif
#   From: 2010.05.17/outbox.cif.g08.bks.cpg/sg2_64_cif.got.tgz:127955.got - 2010.06.03 11:33:40.
