data_PCOD9001927
_publ_section_title
;
Structure prediction by ZEFSAII (Michael W. Deem and Ramdas Pophale) SiO2 
 PCOD9001927
Probable space group: P -1
;
_chemical_formula_sum "Si O2"
_cell_formula_units_Z 13
_cell_length_a 9.298412
_cell_length_b 16.046804
_cell_length_c 12.971244
_cell_angle_alpha 153.120463
_cell_angle_beta 147.918943
_cell_angle_gamma 46.737593
_cell_volume 444.320626
_symmetry_space_group_name_H-M "P -1"
_symmetry_group_IT_number 2
_symmetry_cell_setting 'triclinic'
loop_
_space_group_symop_operation_xyz
x,y,z
-x,-y,-z
loop_
_atom_site_type_symbol
_atom_site_label
_atom_site_fract_x
_atom_site_fract_y
_atom_site_fract_z
Si Si1 0.291344 0.865523 0.949394
Si Si2 0.000000 0.500000 0.500000
Si Si3 0.739388 0.734245 0.688474
Si Si4 0.198162 0.131050 0.856490
Si Si5 0.367699 0.534225 0.063337
Si Si6 0.186087 0.558836 0.280357
Si Si7 0.682099 0.053328 0.567980
O O1 0.484538 0.872600 0.973359
O O2 0.193162 0.056376 0.088885
O O3 0.522875 0.896484 0.215197
O O4 0.073218 0.673067 0.643707
O O5 0.017978 0.667838 0.791587
O O6 0.596745 0.551463 0.315356
O O7 0.484480 0.697016 0.574277
O O8 0.012614 0.062596 0.771623
O O9 0.234773 0.358583 0.122227
O O10 0.000000 0.000000 0.500000
O O11 0.337752 0.748589 0.276712
O O12 0.500000 0.500000 0.000000
O O13 0.052765 0.395016 0.741436
O O14 0.000000 0.500000 0.000000
O O15 0.500000 0.000000 0.500000
#
# Coordination Sequence:
#
# PCOD9001927 Si02
#       7
#     2   1   2   2   2   2   2
#     4  10  21  36  54  83 108 143 188 224 268 325
#     4  12  22  36  60  76 116 152 186 220 268 324
#     4  10  21  36  54  83 108 143 188 224 268 325
#     4   9  16  30  50  78 107 139 179 227 276 318
#     4   9  19  31  53  83 113 138 174 228 281 326
#     4   9  16  30  50  78 107 139 179 227 276 318
#     4   9  19  31  53  83 113 138 174 228 281 326
#
# _framework density 29.258151999999999
#
# number of rings (size 3 to 8) (size 9 to 14) (size 15 to 20)
#    0.000    2.462    1.538    3.231    2.154    2.462 
#    0.000    0.000    0.000    3.692    0.000    6.462 
#    0.000    0.000    0.000    0.000    0.000    0.000 
#
# Total GULP energy -72591.146324 kJ/mol
# GULP energy per Si atom -5583.934333 kJ/mol
# Density = 2.919156 g / cm^3
# Si number density = 29.258152 Si / 1000 Ang^3
#
#
#
# Elastic Constant Matrix: (Units=GPa)
#
#
# Indices 1 2 3 4 5 6 
#
# 1 228.3756 19.2258 52.1958 -5.5280 56.1872 -32.1160
# 2 19.2258 89.5709 77.6362 12.4920 17.2736 -5.1078
# 3 52.1958 77.6362 192.9731 16.8197 63.2785 -20.7591
# 4 -5.5280 12.4920 16.8197 73.5764 -2.4029 -5.4791
# 5 56.1872 17.2736 63.2785 -2.4029 45.1889 -14.2304
# 6 -32.1160 -5.1078 -20.7591 -5.4791 -14.2304 55.2200
#
#
#
# Elastic Compliance Matrix: (Units=1/GPa)
#
#
# Indices 1 2 3 4 5 6 
#
# 1 0.006888 -0.001428 0.002499 -0.000017 -0.010887 0.002006
# 2 -0.001428 0.018334 -0.009598 -0.000826 0.007917 -0.000785
# 3 0.002499 -0.009598 0.015599 -0.002385 -0.021176 0.000736
# 4 -0.000017 -0.000826 -0.002385 0.014569 0.005004 0.001752
# 5 -0.010887 0.007917 -0.021176 0.005004 0.063606 0.003328
# 6 0.002006 -0.000785 0.000736 0.001752 0.003328 0.020512
#
#
# Mechanical properties :
#
#
# Convention : Reuss Voigt Hill
#
# Bulk Modulus (GPa) = 42.07770 89.89281 65.98525
# Shear Modulus (GPa) = 30.39803 58.92118 44.65961
#
# Velocity S-wave (km/s) = 3.22679 4.49245 3.91115
# Velocity P-wave (km/s) = 5.31936 7.59606 6.55728
#
# Compressibility (1/GPa) = 0.02376556
#
# Stress axis : x y z
#
# Youngs Moduli (GPa) = 145.17959 54.54403 64.10816
#
# Poissons Ratio (x) = 0.07788 -0.16017
# Poissons Ratio (y) = 0.20729 0.61532
# Poissons Ratio (z) = -0.36273 0.52352
#
# Static dielectric constant tensor:
#      x y z
#    x 2.238460 0.433810 -0.288630 
#    y 0.433810 0.921740 0.534340 
#    z -0.288630 0.534340 2.008120 
# 
# From -- ./inp_files/166159.got.cif
#   From: 2010.05.17/outbox.cif.g08.bks.cpg/sg2_84_cif.got.tgz:166159.got - 2010.06.03 11:33:40.
