data_PCOD9001676
_publ_section_title
;
Structure prediction by ZEFSAII (Michael W. Deem and Ramdas Pophale) SiO2 
 PCOD9001676
Probable space group: P -1
;
_chemical_formula_sum "Si O2"
_cell_formula_units_Z 16
_cell_length_a 13.609741
_cell_length_b 13.014167
_cell_length_c 10.992894
_cell_angle_alpha 42.344852
_cell_angle_beta 32.913044
_cell_angle_gamma 53.103829
_cell_volume 711.558245
_symmetry_space_group_name_H-M "P -1"
_symmetry_group_IT_number 2
_symmetry_cell_setting 'triclinic'
loop_
_space_group_symop_operation_xyz
x,y,z
-x,-y,-z
loop_
_atom_site_type_symbol
_atom_site_label
_atom_site_fract_x
_atom_site_fract_y
_atom_site_fract_z
Si Si1 0.768174 0.062428 0.169962
Si Si2 0.254327 0.229917 0.684089
Si Si3 0.974010 0.206327 0.614089
Si Si4 0.475252 0.694301 0.849433
Si Si5 0.249627 0.001020 0.364543
Si Si6 0.334111 0.974397 0.024693
Si Si7 0.258257 0.471280 0.128202
Si Si8 0.851361 0.264908 0.137589
O O1 0.926726 0.124011 0.861959
O O2 0.788492 0.136206 0.215598
O O3 0.590475 0.135418 0.233464
O O4 0.768241 0.883526 0.308885
O O5 0.411390 0.337060 0.366213
O O6 0.065977 0.295295 0.862669
O O7 0.310139 0.115655 0.832994
O O8 0.783158 0.176426 0.767211
O O9 0.072906 0.368618 0.397977
O O10 0.112061 0.109370 0.477577
O O11 0.587898 0.644902 0.891715
O O12 0.290726 0.589907 0.104064
O O13 0.252997 0.017891 0.201455
O O14 0.192448 0.824986 0.614250
O O15 0.453470 0.041673 0.163163
O O16 0.251312 0.583326 0.920333
#
# Coordination Sequence:
#
# PCOD9001676 Si02
#       8
#     2   2   2   2   2   2   2   2
#     4  10  21  35  60  96 124 159 211 256 314 361
#     4  11  21  36  64  94 122 161 213 266 305 365
#     4  11  23  39  65  94 125 162 211 255 311 372
#     4  10  22  38  59  89 139 169 204 249 309 381
#     4  11  23  43  70  88 129 154 216 269 309 363
#     4  10  23  42  67  98 113 165 210 270 318 351
#     4  10  24  39  57  92 133 176 200 245 313 383
#     4  11  22  39  61  92 133 167 200 258 312 376
#
# _framework density 22.485861
#
# number of rings (size 3 to 8) (size 9 to 14) (size 15 to 20)
#    0.000    1.500    2.500    3.375    5.250    5.500 
#    0.000    0.625    0.000    2.250    0.000    0.000 
#    0.000    0.000    0.000    0.000    0.000    0.000 
#
# Total GULP energy -89237.105969 kJ/mol
# GULP energy per Si atom -5577.319123 kJ/mol
# Density = 2.243468 g / cm^3
# Si number density = 22.485861 Si / 1000 Ang^3
#
#
#
# Elastic Constant Matrix: (Units=GPa)
#
#
# Indices 1 2 3 4 5 6 
#
# 1 93.7341 14.6357 34.4516 6.7632 -8.4392 -10.4331
# 2 14.6357 43.0764 30.2971 4.7228 -6.2150 -16.9620
# 3 34.4516 30.2971 120.8073 7.5796 -5.0878 1.1806
# 4 6.7632 4.7228 7.5796 36.9658 6.4948 -5.6820
# 5 -8.4392 -6.2150 -5.0878 6.4948 40.8447 0.8133
# 6 -10.4331 -16.9620 1.1806 -5.6820 0.8133 27.1894
#
#
#
# Elastic Compliance Matrix: (Units=1/GPa)
#
#
# Indices 1 2 3 4 5 6 
#
# 1 0.012804 0.000828 -0.003727 -0.001301 0.002410 0.005247
# 2 0.000828 0.041644 -0.010745 0.000009 0.004637 0.026627
# 3 -0.003727 -0.010745 0.012216 -0.001762 -0.000424 -0.009020
# 4 -0.001301 0.000009 -0.001762 0.029488 -0.005293 0.005904
# 5 0.002410 0.004637 -0.000424 -0.005293 0.026437 0.001939
# 6 0.005247 0.026627 -0.009020 0.005904 0.001939 0.056971
#
#
# Mechanical properties :
#
#
# Convention : Reuss Voigt Hill
#
# Bulk Modulus (GPa) = 25.39728 46.26519 35.83124
# Shear Modulus (GPa) = 22.72997 32.88220 27.80609
#
# Velocity S-wave (km/s) = 3.18285 3.82822 3.52035
# Velocity P-wave (km/s) = 4.98263 6.33721 5.70030
#
# Compressibility (1/GPa) = 0.03937429
#
# Stress axis : x y z
#
# Youngs Moduli (GPa) = 78.10043 24.01323 81.85839
#
# Poissons Ratio (x) = -0.01987 0.30510
# Poissons Ratio (y) = -0.06464 0.87959
# Poissons Ratio (z) = 0.29109 0.25803
#
# Static dielectric constant tensor:
#      x y z
#    x 1.877880 -0.028960 -0.077700 
#    y -0.028960 1.885670 -0.030060 
#    z -0.077700 -0.030060 1.996740 
# 
# From -- ./inp_files/455444.got.cif
#   From: 2010.05.17/outbox.cif.g08.bks.cpg/sg2_228_cif.got.tgz:455444.got - 2010.06.03 11:33:40.
