data_PCOD9001999
_publ_section_title
;
Structure prediction by ZEFSAII (Michael W. Deem and Ramdas Pophale) SiO2 
 PCOD9001999
Probable space group: P -1
;
_chemical_formula_sum "Si O2"
_cell_formula_units_Z 16
_cell_length_a 12.973419
_cell_length_b 4.910361
_cell_length_c 13.378760
_cell_angle_alpha 90.000117
_cell_angle_beta 113.324715
_cell_angle_gamma 89.999857
_cell_volume 782.630573
_symmetry_space_group_name_H-M "P -1"
_symmetry_group_IT_number 2
_symmetry_cell_setting 'triclinic'
loop_
_space_group_symop_operation_xyz
x,y,z
-x,-y,-z
loop_
_atom_site_type_symbol
_atom_site_label
_atom_site_fract_x
_atom_site_fract_y
_atom_site_fract_z
Si Si1 0.126713 0.310110 0.280406
Si Si2 0.236007 0.788799 0.229136
Si Si3 0.600966 0.782524 0.028793
Si Si4 0.399033 0.782525 0.471207
Si Si5 0.236009 0.211196 0.729136
Si Si6 0.873286 0.310112 0.219596
Si Si7 0.293656 0.284933 0.522609
Si Si8 0.293656 0.715069 0.022609
O O1 0.135769 0.593965 0.226251
O O2 0.190223 0.356428 0.410144
O O3 0.999999 0.222048 0.250002
O O4 0.196480 0.093314 0.240833
O O5 0.343148 0.733846 0.341892
O O6 0.267633 0.713720 0.128999
O O7 0.656851 0.733849 0.158108
O O8 0.605125 0.491634 0.972816
O O9 0.683619 0.970839 0.995204
O O10 0.500000 0.000000 0.000000
O O11 0.394875 0.491637 0.527184
O O12 0.500000 0.000000 0.500000
O O13 0.316380 0.970842 0.504795
O O14 0.135770 0.406028 0.726251
O O15 0.267635 0.286280 0.629000
O O16 0.196482 0.906679 0.740832
O O17 0.809778 0.356423 0.089858
#
# Coordination Sequence:
#
# PCOD9001999 Si02
#       8
#     2   2   2   2   2   2   2   2
#     4  10  21  36  56  83 114 148 187 230 276 330
#     4  10  21  37  56  82 113 146 187 232 277 330
#     4  10  21  38  57  81 111 144 186 232 278 330
#     4  10  21  38  57  81 111 144 186 232 278 330
#     4  10  21  37  56  82 113 146 187 232 277 330
#     4  10  21  36  56  83 114 148 187 230 276 330
#     4  10  21  37  57  82 113 146 185 231 276 329
#     4  10  21  37  57  82 113 146 185 231 276 329
#
# _framework density 20.443871999999999
#
# number of rings (size 3 to 8) (size 9 to 14) (size 15 to 20)
#    0.000    2.000    0.000    3.000    0.000    3.000 
#    0.000    2.500    0.000    0.000    0.000    0.000 
#    0.000    0.000    0.000    0.000    0.000    0.000 
#
# Total GULP energy -89143.602991 kJ/mol
# GULP energy per Si atom -5571.475187 kJ/mol
# Density = 2.039734 g / cm^3
# Si number density = 20.443872 Si / 1000 Ang^3
#
#
#
# Elastic Constant Matrix: (Units=GPa)
#
#
# Indices 1 2 3 4 5 6 
#
# 1 62.5148 7.2763 50.2066 -1.1709 -2.7114 -0.9020
# 2 7.2763 106.2200 37.4854 0.0637 -8.2912 -3.2325
# 3 50.2066 37.4854 138.1411 -5.1963 -38.7313 2.0332
# 4 -1.1709 0.0637 -5.1963 14.0535 1.5661 0.3811
# 5 -2.7114 -8.2912 -38.7313 1.5661 23.7764 0.6668
# 6 -0.9020 -3.2325 2.0332 0.3811 0.6668 32.6642
#
#
#
# Elastic Compliance Matrix: (Units=1/GPa)
#
#
# Indices 1 2 3 4 5 6 
#
# 1 0.030112 0.002760 -0.019435 -0.001734 -0.027231 0.002891
# 2 0.002760 0.010778 -0.005239 -0.001306 -0.004419 0.001574
# 3 -0.019435 -0.005239 0.027151 0.004082 0.040017 -0.003610
# 4 -0.001734 -0.001306 0.004082 0.072422 0.001262 -0.001302
# 5 -0.027231 -0.004419 0.040017 0.001262 0.102679 -0.005791
# 6 0.002891 0.001574 -0.003610 -0.001302 -0.005791 0.031208
#
#
# Mechanical properties :
#
#
# Convention : Reuss Voigt Hill
#
# Bulk Modulus (GPa) = 41.30308 55.20138 48.25223
# Shear Modulus (GPa) = 15.32565 28.22600 21.77583
#
# Velocity S-wave (km/s) = 2.74094 3.71975 3.26721
# Velocity P-wave (km/s) = 5.50127 6.74602 6.15519
#
# Compressibility (1/GPa) = 0.02421127
#
# Stress axis : x y z
#
# Youngs Moduli (GPa) = 33.20918 92.78186 36.83126
#
# Poissons Ratio (x) = -0.25604 0.71583
# Poissons Ratio (y) = -0.09164 0.19296
# Poissons Ratio (z) = 0.64544 0.48608
#
# Static dielectric constant tensor:
#      x y z
#    x 1.763990 0.001140 0.020930 
#    y 0.001140 1.748380 0.002980 
#    z 0.020930 0.002980 1.699440 
# 
# From -- ./inp_files/410580.got.cif
#   From: 2010.05.17/outbox.cif.g08.bks.cpg/sg2_206_cif.got.tgz:410580.got - 2010.06.03 11:33:40.
