data_PCOD9001223
_publ_section_title
;
Structure prediction by ZEFSAII (Michael W. Deem and Ramdas Pophale) SiO2 
 PCOD9001223
Probable space group: P -1
;
_chemical_formula_sum "Si O2"
_cell_formula_units_Z 14
_cell_length_a 15.789816
_cell_length_b 14.512484
_cell_length_c 13.163346
_cell_angle_alpha 44.324681
_cell_angle_beta 18.581912
_cell_angle_gamma 46.604012
_cell_volume 671.070087
_symmetry_space_group_name_H-M "P -1"
_symmetry_group_IT_number 2
_symmetry_cell_setting 'triclinic'
loop_
_space_group_symop_operation_xyz
x,y,z
-x,-y,-z
loop_
_atom_site_type_symbol
_atom_site_label
_atom_site_fract_x
_atom_site_fract_y
_atom_site_fract_z
Si Si1 0.440337 0.233821 0.633036
Si Si2 0.962081 0.746642 0.577304
Si Si3 0.809096 0.484927 0.632522
Si Si4 0.271254 0.405769 0.875867
Si Si5 0.204318 0.876923 0.382766
Si Si6 0.992194 0.637087 0.110745
Si Si7 0.299339 0.990247 0.381445
O O1 0.290625 0.289210 0.861932
O O2 0.225013 0.260434 0.769692
O O3 0.550606 0.083390 0.639529
O O4 0.711130 0.312586 0.249316
O O5 0.117210 0.654130 0.395327
O O6 0.121466 0.767052 0.485255
O O7 0.918226 0.890286 0.460909
O O8 0.714109 0.667119 0.972012
O O9 0.882537 0.588116 0.380584
O O10 0.000000 0.500000 0.500000
O O11 0.500000 0.500000 0.000000
O O12 0.500000 0.500000 0.500000
O O13 0.028426 0.512933 0.088378
O O14 0.216324 0.870026 0.496458
O O15 0.000000 0.000000 0.500000
O O16 0.480849 0.929120 0.990146
#
# Coordination Sequence:
#
# PCOD9001223 Si02
#       7
#     2   2   2   2   2   2   2
#     4  11  21  36  60  90 135 166 197 240 314 397
#     4  10  22  38  64  92 125 164 220 262 309 383
#     4  11  25  47  72  91 116 161 222 284 324 355
#     4   9  19  36  55  87 130 168 203 244 308 376
#     4   9  18  33  53  89 128 167 210 235 297 376
#     4  10  23  39  60  91 122 164 210 256 312 376
#     4  10  21  34  57  91 132 172 201 248 310 382
#
# _framework density 20.862200999999999
#
# number of rings (size 3 to 8) (size 9 to 14) (size 15 to 20)
#    0.000    2.000    0.000    3.857    8.000    0.000 
#   10.286    0.000    0.000    5.143    0.000    0.000 
#    0.000    0.000    0.000    0.000    0.000    0.000 
#
# Total GULP energy -77980.192510 kJ/mol
# GULP energy per Si atom -5570.013751 kJ/mol
# Density = 2.081472 g / cm^3
# Si number density = 20.862201 Si / 1000 Ang^3
#
#
#
# Elastic Constant Matrix: (Units=GPa)
#
#
# Indices 1 2 3 4 5 6 
#
# 1 105.8626 52.0863 55.5943 19.6116 0.2161 -11.3810
# 2 52.0863 103.9440 36.6155 2.7189 5.6301 -6.7277
# 3 55.5943 36.6155 121.0108 11.3533 10.7032 2.2362
# 4 19.6116 2.7189 11.3533 20.7900 -0.3134 1.6086
# 5 0.2161 5.6301 10.7032 -0.3134 30.9413 0.4577
# 6 -11.3810 -6.7277 2.2362 1.6086 0.4577 39.8325
#
#
#
# Elastic Compliance Matrix: (Units=1/GPa)
#
#
# Indices 1 2 3 4 5 6 
#
# 1 0.019058 -0.007013 -0.005637 -0.014335 0.002872 0.005123
# 2 -0.007013 0.013536 -0.001218 0.005470 -0.001939 0.000152
# 3 -0.005637 -0.001218 0.011670 -0.000767 -0.003748 -0.002398
# 4 -0.014335 0.005470 -0.000767 0.061762 0.000079 -0.005624
# 5 0.002872 -0.001939 -0.003748 0.000079 0.033945 0.000310
# 6 0.005123 0.000152 -0.002398 -0.005624 0.000310 0.026953
#
#
# Mechanical properties :
#
#
# Convention : Reuss Voigt Hill
#
# Bulk Modulus (GPa) = 60.50874 68.82329 64.66602
# Shear Modulus (GPa) = 24.97889 30.74751 27.86320
#
# Velocity S-wave (km/s) = 3.46400 3.84323 3.65853
# Velocity P-wave (km/s) = 6.71312 7.26326 6.99360
#
# Compressibility (1/GPa) = 0.01652654
#
# Stress axis : x y z
#
# Youngs Moduli (GPa) = 52.47225 73.87839 85.69051
#
# Poissons Ratio (x) = 0.51811 0.48305
# Poissons Ratio (y) = 0.36799 0.10439
# Poissons Ratio (z) = 0.29580 0.09000
#
# Static dielectric constant tensor:
#      x y z
#    x 1.828710 -0.108770 -0.090070 
#    y -0.108770 2.106550 0.023710 
#    z -0.090070 0.023710 1.828710 
# 
# From -- ./inp_files/362856.got.cif
#   From: 2010.05.17/outbox.cif.g08.bks.cpg/sg2_182_cif.got.tgz:362856.got - 2010.06.03 11:33:40.
