data_PCOD9001900
_publ_section_title
;
Structure prediction by ZEFSAII (Michael W. Deem and Ramdas Pophale) SiO2 
 PCOD9001900
Probable space group: P -1
;
_chemical_formula_sum "Si O2"
_cell_formula_units_Z 14
_cell_length_a 6.898144
_cell_length_b 9.551148
_cell_length_c 11.873145
_cell_angle_alpha 103.406236
_cell_angle_beta 94.824076
_cell_angle_gamma 45.587663
_cell_volume 540.112543
_symmetry_space_group_name_H-M "P -1"
_symmetry_group_IT_number 2
_symmetry_cell_setting 'triclinic'
loop_
_space_group_symop_operation_xyz
x,y,z
-x,-y,-z
loop_
_atom_site_type_symbol
_atom_site_label
_atom_site_fract_x
_atom_site_fract_y
_atom_site_fract_z
Si Si1 0.002004 0.635862 0.220070
Si Si2 0.613330 0.588984 0.136131
Si Si3 0.523171 0.028042 0.376502
Si Si4 0.195293 0.927494 0.324079
Si Si5 0.078191 0.194249 0.998810
Si Si6 0.469849 0.241872 0.085601
Si Si7 0.382332 0.721086 0.542781
O O1 0.816636 0.587847 0.216065
O O2 0.319437 0.426991 0.199635
O O3 0.841555 0.836426 0.323549
O O4 0.957564 0.705990 0.102390
O O5 0.789477 0.353768 0.079104
O O6 0.321007 0.744689 0.210861
O O7 0.572104 0.679333 0.028355
O O8 0.340035 0.001640 0.304843
O O9 0.435463 0.238475 0.398457
O O10 0.500000 0.000000 0.500000
O O11 0.882873 0.132185 0.363380
O O12 0.295292 0.818444 0.431034
O O13 0.290471 0.186516 0.075516
O O14 0.220543 0.971344 0.932674
O O15 0.500000 0.500000 0.500000
#
# Coordination Sequence:
#
# PCOD9001900 Si02
#       7
#     2   2   2   2   2   2   2
#     4   8  14  26  42  66  99 129 161 203 247 294
#     4   8  14  25  44  68  96 129 163 201 245 296
#     4   9  18  35  56  76 103 138 173 211 257 306
#     4   9  19  36  54  76 106 136 170 213 256 303
#     4   8  13  22  39  67  99 126 158 203 247 290
#     4   8  13  22  40  67  96 127 163 200 244 296
#     4  10  21  36  54  77 104 135 172 214 260 306
#
# _framework density 25.920521999999998
#
# number of rings (size 3 to 8) (size 9 to 14) (size 15 to 20)
#    0.000    3.429    0.000    1.714    0.000    1.714 
#    0.000   12.857    0.000    3.429    0.000    6.000 
#    0.000    0.000    0.000    0.000    0.000    0.000 
#
# Total GULP energy -78170.392356 kJ/mol
# GULP energy per Si atom -5583.599454 kJ/mol
# Density = 2.586153 g / cm^3
# Si number density = 25.920522 Si / 1000 Ang^3
#
#
#
# Elastic Constant Matrix: (Units=GPa)
#
#
# Indices 1 2 3 4 5 6 
#
# 1 98.2414 34.9337 24.6473 29.3925 -6.9696 20.0109
# 2 34.9337 140.3752 55.1741 52.4191 -9.8022 14.3737
# 3 24.6473 55.1741 160.7095 47.8925 -43.2031 -2.9732
# 4 29.3925 52.4191 47.8925 60.6426 -8.2792 6.6769
# 5 -6.9696 -9.8022 -43.2031 -8.2792 40.7756 17.5025
# 6 20.0109 14.3737 -2.9732 6.6769 17.5025 33.3172
#
#
#
# Elastic Compliance Matrix: (Units=1/GPa)
#
#
# Indices 1 2 3 4 5 6 
#
# 1 0.014439 -0.000420 0.001373 -0.005454 0.007537 -0.011235
# 2 -0.000420 0.011103 -0.001040 -0.007939 0.001534 -0.003845
# 3 0.001373 -0.001040 0.011880 -0.006785 0.013321 -0.004954
# 4 -0.005454 -0.007939 -0.006785 0.030385 -0.004988 0.002627
# 5 0.007537 0.001534 0.013321 -0.004988 0.052383 -0.030519
# 6 -0.011235 -0.003845 -0.004954 0.002627 -0.030519 0.053485
#
#
# Mechanical properties :
#
#
# Convention : Reuss Voigt Hill
#
# Bulk Modulus (GPa) = 26.84649 69.87069 48.35859
# Shear Modulus (GPa) = 26.84372 45.91847 36.38109
#
# Velocity S-wave (km/s) = 3.22159 4.21350 3.75048
# Velocity P-wave (km/s) = 4.92117 7.11939 6.11979
#
# Compressibility (1/GPa) = 0.03724882
#
# Stress axis : x y z
#
# Youngs Moduli (GPa) = 69.25841 90.06890 84.17335
#
# Poissons Ratio (x) = 0.03779 -0.11561
# Poissons Ratio (y) = 0.02906 0.08756
# Poissons Ratio (z) = -0.09512 0.09369
#
# Static dielectric constant tensor:
#      x y z
#    x 2.229540 0.019170 0.042630 
#    y 0.019170 2.034220 0.050700 
#    z 0.042630 0.050700 2.022680 
# 
# From -- ./inp_files/196399.got.cif
#   From: 2010.05.17/outbox.cif.g08.bks.cpg/sg2_99_cif.got.tgz:196399.got - 2010.06.03 11:33:40.
