data_PCOD9001131
_publ_section_title
;
Structure prediction by ZEFSAII (Michael W. Deem and Ramdas Pophale) SiO2 
 PCOD9001131
Probable space group: P -1
;
_chemical_formula_sum "Si O2"
_cell_formula_units_Z 16
_cell_length_a 10.237044
_cell_length_b 7.138910
_cell_length_c 22.877145
_cell_angle_alpha 128.505034
_cell_angle_beta 39.046116
_cell_angle_gamma 137.630089
_cell_volume 705.063695
_symmetry_space_group_name_H-M "P -1"
_symmetry_group_IT_number 2
_symmetry_cell_setting 'triclinic'
loop_
_space_group_symop_operation_xyz
x,y,z
-x,-y,-z
loop_
_atom_site_type_symbol
_atom_site_label
_atom_site_fract_x
_atom_site_fract_y
_atom_site_fract_z
Si Si1 0.777444 0.207010 0.836275
Si Si2 0.362025 0.531801 0.369711
Si Si3 0.702417 0.545119 0.348636
Si Si4 0.239797 0.563103 0.003792
Si Si5 0.777110 0.093881 0.302567
Si Si6 0.253830 0.285894 0.102729
Si Si7 0.263928 0.827429 0.928691
Si Si8 0.843655 0.127675 0.425118
O O1 0.774287 0.486878 0.878834
O O2 0.039145 0.277835 0.740520
O O3 0.732766 0.178820 0.916192
O O4 0.540771 0.969356 0.838801
O O5 0.489736 0.433361 0.353036
O O6 0.128758 0.285768 0.371295
O O7 0.263363 0.705300 0.472953
O O8 0.570824 0.768601 0.301959
O O9 0.804313 0.135789 0.371113
O O10 0.707192 0.803634 0.430546
O O11 0.476858 0.550297 0.931823
O O12 0.242412 0.610271 0.943027
O O13 0.037436 0.684323 0.936335
O O14 0.032485 0.160174 0.200402
O O15 0.709308 0.306983 0.337314
O O16 0.241022 0.058780 0.018232
#
# Coordination Sequence:
#
# PCOD9001131 Si02
#       8
#     2   2   2   2   2   2   2   2
#     4  10  21  36  54  78 110 146 186 232 277 329
#     4  10  23  41  62  89 119 153 192 237 293 355
#     4  10  22  39  62  90 119 154 195 241 292 345
#     4  10  21  34  53  79 108 148 189 227 276 329
#     4  10  22  39  62  90 119 154 195 241 292 345
#     4  10  21  36  54  78 110 146 186 232 277 329
#     4  10  21  34  53  79 108 148 189 227 276 329
#     4  10  23  41  62  89 119 153 192 237 293 355
#
# _framework density 22.692986999999999
#
# number of rings (size 3 to 8) (size 9 to 14) (size 15 to 20)
#    0.000    2.000    0.000    4.500    7.000    7.000 
#    0.000    7.500    0.000    0.000    0.000    0.000 
#    0.000    0.000    0.000    0.000    0.000    0.000 
#
# Total GULP energy -89366.764155 kJ/mol
# GULP energy per Si atom -5585.422760 kJ/mol
# Density = 2.264134 g / cm^3
# Si number density = 22.692987 Si / 1000 Ang^3
#
#
#
# Elastic Constant Matrix: (Units=GPa)
#
#
# Indices 1 2 3 4 5 6 
#
# 1 135.3907 55.6419 23.3846 -5.5896 -42.4486 12.9116
# 2 55.6419 61.6992 0.1189 -13.7341 -14.6127 18.5739
# 3 23.3846 0.1189 77.4224 -14.4312 -23.6293 7.1539
# 4 -5.5896 -13.7341 -14.4312 35.4441 1.8195 -17.3903
# 5 -42.4486 -14.6127 -23.6293 1.8195 37.4789 -9.7928
# 6 12.9116 18.5739 7.1539 -17.3903 -9.7928 46.3415
#
#
#
# Elastic Compliance Matrix: (Units=1/GPa)
#
#
# Indices 1 2 3 4 5 6 
#
# 1 0.017397 -0.013788 -0.001651 -0.002537 0.014189 0.002980
# 2 -0.013788 0.032515 0.006143 0.009662 -0.001309 -0.006790
# 3 -0.001651 0.006143 0.018869 0.009848 0.012304 0.001381
# 4 -0.002537 0.009662 0.009848 0.041313 0.008386 0.012590
# 5 0.014189 -0.001309 0.012304 0.008386 0.051888 0.008783
# 6 0.002980 -0.006790 0.001381 0.012590 0.008783 0.029837
#
#
# Mechanical properties :
#
#
# Convention : Reuss Voigt Hill
#
# Bulk Modulus (GPa) = 19.92437 48.08922 34.00680
# Shear Modulus (GPa) = 22.01289 36.87735 29.44512
#
# Velocity S-wave (km/s) = 3.11791 4.03557 3.60605
# Velocity P-wave (km/s) = 4.66485 6.55375 5.68826
#
# Compressibility (1/GPa) = 0.05018978
#
# Stress axis : x y z
#
# Youngs Moduli (GPa) = 57.48013 30.75546 52.99779
#
# Poissons Ratio (x) = 0.42404 0.08751
# Poissons Ratio (y) = 0.79251 -0.32558
# Poissons Ratio (z) = 0.09491 -0.18894
#
# Static dielectric constant tensor:
#      x y z
#    x 1.877970 -0.006480 0.023180 
#    y -0.006480 1.887860 -0.015250 
#    z 0.023180 -0.015250 1.907620 
# 
# From -- ./inp_files/618094.got.cif
#   From: 2010.05.17/outbox.cif.g08.bks.cpg/sg2_310_cif.got.tgz:618094.got - 2010.06.03 11:33:40.
