data_PCOD9001373
_publ_section_title
;
Structure prediction by ZEFSAII (Michael W. Deem and Ramdas Pophale) SiO2 
 PCOD9001373
Probable space group: P -1
;
_chemical_formula_sum "Si O2"
_cell_formula_units_Z 16
_cell_length_a 13.641920
_cell_length_b 11.578434
_cell_length_c 9.194134
_cell_angle_alpha 34.780532
_cell_angle_beta 57.189847
_cell_angle_gamma 55.319724
_cell_volume 672.579429
_symmetry_space_group_name_H-M "P -1"
_symmetry_group_IT_number 2
_symmetry_cell_setting 'triclinic'
loop_
_space_group_symop_operation_xyz
x,y,z
-x,-y,-z
loop_
_atom_site_type_symbol
_atom_site_label
_atom_site_fract_x
_atom_site_fract_y
_atom_site_fract_z
Si Si1 0.831973 0.580236 0.707449
Si Si2 0.445220 0.896460 0.750530
Si Si3 0.838612 0.954090 0.132426
Si Si4 0.432382 0.692813 0.518792
Si Si5 0.420961 0.408628 0.220188
Si Si6 0.777274 0.932359 0.634754
Si Si7 0.590944 0.751994 0.077030
Si Si8 0.047474 0.878310 0.851272
O O1 0.873067 0.709240 0.409692
O O2 0.713545 0.519987 0.807513
O O3 0.792760 0.757776 0.678405
O O4 0.919354 0.373539 0.919874
O O5 0.559818 0.857940 0.555369
O O6 0.303927 0.954421 0.854725
O O7 0.454745 0.651039 0.930444
O O8 0.528940 0.852191 0.873297
O O9 0.886828 0.070060 0.107076
O O10 0.907830 0.970398 0.910329
O O11 0.547132 0.614394 0.611596
O O12 0.486606 0.794033 0.237929
O O13 0.382581 0.498846 0.708429
O O14 0.327142 0.852462 0.526021
O O15 0.898408 0.012437 0.437341
O O16 0.713887 0.826272 0.922747
#
# Coordination Sequence:
#
# PCOD9001373 Si02
#       8
#     2   2   2   2   2   2   2   2
#     4  11  20  34  56  85 120 154 191 246 292 340
#     4  12  20  35  59  87 121 148 189 236 299 345
#     4  10  21  35  53  84 122 155 194 243 289 349
#     4  11  24  37  58  89 123 157 193 238 301 357
#     4  12  19  32  56  88 117 148 187 233 293 352
#     4  11  20  36  58  83 114 156 194 239 287 354
#     4  11  23  40  55  89 126 156 188 244 301 354
#     4  10  21  35  55  84 118 155 200 238 292 340
#
# _framework density 23.789013000000001
#
# number of rings (size 3 to 8) (size 9 to 14) (size 15 to 20)
#    0.000    1.000    3.750    6.000    0.000    0.000 
#    0.000    0.000    0.000    0.750    0.000    2.625 
#    0.000    0.000    0.000    0.000    0.000    0.000 
#
# Total GULP energy -89278.001437 kJ/mol
# GULP energy per Si atom -5579.875090 kJ/mol
# Density = 2.373487 g / cm^3
# Si number density = 23.789013 Si / 1000 Ang^3
#
#
#
# Elastic Constant Matrix: (Units=GPa)
#
#
# Indices 1 2 3 4 5 6 
#
# 1 29.8374 25.7654 17.8655 5.6420 -9.6119 -4.4506
# 2 25.7654 131.1882 71.0862 3.0131 -26.6044 -13.6442
# 3 17.8655 71.0862 166.1775 15.2156 -18.4117 -10.6337
# 4 5.6420 3.0131 15.2156 45.3652 1.9537 -5.6341
# 5 -9.6119 -26.6044 -18.4117 1.9537 28.9480 7.7324
# 6 -4.4506 -13.6442 -10.6337 -5.6341 7.7324 22.6228
#
#
#
# Elastic Compliance Matrix: (Units=1/GPa)
#
#
# Indices 1 2 3 4 5 6 
#
# 1 0.042986 -0.006318 -0.000503 -0.005087 0.008419 0.000265
# 2 -0.006318 0.012473 -0.003937 0.001353 0.006049 0.002698
# 3 -0.000503 -0.003937 0.008163 -0.002449 0.001508 0.000238
# 4 -0.005087 0.001353 -0.002449 0.024462 -0.005420 0.006608
# 5 0.008419 0.006049 0.001508 -0.005420 0.047297 -0.011502
# 6 0.000265 0.002698 0.000238 0.006608 -0.011502 0.051572
#
#
# Mechanical properties :
#
#
# Convention : Reuss Voigt Hill
#
# Bulk Modulus (GPa) = 23.75050 61.84857 42.79953
# Shear Modulus (GPa) = 22.47151 33.55294 28.01222
#
# Velocity S-wave (km/s) = 3.07680 3.75965 3.43524
# Velocity P-wave (km/s) = 4.75686 6.70089 5.81075
#
# Compressibility (1/GPa) = 0.04210438
#
# Stress axis : x y z
#
# Youngs Moduli (GPa) = 23.26364 80.17029 122.51003
#
# Poissons Ratio (x) = 0.50652 0.06163
# Poissons Ratio (y) = 0.14698 0.48238
# Poissons Ratio (z) = 0.01170 0.31567
#
# Static dielectric constant tensor:
#      x y z
#    x 1.817440 0.045410 -0.061040 
#    y 0.045410 1.968400 -0.009580 
#    z -0.061040 -0.009580 2.002850 
# 
# From -- ./inp_files/465732.got.cif
#   From: 2010.05.17/outbox.cif.g08.bks.cpg/sg2_233_cif.got.tgz:465732.got - 2010.06.03 11:33:40.
