data_PCOD9001925
_publ_section_title
;
Structure prediction by ZEFSAII (Michael W. Deem and Ramdas Pophale) SiO2 
 PCOD9001925
Probable space group: P -1
;
_chemical_formula_sum "Si O2"
_cell_formula_units_Z 14
_cell_length_a 5.406687
_cell_length_b 22.849693
_cell_length_c 6.503333
_cell_angle_alpha 115.565132
_cell_angle_beta 53.006813
_cell_angle_gamma 101.612594
_cell_volume 576.975883
_symmetry_space_group_name_H-M "P -1"
_symmetry_group_IT_number 2
_symmetry_cell_setting 'triclinic'
loop_
_space_group_symop_operation_xyz
x,y,z
-x,-y,-z
loop_
_atom_site_type_symbol
_atom_site_label
_atom_site_fract_x
_atom_site_fract_y
_atom_site_fract_z
Si Si1 0.426805 0.826508 0.109452
Si Si2 0.704610 0.442702 0.924561
Si Si3 0.810667 0.714543 0.956161
Si Si4 0.555504 0.316743 0.547107
Si Si5 0.405704 0.939661 0.588302
Si Si6 0.332756 0.403226 0.405072
Si Si7 0.195160 0.111172 0.331718
O O1 0.541674 0.875517 0.299581
O O2 0.057706 0.845755 0.336420
O O3 0.543449 0.755984 0.027023
O O4 0.600192 0.844930 0.844309
O O5 0.601114 0.435913 0.200855
O O6 0.500000 0.500000 0.000000
O O7 0.653060 0.372315 0.740642
O O8 0.062281 0.450223 0.710475
O O9 0.813192 0.640173 0.764688
O O10 0.150420 0.732230 0.740656
O O11 0.714629 0.716022 0.244603
O O12 0.446604 0.355047 0.456431
O O13 0.571852 0.934660 0.716154
O O14 0.035926 0.930725 0.751492
O O15 0.500000 0.000000 0.500000
#
# Coordination Sequence:
#
# PCOD9001925 Si02
#       7
#     2   2   2   2   2   2   2
#     4  10  24  39  63  91 123 160 208 255 311 372
#     4  10  21  36  54  82 116 147 195 240 285 352
#     4  10  21  39  57  85 114 148 195 240 294 354
#     4  10  21  36  60  82 115 152 189 241 294 352
#     4  10  24  43  65  94 127 166 208 258 314 374
#     4  10  21  36  56  82 111 153 191 236 298 344
#     4  10  24  40  65  91 126 163 208 254 317 368
#
# _framework density 24.264448999999999
#
# number of rings (size 3 to 8) (size 9 to 14) (size 15 to 20)
#    0.857    1.143    0.000    2.571    2.000    4.571 
#    0.000    0.000    0.000    0.000    0.000    0.000 
#    0.000    0.000    0.000    0.000    0.000    0.000 
#
# Total GULP energy -78209.952479 kJ/mol
# GULP energy per Si atom -5586.425177 kJ/mol
# Density = 2.420922 g / cm^3
# Si number density = 24.264449 Si / 1000 Ang^3
#
#
#
# Elastic Constant Matrix: (Units=GPa)
#
#
# Indices 1 2 3 4 5 6 
#
# 1 102.6557 30.5071 51.7407 -11.8106 -10.9107 -17.4813
# 2 30.5071 80.1670 44.8185 -19.4270 -0.2336 -4.4773
# 3 51.7407 44.8185 180.2640 -40.6991 -11.8967 -1.5433
# 4 -11.8106 -19.4270 -40.6991 45.9913 -3.6809 8.6923
# 5 -10.9107 -0.2336 -11.8967 -3.6809 12.0896 -6.8735
# 6 -17.4813 -4.4773 -1.5433 8.6923 -6.8735 47.1257
#
#
#
# Elastic Compliance Matrix: (Units=1/GPa)
#
#
# Indices 1 2 3 4 5 6 
#
# 1 0.014925 -0.003982 -0.002203 0.000050 0.015403 0.007323
# 2 -0.003982 0.016099 -0.002457 0.003441 -0.005485 -0.001463
# 3 -0.002203 -0.002457 0.008961 0.007164 0.008485 -0.000841
# 4 0.000050 0.003441 0.007164 0.031317 0.014984 -0.003011
# 5 0.015403 -0.005485 0.008485 0.014984 0.120995 0.020354
# 6 0.007323 -0.001463 -0.000841 -0.003011 0.020354 0.027294
#
#
# Mechanical properties :
#
#
# Convention : Reuss Voigt Hill
#
# Bulk Modulus (GPa) = 44.05320 68.57993 56.31657
# Shear Modulus (GPa) = 20.45454 36.77602 28.61528
#
# Velocity S-wave (km/s) = 2.90657 3.89734 3.43783
# Velocity P-wave (km/s) = 5.42762 6.96974 6.24645
#
# Compressibility (1/GPa) = 0.02269982
#
# Stress axis : x y z
#
# Youngs Moduli (GPa) = 67.00084 62.11473 111.59282
#
# Poissons Ratio (x) = 0.24733 0.24589
# Poissons Ratio (y) = 0.26679 0.27424
# Poissons Ratio (z) = 0.14763 0.15265
#
# Static dielectric constant tensor:
#      x y z
#    x 1.989060 0.063960 0.009680 
#    y 0.063960 1.878060 0.027020 
#    z 0.009680 0.027020 1.968850 
# 
# From -- ./inp_files/11769.got.cif
#   From: 2010.05.17/outbox.cif.g08.bks.cpg/sg2_6_cif.got.tgz:11769.got - 2010.06.03 11:33:40.
