data_PCOD9001801
_publ_section_title
;
Structure prediction by ZEFSAII (Michael W. Deem and Ramdas Pophale) SiO2 
 PCOD9001801
Probable space group: P -1
;
_chemical_formula_sum "Si O2"
_cell_formula_units_Z 12
_cell_length_a 9.180948
_cell_length_b 13.116880
_cell_length_c 14.311827
_cell_angle_alpha 43.230793
_cell_angle_beta 37.686700
_cell_angle_gamma 27.049378
_cell_volume 477.399345
_symmetry_space_group_name_H-M "P -1"
_symmetry_group_IT_number 2
_symmetry_cell_setting 'triclinic'
loop_
_space_group_symop_operation_xyz
x,y,z
-x,-y,-z
loop_
_atom_site_type_symbol
_atom_site_label
_atom_site_fract_x
_atom_site_fract_y
_atom_site_fract_z
Si Si1 0.604845 0.281468 0.116585
Si Si2 0.347736 0.004823 0.839921
Si Si3 0.456318 0.663504 0.547092
Si Si4 0.293229 0.910108 0.289114
Si Si5 0.631473 0.604361 0.154701
Si Si6 0.187688 0.569581 0.303460
O O1 0.445693 0.346893 0.257005
O O2 0.462636 0.214108 0.169165
O O3 0.500000 0.500000 0.000000
O O4 0.028352 0.084126 0.011628
O O5 0.584296 0.987969 0.802267
O O6 0.160065 0.207244 0.725088
O O7 0.491038 0.707095 0.397037
O O8 0.324455 0.555497 0.690204
O O9 0.802526 0.499518 0.549185
O O10 0.131910 0.906942 0.598401
O O11 0.409173 0.825501 0.181657
O O12 0.413519 0.619277 0.174378
O O13 0.000000 0.500000 0.000000
#
# Coordination Sequence:
#
# PCOD9001801 Si02
#       6
#     2   2   2   2   2   2
#     4   9  19  38  57  87 127 151 200 256 310 361
#     4  10  21  35  64  87 117 164 203 252 311 354
#     4   9  24  40  60  91 129 165 203 249 313 360
#     4  11  22  42  63  90 126 166 205 252 307 375
#     4  10  22  39  65  92 122 162 206 254 309 360
#     4   9  21  37  58  91 120 158 205 254 299 361
#
# _framework density 25.136189000000002
#
# number of rings (size 3 to 8) (size 9 to 14) (size 15 to 20)
#    1.000    1.333    0.000    1.500    2.333    8.000 
#    0.000    0.833    0.000    0.000    0.000    0.000 
#    0.000    0.000    0.000    0.000    0.000    0.000 
#
# Total GULP energy -66989.162039 kJ/mol
# GULP energy per Si atom -5582.430170 kJ/mol
# Density = 2.507898 g / cm^3
# Si number density = 25.136189 Si / 1000 Ang^3
#
#
#
# Elastic Constant Matrix: (Units=GPa)
#
#
# Indices 1 2 3 4 5 6 
#
# 1 131.5846 62.0829 29.9860 21.7090 9.5848 30.1336
# 2 62.0829 96.2778 20.1608 0.8873 18.8361 29.5306
# 3 29.9860 20.1608 76.4478 5.3741 21.2583 4.7630
# 4 21.7090 0.8873 5.3741 46.3686 -3.6260 9.2552
# 5 9.5848 18.8361 21.2583 -3.6260 38.4652 2.9532
# 6 30.1336 29.5306 4.7630 9.2552 2.9532 48.3975
#
#
#
# Elastic Compliance Matrix: (Units=1/GPa)
#
#
# Indices 1 2 3 4 5 6 
#
# 1 0.013010 -0.007254 -0.003186 -0.004938 0.001800 -0.002526
# 2 -0.007254 0.018457 -0.000124 0.003990 -0.006239 -0.007115
# 3 -0.003186 -0.000124 0.016789 -0.001366 -0.008644 0.001196
# 4 -0.004938 0.003990 -0.001366 0.025005 0.002709 -0.004172
# 5 0.001800 -0.006239 -0.008644 0.002709 0.033563 0.000971
# 6 -0.002526 -0.007115 0.001196 -0.004172 0.000971 0.027198
#
#
# Mechanical properties :
#
#
# Convention : Reuss Voigt Hill
#
# Bulk Modulus (GPa) = 36.86353 58.75219 47.80786
# Shear Modulus (GPa) = 30.45222 39.45163 34.95192
#
# Velocity S-wave (km/s) = 3.48442 3.96601 3.73299
# Velocity P-wave (km/s) = 5.55748 6.66308 6.13523
#
# Compressibility (1/GPa) = 0.02712708
#
# Stress axis : x y z
#
# Youngs Moduli (GPa) = 76.86143 54.18143 59.56422
#
# Poissons Ratio (x) = 0.39303 0.18978
# Poissons Ratio (y) = 0.55755 0.00739
# Poissons Ratio (z) = 0.24489 0.00673
#
# Static dielectric constant tensor:
#      x y z
#    x 2.025430 -0.011340 -0.067210 
#    y -0.011340 2.020800 -0.081810 
#    z -0.067210 -0.081810 2.072240 
# 
# From -- ./inp_files/499959.got.cif
#   From: 2010.05.17/outbox.cif.g08.bks.cpg/sg2_250_cif.got.tgz:499959.got - 2010.06.03 11:33:40.
