data_PCOD9001991
_publ_section_title
;
Structure prediction by ZEFSAII (Michael W. Deem and Ramdas Pophale) SiO2 
 PCOD9001991
Probable space group: P -1
;
_chemical_formula_sum "Si O2"
_cell_formula_units_Z 16
_cell_length_a 16.516197
_cell_length_b 7.907971
_cell_length_c 7.389933
_cell_angle_alpha 49.845306
_cell_angle_beta 83.534780
_cell_angle_gamma 113.697244
_cell_volume 572.316322
_symmetry_space_group_name_H-M "P -1"
_symmetry_group_IT_number 2
_symmetry_cell_setting 'triclinic'
loop_
_space_group_symop_operation_xyz
x,y,z
-x,-y,-z
loop_
_atom_site_type_symbol
_atom_site_label
_atom_site_fract_x
_atom_site_fract_y
_atom_site_fract_z
Si Si1 0.620730 0.209383 0.494033
Si Si2 0.872520 0.888719 0.266242
Si Si3 0.092393 0.592725 0.051297
Si Si4 0.459541 0.309245 0.324437
Si Si5 0.041961 0.872926 0.322946
Si Si6 0.585002 0.863471 0.068924
Si Si7 0.269151 0.260677 0.061677
Si Si8 0.728819 0.394253 0.890219
O O1 0.540240 0.254801 0.405372
O O2 0.631129 0.003916 0.513646
O O3 0.577744 0.055922 0.800445
O O4 0.723730 0.530622 0.234079
O O5 0.784175 0.565439 0.571355
O O6 0.972565 0.975801 0.300034
O O7 0.835264 0.068061 0.203169
O O8 0.920703 0.019824 0.966032
O O9 0.175989 0.537788 0.058304
O O10 0.035846 0.446730 0.359935
O O11 0.000000 0.500000 0.000000
O O12 0.500000 0.500000 0.000000
O O13 0.477269 0.537983 0.307385
O O14 0.149475 0.006850 0.304240
O O15 0.671697 0.845613 0.968929
O O16 0.640732 0.063223 0.092312
O O17 0.310715 0.455048 0.098313
#
# Coordination Sequence:
#
# PCOD9001991 Si02
#       8
#     2   2   2   2   2   2   2   2
#     4   9  18  35  62  89 116 156 194 234 294 354
#     4  10  21  38  57  79 114 155 203 254 299 354
#     4  11  22  37  57  81 116 162 205 250 303 353
#     4   8  16  35  63  89 116 153 193 233 288 355
#     4  10  21  36  56  81 112 156 203 249 301 355
#     4  10  21  38  60  86 119 155 194 243 294 350
#     4  11  22  36  56  86 120 150 194 246 295 351
#     4  11  24  39  58  89 121 157 204 248 299 354
#
# _framework density 27.956569999999999
#
# number of rings (size 3 to 8) (size 9 to 14) (size 15 to 20)
#    0.000    2.000    0.000    3.375    0.000    8.000 
#    0.000    0.625    0.000   25.500    0.000    0.000 
#    0.000    0.000    0.000    0.000    0.000    0.000 
#
# Total GULP energy -89227.240107 kJ/mol
# GULP energy per Si atom -5576.702507 kJ/mol
# Density = 2.789294 g / cm^3
# Si number density = 27.956570 Si / 1000 Ang^3
#
#
#
# Elastic Constant Matrix: (Units=GPa)
#
#
# Indices 1 2 3 4 5 6 
#
# 1 96.1632 32.1855 38.6117 -1.6589 -4.7734 -7.3003
# 2 32.1855 88.1432 26.9743 13.3438 8.9323 -0.6100
# 3 38.6117 26.9743 139.5456 -6.9113 7.0720 -3.3057
# 4 -1.6589 13.3438 -6.9113 66.1663 6.3347 -1.9355
# 5 -4.7734 8.9323 7.0720 6.3347 41.3477 0.2365
# 6 -7.3003 -0.6100 -3.3057 -1.9355 0.2365 34.9301
#
#
#
# Elastic Compliance Matrix: (Units=1/GPa)
#
#
# Indices 1 2 3 4 5 6 
#
# 1 0.013371 -0.004374 -0.002906 0.000712 0.002862 0.002463
# 2 -0.004374 0.014132 -0.001542 -0.002876 -0.002848 -0.000953
# 3 -0.002906 -0.001542 0.008421 0.001282 -0.001640 0.000245
# 4 0.000712 -0.002876 0.001282 0.016068 -0.001984 0.001124
# 5 0.002862 -0.002848 -0.001640 -0.001984 0.025715 0.000109
# 6 0.002463 -0.000953 0.000245 0.001124 0.000109 0.029211
#
#
# Mechanical properties :
#
#
# Convention : Reuss Voigt Hill
#
# Bulk Modulus (GPa) = 54.70522 57.71055 56.20789
# Shear Modulus (GPa) = 38.26899 43.56085 40.91492
#
# Velocity S-wave (km/s) = 3.70384 3.95164 3.82974
# Velocity P-wave (km/s) = 6.15643 6.44270 6.30119
#
# Compressibility (1/GPa) = 0.01827979
#
# Stress axis : x y z
#
# Youngs Moduli (GPa) = 74.78883 70.76318 118.75630
#
# Poissons Ratio (x) = 0.30952 0.34506
# Poissons Ratio (y) = 0.32712 0.18313
# Poissons Ratio (z) = 0.21731 0.10912
#
# Static dielectric constant tensor:
#      x y z
#    x 2.149090 0.042440 0.005020 
#    y 0.042440 2.367150 0.043220 
#    z 0.005020 0.043220 2.184450 
# 
# From -- ./inp_files/53670.got.cif
#   From: 2010.05.17/outbox.cif.g08.bks.cpg/sg2_27_cif.got.tgz:53670.got - 2010.06.03 11:33:40.
