data_PCOD9001757
_publ_section_title
;
Structure prediction by ZEFSAII (Michael W. Deem and Ramdas Pophale) SiO2 
 PCOD9001757
Probable space group: P -1
;
_chemical_formula_sum "Si O2"
_cell_formula_units_Z 16
_cell_length_a 9.611036
_cell_length_b 9.649355
_cell_length_c 9.968788
_cell_angle_alpha 109.441693
_cell_angle_beta 60.673660
_cell_angle_gamma 117.942335
_cell_volume 705.621462
_symmetry_space_group_name_H-M "P -1"
_symmetry_group_IT_number 2
_symmetry_cell_setting 'triclinic'
loop_
_space_group_symop_operation_xyz
x,y,z
-x,-y,-z
loop_
_atom_site_type_symbol
_atom_site_label
_atom_site_fract_x
_atom_site_fract_y
_atom_site_fract_z
Si Si1 0.179769 0.667921 0.877392
Si Si2 0.617554 0.222276 0.811407
Si Si3 0.993943 0.456124 0.648192
Si Si4 0.284276 0.372014 0.403133
Si Si5 0.535020 0.733390 0.388079
Si Si6 0.454478 0.120219 0.305694
Si Si7 0.162225 0.336407 0.883750
Si Si8 0.647794 0.664546 0.938845
O O1 0.091290 0.596206 0.752580
O O2 0.354731 0.812304 0.821340
O O3 0.217551 0.524034 0.885194
O O4 0.042266 0.716120 0.040854
O O5 0.531477 0.234585 0.713325
O O6 0.803332 0.362860 0.764016
O O7 0.641121 0.056735 0.754364
O O8 0.469514 0.229517 0.984681
O O9 0.109276 0.348215 0.554632
O O10 0.000000 0.500000 0.500000
O O11 0.411726 0.553734 0.428555
O O12 0.365639 0.245039 0.359385
O O13 0.266173 0.355437 0.245517
O O14 0.526231 0.861893 0.537526
O O15 0.725780 0.731178 0.284124
O O16 0.216683 0.297719 0.992883
O O17 0.500000 0.500000 0.000000
#
# Coordination Sequence:
#
# PCOD9001757 Si02
#       8
#     2   2   2   2   2   2   2   2
#     4  11  21  37  62  93 125 158 210 260 295 368
#     4  11  25  40  64  93 126 164 199 261 315 359
#     4  12  22  38  63  95 119 163 220 251 295 369
#     4  12  22  37  67  90 123 166 209 253 305 368
#     4  11  20  41  63  91 119 171 207 246 304 378
#     4  12  24  41  60  95 132 157 200 260 324 360
#     4  10  21  35  62  92 114 162 216 252 289 358
#     4  11  19  40  63  88 120 163 210 246 302 375
#
# _framework density 22.675046999999999
#
# number of rings (size 3 to 8) (size 9 to 14) (size 15 to 20)
#    0.000    0.750    6.250    3.000    0.000    1.000 
#    0.000    3.750    0.000    0.000    0.000    0.000 
#    0.000    0.000    0.000    0.000    0.000    0.000 
#
# Total GULP energy -89445.398486 kJ/mol
# GULP energy per Si atom -5590.337405 kJ/mol
# Density = 2.262344 g / cm^3
# Si number density = 22.675047 Si / 1000 Ang^3
#
#
#
# Elastic Constant Matrix: (Units=GPa)
#
#
# Indices 1 2 3 4 5 6 
#
# 1 72.1958 14.7245 23.4463 -6.8846 -5.0320 -2.5373
# 2 14.7245 59.2959 9.0027 9.8305 -8.2864 -1.1185
# 3 23.4463 9.0027 90.6684 -4.1148 -23.5479 1.5370
# 4 -6.8846 9.8305 -4.1148 23.3091 0.3134 -5.5964
# 5 -5.0320 -8.2864 -23.5479 0.3134 53.2654 1.2447
# 6 -2.5373 -1.1185 1.5370 -5.5964 1.2447 15.6097
#
#
#
# Elastic Compliance Matrix: (Units=1/GPa)
#
#
# Indices 1 2 3 4 5 6 
#
# 1 0.017008 -0.004964 -0.003928 0.007802 -0.001081 0.005679
# 2 -0.004964 0.020292 -0.000491 -0.010974 0.002616 -0.003447
# 3 -0.003928 -0.000491 0.013630 0.000860 0.005623 -0.002156
# 4 0.007802 -0.010974 0.000860 0.054848 -0.001384 0.020172
# 5 -0.001081 0.002616 0.005623 -0.001384 0.021637 -0.002763
# 6 0.005679 -0.003447 -0.002156 0.020172 -0.002763 0.072404
#
#
# Mechanical properties :
#
#
# Convention : Reuss Voigt Hill
#
# Bulk Modulus (GPa) = 31.09280 35.16747 33.13014
# Shear Modulus (GPa) = 21.80496 30.10261 25.95378
#
# Velocity S-wave (km/s) = 3.10438 3.64753 3.38686
# Velocity P-wave (km/s) = 5.15671 5.76908 5.47147
#
# Compressibility (1/GPa) = 0.03216179
#
# Stress axis : x y z
#
# Youngs Moduli (GPa) = 58.79731 49.28119 73.36867
#
# Poissons Ratio (x) = 0.24465 0.28819
# Poissons Ratio (y) = 0.29189 0.03605
# Poissons Ratio (z) = 0.23096 0.02421
#
# Static dielectric constant tensor:
#      x y z
#    x 1.931790 -0.034950 0.057310 
#    y -0.034950 1.814720 0.001360 
#    z 0.057310 0.001360 1.896700 
# 
# From -- ./inp_files/382863.got.cif
#   From: 2010.05.17/outbox.cif.g08.bks.cpg/sg2_192_cif.got.tgz:382863.got - 2010.06.03 11:33:40.
