data_PCOD9001580
_publ_section_title
;
Structure prediction by ZEFSAII (Michael W. Deem and Ramdas Pophale) SiO2 
 PCOD9001580
Probable space group: P -1
;
_chemical_formula_sum "Si O2"
_cell_formula_units_Z 16
_cell_length_a 8.047897
_cell_length_b 7.910439
_cell_length_c 16.948244
_cell_angle_alpha 137.263102
_cell_angle_beta 107.997844
_cell_angle_gamma 82.433219
_cell_volume 688.766262
_symmetry_space_group_name_H-M "P -1"
_symmetry_group_IT_number 2
_symmetry_cell_setting 'triclinic'
loop_
_space_group_symop_operation_xyz
x,y,z
-x,-y,-z
loop_
_atom_site_type_symbol
_atom_site_label
_atom_site_fract_x
_atom_site_fract_y
_atom_site_fract_z
Si Si1 0.536744 0.186139 0.364407
Si Si2 0.147780 0.683125 0.665266
Si Si3 0.071161 0.302882 0.022779
Si Si4 0.550277 0.242828 0.144538
Si Si5 0.218578 0.501404 0.403465
Si Si6 0.451006 0.380069 0.864504
Si Si7 0.785024 0.862659 0.854922
Si Si8 0.911769 0.764647 0.172753
O O1 0.695470 0.327794 0.379095
O O2 0.355569 0.305891 0.383159
O O3 0.646872 0.238578 0.480833
O O4 0.496918 0.896085 0.234494
O O5 0.254204 0.713398 0.774609
O O6 0.971023 0.482641 0.578467
O O7 0.063318 0.936304 0.720100
O O8 0.156521 0.297409 0.948186
O O9 0.876837 0.131542 0.928287
O O10 0.062134 0.589956 0.142522
O O11 0.156875 0.161321 0.054757
O O12 0.505832 0.460554 0.154042
O O13 0.424182 0.187388 0.183193
O O14 0.500000 0.000000 0.000000
O O15 0.161952 0.368256 0.266148
O O16 0.238043 0.334115 0.821494
O O17 0.500000 0.500000 0.000000
#
# Coordination Sequence:
#
# PCOD9001580 Si02
#       8
#     2   2   2   2   2   2   2   2
#     4  10  24  46  66  95 125 168 226 266 317 386
#     4  11  22  41  66  95 125 171 219 262 328 379
#     4  10  21  35  59  93 133 165 215 261 325 383
#     4  12  24  39  62  97 135 170 209 267 327 383
#     4  11  23  42  71  89 128 174 218 267 317 389
#     4  11  24  40  65  93 130 168 209 270 325 381
#     4  11  22  38  61  92 128 173 213 266 321 385
#     4  10  21  35  58  93 129 165 208 267 315 384
#
# _framework density 23.229942000000001
#
# number of rings (size 3 to 8) (size 9 to 14) (size 15 to 20)
#    0.000    1.250    2.500    4.125    5.250    1.000 
#    0.000    1.250    2.750    0.000    0.000    0.000 
#    0.000    0.000    0.000    0.000    0.000    0.000 
#
# Total GULP energy -89168.443324 kJ/mol
# GULP energy per Si atom -5573.027708 kJ/mol
# Density = 2.317707 g / cm^3
# Si number density = 23.229942 Si / 1000 Ang^3
#
#
#
# Elastic Constant Matrix: (Units=GPa)
#
#
# Indices 1 2 3 4 5 6 
#
# 1 116.1820 31.2096 24.1903 -4.4034 10.4630 2.9141
# 2 31.2096 80.7234 25.7533 5.3846 1.8840 11.9525
# 3 24.1903 25.7533 83.8097 12.6149 6.5169 -11.5571
# 4 -4.4034 5.3846 12.6149 21.8293 -9.9054 -4.3212
# 5 10.4630 1.8840 6.5169 -9.9054 46.1742 -2.6319
# 6 2.9141 11.9525 -11.5571 -4.3212 -2.6319 26.0186
#
#
#
# Elastic Compliance Matrix: (Units=1/GPa)
#
#
# Indices 1 2 3 4 5 6 
#
# 1 0.010269 -0.003405 -0.002431 0.003821 -0.001033 -0.000136
# 2 -0.003405 0.017188 -0.005022 -0.004471 -0.000782 -0.010567
# 3 -0.002431 -0.005022 0.016872 -0.008727 -0.003024 0.008318
# 4 0.003821 -0.004471 -0.008727 0.060998 0.014165 0.009313
# 5 -0.001033 -0.000782 -0.003024 0.014165 0.025621 0.004076
# 6 -0.000136 -0.010567 0.008318 0.009313 0.004076 0.048957
#
#
# Mechanical properties :
#
#
# Convention : Reuss Voigt Hill
#
# Bulk Modulus (GPa) = 44.22282 49.22461 46.72372
# Shear Modulus (GPa) = 23.90507 32.10856 28.00681
#
# Velocity S-wave (km/s) = 3.21138 3.72184 3.47599
# Velocity P-wave (km/s) = 5.72965 6.30124 6.02223
#
# Compressibility (1/GPa) = 0.02261276
#
# Stress axis : x y z
#
# Youngs Moduli (GPa) = 97.37639 58.18057 59.26813
#
# Poissons Ratio (x) = 0.19813 0.14409
# Poissons Ratio (y) = 0.33161 0.29764
# Poissons Ratio (z) = 0.23674 0.29218
#
# Static dielectric constant tensor:
#      x y z
#    x 1.973540 -0.007880 0.038270 
#    y -0.007880 1.943190 -0.153510 
#    z 0.038270 -0.153510 2.167600 
# 
# From -- ./inp_files/557690.got.cif
#   From: 2010.05.17/outbox.cif.g08.bks.cpg/sg2_279_cif.got.tgz:557690.got - 2010.06.03 11:33:40.
