data_PCOD9001248
_publ_section_title
;
Structure prediction by ZEFSAII (Michael W. Deem and Ramdas Pophale) SiO2 
 PCOD9001248
Probable space group: P -1
;
_chemical_formula_sum "Si O2"
_cell_formula_units_Z 10
_cell_length_a 7.739346
_cell_length_b 11.633033
_cell_length_c 11.256378
_cell_angle_alpha 156.550551
_cell_angle_beta 110.645469
_cell_angle_gamma 70.371830
_cell_volume 377.176131
_symmetry_space_group_name_H-M "P -1"
_symmetry_group_IT_number 2
_symmetry_cell_setting 'triclinic'
loop_
_space_group_symop_operation_xyz
x,y,z
-x,-y,-z
loop_
_atom_site_type_symbol
_atom_site_label
_atom_site_fract_x
_atom_site_fract_y
_atom_site_fract_z
Si Si1 0.207045 0.997534 0.371989
Si Si2 0.324758 0.692688 0.675233
Si Si3 0.187708 0.134898 0.221872
Si Si4 0.297657 0.493118 0.044907
Si Si5 0.206368 0.988707 0.683912
O O1 0.216112 0.098726 0.334535
O O2 0.212050 0.276755 0.722215
O O3 0.360727 0.745405 0.204953
O O4 0.001883 0.874496 0.226047
O O5 0.500000 0.500000 0.500000
O O6 0.243036 0.840552 0.678054
O O7 0.198763 0.459156 0.486792
O O8 0.347173 0.946330 0.015127
O O9 0.000000 0.000000 0.000000
O O10 0.342322 0.238892 0.912031
O O11 0.216209 0.734156 0.347213
#
# Coordination Sequence:
#
# PCOD9001248 Si02
#       5
#     2   2   2   2   2
#     4  11  20  35  62  95 130 156 215 271 326 371
#     4  12  27  45  67  96 135 180 216 263 333 398
#     4  12  25  43  69  98 133 171 219 280 325 374
#     4  10  21  34  58  97 127 165 204 272 327 372
#     4  11  20  36  62  90 132 164 215 261 319 387
#
# _framework density 26.512813000000001
#
# number of rings (size 3 to 8) (size 9 to 14) (size 15 to 20)
#    0.000    0.800    2.000    8.400    2.800    0.000 
#    0.000    0.000    0.000   24.000    0.000    0.000 
#    0.000    0.000    0.000    0.000    0.000    0.000 
#
# Total GULP energy -55808.380960 kJ/mol
# GULP energy per Si atom -5580.838096 kJ/mol
# Density = 2.645247 g / cm^3
# Si number density = 26.512813 Si / 1000 Ang^3
#
#
#
# Elastic Constant Matrix: (Units=GPa)
#
#
# Indices 1 2 3 4 5 6 
#
# 1 51.0378 26.2281 16.9490 15.2555 3.8840 -1.2903
# 2 26.2281 275.7244 75.1257 31.3300 -1.8124 30.4438
# 3 16.9490 75.1257 178.2966 44.9530 -6.8491 7.5934
# 4 15.2555 31.3300 44.9530 55.1444 20.0027 -1.3644
# 5 3.8840 -1.8124 -6.8491 20.0027 29.0101 12.2565
# 6 -1.2903 30.4438 7.5934 -1.3644 12.2565 41.6146
#
#
#
# Elastic Compliance Matrix: (Units=1/GPa)
#
#
# Indices 1 2 3 4 5 6 
#
# 1 0.022060 -0.001751 -0.000413 -0.004304 -0.001137 0.002234
# 2 -0.001751 0.005029 -0.000450 -0.004181 0.005626 -0.005446
# 3 -0.000413 -0.000450 0.009816 -0.012711 0.013600 -0.005897
# 4 -0.004304 -0.004181 -0.012711 0.048812 -0.044811 0.020043
# 5 -0.001137 0.005626 0.013600 -0.044811 0.082810 -0.032491
# 6 0.002234 -0.005446 -0.005897 0.020043 -0.032491 0.039386
#
#
# Mechanical properties :
#
#
# Convention : Reuss Voigt Hill
#
# Bulk Modulus (GPa) = 31.56939 82.40715 56.98827
# Shear Modulus (GPa) = 22.35126 50.93753 36.64439
#
# Velocity S-wave (km/s) = 2.90666 4.38795 3.72175
# Velocity P-wave (km/s) = 4.81643 7.53801 6.32533
#
# Compressibility (1/GPa) = 0.03167626
#
# Stress axis : x y z
#
# Youngs Moduli (GPa) = 45.33155 198.82762 101.87451
#
# Poissons Ratio (x) = 0.34815 0.04207
# Poissons Ratio (y) = 0.07938 0.04589
# Poissons Ratio (z) = 0.01872 0.08956
#
# Static dielectric constant tensor:
#      x y z
#    x 1.881180 0.004860 -0.181350 
#    y 0.004860 2.085090 0.037320 
#    z -0.181350 0.037320 1.881840 
# 
# From -- ./inp_files/573.got.cif
#   From: 2010.05.17/outbox.cif.g08.bks.cpg/sg2_1_cif.got.tgz:573.got - 2010.06.03 11:33:40.
