data_PCOD9001705
_publ_section_title
;
Structure prediction by ZEFSAII (Michael W. Deem and Ramdas Pophale) SiO2 
 PCOD9001705
Probable space group: P -1
;
_chemical_formula_sum "Si O2"
_cell_formula_units_Z 16
_cell_length_a 10.995984
_cell_length_b 24.953404
_cell_length_c 5.892694
_cell_angle_alpha 59.221867
_cell_angle_beta 61.741205
_cell_angle_gamma 28.755147
_cell_volume 667.067140
_symmetry_space_group_name_H-M "P -1"
_symmetry_group_IT_number 2
_symmetry_cell_setting 'triclinic'
loop_
_space_group_symop_operation_xyz
x,y,z
-x,-y,-z
loop_
_atom_site_type_symbol
_atom_site_label
_atom_site_fract_x
_atom_site_fract_y
_atom_site_fract_z
Si Si1 0.562959 0.779602 0.234836
Si Si2 0.969780 0.307132 0.958546
Si Si3 0.110356 0.761394 0.426065
Si Si4 0.326190 0.098711 0.756705
Si Si5 0.522126 0.427684 0.872472
Si Si6 0.057346 0.551247 0.769716
Si Si7 0.475019 0.173615 0.336572
Si Si8 0.447964 0.357482 0.479176
O O1 0.436233 0.838388 0.969000
O O2 0.832104 0.713620 0.122912
O O3 0.420591 0.853973 0.435150
O O4 0.633180 0.681026 0.418582
O O5 0.948296 0.268978 0.271260
O O6 0.686134 0.421514 0.857152
O O7 0.116267 0.213709 0.839289
O O8 0.283985 0.750140 0.393728
O O9 0.843768 0.881123 0.293806
O O10 0.308695 0.653966 0.314488
O O11 0.454476 0.106286 0.489727
O O12 0.500000 0.000000 0.000000
O O13 0.521871 0.370560 0.171138
O O14 0.234499 0.530079 0.815700
O O15 0.229486 0.474405 0.561596
O O16 0.793808 0.687820 0.698157
O O17 0.000000 0.500000 0.000000
#
# Coordination Sequence:
#
# PCOD9001705 Si02
#       8
#     2   2   2   2   2   2   2   2
#     4  11  22  39  62  90 127 168 209 258 314 368
#     4   9  19  39  62  90 122 163 208 268 312 378
#     4   9  18  38  60  89 123 160 211 258 314 375
#     4  10  21  40  67  93 120 160 212 267 326 377
#     4   9  20  36  58  87 124 170 214 251 312 370
#     4  11  21  35  59  90 129 171 212 253 309 380
#     4  11  24  39  61  93 129 160 213 264 310 372
#     4  10  21  35  61  90 126 174 208 251 310 379
#
# _framework density 23.985593000000001
#
# number of rings (size 3 to 8) (size 9 to 14) (size 15 to 20)
#    0.000    2.000    2.500    0.750    3.500    1.500 
#    0.000   10.625    0.000    3.750    0.000    0.000 
#    0.000    0.000    0.000    0.000    0.000    0.000 
#
# Total GULP energy -89174.570833 kJ/mol
# GULP energy per Si atom -5573.410677 kJ/mol
# Density = 2.393100 g / cm^3
# Si number density = 23.985593 Si / 1000 Ang^3
#
#
#
# Elastic Constant Matrix: (Units=GPa)
#
#
# Indices 1 2 3 4 5 6 
#
# 1 108.8727 6.0265 24.7531 -6.9106 -10.3390 -14.1271
# 2 6.0265 20.5708 0.1510 -1.7395 -0.1215 4.2273
# 3 24.7531 0.1510 118.8124 14.3072 -1.8135 -10.0080
# 4 -6.9106 -1.7395 14.3072 38.8042 1.9373 7.8101
# 5 -10.3390 -0.1215 -1.8135 1.9373 46.0703 3.1042
# 6 -14.1271 4.2273 -10.0080 7.8101 3.1042 9.2163
#
#
#
# Elastic Compliance Matrix: (Units=1/GPa)
#
#
# Indices 1 2 3 4 5 6 
#
# 1 0.013159 -0.009797 0.000045 -0.003694 0.001236 0.027427
# 2 -0.009797 0.066510 -0.005576 0.016519 0.001516 -0.066087
# 3 0.000045 -0.005576 0.011422 -0.009032 -0.000720 0.022926
# 4 -0.003694 0.016519 -0.009032 0.040799 0.001050 -0.057975
# 5 0.001236 0.001516 -0.000720 0.001050 0.022456 -0.008035
# 6 0.027427 -0.066087 0.022926 -0.057975 -0.008035 0.257587
#
#
# Mechanical properties :
#
#
# Convention : Reuss Voigt Hill
#
# Bulk Modulus (GPa) = 16.54666 34.45744 25.50205
# Shear Modulus (GPa) = 10.80532 33.30652 22.05592
#
# Velocity S-wave (km/s) = 2.12478 3.73044 3.03570
# Velocity P-wave (km/s) = 3.59627 5.74038 4.78984
#
# Compressibility (1/GPa) = 0.06043514
#
# Stress axis : x y z
#
# Youngs Moduli (GPa) = 75.99448 15.03530 87.54948
#
# Poissons Ratio (x) = 0.14730 -0.00394
# Poissons Ratio (y) = 0.74449 0.48820
# Poissons Ratio (z) = -0.00342 0.08384
#
# Static dielectric constant tensor:
#      x y z
#    x 2.025080 -0.021550 0.124840 
#    y -0.021550 1.891220 0.008080 
#    z 0.124840 0.008080 1.967850 
# 
# From -- ./inp_files/68426.got.cif
#   From: 2010.05.17/outbox.cif.g08.bks.cpg/sg2_35_cif.got.tgz:68426.got - 2010.06.03 11:33:40.
