data_PCOD9001754
_publ_section_title
;
Structure prediction by ZEFSAII (Michael W. Deem and Ramdas Pophale) SiO2 
 PCOD9001754
Probable space group: P -1
;
_chemical_formula_sum "Si O2"
_cell_formula_units_Z 14
_cell_length_a 7.432109
_cell_length_b 10.240342
_cell_length_c 9.640505
_cell_angle_alpha 89.335181
_cell_angle_beta 59.755240
_cell_angle_gamma 113.065128
_cell_volume 562.661841
_symmetry_space_group_name_H-M "P -1"
_symmetry_group_IT_number 2
_symmetry_cell_setting 'triclinic'
loop_
_space_group_symop_operation_xyz
x,y,z
-x,-y,-z
loop_
_atom_site_type_symbol
_atom_site_label
_atom_site_fract_x
_atom_site_fract_y
_atom_site_fract_z
Si Si1 0.001695 0.414039 0.361354
Si Si2 0.327039 0.126585 0.890646
Si Si3 0.559775 0.388893 0.387419
Si Si4 0.942343 0.920235 0.253082
Si Si5 0.119853 0.329119 0.876352
Si Si6 0.672234 0.312727 0.951915
Si Si7 0.213979 0.194408 0.319387
O O1 0.188214 0.528898 0.177547
O O2 0.069841 0.286281 0.366367
O O3 0.000000 0.500000 0.500000
O O4 0.745454 0.356411 0.397446
O O5 0.230268 0.249622 0.930705
O O6 0.584669 0.199073 0.854906
O O7 0.154671 0.994114 0.055130
O O8 0.275597 0.079146 0.749522
O O9 0.500000 0.500000 0.500000
O O10 0.701916 0.500445 0.205378
O O11 0.352174 0.240104 0.410588
O O12 0.049688 0.027984 0.337662
O O13 0.894388 0.752180 0.265499
O O14 0.855871 0.302943 0.989505
O O15 0.427758 0.262275 0.125244
#
# Coordination Sequence:
#
# PCOD9001754 Si02
#       7
#     2   2   2   2   2   2   2
#     4  11  23  39  60  83 121 158 196 236 293 356
#     4   8  16  34  55  83 122 150 176 234 303 334
#     4  11  23  40  62  81 115 166 192 237 304 340
#     4   8  18  36  56  88 118 152 185 242 286 350
#     4   9  19  36  58  86 118 152 191 232 290 358
#     4  10  21  35  62  91 113 156 197 238 290 340
#     4  11  22  38  59  91 119 142 205 246 282 342
#
# _framework density 24.881730999999998
#
# number of rings (size 3 to 8) (size 9 to 14) (size 15 to 20)
#    0.857    1.429    1.429    1.286    0.000    8.000 
#    2.571    0.714    0.000    1.714    0.000    0.000 
#    0.000    0.000    0.000    0.000    0.000    0.000 
#
# Total GULP energy -78107.086619 kJ/mol
# GULP energy per Si atom -5579.077616 kJ/mol
# Density = 2.482510 g / cm^3
# Si number density = 24.881731 Si / 1000 Ang^3
#
#
#
# Elastic Constant Matrix: (Units=GPa)
#
#
# Indices 1 2 3 4 5 6 
#
# 1 72.6963 28.8206 14.5888 -6.7604 5.5023 26.0026
# 2 28.8206 141.7550 16.5682 11.4795 -5.7955 37.7113
# 3 14.5888 16.5682 76.1562 18.7723 -3.2072 7.6859
# 4 -6.7604 11.4795 18.7723 31.1093 8.1991 4.8089
# 5 5.5023 -5.7955 -3.2072 8.1991 23.2236 9.3944
# 6 26.0026 37.7113 7.6859 4.8089 9.3944 46.0191
#
#
#
# Elastic Compliance Matrix: (Units=1/GPa)
#
#
# Indices 1 2 3 4 5 6 
#
# 1 0.020616 -0.002563 -0.005849 0.012157 -0.007241 -0.008364
# 2 -0.002563 0.010620 0.000929 -0.006082 0.009018 -0.008615
# 3 -0.005849 0.000929 0.018281 -0.015096 0.009853 -0.000943
# 4 0.012157 -0.006082 -0.015096 0.052743 -0.025214 0.000272
# 5 -0.007241 0.009018 0.009853 -0.025214 0.063463 -0.015265
# 6 -0.008364 -0.008615 -0.000943 0.000272 -0.015265 0.036761
#
#
# Mechanical properties :
#
#
# Convention : Reuss Voigt Hill
#
# Bulk Modulus (GPa) = 28.94389 45.61810 37.28099
# Shear Modulus (GPa) = 21.83715 35.44572 28.64144
#
# Velocity S-wave (km/s) = 2.96571 3.77844 3.39647
# Velocity P-wave (km/s) = 4.83581 6.11631 5.51336
#
# Compressibility (1/GPa) = 0.03454961
#
# Stress axis : x y z
#
# Youngs Moduli (GPa) = 48.50606 94.16134 54.70284
#
# Poissons Ratio (x) = 0.24137 0.31996
# Poissons Ratio (y) = 0.12434 -0.05081
# Poissons Ratio (z) = 0.28371 -0.08747
#
# Static dielectric constant tensor:
#      x y z
#    x 1.967660 0.057530 -0.034680 
#    y 0.057530 1.961730 0.027930 
#    z -0.034680 0.027930 2.378410 
# 
# From -- ./inp_files/385480.got.cif
#   From: 2010.05.17/outbox.cif.g08.bks.cpg/sg2_193_cif.got.tgz:385480.got - 2010.06.03 11:33:40.
