data_PCOD9001104
_publ_section_title
;
Structure prediction by ZEFSAII (Michael W. Deem and Ramdas Pophale) SiO2 
 PCOD9001104
Probable space group: P -1
;
_chemical_formula_sum "Si O2"
_cell_formula_units_Z 14
_cell_length_a 19.222377
_cell_length_b 7.866681
_cell_length_c 7.102888
_cell_angle_alpha 89.880156
_cell_angle_beta 63.876583
_cell_angle_gamma 138.784496
_cell_volume 524.957327
_symmetry_space_group_name_H-M "P -1"
_symmetry_group_IT_number 2
_symmetry_cell_setting 'triclinic'
loop_
_space_group_symop_operation_xyz
x,y,z
-x,-y,-z
loop_
_atom_site_type_symbol
_atom_site_label
_atom_site_fract_x
_atom_site_fract_y
_atom_site_fract_z
Si Si1 0.199949 0.711204 0.314998
Si Si2 0.098514 0.856780 0.521641
Si Si3 0.362549 0.209219 0.533099
Si Si4 0.480188 0.830855 0.747421
Si Si5 0.194968 0.128317 0.985771
Si Si6 0.515294 0.261438 0.829398
Si Si7 0.929657 0.839763 0.376868
O O1 0.158386 0.784607 0.509324
O O2 0.193343 0.519975 0.431433
O O3 0.070079 0.470129 0.321019
O O4 0.350039 0.010847 0.039211
O O5 0.169025 0.015606 0.230902
O O6 0.119776 0.064275 0.618123
O O7 0.500000 0.500000 0.500000
O O8 0.393233 0.068287 0.453098
O O9 0.395478 0.408197 0.329940
O O10 0.229746 0.033243 0.811815
O O11 0.517833 0.099521 0.693037
O O12 0.332786 0.504405 0.823873
O O13 0.446916 0.730414 0.006867
O O14 0.052944 0.974944 0.113250
O O15 0.000000 0.000000 0.500000
#
# Coordination Sequence:
#
# PCOD9001104 Si02
#       7
#     2   2   2   2   2   2   2
#     4   9  16  27  46  72  94 121 165 207 245 286
#     4   9  16  28  49  72  95 125 164 212 250 284
#     4  10  21  34  50  75 107 138 167 208 256 300
#     4  10  21  35  51  75 105 140 173 203 247 306
#     4   9  17  33  52  75 103 129 164 211 256 295
#     4  11  21  34  53  77 105 137 171 206 251 308
#     4   8  15  28  48  71  95 124 163 213 248 282
#
# _framework density 26.668831999999998
#
# number of rings (size 3 to 8) (size 9 to 14) (size 15 to 20)
#    0.000    2.857    0.000    4.714    0.000    2.286 
#    0.000    7.143    0.000    3.429    0.000   72.000 
#    0.000    0.000    0.000    0.000    0.000    0.000 
#
# Total GULP energy -78364.751030 kJ/mol
# GULP energy per Si atom -5597.482216 kJ/mol
# Density = 2.660813 g / cm^3
# Si number density = 26.668832 Si / 1000 Ang^3
#
#
#
# Elastic Constant Matrix: (Units=GPa)
#
#
# Indices 1 2 3 4 5 6 
#
# 1 97.8050 15.0870 41.5371 2.9414 -33.8014 -28.8774
# 2 15.0870 95.7878 24.2524 8.8476 -12.6199 -30.4260
# 3 41.5371 24.2524 146.5801 17.2899 -31.5898 -8.9287
# 4 2.9414 8.8476 17.2899 48.5200 -8.8519 -15.9898
# 5 -33.8014 -12.6199 -31.5898 -8.8519 59.7977 15.8960
# 6 -28.8774 -30.4260 -8.9287 -15.9898 15.8960 38.6995
#
#
#
# Elastic Compliance Matrix: (Units=1/GPa)
#
#
# Indices 1 2 3 4 5 6 
#
# 1 0.017497 0.003140 -0.004104 0.005653 0.005305 0.014735
# 2 0.003140 0.015080 -0.002839 0.002933 -0.000034 0.014770
# 3 -0.004104 -0.002839 0.009190 -0.003954 0.002951 -0.006019
# 4 0.005653 0.002933 -0.003954 0.026691 0.001407 0.016062
# 5 0.005305 -0.000034 0.002951 0.001407 0.022565 -0.004075
# 6 0.014735 0.014770 -0.006019 0.016062 -0.004075 0.055369
#
#
# Mechanical properties :
#
#
# Convention : Reuss Voigt Hill
#
# Bulk Modulus (GPa) = 29.27097 55.76956 42.52026
# Shear Modulus (GPa) = 30.23260 46.68987 38.46123
#
# Velocity S-wave (km/s) = 3.37060 4.18871 3.80172
# Velocity P-wave (km/s) = 5.11346 6.65965 5.93711
#
# Compressibility (1/GPa) = 0.03416354
#
# Stress axis : x y z
#
# Youngs Moduli (GPa) = 57.15362 66.31275 108.80831
#
# Poissons Ratio (x) = -0.20824 0.44651
# Poissons Ratio (y) = -0.17948 0.30886
# Poissons Ratio (z) = 0.23454 0.18823
#
# Static dielectric constant tensor:
#      x y z
#    x 2.256360 0.044000 0.006930 
#    y 0.044000 2.188690 0.053480 
#    z 0.006930 0.053480 2.026940 
# 
# From -- ./inp_files/352234.got.cif
#   From: 2010.05.17/outbox.cif.g08.bks.cpg/sg2_177_cif.got.tgz:352234.got - 2010.06.03 11:33:40.
