data_PCOD9001893
_publ_section_title
;
Structure prediction by ZEFSAII (Michael W. Deem and Ramdas Pophale) SiO2 
 PCOD9001893
Probable space group: P -1
;
_chemical_formula_sum "Si O2"
_cell_formula_units_Z 16
_cell_length_a 5.437041
_cell_length_b 23.565426
_cell_length_c 5.236942
_cell_angle_alpha 99.351632
_cell_angle_beta 118.468865
_cell_angle_gamma 85.855736
_cell_volume 582.001154
_symmetry_space_group_name_H-M "P -1"
_symmetry_group_IT_number 2
_symmetry_cell_setting 'triclinic'
loop_
_space_group_symop_operation_xyz
x,y,z
-x,-y,-z
loop_
_atom_site_type_symbol
_atom_site_label
_atom_site_fract_x
_atom_site_fract_y
_atom_site_fract_z
Si Si1 0.129487 0.953949 0.718783
Si Si2 0.296376 0.067517 0.118667
Si Si3 0.759622 0.422907 0.855809
Si Si4 0.203025 0.452059 0.443563
Si Si5 0.993169 0.661317 0.462808
Si Si6 0.751072 0.828576 0.167336
Si Si7 0.576983 0.314151 0.942724
Si Si8 0.397918 0.790257 0.464025
O O1 0.375838 0.921488 0.672786
O O2 0.916696 0.916836 0.752673
O O3 0.000000 0.000000 0.500000
O O4 0.270289 0.998082 0.030120
O O5 0.230059 0.104467 0.862739
O O6 0.799254 0.379756 0.613139
O O7 0.655537 0.381446 0.000609
O O8 0.518323 0.466170 0.691688
O O9 0.066767 0.445081 0.093482
O O10 0.175005 0.385875 0.484117
O O11 0.000000 0.500000 0.500000
O O12 0.756922 0.688287 0.180485
O O13 0.181003 0.704695 0.754473
O O14 0.585371 0.801064 0.818602
O O15 0.560353 0.817874 0.316114
O O16 0.072205 0.808267 0.338928
O O17 0.607744 0.276423 0.676018
#
# Coordination Sequence:
#
# PCOD9001893 Si02
#       8
#     2   2   2   2   2   2   2   2
#     4  10  21  38  66  92 127 176 228 276 341 398
#     4  10  23  39  61  97 130 174 229 282 336 416
#     4  10  21  36  59  84 113 163 201 259 321 374
#     4  10  21  36  53  87 122 153 201 250 317 398
#     4  10  21  38  61  86 117 159 208 266 323 382
#     4  12  28  47  73 105 146 188 233 294 362 422
#     4  10  23  39  62  87 121 157 218 273 320 404
#     4  12  28  47  73 105 140 191 236 291 366 423
#
# _framework density 27.491353
#
# number of rings (size 3 to 8) (size 9 to 14) (size 15 to 20)
#    0.000    1.500    0.000    3.750    7.000    1.000 
#    0.000    0.000    0.000    0.000    0.000    0.000 
#    0.000    0.000    0.000    0.000    0.000    0.000 
#
# Total GULP energy -89443.632020 kJ/mol
# GULP energy per Si atom -5590.227001 kJ/mol
# Density = 2.742878 g / cm^3
# Si number density = 27.491353 Si / 1000 Ang^3
#
#
#
# Elastic Constant Matrix: (Units=GPa)
#
#
# Indices 1 2 3 4 5 6 
#
# 1 191.7687 34.9432 69.1390 -19.1542 32.8346 5.3758
# 2 34.9432 98.2758 31.6796 -1.1392 18.5202 14.5200
# 3 69.1390 31.6796 177.8668 12.6866 30.2182 8.5724
# 4 -19.1542 -1.1392 12.6866 55.0297 -4.0158 1.5967
# 5 32.8346 18.5202 30.2182 -4.0158 59.1834 -12.3648
# 6 5.3758 14.5200 8.5724 1.5967 -12.3648 52.8881
#
#
#
# Elastic Compliance Matrix: (Units=1/GPa)
#
#
# Indices 1 2 3 4 5 6 
#
# 1 0.006927 -0.001183 -0.002265 0.002762 -0.002259 -0.000624
# 2 -0.001183 0.012118 -0.000913 -0.000092 -0.003484 -0.003870
# 3 -0.002265 -0.000913 0.007368 -0.002664 -0.002663 -0.001255
# 4 0.002762 -0.000092 -0.002664 0.019835 0.001172 -0.000149
# 5 -0.002259 -0.003484 -0.002663 0.001172 0.022089 0.006747
# 6 -0.000624 -0.003870 -0.001255 -0.000149 0.006747 0.021819
#
#
# Mechanical properties :
#
#
# Convention : Reuss Voigt Hill
#
# Bulk Modulus (GPa) = 56.52789 82.15943 69.34366
# Shear Modulus (GPa) = 47.72088 55.56354 51.64221
#
# Velocity S-wave (km/s) = 4.17087 4.50057 4.33886
# Velocity P-wave (km/s) = 6.61828 7.54701 7.09785
#
# Compressibility (1/GPa) = 0.01769038
#
# Stress axis : x y z
#
# Youngs Moduli (GPa) = 144.36344 82.52270 135.71870
#
# Poissons Ratio (x) = 0.09761 0.30740
# Poissons Ratio (y) = 0.17076 0.12397
# Poissons Ratio (z) = 0.32698 0.07538
#
# Static dielectric constant tensor:
#      x y z
#    x 2.248550 0.116350 0.050010 
#    y 0.116350 2.249510 0.056170 
#    z 0.050010 0.056170 2.252540 
# 
# From -- ./inp_files/14519.got.cif
#   From: 2010.05.17/outbox.cif.g08.bks.cpg/sg2_8_cif.got.tgz:14519.got - 2010.06.03 11:33:40.
