data_PCOD9001826
_publ_section_title
;
Structure prediction by ZEFSAII (Michael W. Deem and Ramdas Pophale) SiO2 
 PCOD9001826
Probable space group: P -1
;
_chemical_formula_sum "Si O2"
_cell_formula_units_Z 14
_cell_length_a 9.806754
_cell_length_b 4.829071
_cell_length_c 12.090960
_cell_angle_alpha 117.487100
_cell_angle_beta 96.655453
_cell_angle_gamma 78.360469
_cell_volume 497.343392
_symmetry_space_group_name_H-M "P -1"
_symmetry_group_IT_number 2
_symmetry_cell_setting 'triclinic'
loop_
_space_group_symop_operation_xyz
x,y,z
-x,-y,-z
loop_
_atom_site_type_symbol
_atom_site_label
_atom_site_fract_x
_atom_site_fract_y
_atom_site_fract_z
Si Si1 0.969707 0.374085 0.166605
Si Si2 0.377844 0.959129 0.601910
Si Si3 0.316467 0.271289 0.870268
Si Si4 0.007496 0.057280 0.332886
Si Si5 0.409192 0.732407 0.215627
Si Si6 0.769657 0.571792 0.504951
Si Si7 0.729810 0.830959 0.906300
O O1 0.960032 0.121270 0.214034
O O2 0.103980 0.247881 0.083421
O O3 0.825344 0.483337 0.111912
O O4 0.005206 0.691872 0.288513
O O5 0.344750 0.626571 0.495398
O O6 0.321764 0.988811 0.729077
O O7 0.533666 0.039428 0.646819
O O8 0.291335 0.247425 0.578374
O O9 0.446680 0.413898 0.860136
O O10 0.331136 0.145254 0.971922
O O11 0.157502 0.168241 0.376736
O O12 0.899494 0.287169 0.440684
O O13 0.330641 0.466871 0.205763
O O14 0.317735 0.899414 0.137316
#
# Coordination Sequence:
#
# PCOD9001826 Si02
#       7
#     2   2   2   2   2   2   2
#     4  12  24  40  60  93 129 156 196 248 311 357
#     4  10  21  35  65  90 118 146 206 256 292 339
#     4  10  23  40  65  91 121 160 209 246 289 357
#     4  11  21  37  61  88 125 156 197 250 308 356
#     4  10  23  40  64  86 124 160 211 241 289 354
#     4  11  19  37  62  94 115 153 204 259 296 344
#     4  12  24  41  60  91 127 165 193 247 304 359
#
# _framework density 28.149566
#
# number of rings (size 3 to 8) (size 9 to 14) (size 15 to 20)
#    0.857    0.286    2.857    3.857    0.000    5.714 
#    0.000    2.857    0.000   17.143    0.000    0.000 
#    0.000    0.000    0.000    0.000    0.000    0.000 
#
# Total GULP energy -78550.315193 kJ/mol
# GULP energy per Si atom -5610.736800 kJ/mol
# Density = 2.808550 g / cm^3
# Si number density = 28.149566 Si / 1000 Ang^3
#
#
#
# Elastic Constant Matrix: (Units=GPa)
#
#
# Indices 1 2 3 4 5 6 
#
# 1 149.8755 21.3458 16.2198 4.7789 21.2814 -10.1401
# 2 21.3458 99.4824 32.4713 2.4407 11.3648 -1.9945
# 3 16.2198 32.4713 109.6084 -5.4208 14.3922 -2.2988
# 4 4.7789 2.4407 -5.4208 38.0330 2.1721 7.6786
# 5 21.2814 11.3648 14.3922 2.1721 54.8275 -1.8461
# 6 -10.1401 -1.9945 -2.2988 7.6786 -1.8461 46.4697
#
#
#
# Elastic Compliance Matrix: (Units=1/GPa)
#
#
# Indices 1 2 3 4 5 6 
#
# 1 0.007366 -0.001092 -0.000471 -0.001113 -0.002411 0.001625
# 2 -0.001092 0.011464 -0.003139 -0.001030 -0.001080 0.000226
# 3 -0.000471 -0.003139 0.010476 0.001890 -0.001995 -0.000111
# 4 -0.001113 -0.001030 0.001890 0.027808 -0.001115 -0.004833
# 5 -0.002411 -0.001080 -0.001995 -0.001115 0.019977 0.000307
# 6 0.001625 0.000226 -0.000111 -0.004833 0.000307 0.022689
#
#
# Mechanical properties :
#
#
# Convention : Reuss Voigt Hill
#
# Bulk Modulus (GPa) = 50.24334 55.44889 52.84611
# Shear Modulus (GPa) = 43.17120 47.12799 45.14959
#
# Velocity S-wave (km/s) = 3.92042 4.09614 4.00924
# Velocity P-wave (km/s) = 6.19519 6.48936 6.34398
#
# Compressibility (1/GPa) = 0.01990314
#
# Stress axis : x y z
#
# Youngs Moduli (GPa) = 135.75145 87.22942 95.45482
#
# Poissons Ratio (x) = 0.09521 0.04498
# Poissons Ratio (y) = 0.14818 0.29964
# Poissons Ratio (z) = 0.06396 0.27382
#
# Static dielectric constant tensor:
#      x y z
#    x 2.228650 -0.041570 0.019230 
#    y -0.041570 2.060710 0.102450 
#    z 0.019230 0.102450 2.259660 
# 
# From -- ./inp_files/84864.got.cif
#   From: 2010.05.17/outbox.cif.g08.bks.cpg/sg2_43_cif.got.tgz:84864.got - 2010.06.03 11:33:40.
