data_PCOD9001421
_publ_section_title
;
Structure prediction by ZEFSAII (Michael W. Deem and Ramdas Pophale) SiO2 
 PCOD9001421
Probable space group: P -1
;
_chemical_formula_sum "Si O2"
_cell_formula_units_Z 16
_cell_length_a 17.489712
_cell_length_b 9.977409
_cell_length_c 5.540796
_cell_angle_alpha 81.051174
_cell_angle_beta 116.261448
_cell_angle_gamma 59.392236
_cell_volume 649.104416
_symmetry_space_group_name_H-M "P -1"
_symmetry_group_IT_number 2
_symmetry_cell_setting 'triclinic'
loop_
_space_group_symop_operation_xyz
x,y,z
-x,-y,-z
loop_
_atom_site_type_symbol
_atom_site_label
_atom_site_fract_x
_atom_site_fract_y
_atom_site_fract_z
Si Si1 0.461466 0.383012 0.482637
Si Si2 0.230330 0.756090 0.024887
Si Si3 0.870219 0.628963 0.212625
Si Si4 0.769004 0.797834 0.514668
Si Si5 0.234900 0.476733 0.601665
Si Si6 0.965298 0.167626 0.057667
Si Si7 0.467258 0.372719 0.992700
Si Si8 0.218780 0.932384 0.469507
O O1 0.500000 0.500000 0.500000
O O2 0.327258 0.543401 0.250893
O O3 0.504695 0.275141 0.817796
O O4 0.502032 0.276908 0.323241
O O5 0.232608 0.843060 0.253823
O O6 0.107449 0.814377 0.826866
O O7 0.249087 0.817747 0.785832
O O8 0.814410 0.775572 0.309716
O O9 0.813919 0.541728 0.218329
O O10 0.000000 0.500000 0.500000
O O11 0.850347 0.686708 0.891400
O O12 0.715259 0.704844 0.425022
O O13 0.714756 0.995658 0.458156
O O14 0.332777 0.483270 0.772034
O O15 0.125413 0.649700 0.266454
O O16 0.086466 0.108300 0.277320
O O17 0.000000 0.000000 0.000000
O O18 0.500000 0.500000 0.000000
#
# Coordination Sequence:
#
# PCOD9001421 Si02
#       8
#     2   2   2   2   2   2   2   2
#     4  10  21  38  62  91 120 150 199 251 315 368
#     4  11  22  39  60  86 128 157 204 248 310 366
#     4  10  21  35  55  83 118 160 208 254 292 343
#     4  10  23  39  56  85 118 165 214 249 296 351
#     4  10  23  37  63  87 126 160 208 260 302 361
#     4  10  22  38  55  87 127 164 204 244 306 367
#     4  10  21  38  61  92 123 149 195 263 323 366
#     4  11  23  39  57  85 125 174 200 244 295 374
#
# _framework density 24.649348
#
# number of rings (size 3 to 8) (size 9 to 14) (size 15 to 20)
#    0.750    1.000    1.250    3.000    5.250    1.000 
#    0.000    0.000    0.000    0.000    0.000   21.000 
#    0.000    0.000    0.000    0.000    0.000    0.000 
#
# Total GULP energy -89154.635267 kJ/mol
# GULP energy per Si atom -5572.164704 kJ/mol
# Density = 2.459324 g / cm^3
# Si number density = 24.649348 Si / 1000 Ang^3
#
#
#
# Elastic Constant Matrix: (Units=GPa)
#
#
# Indices 1 2 3 4 5 6 
#
# 1 106.0340 48.3275 53.9060 -0.1361 13.7049 -0.4000
# 2 48.3275 90.1988 39.8114 27.2558 -2.8074 2.0974
# 3 53.9060 39.8114 139.4386 22.8006 -23.1662 -9.0025
# 4 -0.1361 27.2558 22.8006 40.0345 -13.6276 -1.4618
# 5 13.7049 -2.8074 -23.1662 -13.6276 58.7845 -0.3409
# 6 -0.4000 2.0974 -9.0025 -1.4618 -0.3409 36.8276
#
#
#
# Elastic Compliance Matrix: (Units=1/GPa)
#
#
# Indices 1 2 3 4 5 6 
#
# 1 0.017548 -0.009204 -0.006388 0.008189 -0.005153 -0.000569
# 2 -0.009204 0.020311 -0.000111 -0.013919 -0.000165 -0.001838
# 3 -0.006388 -0.000111 0.011422 -0.004684 0.004914 0.002589
# 4 0.008189 -0.013919 -0.004684 0.038755 0.004572 0.001317
# 5 -0.005153 -0.000165 0.004914 0.004572 0.021210 0.001533
# 6 -0.000569 -0.001838 0.002589 0.001317 0.001533 0.027951
#
#
# Mechanical properties :
#
#
# Convention : Reuss Voigt Hill
#
# Bulk Modulus (GPa) = 55.94357 68.86236 62.40296
# Shear Modulus (GPa) = 28.64325 40.03774 34.34050
#
# Velocity S-wave (km/s) = 3.41255 4.03462 3.73656
# Velocity P-wave (km/s) = 6.18647 7.04994 6.63227
#
# Compressibility (1/GPa) = 0.01787516
#
# Stress axis : x y z
#
# Youngs Moduli (GPa) = 56.98703 49.23528 87.54796
#
# Poissons Ratio (x) = 0.45317 0.55925
# Poissons Ratio (y) = 0.52452 0.00969
# Poissons Ratio (z) = 0.36403 0.00545
#
# Static dielectric constant tensor:
#      x y z
#    x 2.154850 -0.065960 0.109710 
#    y -0.065960 2.014680 -0.014190 
#    z 0.109710 -0.014190 2.052220 
# 
# From -- ./inp_files/109085.got.cif
#   From: 2010.05.17/outbox.cif.g08.bks.cpg/sg2_55_cif.got.tgz:109085.got - 2010.06.03 11:33:40.
