data_PCOD9001662
_publ_section_title
;
Structure prediction by ZEFSAII (Michael W. Deem and Ramdas Pophale) SiO2 
 PCOD9001662
Probable space group: P -1
;
_chemical_formula_sum "Si O2"
_cell_formula_units_Z 16
_cell_length_a 20.867770
_cell_length_b 8.642576
_cell_length_c 9.401170
_cell_angle_alpha 112.517234
_cell_angle_beta 32.725055
_cell_angle_gamma 123.638411
_cell_volume 750.014433
_symmetry_space_group_name_H-M "P -1"
_symmetry_group_IT_number 2
_symmetry_cell_setting 'triclinic'
loop_
_space_group_symop_operation_xyz
x,y,z
-x,-y,-z
loop_
_atom_site_type_symbol
_atom_site_label
_atom_site_fract_x
_atom_site_fract_y
_atom_site_fract_z
Si Si1 0.643958 0.692979 0.975832
Si Si2 0.559358 0.703558 0.830868
Si Si3 0.636598 0.998982 0.279618
Si Si4 0.076913 0.777477 0.273371
Si Si5 0.976805 0.407675 0.169586
Si Si6 0.826802 0.765229 0.254385
Si Si7 0.727295 0.022930 0.432535
Si Si8 0.060995 0.051241 0.597776
O O1 0.571259 0.730325 0.987164
O O2 0.800685 0.797910 0.683691
O O3 0.578728 0.466745 0.022384
O O4 0.622959 0.795556 0.187227
O O5 0.676020 0.642346 0.552758
O O6 0.611969 0.899180 0.717185
O O7 0.500000 0.000000 0.500000
O O8 0.670216 0.042683 0.397220
O O9 0.764678 0.152050 0.006294
O O10 0.991352 0.562477 0.312523
O O11 0.048339 0.896478 0.244447
O O12 0.039527 0.848482 0.512826
O O13 0.834979 0.222001 0.363051
O O14 0.000000 0.500000 0.000000
O O15 0.093166 0.349236 0.963621
O O16 0.907061 0.908851 0.283075
O O17 0.801857 0.890685 0.227358
#
# Coordination Sequence:
#
# PCOD9001662 Si02
#       8
#     2   2   2   2   2   2   2   2
#     4   9  18  37  62  84 115 164 206 236 306 373
#     4   8  19  36  60  85 115 158 208 244 292 375
#     4  11  23  37  60  90 124 160 200 262 311 363
#     4  10  21  35  60  91 121 157 210 244 303 366
#     4  12  20  34  61  98 123 160 203 256 310 365
#     4   9  19  35  61  86 125 156 200 259 298 364
#     4  10  22  38  58  93 125 160 206 256 309 360
#     4   9  17  37  62  86 119 163 204 247 295 375
#
# _framework density 21.332923000000001
#
# number of rings (size 3 to 8) (size 9 to 14) (size 15 to 20)
#    0.750    1.500    2.500    0.375    1.750    0.500 
#    2.250    1.250    0.000    0.000    0.000    0.000 
#    0.000    0.000    0.000    0.000    0.000    0.000 
#
# Total GULP energy -89268.075995 kJ/mol
# GULP energy per Si atom -5579.254750 kJ/mol
# Density = 2.128437 g / cm^3
# Si number density = 21.332923 Si / 1000 Ang^3
#
#
#
# Elastic Constant Matrix: (Units=GPa)
#
#
# Indices 1 2 3 4 5 6 
#
# 1 41.1039 14.8778 20.2147 10.4685 -16.0281 6.4184
# 2 14.8778 119.9402 27.6553 -4.2681 1.3221 22.4702
# 3 20.2147 27.6553 54.8571 -1.5485 -14.8039 2.7595
# 4 10.4685 -4.2681 -1.5485 29.9502 -1.3526 -0.2077
# 5 -16.0281 1.3221 -14.8039 -1.3526 29.8001 -3.3068
# 6 6.4184 22.4702 2.7595 -0.2077 -3.3068 29.0355
#
#
#
# Elastic Compliance Matrix: (Units=1/GPa)
#
#
# Indices 1 2 3 4 5 6 
#
# 1 0.040557 -0.002772 -0.009382 -0.014355 0.016160 -0.004191
# 2 -0.002772 0.011824 -0.006036 0.002016 -0.005879 -0.008620
# 3 -0.009382 -0.006036 0.027145 0.004287 0.009487 0.005276
# 4 -0.014355 0.002016 0.004287 0.038751 -0.003805 0.001049
# 5 0.016160 -0.005879 0.009487 -0.003805 0.047657 0.005476
# 6 -0.004191 -0.008620 0.005276 0.001049 0.005476 0.042167
#
#
# Mechanical properties :
#
#
# Convention : Reuss Voigt Hill
#
# Bulk Modulus (GPa) = 23.17543 37.93297 30.55420
# Shear Modulus (GPa) = 19.31531 27.96739 23.64135
#
# Velocity S-wave (km/s) = 3.01229 3.62470 3.33259
# Velocity P-wave (km/s) = 4.79435 5.94457 5.40017
#
# Compressibility (1/GPa) = 0.04314914
#
# Stress axis : x y z
#
# Youngs Moduli (GPa) = 24.65641 84.57147 36.83959
#
# Poissons Ratio (x) = 0.23439 0.34561
# Poissons Ratio (y) = 0.06834 0.22235
# Poissons Ratio (z) = 0.23131 0.51044
#
# Static dielectric constant tensor:
#      x y z
#    x 1.759680 -0.016090 0.011020 
#    y -0.016090 1.788660 -0.001130 
#    z 0.011020 -0.001130 1.833300 
# 
# From -- ./inp_files/473969.got.cif
#   From: 2010.05.17/outbox.cif.g08.bks.cpg/sg2_237_cif.got.tgz:473969.got - 2010.06.03 11:33:40.
