data_PCOD9001569
_publ_section_title
;
Structure prediction by ZEFSAII (Michael W. Deem and Ramdas Pophale) SiO2 
 PCOD9001569
Probable space group: P -1
;
_chemical_formula_sum "Si O2"
_cell_formula_units_Z 12
_cell_length_a 12.886948
_cell_length_b 11.378931
_cell_length_c 14.369598
_cell_angle_alpha 151.209614
_cell_angle_beta 42.318149
_cell_angle_gamma 146.178404
_cell_volume 564.351806
_symmetry_space_group_name_H-M "P -1"
_symmetry_group_IT_number 2
_symmetry_cell_setting 'triclinic'
loop_
_space_group_symop_operation_xyz
x,y,z
-x,-y,-z
loop_
_atom_site_type_symbol
_atom_site_label
_atom_site_fract_x
_atom_site_fract_y
_atom_site_fract_z
Si Si1 0.701306 0.121262 0.994611
Si Si2 0.772670 0.948109 0.016619
Si Si3 0.326954 0.145176 0.773617
Si Si4 0.258674 0.614718 0.356056
Si Si5 0.833765 0.473871 0.850620
Si Si6 0.962017 0.209594 0.728131
O O1 0.672563 0.967709 0.006856
O O2 0.841029 0.479963 0.163166
O O3 0.833029 0.064289 0.803975
O O4 0.500000 0.000000 0.000000
O O5 0.951427 0.275715 0.140694
O O6 0.661213 0.845377 0.115545
O O7 0.844580 0.735381 0.806813
O O8 0.529903 0.282685 0.691355
O O9 0.211961 0.805801 0.581304
O O10 0.252086 0.344144 0.935042
O O11 0.252360 0.683606 0.299538
O O12 0.840994 0.283578 0.794690
O O13 0.000000 0.000000 0.500000
#
# Coordination Sequence:
#
# PCOD9001569 Si02
#       6
#     2   2   2   2   2   2
#     4  10  24  42  67  92 125 170 211 262 312 367
#     4  10  21  37  58  86 120 153 199 248 299 364
#     4  10  21  36  57  90 119 154 196 243 305 361
#     4  10  21  35  58  90 117 153 197 245 299 368
#     4  10  21  37  62  82 120 158 191 251 305 359
#     4  10  24  45  64  95 127 165 215 260 310 374
#
# _framework density 21.263332999999999
#
# number of rings (size 3 to 8) (size 9 to 14) (size 15 to 20)
#    0.000    2.000    0.000    4.000    4.667   10.000 
#    3.000    0.000    0.000    0.000    0.000    0.000 
#    0.000    0.000    0.000    0.000    0.000    0.000 
#
# Total GULP energy -66985.750617 kJ/mol
# GULP energy per Si atom -5582.145885 kJ/mol
# Density = 2.121494 g / cm^3
# Si number density = 21.263333 Si / 1000 Ang^3
#
#
#
# Elastic Constant Matrix: (Units=GPa)
#
#
# Indices 1 2 3 4 5 6 
#
# 1 105.3082 1.1021 45.8878 -2.3603 -11.0054 6.9403
# 2 1.1021 40.9961 18.9923 -9.7252 -2.7932 3.5537
# 3 45.8878 18.9923 161.6144 -7.2334 9.1442 -2.0419
# 4 -2.3603 -9.7252 -7.2334 19.8065 9.5284 -4.6703
# 5 -11.0054 -2.7932 9.1442 9.5284 24.7056 4.4710
# 6 6.9403 3.5537 -2.0419 -4.6703 4.4710 26.9332
#
#
#
# Elastic Compliance Matrix: (Units=1/GPa)
#
#
# Indices 1 2 3 4 5 6 
#
# 1 0.013233 0.001799 -0.005035 -0.006785 0.011878 -0.007177
# 2 0.001799 0.029133 -0.003502 0.012002 0.001251 -0.002700
# 3 -0.005035 -0.003502 0.008931 0.006719 -0.009472 0.005174
# 4 -0.006785 0.012002 0.006719 0.082235 -0.039766 0.021535
# 5 0.011878 0.001251 -0.009472 -0.039766 0.068780 -0.022257
# 6 -0.007177 -0.002700 0.005174 0.021535 -0.022257 0.047156
#
#
# Mechanical properties :
#
#
# Convention : Reuss Voigt Hill
#
# Bulk Modulus (GPa) = 26.44091 48.87589 37.65840
# Shear Modulus (GPa) = 18.14541 30.41815 24.28178
#
# Velocity S-wave (km/s) = 2.92441 3.78636 3.38295
# Velocity P-wave (km/s) = 4.88517 6.49240 5.74526
#
# Compressibility (1/GPa) = 0.03782018
#
# Stress axis : x y z
#
# Youngs Moduli (GPa) = 75.56592 34.32540 111.97175
#
# Poissons Ratio (x) = -0.06174 0.56381
# Poissons Ratio (y) = -0.13592 0.39213
# Poissons Ratio (z) = 0.38049 0.12021
#
# Static dielectric constant tensor:
#      x y z
#    x 1.803070 0.036100 0.037250 
#    y 0.036100 1.809270 0.031070 
#    z 0.037250 0.031070 1.777190 
# 
# From -- ./inp_files/333169.got.cif
#   From: 2010.05.17/outbox.cif.g08.bks.cpg/sg2_167_cif.got.tgz:333169.got - 2010.06.03 11:33:40.
