data_PCOD9001479
_publ_section_title
;
Structure prediction by ZEFSAII (Michael W. Deem and Ramdas Pophale) SiO2 
 PCOD9001479
Probable space group: P -1
;
_chemical_formula_sum "Si O2"
_cell_formula_units_Z 16
_cell_length_a 7.743880
_cell_length_b 5.457019
_cell_length_c 28.443045
_cell_angle_alpha 134.634634
_cell_angle_beta 127.232016
_cell_angle_gamma 65.760235
_cell_volume 680.772144
_symmetry_space_group_name_H-M "P -1"
_symmetry_group_IT_number 2
_symmetry_cell_setting 'triclinic'
loop_
_space_group_symop_operation_xyz
x,y,z
-x,-y,-z
loop_
_atom_site_type_symbol
_atom_site_label
_atom_site_fract_x
_atom_site_fract_y
_atom_site_fract_z
Si Si1 0.132501 0.712699 0.010458
Si Si2 0.928824 0.804729 0.149384
Si Si3 0.306323 0.680127 0.464924
Si Si4 0.525665 0.142733 0.179195
Si Si5 0.986495 0.334448 0.424830
Si Si6 0.665174 0.856972 0.259392
Si Si7 0.357719 0.776569 0.390012
Si Si8 0.081113 0.507796 0.229428
O O1 0.182047 0.443045 0.940956
O O2 0.000000 0.500000 0.000000
O O3 0.332905 0.916422 0.094188
O O4 0.000000 0.000000 0.000000
O O5 0.059805 0.598662 0.183215
O O6 0.744686 0.997907 0.173426
O O7 0.059357 0.103439 0.183085
O O8 0.500000 0.500000 0.500000
O O9 0.069653 0.612789 0.437565
O O10 0.315957 0.522626 0.392808
O O11 0.401601 0.068449 0.540427
O O12 0.533360 0.544515 0.220294
O O13 0.539527 0.052429 0.224159
O O14 0.000000 0.500000 0.500000
O O15 0.174261 0.052271 0.411487
O O16 0.763356 0.137906 0.349518
O O17 0.875094 0.686348 0.245373
O O18 0.291766 0.653647 0.311429
#
# Coordination Sequence:
#
# PCOD9001479 Si02
#       8
#     2   2   2   2   2   2   2   2
#     4  12  25  42  66  90 131 163 188 242 314 374
#     4  10  21  39  63  96 115 156 209 247 292 357
#     4   9  19  34  56  78 115 152 210 241 304 355
#     4  10  21  42  66  89 117 157 208 251 289 360
#     4  10  21  35  56  85 119 157 200 250 303 360
#     4   9  20  36  62  90 115 156 201 254 302 338
#     4   9  19  35  57  83 113 162 199 251 307 344
#     4   9  19  33  63  90 118 148 206 262 289 338
#
# _framework density 23.502725000000002
#
# number of rings (size 3 to 8) (size 9 to 14) (size 15 to 20)
#    0.000    2.250    0.000    1.875   10.500    0.500 
#    0.000    8.750    5.500    0.000    0.000    0.000 
#    0.000    0.000    0.000    0.000    0.000    0.000 
#
# Total GULP energy -89376.279242 kJ/mol
# GULP energy per Si atom -5586.017453 kJ/mol
# Density = 2.344923 g / cm^3
# Si number density = 23.502725 Si / 1000 Ang^3
#
#
#
# Elastic Constant Matrix: (Units=GPa)
#
#
# Indices 1 2 3 4 5 6 
#
# 1 80.9013 41.9751 45.8126 5.4202 6.4690 16.3778
# 2 41.9751 138.0642 78.0320 -12.4906 2.9586 45.5020
# 3 45.8126 78.0320 210.4602 -15.3795 8.7667 32.8305
# 4 5.4202 -12.4906 -15.3795 39.1122 0.1997 -1.1528
# 5 6.4690 2.9586 8.7667 0.1997 34.2859 7.3320
# 6 16.3778 45.5020 32.8305 -1.1528 7.3320 31.4843
#
#
#
# Elastic Compliance Matrix: (Units=1/GPa)
#
#
# Indices 1 2 3 4 5 6 
#
# 1 0.016182 -0.004015 -0.002283 -0.004409 -0.002118 0.000097
# 2 -0.004015 0.016787 -0.001922 0.004521 0.004264 -0.020996
# 3 -0.002283 -0.001922 0.006561 0.002206 -0.000522 -0.002674
# 4 -0.004409 0.004521 0.002206 0.028316 0.000936 -0.005723
# 5 -0.002118 0.004264 -0.000522 0.000936 0.031872 -0.011904
# 6 0.000097 -0.020996 -0.002674 -0.005723 -0.011904 0.067406
#
#
# Mechanical properties :
#
#
# Convention : Reuss Voigt Hill
#
# Bulk Modulus (GPa) = 43.30831 84.56278 63.93554
# Shear Modulus (GPa) = 26.14216 38.55021 32.34618
#
# Velocity S-wave (km/s) = 3.33874 4.05439 3.71384
# Velocity P-wave (km/s) = 5.77320 7.61416 6.75668
#
# Compressibility (1/GPa) = 0.02309026
#
# Stress axis : x y z
#
# Youngs Moduli (GPa) = 61.79841 59.56821 152.41092
#
# Poissons Ratio (x) = 0.23916 0.34794
# Poissons Ratio (y) = 0.24811 0.29297
# Poissons Ratio (z) = 0.14108 0.11451
#
# Static dielectric constant tensor:
#      x y z
#    x 1.952100 0.094630 -0.008290 
#    y 0.094630 2.156650 0.086880 
#    z -0.008290 0.086880 1.884060 
# 
# From -- ./inp_files/585352.got.cif
#   From: 2010.05.17/outbox.cif.g08.bks.cpg/sg2_293_cif.got.tgz:585352.got - 2010.06.03 11:33:40.
