data_PCOD9001775
_publ_section_title
;
Structure prediction by ZEFSAII (Michael W. Deem and Ramdas Pophale) SiO2 
 PCOD9001775
Probable space group: P -1
;
_chemical_formula_sum "Si O2"
_cell_formula_units_Z 14
_cell_length_a 10.276956
_cell_length_b 8.641610
_cell_length_c 11.503313
_cell_angle_alpha 112.334987
_cell_angle_beta 39.590835
_cell_angle_gamma 117.818899
_cell_volume 575.445436
_symmetry_space_group_name_H-M "P -1"
_symmetry_group_IT_number 2
_symmetry_cell_setting 'triclinic'
loop_
_space_group_symop_operation_xyz
x,y,z
-x,-y,-z
loop_
_atom_site_type_symbol
_atom_site_label
_atom_site_fract_x
_atom_site_fract_y
_atom_site_fract_z
Si Si1 0.718522 0.640454 0.545890
Si Si2 0.007649 0.441642 0.195497
Si Si3 0.001873 0.307438 0.408836
Si Si4 0.325614 0.077348 0.999314
Si Si5 0.821293 0.947205 0.378470
Si Si6 0.610054 0.269123 0.070472
Si Si7 0.812110 0.824768 0.106989
O O1 0.867748 0.722991 0.577267
O O2 0.753544 0.796963 0.476065
O O3 0.484051 0.600082 0.752024
O O4 0.787729 0.480792 0.394477
O O5 0.079384 0.353939 0.235435
O O6 0.160750 0.630922 0.110396
O O7 0.057192 0.318825 0.025914
O O8 0.000000 0.500000 0.500000
O O9 0.799212 0.135277 0.485827
O O10 0.345051 0.180199 0.894081
O O11 0.391816 0.898782 0.899342
O O12 0.466155 0.197934 0.036222
O O13 0.079475 0.009981 0.195444
O O14 0.719777 0.862060 0.303429
O O15 0.000000 0.000000 0.000000
#
# Coordination Sequence:
#
# PCOD9001775 Si02
#       7
#     2   2   2   2   2   2   2
#     4  11  23  39  65  98 127 166 211 265 322 374
#     4  11  22  41  66  98 126 168 215 265 320 371
#     4  10  21  35  62  98 124 159 216 263 314 370
#     4  10  21  40  62  96 127 171 215 255 325 377
#     4  11  20  42  66  91 127 174 214 257 319 384
#     4  11  23  39  66  98 132 161 211 276 315 376
#     4  10  21  41  69  89 125 178 219 250 317 392
#
# _framework density 24.328980000000001
#
# number of rings (size 3 to 8) (size 9 to 14) (size 15 to 20)
#    0.000    1.429    5.714    0.429    0.000    4.000 
#    0.000    2.857    0.000    0.000    0.000    0.000 
#    0.000    0.000    0.000    0.000    0.000    0.000 
#
# Total GULP energy -78045.765489 kJ/mol
# GULP energy per Si atom -5574.697535 kJ/mol
# Density = 2.427361 g / cm^3
# Si number density = 24.328980 Si / 1000 Ang^3
#
#
#
# Elastic Constant Matrix: (Units=GPa)
#
#
# Indices 1 2 3 4 5 6 
#
# 1 35.8489 20.9644 30.4711 19.2475 13.3498 -26.4596
# 2 20.9644 88.5919 23.8468 26.8317 7.3828 -17.3571
# 3 30.4711 23.8468 75.9575 8.3953 -6.5139 -12.6801
# 4 19.2475 26.8317 8.3953 30.0619 -6.4654 5.0724
# 5 13.3498 7.3828 -6.5139 -6.4654 31.6162 -12.6753
# 6 -26.4596 -17.3571 -12.6801 5.0724 -12.6753 25.2012
#
#
#
# Elastic Compliance Matrix: (Units=1/GPa)
#
#
# Indices 1 2 3 4 5 6 
#
# 1 -0.036037 -0.019596 0.007266 0.049621 0.010419 -0.052424
# 2 -0.019596 0.011938 0.002094 0.003637 0.002303 -0.010873
# 3 0.007266 0.002094 0.015305 -0.013316 0.005852 0.022396
# 4 0.049621 0.003637 -0.013316 -0.007387 -0.007834 0.045450
# 5 0.010419 0.002303 0.005852 -0.007834 0.041498 0.037919
# 6 -0.052424 -0.010873 0.022396 0.045450 0.037919 -0.001658
#
#
# Mechanical properties :
#
#
# Convention : Reuss Voigt Hill
#
# Bulk Modulus (GPa) = -34.16934 38.99590 2.41328
# Shear Modulus (GPa) = 145.45109 25.71691 85.58400
#
# Velocity S-wave (km/s) = 7.74047 3.25476 5.93752
# Velocity P-wave (km/s) = 8.11242 5.49436 6.92818
#
# Compressibility (1/GPa) = -0.02926600
#
# Stress axis : x y z
#
# Youngs Moduli (GPa) = -27.74915 83.76781 65.33733
#
# Poissons Ratio (x) = 1.64152 -0.47477
# Poissons Ratio (y) = -0.54377 -0.13680
# Poissons Ratio (z) = 0.20164 -0.17539
#
# Static dielectric constant tensor:
#      x y z
#    x 2.063610 -0.029440 -0.048610 
#    y -0.029440 1.991400 0.171760 
#    z -0.048610 0.171760 2.045280 
# 
# From -- ./inp_files/419639.got.cif
#   From: 2010.05.17/outbox.cif.g08.bks.cpg/sg2_210_cif.got.tgz:419639.got - 2010.06.03 11:33:40.
