data_PCOD9001846
_publ_section_title
;
Structure prediction by ZEFSAII (Michael W. Deem and Ramdas Pophale) SiO2 
 PCOD9001846
Probable space group: P -1
;
_chemical_formula_sum "Si O2"
_cell_formula_units_Z 16
_cell_length_a 14.787591
_cell_length_b 10.925978
_cell_length_c 8.902779
_cell_angle_alpha 88.966755
_cell_angle_beta 52.032428
_cell_angle_gamma 53.585881
_cell_volume 763.815177
_symmetry_space_group_name_H-M "P -1"
_symmetry_group_IT_number 2
_symmetry_cell_setting 'triclinic'
loop_
_space_group_symop_operation_xyz
x,y,z
-x,-y,-z
loop_
_atom_site_type_symbol
_atom_site_label
_atom_site_fract_x
_atom_site_fract_y
_atom_site_fract_z
Si Si1 0.431597 0.482608 0.210925
Si Si2 0.847489 0.482418 0.609165
Si Si3 0.862261 0.139411 0.319740
Si Si4 0.602813 0.302279 0.336441
Si Si5 0.463953 0.912475 0.643152
Si Si6 0.104790 0.122154 0.510220
Si Si7 0.345493 0.144699 0.268187
Si Si8 0.110728 0.146291 0.162457
O O1 0.325061 0.452300 0.258692
O O2 0.294499 0.676278 0.431421
O O3 0.580732 0.330421 0.178729
O O4 0.500000 0.500000 0.000000
O O5 0.796912 0.662376 0.675867
O O6 0.936520 0.339251 0.657996
O O7 0.978912 0.357197 0.339888
O O8 0.783229 0.170452 0.238011
O O9 0.005257 0.130125 0.178152
O O10 0.917466 0.975979 0.359249
O O11 0.500000 0.500000 0.500000
O O12 0.523799 0.229357 0.448122
O O13 0.592813 0.829365 0.651316
O O14 0.500000 0.000000 0.500000
O O15 0.276123 0.059584 0.907582
O O16 0.258852 0.086517 0.407072
O O17 0.148610 0.058018 0.291433
O O18 0.500000 0.000000 0.000000
#
# Coordination Sequence:
#
# PCOD9001846 Si02
#       8
#     2   2   2   2   2   2   2   2
#     4  10  21  35  67  98 129 174 221 277 336 397
#     4   9  21  39  61  97 134 168 215 282 336 386
#     4  10  21  40  67  94 133 179 219 273 347 405
#     4  10  23  44  64  98 144 176 227 289 338 407
#     4  12  25  44  69  97 135 185 230 283 348 412
#     4  10  21  37  65  99 131 169 225 276 335 407
#     4  12  22  40  69  98 133 178 223 282 339 401
#     4   9  22  41  67  95 136 172 227 283 336 400
#
# _framework density 20.947475000000001
#
# number of rings (size 3 to 8) (size 9 to 14) (size 15 to 20)
#    0.750    1.000    2.500    1.500    3.500    0.500 
#    0.000    1.875    2.750    0.000    0.000    0.000 
#    0.000    0.000    0.000    0.000    0.000    0.000 
#
# Total GULP energy -89262.548512 kJ/mol
# GULP energy per Si atom -5578.909282 kJ/mol
# Density = 2.089980 g / cm^3
# Si number density = 20.947475 Si / 1000 Ang^3
#
#
#
# Elastic Constant Matrix: (Units=GPa)
#
#
# Indices 1 2 3 4 5 6 
#
# 1 140.7320 25.5521 20.2638 -7.4747 -25.2269 -7.1032
# 2 25.5521 113.6585 32.1047 -14.3196 -9.7231 2.3071
# 3 20.2638 32.1047 74.1361 -4.8380 -8.1840 -4.5470
# 4 -7.4747 -14.3196 -4.8380 25.4352 7.1642 8.0855
# 5 -25.2269 -9.7231 -8.1840 7.1642 19.3130 7.2394
# 6 -7.1032 2.3071 -4.5470 8.0855 7.2394 37.9485
#
#
#
# Elastic Compliance Matrix: (Units=1/GPa)
#
#
# Indices 1 2 3 4 5 6 
#
# 1 0.009508 -0.000989 -0.000935 -0.001250 0.012107 -0.000316
# 2 -0.000989 0.011098 -0.004176 0.005646 0.001499 -0.002849
# 3 -0.000935 -0.004176 0.015939 -0.001003 0.003206 0.001591
# 4 -0.001250 0.005646 -0.001003 0.048563 -0.014098 -0.008355
# 5 0.012107 0.001499 0.003206 -0.014098 0.078462 -0.009405
# 6 -0.000316 -0.002849 0.001591 -0.008355 -0.009405 0.030231
#
#
# Mechanical properties :
#
#
# Convention : Reuss Voigt Hill
#
# Bulk Modulus (GPa) = 41.07771 53.81864 47.44817
# Shear Modulus (GPa) = 23.35195 33.24642 28.29918
#
# Velocity S-wave (km/s) = 3.34246 3.98821 3.67953
# Velocity P-wave (km/s) = 5.87780 6.85242 6.38374
#
# Compressibility (1/GPa) = 0.02434410
#
# Stress axis : x y z
#
# Youngs Moduli (GPa) = 105.17668 90.10850 62.73958
#
# Poissons Ratio (x) = 0.08910 0.05866
# Poissons Ratio (y) = 0.10400 0.26203
# Poissons Ratio (z) = 0.09834 0.37633
#
# Static dielectric constant tensor:
#      x y z
#    x 1.812950 0.031490 -0.014770 
#    y 0.031490 1.879150 -0.011540 
#    z -0.014770 -0.011540 1.771610 
# 
# From -- ./inp_files/307268.got.cif
#   From: 2010.05.17/outbox.cif.g08.bks.cpg/sg2_154_cif.got.tgz:307268.got - 2010.06.03 11:33:40.
