data_PCOD9001264
_publ_section_title
;
Structure prediction by ZEFSAII (Michael W. Deem and Ramdas Pophale) SiO2 
 PCOD9001264
Probable space group: P -1
;
_chemical_formula_sum "Si O2"
_cell_formula_units_Z 14
_cell_length_a 12.580221
_cell_length_b 23.622479
_cell_length_c 22.828567
_cell_angle_alpha 166.895161
_cell_angle_beta 156.146232
_cell_angle_gamma 20.742076
_cell_volume 544.170928
_symmetry_space_group_name_H-M "P -1"
_symmetry_group_IT_number 2
_symmetry_cell_setting 'triclinic'
loop_
_space_group_symop_operation_xyz
x,y,z
-x,-y,-z
loop_
_atom_site_type_symbol
_atom_site_label
_atom_site_fract_x
_atom_site_fract_y
_atom_site_fract_z
Si Si1 0.287130 0.500008 0.482910
Si Si2 0.709384 0.698995 0.463466
Si Si3 0.089270 0.213007 0.792719
Si Si4 0.159362 0.230158 0.578480
Si Si5 0.802663 0.165167 0.012101
Si Si6 0.397345 0.953620 0.033788
Si Si7 0.803087 0.262427 0.825924
O O1 0.056970 0.584621 0.507760
O O2 0.079937 0.647904 0.471871
O O3 0.442756 0.159966 0.220215
O O4 0.493759 0.643108 0.743602
O O5 0.539322 0.659329 0.282816
O O6 0.591142 0.029946 0.752561
O O7 0.672623 0.501420 0.294463
O O8 0.435386 0.072729 0.847359
O O9 0.936769 0.263436 0.830728
O O10 0.000000 0.000000 0.500000
O O11 0.000000 0.500000 0.000000
O O12 0.500000 0.000000 0.500000
O O13 0.068538 0.044472 0.388376
O O14 0.176334 0.497615 0.884261
O O15 0.000000 0.000000 0.000000
O O16 0.040090 0.092931 0.005863
#
# Coordination Sequence:
#
# PCOD9001264 Si02
#       7
#     2   2   2   2   2   2   2
#     4  10  21  41  66  96 135 173 207 280 348 398
#     4  10  21  35  58  93 131 164 206 277 331 402
#     4  12  28  49  72  94 137 192 234 283 329 393
#     4  12  24  42  72 106 141 176 216 283 359 410
#     4  10  21  34  59  88 127 165 222 272 340 386
#     4  10  23  42  63  94 132 177 228 272 333 406
#     4  12  26  42  68 103 139 173 242 270 335 417
#
# _framework density 25.727209999999999
#
# number of rings (size 3 to 8) (size 9 to 14) (size 15 to 20)
#    0.000    1.143    1.429    4.286    8.000    0.000 
#    0.000    4.286    0.000    0.000    0.000    0.000 
#    0.000    0.000    0.000    0.000    0.000    0.000 
#
# Total GULP energy -78345.539551 kJ/mol
# GULP energy per Si atom -5596.109968 kJ/mol
# Density = 2.566865 g / cm^3
# Si number density = 25.727210 Si / 1000 Ang^3
#
#
#
# Elastic Constant Matrix: (Units=GPa)
#
#
# Indices 1 2 3 4 5 6 
#
# 1 72.5861 32.3381 56.4696 4.4904 12.4644 19.6535
# 2 32.3381 102.6777 82.3433 1.8803 12.3869 35.9489
# 3 56.4696 82.3433 305.4640 5.2746 12.2881 38.6676
# 4 4.4904 1.8803 5.2746 46.1647 21.9735 9.6427
# 5 12.4644 12.3869 12.2881 21.9735 47.0714 3.9274
# 6 19.6535 35.9489 38.6676 9.6427 3.9274 54.1973
#
#
#
# Elastic Compliance Matrix: (Units=1/GPa)
#
#
# Indices 1 2 3 4 5 6 
#
# 1 0.017976 -0.002327 -0.002134 0.001118 -0.003831 -0.003374
# 2 -0.002327 0.015880 -0.002737 0.003358 -0.003743 -0.008063
# 3 -0.002134 -0.002737 0.004473 -0.000191 0.000256 -0.000587
# 4 0.001118 0.003358 -0.000191 0.029719 -0.014441 -0.006737
# 5 -0.003831 -0.003743 0.000256 -0.014441 0.029575 0.004115
# 6 -0.003374 -0.008063 -0.000587 -0.006737 0.004115 0.026341
#
#
# Mechanical properties :
#
#
# Convention : Reuss Voigt Hill
#
# Bulk Modulus (GPa) = 41.78419 91.44777 66.61598
# Shear Modulus (GPa) = 34.16728 50.12512 42.14620
#
# Velocity S-wave (km/s) = 3.64821 4.41878 4.05185
# Velocity P-wave (km/s) = 5.83287 7.85216 6.91661
#
# Compressibility (1/GPa) = 0.02393249
#
# Stress axis : x y z
#
# Youngs Moduli (GPa) = 55.63028 62.97089 223.54545
#
# Poissons Ratio (x) = 0.14655 0.47702
# Poissons Ratio (y) = 0.12947 0.61193
# Poissons Ratio (z) = 0.11871 0.17238
#
# Static dielectric constant tensor:
#      x y z
#    x 2.066160 -0.105530 0.018420 
#    y -0.105530 2.081350 0.049410 
#    z 0.018420 0.049410 2.123110 
# 
# From -- ./inp_files/620003.got.cif
#   From: 2010.05.17/outbox.cif.g08.bks.cpg/sg2_311_cif.got.tgz:620003.got - 2010.06.03 11:33:40.
