data_PCOD9001389
_publ_section_title
;
Structure prediction by ZEFSAII (Michael W. Deem and Ramdas Pophale) SiO2 
 PCOD9001389
Probable space group: P -1
;
_chemical_formula_sum "Si O2"
_cell_formula_units_Z 14
_cell_length_a 7.061621
_cell_length_b 14.710369
_cell_length_c 14.971649
_cell_angle_alpha 29.605175
_cell_angle_beta 48.294036
_cell_angle_gamma 42.034893
_cell_volume 513.556579
_symmetry_space_group_name_H-M "P -1"
_symmetry_group_IT_number 2
_symmetry_cell_setting 'triclinic'
loop_
_space_group_symop_operation_xyz
x,y,z
-x,-y,-z
loop_
_atom_site_type_symbol
_atom_site_label
_atom_site_fract_x
_atom_site_fract_y
_atom_site_fract_z
Si Si1 0.244993 0.530951 0.456843
Si Si2 0.357038 0.678973 0.625533
Si Si3 0.134099 0.374344 0.360691
Si Si4 0.477820 0.024046 0.210916
Si Si5 0.711323 0.813623 0.151914
Si Si6 0.525629 0.771429 0.783866
Si Si7 0.108766 0.689029 0.870630
O O1 0.484009 0.514905 0.325870
O O2 0.406299 0.336087 0.638944
O O3 0.000000 0.500000 0.500000
O O4 0.050243 0.686170 0.460344
O O5 0.591201 0.654921 0.646472
O O6 0.110190 0.705093 0.747842
O O7 0.331587 0.875453 0.410301
O O8 0.238742 0.241363 0.352530
O O9 0.979145 0.626184 0.181563
O O10 0.559603 0.082199 0.229908
O O11 0.221142 0.222092 0.079674
O O12 0.731150 0.921858 0.146826
O O13 0.500000 0.000000 0.000000
O O14 0.250930 0.806763 0.782007
O O15 0.683899 0.543601 0.970405
#
# Coordination Sequence:
#
# PCOD9001389 Si02
#       7
#     2   2   2   2   2   2   2
#     4   7  13  27  49  76  98 140 191 213 263 337
#     4   9  17  33  56  83 104 151 187 229 275 341
#     4   8  16  31  54  79 107 145 194 218 278 343
#     4  11  21  34  59  86 110 142 196 233 277 328
#     4   9  17  29  53  84 107 142 189 233 271 329
#     4  10  21  37  57  83 110 152 182 233 284 334
#     4  10  21  35  54  82 120 143 182 229 291 338
#
# _framework density 27.260873
#
# number of rings (size 3 to 8) (size 9 to 14) (size 15 to 20)
#    0.857    2.000    0.000    1.714    0.000    2.286 
#    0.000    0.000    0.000   18.000    0.000    0.000 
#    0.000    0.000    0.000    0.000    0.000    0.000 
#
# Total GULP energy -77963.836695 kJ/mol
# GULP energy per Si atom -5568.845478 kJ/mol
# Density = 2.719883 g / cm^3
# Si number density = 27.260873 Si / 1000 Ang^3
#
#
#
# Elastic Constant Matrix: (Units=GPa)
#
#
# Indices 1 2 3 4 5 6 
#
# 1 95.4592 50.9155 22.1938 -1.2202 13.8771 15.3865
# 2 50.9155 143.0033 24.7167 3.8539 12.7964 30.4717
# 3 22.1938 24.7167 93.7010 -12.6814 24.8654 -3.2730
# 4 -1.2202 3.8539 -12.6814 48.9247 -6.7686 18.2145
# 5 13.8771 12.7964 24.8654 -6.7686 33.9610 2.1146
# 6 15.3865 30.4717 -3.2730 18.2145 2.1146 40.5081
#
#
#
# Elastic Compliance Matrix: (Units=1/GPa)
#
#
# Indices 1 2 3 4 5 6 
#
# 1 0.013706 -0.003826 -0.001489 0.000888 -0.002723 -0.002705
# 2 -0.003826 0.010101 -0.001761 0.001135 -0.000305 -0.006782
# 3 -0.001489 -0.001761 0.014173 0.001474 -0.008989 0.002841
# 4 0.000888 0.001135 0.001474 0.026196 0.004165 -0.013068
# 5 -0.002723 -0.000305 -0.008989 0.004165 0.038292 -0.003334
# 6 -0.002705 -0.006782 0.002841 -0.013068 -0.003334 0.037095
#
#
# Mechanical properties :
#
#
# Convention : Reuss Voigt Hill
#
# Bulk Modulus (GPa) = 41.96506 58.64616 50.30561
# Shear Modulus (GPa) = 30.92934 40.30127 35.61531
#
# Velocity S-wave (km/s) = 3.37199 3.84911 3.61842
# Velocity P-wave (km/s) = 5.53062 6.42758 5.99590
#
# Compressibility (1/GPa) = 0.02382935
#
# Stress axis : x y z
#
# Youngs Moduli (GPa) = 72.96096 98.99660 70.55500
#
# Poissons Ratio (x) = 0.37881 0.10503
# Poissons Ratio (y) = 0.27918 0.12421
# Poissons Ratio (z) = 0.10861 0.17429
#
# Static dielectric constant tensor:
#      x y z
#    x 2.194360 0.051260 -0.103720 
#    y 0.051260 2.349990 -0.011470 
#    z -0.103720 -0.011470 2.256410 
# 
# From -- ./inp_files/503784.got.cif
#   From: 2010.05.17/outbox.cif.g08.bks.cpg/sg2_252_cif.got.tgz:503784.got - 2010.06.03 11:33:40.
