data_PCOD9001585
_publ_section_title
;
Structure prediction by ZEFSAII (Michael W. Deem and Ramdas Pophale) SiO2 
 PCOD9001585
Probable space group: P -1
;
_chemical_formula_sum "Si O2"
_cell_formula_units_Z 16
_cell_length_a 10.923649
_cell_length_b 9.112171
_cell_length_c 15.030445
_cell_angle_alpha 78.332449
_cell_angle_beta 43.559658
_cell_angle_gamma 48.922213
_cell_volume 660.332251
_symmetry_space_group_name_H-M "P -1"
_symmetry_group_IT_number 2
_symmetry_cell_setting 'triclinic'
loop_
_space_group_symop_operation_xyz
x,y,z
-x,-y,-z
loop_
_atom_site_type_symbol
_atom_site_label
_atom_site_fract_x
_atom_site_fract_y
_atom_site_fract_z
Si Si1 0.819067 0.297694 0.824554
Si Si2 0.712722 0.246830 0.708987
Si Si3 0.508916 0.848502 0.289999
Si Si4 0.228116 0.044458 0.961044
Si Si5 0.269536 0.194986 0.527267
Si Si6 0.834699 0.366888 0.271372
Si Si7 0.778421 0.254461 0.035383
Si Si8 0.318259 0.509900 0.465386
O O1 0.873566 0.153533 0.728962
O O2 0.949384 0.169145 0.865790
O O3 0.974910 0.347548 0.705924
O O4 0.500000 0.500000 0.000000
O O5 0.672431 0.122898 0.690134
O O6 0.768278 0.335311 0.592465
O O7 0.420246 0.481288 0.872636
O O8 0.676114 0.868650 0.148171
O O9 0.702030 0.604007 0.269146
O O10 0.325861 0.052898 0.431510
O O11 0.963998 0.149446 0.036499
O O12 0.124739 0.147548 0.100869
O O13 0.398237 0.784254 0.885099
O O14 0.309735 0.342148 0.465040
O O15 0.500000 0.000000 0.500000
O O16 0.613969 0.381921 0.357040
O O17 0.850471 0.366816 0.369262
#
# Coordination Sequence:
#
# PCOD9001585 Si02
#       8
#     2   2   2   2   2   2   2   2
#     4  10  25  44  66  92 131 178 216 258 330 389
#     4  10  22  43  59  86 130 178 215 259 318 396
#     4  11  22  36  60  96 131 166 217 268 326 376
#     4  11  21  35  63  99 128 164 216 276 324 380
#     4  12  24  39  68 101 127 163 223 277 314 382
#     4  10  21  35  58  94 138 167 204 269 332 380
#     4  10  21  37  63  90 126 169 214 270 325 377
#     4  10  21  38  59  93 131 167 213 262 329 376
#
# _framework density 24.230225999999998
#
# number of rings (size 3 to 8) (size 9 to 14) (size 15 to 20)
#    0.000    1.500    3.750    1.875    3.500    2.000 
#    0.000    0.625    0.000    0.000    0.000    0.000 
#    0.000    0.000    0.000    0.000    0.000    0.000 
#
# Total GULP energy -89298.499440 kJ/mol
# GULP energy per Si atom -5581.156215 kJ/mol
# Density = 2.417508 g / cm^3
# Si number density = 24.230226 Si / 1000 Ang^3
#
#
#
# Elastic Constant Matrix: (Units=GPa)
#
#
# Indices 1 2 3 4 5 6 
#
# 1 98.5367 42.3206 57.2895 0.5957 40.9421 23.3152
# 2 42.3206 62.7717 35.6768 -12.9908 -6.4554 40.1349
# 3 57.2895 35.6768 145.5795 -16.0740 28.1641 17.6627
# 4 0.5957 -12.9908 -16.0740 36.9256 0.9590 -4.3568
# 5 40.9421 -6.4554 28.1641 0.9590 54.8844 -2.4553
# 6 23.3152 40.1349 17.6627 -4.3568 -2.4553 45.5399
#
#
#
# Elastic Compliance Matrix: (Units=1/GPa)
#
#
# Indices 1 2 3 4 5 6 
#
# 1 0.037194 -0.036459 -0.002658 -0.012471 -0.029946 0.011313
# 2 -0.036459 0.081585 -0.004710 0.020688 0.036726 -0.047450
# 3 -0.002658 -0.004710 0.009885 0.002991 -0.003617 0.001769
# 4 -0.012471 0.020688 0.002991 0.034538 0.009186 -0.009208
# 5 -0.029946 0.036726 -0.003617 0.009186 0.046025 -0.012273
# 6 0.011313 -0.047450 0.001769 -0.009208 -0.012273 0.055756
#
#
# Mechanical properties :
#
#
# Convention : Reuss Voigt Hill
#
# Bulk Modulus (GPa) = 24.38483 64.16243 44.27363
# Shear Modulus (GPa) = 13.64980 38.91006 26.27993
#
# Velocity S-wave (km/s) = 2.37605 4.01165 3.29689
# Velocity P-wave (km/s) = 4.19680 6.92789 5.72751
#
# Compressibility (1/GPa) = 0.04100911
#
# Stress axis : x y z
#
# Youngs Moduli (GPa) = 26.88627 12.25717 101.16624
#
# Poissons Ratio (x) = 0.44688 0.26890
# Poissons Ratio (y) = 0.98024 0.47651
# Poissons Ratio (z) = 0.07146 0.05773
#
# Static dielectric constant tensor:
#      x y z
#    x 2.038390 -0.280140 -0.005000 
#    y -0.280140 2.539090 0.006690 
#    z -0.005000 0.006690 1.934770 
# 
# From -- ./inp_files/273312.got.cif
#   From: 2010.05.17/outbox.cif.g08.bks.cpg/sg2_137_cif.got.tgz:273312.got - 2010.06.03 11:33:40.
