data_PCOD9001729
_publ_section_title
;
Structure prediction by ZEFSAII (Michael W. Deem and Ramdas Pophale) SiO2 
 PCOD9001729
Probable space group: P -1
;
_chemical_formula_sum "Si O2"
_cell_formula_units_Z 16
_cell_length_a 19.836649
_cell_length_b 20.702328
_cell_length_c 8.306347
_cell_angle_alpha 32.261909
_cell_angle_beta 28.003047
_cell_angle_gamma 27.616472
_cell_volume 710.338380
_symmetry_space_group_name_H-M "P -1"
_symmetry_group_IT_number 2
_symmetry_cell_setting 'triclinic'
loop_
_space_group_symop_operation_xyz
x,y,z
-x,-y,-z
loop_
_atom_site_type_symbol
_atom_site_label
_atom_site_fract_x
_atom_site_fract_y
_atom_site_fract_z
Si Si1 0.318442 0.301039 0.581927
Si Si2 0.139157 0.328655 0.602106
Si Si3 0.435811 0.123069 0.009555
Si Si4 0.306312 0.823752 0.070333
Si Si5 0.499831 0.732688 0.173457
Si Si6 0.906175 0.416278 0.418584
Si Si7 0.118506 0.148432 0.769835
Si Si8 0.358334 0.557393 0.321704
O O1 0.191036 0.283960 0.773513
O O2 0.241370 0.471769 0.378868
O O3 0.328040 0.264629 0.826314
O O4 0.513294 0.203152 0.317631
O O5 0.074042 0.237890 0.841522
O O6 0.000000 0.500000 0.500000
O O7 0.323062 0.293055 0.220026
O O8 0.311694 0.106947 0.419599
O O9 0.555175 0.149515 0.815012
O O10 0.500000 0.000000 0.000000
O O11 0.351493 0.784710 0.245051
O O12 0.304222 0.703249 0.223882
O O13 0.145938 0.991644 0.038814
O O14 0.559633 0.577940 0.445554
O O15 0.813256 0.411690 0.466638
O O16 0.011477 0.262128 0.612538
O O17 0.000000 0.500000 0.000000
O O18 0.500000 0.500000 0.000000
#
# Coordination Sequence:
#
# PCOD9001729 Si02
#       8
#     2   2   2   2   2   2   2   2
#     4  11  20  36  62  94 123 170 216 256 322 380
#     4  10  21  35  61  96 132 166 205 263 329 381
#     4  11  20  34  60  97 131 162 214 274 322 370
#     4  11  24  41  60  93 130 175 211 267 329 385
#     4  10  23  39  64  93 127 172 223 265 315 393
#     4  12  22  40  67 100 126 165 218 273 317 378
#     4  11  23  37  60  95 137 164 211 270 328 381
#     4  12  24  44  70  93 125 174 227 265 318 397
#
# _framework density 22.524477000000001
#
# number of rings (size 3 to 8) (size 9 to 14) (size 15 to 20)
#    0.000    1.000    6.250    1.125    1.750    2.000 
#    0.000    0.000    0.000    1.500    0.000    0.000 
#    0.000    0.000    0.000    0.000    0.000    0.000 
#
# Total GULP energy -89216.529840 kJ/mol
# GULP energy per Si atom -5576.033115 kJ/mol
# Density = 2.247321 g / cm^3
# Si number density = 22.524477 Si / 1000 Ang^3
#
#
#
# Elastic Constant Matrix: (Units=GPa)
#
#
# Indices 1 2 3 4 5 6 
#
# 1 166.0098 56.6971 41.0101 -37.7961 -14.4601 13.7684
# 2 56.6971 137.9816 22.6753 -46.2150 -14.4879 9.8974
# 3 41.0101 22.6753 42.9485 -23.3346 1.3475 -4.4454
# 4 -37.7961 -46.2150 -23.3346 39.9083 3.1790 -0.5879
# 5 -14.4601 -14.4879 1.3475 3.1790 22.2154 -4.4462
# 6 13.7684 9.8974 -4.4454 -0.5879 -4.4462 36.6309
#
#
#
# Elastic Compliance Matrix: (Units=1/GPa)
#
#
# Indices 1 2 3 4 5 6 
#
# 1 0.009661 -0.000827 -0.007501 0.003355 0.004992 -0.003659
# 2 -0.000827 0.012954 0.001528 0.014659 0.005294 -0.002126
# 3 -0.007501 0.001528 0.041152 0.019449 -0.007811 0.006765
# 4 0.003355 0.014659 0.019449 0.056385 0.002156 -0.001695
# 5 0.004992 0.005294 -0.007811 0.002156 0.052307 0.002129
# 6 -0.003659 -0.002126 0.006765 -0.001695 0.002129 0.030301
#
#
# Mechanical properties :
#
#
# Convention : Reuss Voigt Hill
#
# Bulk Modulus (GPa) = 19.93316 65.30054 42.61685
# Shear Modulus (GPa) = 21.45165 34.85473 28.15319
#
# Velocity S-wave (km/s) = 3.08940 3.93799 3.53922
# Velocity P-wave (km/s) = 4.64700 7.05201 5.97183
#
# Compressibility (1/GPa) = 0.05016765
#
# Stress axis : x y z
#
# Youngs Moduli (GPa) = 103.50612 77.19610 24.30033
#
# Poissons Ratio (x) = 0.06383 0.18228
# Poissons Ratio (y) = 0.08559 -0.03714
# Poissons Ratio (z) = 0.77642 -0.11799
#
# Static dielectric constant tensor:
#      x y z
#    x 1.878430 0.076880 0.006230 
#    y 0.076880 2.135970 -0.021960 
#    z 0.006230 -0.021960 1.946050 
# 
# From -- ./inp_files/349661.got.cif
#   From: 2010.05.17/outbox.cif.g08.bks.cpg/sg2_175_cif.got.tgz:349661.got - 2010.06.03 11:33:40.
