data_PCOD9001337
_publ_section_title
;
Structure prediction by ZEFSAII (Michael W. Deem and Ramdas Pophale) SiO2 
 PCOD9001337
Probable space group: P -1
;
_chemical_formula_sum "Si O2"
_cell_formula_units_Z 14
_cell_length_a 11.708100
_cell_length_b 22.934625
_cell_length_c 5.146857
_cell_angle_alpha 65.432838
_cell_angle_beta 103.811752
_cell_angle_gamma 153.546973
_cell_volume 528.646456
_symmetry_space_group_name_H-M "P -1"
_symmetry_group_IT_number 2
_symmetry_cell_setting 'triclinic'
loop_
_space_group_symop_operation_xyz
x,y,z
-x,-y,-z
loop_
_atom_site_type_symbol
_atom_site_label
_atom_site_fract_x
_atom_site_fract_y
_atom_site_fract_z
Si Si1 0.054632 0.452158 0.594107
Si Si2 0.132670 0.282415 0.348368
Si Si3 0.609267 0.191407 0.499045
Si Si4 0.780052 0.099658 0.007512
Si Si5 0.781202 0.820181 0.486688
Si Si6 0.162492 0.431185 0.193014
Si Si7 0.655409 0.833761 0.907275
O O1 0.752576 0.276071 0.693608
O O2 0.212727 0.499889 0.343197
O O3 0.000000 0.500000 0.500000
O O4 0.183726 0.486160 0.855361
O O5 0.974628 0.223280 0.106644
O O6 0.295803 0.426943 0.251007
O O7 0.262852 0.277229 0.378293
O O8 0.935545 0.171232 0.690323
O O9 0.834667 0.257208 0.364583
O O10 0.580798 0.240563 0.217351
O O11 0.323001 0.018780 0.717069
O O12 0.500000 0.000000 0.000000
O O13 0.736164 0.821705 0.753190
O O14 0.611407 0.779023 0.262512
O O15 0.087960 0.991779 0.254050
#
# Coordination Sequence:
#
# PCOD9001337 Si02
#       7
#     2   2   2   2   2   2   2
#     4  10  22  39  57  83 110 134 175 231 287 326
#     4  12  22  36  51  80 115 151 177 215 261 320
#     4  10  23  33  57  80 110 142 183 222 267 324
#     4  12  22  31  50  80 117 146 177 209 266 326
#     4  10  22  34  50  70 111 154 185 215 249 298
#     4  10  22  36  57  84 107 140 178 219 279 334
#     4  10  21  35  48  75 105 150 192 214 249 308
#
# _framework density 26.482728000000002
#
# number of rings (size 3 to 8) (size 9 to 14) (size 15 to 20)
#    0.857    0.571    2.857    3.429    8.000    0.000 
#    0.000    0.000    0.000    0.000    0.000    6.000 
#    0.000    0.000    0.000    0.000    0.000    0.000 
#
# Total GULP energy -78402.818027 kJ/mol
# GULP energy per Si atom -5600.201288 kJ/mol
# Density = 2.642245 g / cm^3
# Si number density = 26.482728 Si / 1000 Ang^3
#
#
#
# Elastic Constant Matrix: (Units=GPa)
#
#
# Indices 1 2 3 4 5 6 
#
# 1 125.7997 37.7957 42.6411 -5.3135 19.4785 -36.3563
# 2 37.7957 80.4626 22.2315 1.0057 0.1677 -19.1092
# 3 42.6411 22.2315 144.2779 10.0778 7.0010 -19.6647
# 4 -5.3135 1.0057 10.0778 45.5247 -8.1800 3.6426
# 5 19.4785 0.1677 7.0010 -8.1800 44.0856 -4.2299
# 6 -36.3563 -19.1092 -19.6647 3.6426 -4.2299 49.9516
#
#
#
# Elastic Compliance Matrix: (Units=1/GPa)
#
#
# Indices 1 2 3 4 5 6 
#
# 1 0.012276 -0.003708 -0.002034 0.000678 -0.004357 0.006297
# 2 -0.003708 0.015114 -0.000895 -0.000458 0.001919 0.002926
# 3 -0.002034 -0.000895 0.008057 -0.002235 -0.000652 0.001456
# 4 0.000678 -0.000458 -0.002235 0.023463 0.004227 -0.001914
# 5 -0.004357 0.001919 -0.000652 0.004227 0.025407 -0.000850
# 6 0.006297 0.002926 0.001456 -0.001914 -0.000850 0.026363
#
#
# Mechanical properties :
#
#
# Convention : Reuss Voigt Hill
#
# Bulk Modulus (GPa) = 45.10450 61.76410 53.43430
# Shear Modulus (GPa) = 38.06769 44.43717 41.25243
#
# Velocity S-wave (km/s) = 3.79549 4.10074 3.95107
# Velocity P-wave (km/s) = 6.02298 6.76716 6.40589
#
# Compressibility (1/GPa) = 0.02217074
#
# Stress axis : x y z
#
# Youngs Moduli (GPa) = 81.46054 66.16354 124.12321
#
# Poissons Ratio (x) = 0.24535 0.25252
# Poissons Ratio (y) = 0.30207 0.11112
# Poissons Ratio (z) = 0.16573 0.05923
#
# Static dielectric constant tensor:
#      x y z
#    x 2.098300 0.036640 -0.011490 
#    y 0.036640 2.106350 -0.066200 
#    z -0.011490 -0.066200 2.049940 
# 
# From -- ./inp_files/82475.got.cif
#   From: 2010.05.17/outbox.cif.g08.bks.cpg/sg2_42_cif.got.tgz:82475.got - 2010.06.03 11:33:40.
