data_PCOD9001861
_publ_section_title
;
Structure prediction by ZEFSAII (Michael W. Deem and Ramdas Pophale) SiO2 
 PCOD9001861
Probable space group: P -1
;
_chemical_formula_sum "Si O2"
_cell_formula_units_Z 14
_cell_length_a 9.933002
_cell_length_b 18.756974
_cell_length_c 8.466307
_cell_angle_alpha 150.262593
_cell_angle_beta 46.392177
_cell_angle_gamma 126.693460
_cell_volume 566.530829
_symmetry_space_group_name_H-M "P -1"
_symmetry_group_IT_number 2
_symmetry_cell_setting 'triclinic'
loop_
_space_group_symop_operation_xyz
x,y,z
-x,-y,-z
loop_
_atom_site_type_symbol
_atom_site_label
_atom_site_fract_x
_atom_site_fract_y
_atom_site_fract_z
Si Si1 0.170655 0.352540 0.512727
Si Si2 0.663084 0.568258 0.174284
Si Si3 0.685794 0.365807 0.204672
Si Si4 0.680507 0.912168 0.231235
Si Si5 0.027275 0.337805 0.095594
Si Si6 0.049921 0.847759 0.900225
Si Si7 0.400679 0.746502 0.297880
O O1 0.167141 0.427921 0.827268
O O2 0.284313 0.465488 0.534183
O O3 0.999247 0.291131 0.438042
O O4 0.276575 0.201230 0.159616
O O5 0.483039 0.634864 0.534420
O O6 0.616096 0.399636 0.867253
O O7 0.760378 0.654143 0.121450
O O8 0.872227 0.315117 0.041985
O O9 0.651177 0.292381 0.919970
O O10 0.604546 0.814174 0.248108
O O11 0.500000 0.000000 0.500000
O O12 0.888026 0.962886 0.208217
O O13 0.000000 0.500000 0.500000
O O14 0.983466 0.214105 0.019082
O O15 0.261597 0.866746 0.714861
#
# Coordination Sequence:
#
# PCOD9001861 Si02
#       7
#     2   2   2   2   2   2   2
#     4   9  17  36  52  81 107 138 181 222 259 312
#     4  11  19  33  56  81 118 142 174 212 267 339
#     4  11  19  33  54  83 114 144 173 211 272 339
#     4  10  21  38  59  79 102 137 192 240 262 295
#     4  12  22  31  49  86 123 146 161 211 280 332
#     4  10  21  36  50  84 114 135 180 216 271 327
#     4  11  19  34  60  81 107 143 180 224 269 317
#
# _framework density 24.711804000000001
#
# number of rings (size 3 to 8) (size 9 to 14) (size 15 to 20)
#    0.857    0.571    5.714    1.714    0.000    4.571 
#    0.000    0.000    0.000    1.714    0.000    0.000 
#    0.000    0.000    0.000    0.000    0.000    0.000 
#
# Total GULP energy -77999.109078 kJ/mol
# GULP energy per Si atom -5571.364934 kJ/mol
# Density = 2.465556 g / cm^3
# Si number density = 24.711804 Si / 1000 Ang^3
#
#
#
# Elastic Constant Matrix: (Units=GPa)
#
#
# Indices 1 2 3 4 5 6 
#
# 1 70.2967 4.8807 11.6496 -6.5459 -14.5293 -2.4026
# 2 4.8807 57.2554 27.8497 -32.1542 -6.1630 4.7465
# 3 11.6496 27.8497 71.5025 -20.1325 -31.0438 -7.2357
# 4 -6.5459 -32.1542 -20.1325 44.9550 7.5601 -13.0723
# 5 -14.5293 -6.1630 -31.0438 7.5601 25.9880 0.6770
# 6 -2.4026 4.7465 -7.2357 -13.0723 0.6770 27.8254
#
#
#
# Elastic Compliance Matrix: (Units=1/GPa)
#
#
# Indices 1 2 3 4 5 6 
#
# 1 0.016795 -0.001254 0.005054 0.002516 0.014298 0.003812
# 2 -0.001254 0.034363 -0.013777 0.020962 -0.015124 0.000663
# 3 0.005054 -0.013777 0.043227 0.006672 0.048837 0.015974
# 4 0.002516 0.020962 0.006672 0.046402 0.000324 0.020168
# 5 0.014298 -0.015124 0.048837 0.000324 0.100760 0.014215
# 6 0.003812 0.000663 0.015974 0.020168 0.014215 0.049437
#
#
# Mechanical properties :
#
#
# Convention : Reuss Voigt Hill
#
# Bulk Modulus (GPa) = 13.43531 31.97940 22.70736
# Shear Modulus (GPa) = 14.89211 30.06532 22.47872
#
# Velocity S-wave (km/s) = 2.45752 3.49182 3.01929
# Velocity P-wave (km/s) = 3.67439 5.40612 4.62208
#
# Compressibility (1/GPa) = 0.07443073
#
# Stress axis : x y z
#
# Youngs Moduli (GPa) = 59.54241 29.10110 23.13389
#
# Poissons Ratio (x) = 0.03649 -0.11692
# Poissons Ratio (y) = 0.07467 0.31871
# Poissons Ratio (z) = -0.30094 0.40092
#
# Static dielectric constant tensor:
#      x y z
#    x 2.055670 0.010220 -0.061520 
#    y 0.010220 2.037030 -0.001070 
#    z -0.061520 -0.001070 2.028810 
# 
# From -- ./inp_files/282511.got.cif
#   From: 2010.05.17/outbox.cif.g08.bks.cpg/sg2_142_cif.got.tgz:282511.got - 2010.06.03 11:33:40.
