data_PCOD9001956
_publ_section_title
;
Structure prediction by ZEFSAII (Michael W. Deem and Ramdas Pophale) SiO2 
 PCOD9001956
Probable space group: P -1
;
_chemical_formula_sum "Si O2"
_cell_formula_units_Z 16
_cell_length_a 15.656854
_cell_length_b 20.658368
_cell_length_c 10.608225
_cell_angle_alpha 26.086137
_cell_angle_beta 41.504960
_cell_angle_gamma 28.133636
_cell_volume 695.871472
_symmetry_space_group_name_H-M "P -1"
_symmetry_group_IT_number 2
_symmetry_cell_setting 'triclinic'
loop_
_space_group_symop_operation_xyz
x,y,z
-x,-y,-z
loop_
_atom_site_type_symbol
_atom_site_label
_atom_site_fract_x
_atom_site_fract_y
_atom_site_fract_z
Si Si1 0.113952 0.354780 0.007504
Si Si2 0.815651 0.817810 0.212589
Si Si3 0.339941 0.597096 0.369966
Si Si4 0.514328 0.229022 0.973534
Si Si5 0.355206 0.965626 0.583326
Si Si6 0.448036 0.478266 0.958239
Si Si7 0.981052 0.263031 0.644227
Si Si8 0.084555 0.595386 0.089758
O O1 0.298817 0.130089 0.252042
O O2 0.131147 0.490426 0.671367
O O3 0.000000 0.500000 0.000000
O O4 0.982831 0.357281 0.063080
O O5 0.834367 0.631789 0.560337
O O6 0.959991 0.794035 0.177771
O O7 0.890609 0.771142 0.071642
O O8 0.623333 0.041962 0.079924
O O9 0.343096 0.450813 0.710714
O O10 0.370798 0.718437 0.204311
O O11 0.498677 0.459613 0.327327
O O12 0.149403 0.755287 0.230264
O O13 0.491992 0.160301 0.250400
O O14 0.415118 0.772090 0.780418
O O15 0.167206 0.116716 0.610856
O O16 0.500000 0.500000 0.000000
O O17 0.240450 0.585854 0.974522
#
# Coordination Sequence:
#
# PCOD9001956 Si02
#       8
#     2   2   2   2   2   2   2   2
#     4   9  19  36  58  86 112 142 186 237 284 324
#     4   9  19  38  61  83 107 146 192 231 281 332
#     4  10  21  36  55  82 115 150 190 228 277 338
#     4   9  20  37  55  83 113 147 192 232 276 331
#     4   9  20  36  56  83 111 145 193 232 277 332
#     4  11  24  39  55  83 120 152 184 231 284 334
#     4   9  18  36  59  82 112 147 185 234 280 332
#     4  10  21  38  60  84 114 148 188 234 280 337
#
# _framework density 22.992751999999999
#
# number of rings (size 3 to 8) (size 9 to 14) (size 15 to 20)
#    0.000    2.500    0.000    1.500    0.000   13.500 
#    0.000   15.000    0.000    6.000    0.000    0.000 
#    0.000    0.000    0.000    0.000    0.000    0.000 
#
# Total GULP energy -89190.914159 kJ/mol
# GULP energy per Si atom -5574.432135 kJ/mol
# Density = 2.294042 g / cm^3
# Si number density = 22.992752 Si / 1000 Ang^3
#
#
#
# Elastic Constant Matrix: (Units=GPa)
#
#
# Indices 1 2 3 4 5 6 
#
# 1 147.6106 53.1509 19.8097 6.7621 7.8627 6.3412
# 2 53.1509 79.5959 12.9866 9.8046 1.8715 16.7946
# 3 19.8097 12.9866 100.7609 -9.9875 10.6627 13.1194
# 4 6.7621 9.8046 -9.9875 14.7266 7.4723 -7.2926
# 5 7.8627 1.8715 10.6627 7.4723 26.8803 -4.8425
# 6 6.3412 16.7946 13.1194 -7.2926 -4.8425 46.4352
#
#
#
# Elastic Compliance Matrix: (Units=1/GPa)
#
#
# Indices 1 2 3 4 5 6 
#
# 1 0.009170 -0.006331 -0.000833 0.001055 -0.001983 0.001232
# 2 -0.006331 0.021556 -0.003067 -0.020773 0.005771 -0.008726
# 3 -0.000833 -0.003067 0.013133 0.015523 -0.009250 -0.001014
# 4 0.001055 -0.020773 0.015523 0.118248 -0.034659 0.017940
# 5 -0.001983 0.005771 -0.009250 -0.034659 0.050802 0.000652
# 6 0.001232 -0.008726 -0.001014 0.017940 0.000652 0.027695
#
#
# Mechanical properties :
#
#
# Convention : Reuss Voigt Hill
#
# Bulk Modulus (GPa) = 42.74020 55.54020 49.14020
# Shear Modulus (GPa) = 18.59671 33.74310 26.16990
#
# Velocity S-wave (km/s) = 2.84704 3.83502 3.37735
# Velocity P-wave (km/s) = 5.42553 6.61950 6.05203
#
# Compressibility (1/GPa) = 0.02339718
#
# Stress axis : x y z
#
# Youngs Moduli (GPa) = 109.04735 46.39133 76.14354
#
# Poissons Ratio (x) = 0.29370 0.06342
# Poissons Ratio (y) = 0.69037 0.23354
# Poissons Ratio (z) = 0.09082 0.14229
#
# Static dielectric constant tensor:
#      x y z
#    x 1.907380 -0.028400 0.023360 
#    y -0.028400 1.884010 0.041390 
#    z 0.023360 0.041390 1.980560 
# 
# From -- ./inp_files/457626.got.cif
#   From: 2010.05.17/outbox.cif.g08.bks.cpg/sg2_229_cif.got.tgz:457626.got - 2010.06.03 11:33:40.
