data_PCOD9001685
_publ_section_title
;
Structure prediction by ZEFSAII (Michael W. Deem and Ramdas Pophale) SiO2 
 PCOD9001685
Probable space group: P -1
;
_chemical_formula_sum "Si O2"
_cell_formula_units_Z 16
_cell_length_a 17.138775
_cell_length_b 11.103620
_cell_length_c 17.508474
_cell_angle_alpha 41.624636
_cell_angle_beta 21.396812
_cell_angle_gamma 36.836475
_cell_volume 728.728798
_symmetry_space_group_name_H-M "P -1"
_symmetry_group_IT_number 2
_symmetry_cell_setting 'triclinic'
loop_
_space_group_symop_operation_xyz
x,y,z
-x,-y,-z
loop_
_atom_site_type_symbol
_atom_site_label
_atom_site_fract_x
_atom_site_fract_y
_atom_site_fract_z
Si Si1 0.939458 0.835898 0.496010
Si Si2 0.621463 0.787966 0.577594
Si Si3 0.446967 0.565646 0.236304
Si Si4 0.172522 0.105129 0.883897
Si Si5 0.387212 0.342022 0.182341
Si Si6 0.496265 0.118571 0.868964
Si Si7 0.901927 0.291451 0.897459
Si Si8 0.165718 0.054497 0.087229
O O1 0.194489 0.716097 0.360476
O O2 0.979330 0.975214 0.327842
O O3 0.847596 0.673405 0.627864
O O4 0.735195 0.983465 0.668640
O O5 0.546539 0.653203 0.652007
O O6 0.442402 0.021586 0.644277
O O7 0.633249 0.686955 0.695724
O O8 0.881386 0.744316 0.336832
O O9 0.494000 0.676330 0.212240
O O10 0.671463 0.502967 0.003528
O O11 0.148801 0.897622 0.988831
O O12 0.120130 0.157202 0.996127
O O13 0.996858 0.266042 0.909643
O O14 0.500000 0.500000 0.000000
O O15 0.597803 0.145106 0.050188
O O16 0.500000 0.000000 0.000000
O O17 0.259763 0.157199 0.017909
#
# Coordination Sequence:
#
# PCOD9001685 Si02
#       8
#     2   2   2   2   2   2   2   2
#     4  11  23  38  61  85 119 164 196 244 308 371
#     4  10  21  35  61  87 121 162 198 246 306 364
#     4  11  24  36  57  92 120 160 205 246 300 356
#     4   9  20  40  63  90 120 154 202 254 311 356
#     4  10  22  37  54  90 129 155 194 246 305 371
#     4  11  24  40  59  85 122 160 207 253 295 362
#     4  10  21  39  63  90 122 156 202 257 300 366
#     4  10  21  38  61  88 116 159 203 248 304 359
#
# _framework density 21.956043000000001
#
# number of rings (size 3 to 8) (size 9 to 14) (size 15 to 20)
#    0.000    1.750    1.250    2.250    3.500    4.000 
#    0.000    3.750    0.000    1.500    0.000    0.000 
#    0.000    0.000    0.000    0.000    0.000    0.000 
#
# Total GULP energy -89241.952847 kJ/mol
# GULP energy per Si atom -5577.622053 kJ/mol
# Density = 2.190607 g / cm^3
# Si number density = 21.956043 Si / 1000 Ang^3
#
#
#
# Elastic Constant Matrix: (Units=GPa)
#
#
# Indices 1 2 3 4 5 6 
#
# 1 122.8659 27.3702 47.5629 -3.0838 -2.4834 7.1156
# 2 27.3702 43.7805 33.7438 7.3508 -1.6751 11.8799
# 3 47.5629 33.7438 141.3585 18.9198 0.5916 -0.3304
# 4 -3.0838 7.3508 18.9198 28.0789 4.8843 -2.6553
# 5 -2.4834 -1.6751 0.5916 4.8843 30.3732 -4.0964
# 6 7.1156 11.8799 -0.3304 -2.6553 -4.0964 29.7216
#
#
#
# Elastic Compliance Matrix: (Units=1/GPa)
#
#
# Indices 1 2 3 4 5 6 
#
# 1 0.010511 -0.005017 -0.002934 0.004447 -0.000097 -0.000160
# 2 -0.005017 0.035406 -0.005815 -0.007358 0.001014 -0.013533
# 3 -0.002934 -0.005815 0.010189 -0.005494 0.000491 0.002717
# 4 0.004447 -0.007358 -0.005494 0.043272 -0.006244 0.004821
# 5 -0.000097 0.001014 0.000491 -0.006244 0.034481 0.003818
# 6 -0.000160 -0.013533 0.002717 0.004821 0.003818 0.040080
#
#
# Mechanical properties :
#
#
# Convention : Reuss Voigt Hill
#
# Bulk Modulus (GPa) = 34.99607 58.37318 46.68463
# Shear Modulus (GPa) = 23.69708 30.92326 27.31017
#
# Velocity S-wave (km/s) = 3.28883 3.75696 3.53066
# Velocity P-wave (km/s) = 5.51322 6.74268 6.15871
#
# Compressibility (1/GPa) = 0.02857463
#
# Stress axis : x y z
#
# Youngs Moduli (GPa) = 95.13569 28.24410 98.14281
#
# Poissons Ratio (x) = 0.14169 0.28798
# Poissons Ratio (y) = 0.47725 0.57069
# Poissons Ratio (z) = 0.27916 0.16424
#
# Static dielectric constant tensor:
#      x y z
#    x 1.904190 -0.009230 -0.028780 
#    y -0.009230 1.834300 -0.010760 
#    z -0.028780 -0.010760 1.949190 
# 
# From -- ./inp_files/575948.got.cif
#   From: 2010.05.17/outbox.cif.g08.bks.cpg/sg2_288_cif.got.tgz:575948.got - 2010.06.03 11:33:40.
