data_PCOD9001280
_publ_section_title
;
Structure prediction by ZEFSAII (Michael W. Deem and Ramdas Pophale) SiO2 
 PCOD9001280
Probable space group: P -1
;
_chemical_formula_sum "Si O2"
_cell_formula_units_Z 16
_cell_length_a 19.167430
_cell_length_b 5.353726
_cell_length_c 12.016171
_cell_angle_alpha 128.030543
_cell_angle_beta 127.404323
_cell_angle_gamma 74.965586
_cell_volume 758.437841
_symmetry_space_group_name_H-M "P -1"
_symmetry_group_IT_number 2
_symmetry_cell_setting 'triclinic'
loop_
_space_group_symop_operation_xyz
x,y,z
-x,-y,-z
loop_
_atom_site_type_symbol
_atom_site_label
_atom_site_fract_x
_atom_site_fract_y
_atom_site_fract_z
Si Si1 0.737870 0.850627 0.519165
Si Si2 0.317452 0.874719 0.675632
Si Si3 0.658277 0.891121 0.869131
Si Si4 0.609100 0.121482 0.643053
Si Si5 0.781826 0.911512 0.186681
Si Si6 0.495062 0.870033 0.084439
Si Si7 0.102316 0.415784 0.449018
Si Si8 0.066900 0.340801 0.653685
O O1 0.692504 0.469444 0.366878
O O2 0.841163 0.806165 0.625199
O O3 0.743065 0.057647 0.467935
O O4 0.673831 0.989430 0.580649
O O5 0.304486 0.140468 0.830022
O O6 0.413159 0.934514 0.724433
O O7 0.627003 0.506262 0.746996
O O8 0.647278 0.013495 0.767686
O O9 0.590572 0.058627 0.919208
O O10 0.751791 0.971331 0.049498
O O11 0.500000 0.000000 0.500000
O O12 0.846686 0.654260 0.185142
O O13 0.839392 0.221291 0.390957
O O14 0.500000 0.500000 0.000000
O O15 0.500000 0.000000 0.000000
O O16 0.098744 0.354354 0.560957
O O17 0.999585 0.412338 0.316152
O O18 0.000000 0.000000 0.500000
#
# Coordination Sequence:
#
# PCOD9001280 Si02
#       8
#     2   2   2   2   2   2   2   2
#     4  11  22  39  63  85 118 166 213 252 289 366
#     4  11  21  36  59  89 119 154 197 257 312 361
#     4  12  26  41  64  90 123 167 208 262 310 361
#     4  12  26  46  63  83 123 175 224 255 293 352
#     4  10  21  34  60  91 131 148 199 248 326 373
#     4  12  23  36  55  86 125 153 192 246 315 373
#     4   9  19  33  61  92 126 156 195 247 318 377
#     4   9  17  34  56  96 125 157 182 246 326 380
#
# _framework density 21.095991000000001
#
# number of rings (size 3 to 8) (size 9 to 14) (size 15 to 20)
#    0.000    1.250    2.500    4.125    3.500    0.000 
#    0.000    0.000    0.000    1.500    0.000    0.000 
#    0.000    0.000    0.000    0.000    0.000    0.000 
#
# Total GULP energy -89098.237355 kJ/mol
# GULP energy per Si atom -5568.639835 kJ/mol
# Density = 2.104798 g / cm^3
# Si number density = 21.095991 Si / 1000 Ang^3
#
#
#
# Elastic Constant Matrix: (Units=GPa)
#
#
# Indices 1 2 3 4 5 6 
#
# 1 122.4304 53.6932 29.5096 -18.2502 -11.2699 -21.6469
# 2 53.6932 131.0466 39.2328 -18.3958 -7.5696 -14.8064
# 3 29.5096 39.2328 43.4740 -24.1396 -7.2294 -14.0036
# 4 -18.2502 -18.3958 -24.1396 44.5430 1.4868 6.0413
# 5 -11.2699 -7.5696 -7.2294 1.4868 25.1358 -7.1473
# 6 -21.6469 -14.8064 -14.0036 6.0413 -7.1473 54.7286
#
#
#
# Elastic Compliance Matrix: (Units=1/GPa)
#
#
# Indices 1 2 3 4 5 6 
#
# 1 0.011309 -0.003128 -0.002124 0.001570 0.004416 0.003487
# 2 -0.003128 0.011377 -0.009233 -0.001504 -0.000669 -0.000443
# 3 -0.002124 -0.009233 0.048524 0.020100 0.011408 0.008349
# 4 0.001570 -0.001504 0.020100 0.032888 0.004754 0.002348
# 5 0.004416 -0.000669 0.011408 0.004754 0.047450 0.010157
# 6 0.003487 -0.000443 0.008349 0.002348 0.010157 0.022735
#
#
# Mechanical properties :
#
#
# Convention : Reuss Voigt Hill
#
# Bulk Modulus (GPa) = 23.67470 60.20246 41.93858
# Shear Modulus (GPa) = 23.00624 36.51585 29.76105
#
# Velocity S-wave (km/s) = 3.30593 4.16497 3.76006
# Velocity P-wave (km/s) = 5.08124 7.19226 6.22686
#
# Compressibility (1/GPa) = 0.04223918
#
# Stress axis : x y z
#
# Youngs Moduli (GPa) = 88.42693 87.89789 20.60854
#
# Poissons Ratio (x) = 0.27496 0.04377
# Poissons Ratio (y) = 0.27662 0.19028
# Poissons Ratio (z) = 0.18781 0.81155
#
# Static dielectric constant tensor:
#      x y z
#    x 1.926720 0.014280 0.108540 
#    y 0.014280 2.059220 0.004930 
#    z 0.108540 0.004930 1.877080 
# 
# From -- ./inp_files/54923.got.cif
#   From: 2010.05.17/outbox.cif.g08.bks.cpg/sg2_28_cif.got.tgz:54923.got - 2010.06.03 11:33:40.
