data_PCOD9001105
_publ_section_title
;
Structure prediction by ZEFSAII (Michael W. Deem and Ramdas Pophale) SiO2 
 PCOD9001105
Probable space group: P -1
;
_chemical_formula_sum "Si O2"
_cell_formula_units_Z 14
_cell_length_a 18.609836
_cell_length_b 6.684595
_cell_length_c 7.578566
_cell_angle_alpha 92.760766
_cell_angle_beta 50.527228
_cell_angle_gamma 123.347286
_cell_volume 537.486028
_symmetry_space_group_name_H-M "P -1"
_symmetry_group_IT_number 2
_symmetry_cell_setting 'triclinic'
loop_
_space_group_symop_operation_xyz
x,y,z
-x,-y,-z
loop_
_atom_site_type_symbol
_atom_site_label
_atom_site_fract_x
_atom_site_fract_y
_atom_site_fract_z
Si Si1 0.788481 0.535001 0.016598
Si Si2 0.053595 0.356432 0.910006
Si Si3 0.939573 0.956984 0.380815
Si Si4 0.560137 0.872837 0.769988
Si Si5 0.369428 0.373903 0.545229
Si Si6 0.318802 0.273637 0.226504
Si Si7 0.558654 0.969837 0.239533
O O1 0.823552 0.489331 0.151322
O O2 0.713080 0.630323 0.183309
O O3 0.701876 0.256018 0.032267
O O4 0.926158 0.787746 0.732649
O O5 0.952913 0.088893 0.173857
O O6 0.000000 0.500000 0.000000
O O7 0.931505 0.718073 0.310371
O O8 0.814950 0.872663 0.652842
O O9 0.626175 0.858295 0.497782
O O10 0.642730 0.904258 0.806680
O O11 0.521970 0.041606 0.792349
O O12 0.429985 0.561598 0.979803
O O13 0.315285 0.350987 0.435566
O O14 0.509362 0.673895 0.335870
O O15 0.500000 0.000000 0.500000
#
# Coordination Sequence:
#
# PCOD9001105 Si02
#       7
#     2   2   2   2   2   2   2
#     4   9  18  33  48  76 108 127 161 210 255 305
#     4   9  16  29  48  74 100 129 167 204 254 293
#     4   9  17  33  48  74 107 123 165 221 248 289
#     4   9  20  35  53  79  97 139 175 203 255 297
#     4   9  17  35  51  77 106 128 171 213 250 297
#     4   9  17  37  55  75 103 131 175 215 245 297
#     4  10  21  34  50  76 108 137 165 207 254 311
#
# _framework density 26.047190000000001
#
# number of rings (size 3 to 8) (size 9 to 14) (size 15 to 20)
#    1.714    1.143    1.429    0.000    0.000    5.143 
#    2.571    0.714    0.000    0.857    0.000    0.000 
#    0.000    0.000    0.000    0.000    0.000    0.000 
#
# Total GULP energy -78041.434009 kJ/mol
# GULP energy per Si atom -5574.388144 kJ/mol
# Density = 2.598791 g / cm^3
# Si number density = 26.047190 Si / 1000 Ang^3
#
#
#
# Elastic Constant Matrix: (Units=GPa)
#
#
# Indices 1 2 3 4 5 6 
#
# 1 105.9993 20.7467 20.5500 2.8616 -26.7586 1.2360
# 2 20.7467 123.0771 32.7799 4.9491 -31.1807 -7.8528
# 3 20.5500 32.7799 104.8304 -4.7176 -39.3917 10.4964
# 4 2.8616 4.9491 -4.7176 30.7280 4.3645 -15.9072
# 5 -26.7586 -31.1807 -39.3917 4.3645 49.3527 1.4054
# 6 1.2360 -7.8528 10.4964 -15.9072 1.4054 39.3982
#
#
#
# Elastic Compliance Matrix: (Units=1/GPa)
#
#
# Indices 1 2 3 4 5 6 
#
# 1 0.011151 -0.000364 0.000415 -0.002816 0.006451 -0.001900
# 2 -0.000364 0.010020 -0.001344 -0.001759 0.005174 0.001472
# 3 0.000415 -0.001344 0.014592 -0.001974 0.011350 -0.005371
# 4 -0.002816 -0.001759 -0.001974 0.043360 -0.008563 0.018076
# 5 0.006451 0.005174 0.011350 -0.008563 0.037044 -0.006974
# 6 -0.001900 0.001472 -0.005371 0.018076 -0.006974 0.034713
#
#
# Mechanical properties :
#
#
# Convention : Reuss Voigt Hill
#
# Bulk Modulus (GPa) = 30.14097 53.56223 41.85160
# Shear Modulus (GPa) = 30.39057 41.21779 35.80418
#
# Velocity S-wave (km/s) = 3.41948 3.98229 3.71157
# Velocity P-wave (km/s) = 5.21414 6.46166 5.87113
#
# Compressibility (1/GPa) = 0.03317743
#
# Stress axis : x y z
#
# Youngs Moduli (GPa) = 89.67483 99.80294 68.53027
#
# Poissons Ratio (x) = 0.03634 -0.02846
# Poissons Ratio (y) = 0.03265 0.09211
# Poissons Ratio (z) = -0.03725 0.13415
#
# Static dielectric constant tensor:
#      x y z
#    x 2.326390 0.163490 0.126590 
#    y 0.163490 2.205420 0.094810 
#    z 0.126590 0.094810 2.135300 
# 
# From -- ./inp_files/467873.got.cif
#   From: 2010.05.17/outbox.cif.g08.bks.cpg/sg2_234_cif.got.tgz:467873.got - 2010.06.03 11:33:40.
