data_PCOD9001653
_publ_section_title
;
Structure prediction by ZEFSAII (Michael W. Deem and Ramdas Pophale) SiO2 
 PCOD9001653
Probable space group: P -1
;
_chemical_formula_sum "Si O2"
_cell_formula_units_Z 16
_cell_length_a 11.629229
_cell_length_b 5.426694
_cell_length_c 21.421733
_cell_angle_alpha 116.421179
_cell_angle_beta 44.563443
_cell_angle_gamma 117.066184
_cell_volume 828.796978
_symmetry_space_group_name_H-M "P -1"
_symmetry_group_IT_number 2
_symmetry_cell_setting 'triclinic'
loop_
_space_group_symop_operation_xyz
x,y,z
-x,-y,-z
loop_
_atom_site_type_symbol
_atom_site_label
_atom_site_fract_x
_atom_site_fract_y
_atom_site_fract_z
Si Si1 0.293676 0.312577 0.357460
Si Si2 0.641471 0.217664 0.696837
Si Si3 0.989629 0.016821 0.658646
Si Si4 0.058830 0.337243 0.016575
Si Si5 0.322193 0.187820 0.058181
Si Si6 0.954222 0.582129 0.428009
Si Si7 0.436839 0.376549 0.907785
Si Si8 0.110386 0.646352 0.150490
O O1 0.406363 0.597432 0.319321
O O2 0.150424 0.370568 0.465697
O O3 0.398279 0.116654 0.329351
O O4 0.193766 0.131081 0.317321
O O5 0.562989 0.300001 0.800137
O O6 0.845570 0.306768 0.626236
O O7 0.083741 0.223414 0.591697
O O8 0.970913 0.207340 0.746407
O O9 0.069512 0.750304 0.613162
O O10 0.002339 0.457796 0.117171
O O11 0.261537 0.397592 0.947525
O O12 0.000000 0.500000 0.000000
O O13 0.000000 0.000000 0.000000
O O14 0.472480 0.334006 0.061514
O O15 0.214165 0.430854 0.117004
O O16 0.217901 0.910878 0.099797
O O17 0.391277 0.155890 0.958214
#
# Coordination Sequence:
#
# PCOD9001653 Si02
#       8
#     2   2   2   2   2   2   2   2
#     4  10  18  29  45  72 114 147 164 199 266 339
#     4  10  18  28  46  69 100 138 177 209 243 315
#     4  10  17  27  47  70 100 138 177 209 243 315
#     4  11  25  42  58  74 107 151 192 238 274 315
#     4  10  21  34  54  82 115 137 170 226 284 345
#     4  10  18  29  45  72 114 147 164 199 266 339
#     4  10  22  36  56  82 109 146 186 225 280 327
#     4  11  21  37  57  82 109 146 186 225 280 327
#
# _framework density 19.305088000000001
#
# number of rings (size 3 to 8) (size 9 to 14) (size 15 to 20)
#    0.000    1.750    0.000    9.000    0.000    8.500 
#    0.000    0.000    0.000    0.000    0.000    0.000 
#    0.000   34.000    0.000    0.000    0.000    0.000 
#
# Total GULP energy -89255.000787 kJ/mol
# GULP energy per Si atom -5578.437549 kJ/mol
# Density = 1.926115 g / cm^3
# Si number density = 19.305088 Si / 1000 Ang^3
#
#
#
# Elastic Constant Matrix: (Units=GPa)
#
#
# Indices 1 2 3 4 5 6 
#
# 1 79.4338 49.2123 18.2123 3.6577 7.9138 -9.2941
# 2 49.2123 137.3601 28.2049 10.7521 9.6246 -38.4216
# 3 18.2123 28.2049 104.8030 7.0807 20.2704 -8.7718
# 4 3.6577 10.7521 7.0807 28.5237 -1.4204 6.7394
# 5 7.9138 9.6246 20.2704 -1.4204 16.7991 2.1797
# 6 -9.2941 -38.4216 -8.7718 6.7394 2.1797 36.0317
#
#
#
# Elastic Compliance Matrix: (Units=1/GPa)
#
#
# Indices 1 2 3 4 5 6 
#
# 1 0.016706 -0.006526 -0.000999 0.001143 -0.002446 -0.002958
# 2 -0.006526 0.016077 0.001118 -0.010364 -0.010739 0.018320
# 3 -0.000999 0.001118 0.013943 -0.006231 -0.018378 0.006606
# 4 0.001143 -0.010364 -0.006231 0.046589 0.019735 -0.022182
# 5 -0.002446 -0.010739 -0.018378 0.019735 0.094041 -0.025937
# 6 -0.002958 0.018320 0.006606 -0.022182 -0.025937 0.053852
#
#
# Mechanical properties :
#
#
# Convention : Reuss Voigt Hill
#
# Bulk Modulus (GPa) = 29.48743 56.98398 43.23571
# Shear Modulus (GPa) = 18.84481 31.33540 25.09011
#
# Velocity S-wave (km/s) = 3.12774 4.03323 3.60899
# Velocity P-wave (km/s) = 5.32459 7.16037 6.30960
#
# Compressibility (1/GPa) = 0.03391276
#
# Stress axis : x y z
#
# Youngs Moduli (GPa) = 59.85896 62.20161 71.72163
#
# Poissons Ratio (x) = 0.40592 0.07163
# Poissons Ratio (y) = 0.39063 -0.08019
# Poissons Ratio (z) = 0.05978 -0.06955
#
# Static dielectric constant tensor:
#      x y z
#    x 1.699440 -0.058960 0.002230 
#    y -0.058960 1.759750 0.015300 
#    z 0.002230 0.015300 1.681660 
# 
# From -- ./inp_files/592609.got.cif
#   From: 2010.05.17/outbox.cif.g08.bks.cpg/sg2_297_cif.got.tgz:592609.got - 2010.06.03 11:33:40.
