data_PCOD9001830
_publ_section_title
;
Structure prediction by ZEFSAII (Michael W. Deem and Ramdas Pophale) SiO2 
 PCOD9001830
Probable space group: P -1
;
_chemical_formula_sum "Si O2"
_cell_formula_units_Z 16
_cell_length_a 11.692359
_cell_length_b 8.714028
_cell_length_c 14.024556
_cell_angle_alpha 70.548398
_cell_angle_beta 42.354858
_cell_angle_gamma 55.660722
_cell_volume 785.829951
_symmetry_space_group_name_H-M "P -1"
_symmetry_group_IT_number 2
_symmetry_cell_setting 'triclinic'
loop_
_space_group_symop_operation_xyz
x,y,z
-x,-y,-z
loop_
_atom_site_type_symbol
_atom_site_label
_atom_site_fract_x
_atom_site_fract_y
_atom_site_fract_z
Si Si1 0.889435 0.045188 0.161312
Si Si2 0.510605 0.542808 0.837220
Si Si3 0.718762 0.357119 0.351053
Si Si4 0.185503 0.750860 0.405729
Si Si5 0.526128 0.849698 0.639655
Si Si6 0.844705 0.536370 0.377535
Si Si7 0.190556 0.000033 0.504824
Si Si8 0.833363 0.339105 0.845090
O O1 0.787661 0.258871 0.224115
O O2 0.700227 0.016834 0.275219
O O3 0.044086 0.886860 0.170594
O O4 0.000000 0.000000 0.000000
O O5 0.596159 0.396644 0.729198
O O6 0.520092 0.722539 0.756140
O O7 0.668314 0.438471 0.845416
O O8 0.298520 0.593402 0.991937
O O9 0.500000 0.500000 0.500000
O O10 0.827613 0.467453 0.297261
O O11 0.782641 0.168967 0.411282
O O12 0.119391 0.637257 0.540216
O O13 0.201974 0.919074 0.408524
O O14 0.028532 0.823509 0.401633
O O15 0.645073 0.712031 0.506567
O O16 0.649027 0.945679 0.577124
O O17 0.013889 0.587324 0.270963
#
# Coordination Sequence:
#
# PCOD9001830 Si02
#       8
#     2   2   2   2   2   2   2   2
#     4  12  25  42  60  87 128 161 199 251 308 357
#     4  10  21  40  61  87 125 159 196 247 302 363
#     4  11  23  40  60  87 122 159 201 250 300 352
#     4   9  19  39  61  90 124 152 197 252 302 350
#     4  11  21  39  64  91 120 156 203 246 299 361
#     4  10  21  38  65  89 116 155 203 248 294 360
#     4  10  21  35  65  92 117 155 204 251 294 354
#     4  11  23  39  62  90 120 161 203 244 302 361
#
# _framework density 20.36064
#
# number of rings (size 3 to 8) (size 9 to 14) (size 15 to 20)
#    0.000    1.500    2.500    3.000    1.750    3.000 
#    2.250    0.625    0.000    5.250    0.000    0.000 
#    0.000    0.000    0.000    0.000    0.000    0.000 
#
# Total GULP energy -89146.896557 kJ/mol
# GULP energy per Si atom -5571.681035 kJ/mol
# Density = 2.031430 g / cm^3
# Si number density = 20.360640 Si / 1000 Ang^3
#
#
#
# Elastic Constant Matrix: (Units=GPa)
#
#
# Indices 1 2 3 4 5 6 
#
# 1 62.9350 14.4076 28.7871 7.7915 0.6030 4.9526
# 2 14.4076 61.9553 39.5849 8.5141 1.7609 -2.2971
# 3 28.7871 39.5849 131.8650 18.2107 -5.5628 8.8925
# 4 7.7915 8.5141 18.2107 23.7067 -7.9141 -0.0402
# 5 0.6030 1.7609 -5.5628 -7.9141 26.9745 2.7507
# 6 4.9526 -2.2971 8.8925 -0.0402 2.7507 38.0121
#
#
#
# Elastic Compliance Matrix: (Units=1/GPa)
#
#
# Indices 1 2 3 4 5 6 
#
# 1 0.018245 -0.001921 -0.002854 -0.003714 -0.001787 -0.001700
# 2 -0.001921 0.021008 -0.005738 -0.003820 -0.003953 0.003144
# 3 -0.002854 -0.005738 0.010836 -0.004820 0.001527 -0.002625
# 4 -0.003714 -0.003820 -0.004820 0.053483 0.014994 0.000352
# 5 -0.001787 -0.003953 0.001527 0.014994 0.042433 -0.003418
# 6 -0.001700 0.003144 -0.002625 0.000352 -0.003418 0.027581
#
#
# Mechanical properties :
#
#
# Convention : Reuss Voigt Hill
#
# Bulk Modulus (GPa) = 34.40919 46.92384 40.66651
# Shear Modulus (GPa) = 24.47376 29.33704 26.90540
#
# Velocity S-wave (km/s) = 3.47077 3.80000 3.63911
# Velocity P-wave (km/s) = 5.74440 6.50766 6.13791
#
# Compressibility (1/GPa) = 0.02906200
#
# Stress axis : x y z
#
# Youngs Moduli (GPa) = 54.80813 47.60188 92.28249
#
# Poissons Ratio (x) = 0.09145 0.26340
# Poissons Ratio (y) = 0.10530 0.52954
# Poissons Ratio (z) = 0.15644 0.27315
#
# Static dielectric constant tensor:
#      x y z
#    x 1.802620 -0.028680 0.069480 
#    y -0.028680 1.751380 0.057940 
#    z 0.069480 0.057940 1.782010 
# 
# From -- ./inp_files/398378.got.cif
#   From: 2010.05.17/outbox.cif.g08.bks.cpg/sg2_200_cif.got.tgz:398378.got - 2010.06.03 11:33:40.
