data_PCOD9001250
_publ_section_title
;
Structure prediction by ZEFSAII (Michael W. Deem and Ramdas Pophale) SiO2 
 PCOD9001250
Probable space group: P -1
;
_chemical_formula_sum "Si O2"
_cell_formula_units_Z 14
_cell_length_a 6.401493
_cell_length_b 9.596735
_cell_length_c 14.897636
_cell_angle_alpha 144.859269
_cell_angle_beta 88.031703
_cell_angle_gamma 98.183967
_cell_volume 515.982604
_symmetry_space_group_name_H-M "P -1"
_symmetry_group_IT_number 2
_symmetry_cell_setting 'triclinic'
loop_
_space_group_symop_operation_xyz
x,y,z
-x,-y,-z
loop_
_atom_site_type_symbol
_atom_site_label
_atom_site_fract_x
_atom_site_fract_y
_atom_site_fract_z
Si Si1 0.452432 0.787527 0.813304
Si Si2 0.837936 0.707470 0.121822
Si Si3 0.284267 0.797792 0.232408
Si Si4 0.129971 0.102812 0.965406
Si Si5 0.731998 0.717563 0.611965
Si Si6 0.606766 0.394986 0.690057
Si Si7 0.767841 0.213636 0.410049
O O1 0.660969 0.802233 0.755638
O O2 0.412597 0.509299 0.708467
O O3 0.256893 0.887395 0.823861
O O4 0.500000 0.000000 0.000000
O O5 0.957026 0.802294 0.075443
O O6 0.019919 0.736841 0.210364
O O7 0.698271 0.914663 0.248389
O O8 0.709470 0.431442 0.957898
O O9 0.397340 0.782092 0.318004
O O10 0.335734 0.078456 0.344475
O O11 0.273612 0.353443 0.131859
O O12 0.000000 0.000000 0.000000
O O13 0.668821 0.417526 0.462539
O O14 0.981431 0.744157 0.596511
O O15 0.736519 0.301519 0.558675
#
# Coordination Sequence:
#
# PCOD9001250 Si02
#       7
#     2   2   2   2   2   2   2
#     4   9  19  35  55  82 111 148 197 238 270 336
#     4   9  19  33  53  86 116 145 187 235 285 329
#     4   9  18  34  57  82 120 149 184 236 284 338
#     4  10  21  34  59  81 112 149 196 236 279 334
#     4   9  18  31  55  83 110 148 191 229 278 330
#     4   9  19  36  55  85 112 151 191 231 282 338
#     4   9  18  32  60  83 116 149 194 235 270 342
#
# _framework density 27.132698999999999
#
# number of rings (size 3 to 8) (size 9 to 14) (size 15 to 20)
#    0.000    2.857    0.000    0.000   14.000    2.286 
#    0.000    9.286    0.000    0.000    0.000   12.000 
#    0.000    0.000    0.000    0.000    0.000    0.000 
#
# Total GULP energy -78081.466935 kJ/mol
# GULP energy per Si atom -5577.247638 kJ/mol
# Density = 2.707094 g / cm^3
# Si number density = 27.132699 Si / 1000 Ang^3
#
#
#
# Elastic Constant Matrix: (Units=GPa)
#
#
# Indices 1 2 3 4 5 6 
#
# 1 55.4542 57.6951 48.9757 15.8078 -21.4647 -6.9321
# 2 57.6951 208.2282 66.9690 38.1247 -14.5567 -13.1543
# 3 48.9757 66.9690 232.5978 32.8679 -28.0363 6.4768
# 4 15.8078 38.1247 32.8679 57.7093 -3.6619 -10.8057
# 5 -21.4647 -14.5567 -28.0363 -3.6619 57.8332 12.9830
# 6 -6.9321 -13.1543 6.4768 -10.8057 12.9830 47.7166
#
#
#
# Elastic Compliance Matrix: (Units=1/GPa)
#
#
# Indices 1 2 3 4 5 6 
#
# 1 0.031972 -0.006803 -0.003585 -0.001576 0.008164 0.000678
# 2 -0.006803 0.007280 -0.000473 -0.002599 -0.001276 0.000841
# 3 -0.003585 -0.000473 0.005805 -0.002359 0.001766 -0.002454
# 4 -0.001576 -0.002599 -0.002359 0.021593 -0.002101 0.004836
# 5 0.008164 -0.001276 0.001766 -0.002101 0.022043 -0.005879
# 6 0.000678 0.000841 -0.002454 0.004836 -0.005879 0.024315
#
#
# Mechanical properties :
#
#
# Convention : Reuss Voigt Hill
#
# Bulk Modulus (GPa) = 42.85881 93.72885 68.29383
# Shear Modulus (GPa) = 35.08570 54.16117 44.62344
#
# Velocity S-wave (km/s) = 3.59989 4.47269 4.05981
# Velocity P-wave (km/s) = 5.75406 7.82897 6.87030
#
# Compressibility (1/GPa) = 0.02333243
#
# Stress axis : x y z
#
# Youngs Moduli (GPa) = 31.27772 137.37041 172.26744
#
# Poissons Ratio (x) = 0.93459 0.61761
# Poissons Ratio (y) = 0.21280 0.08153
# Poissons Ratio (z) = 0.11214 0.06501
#
# Static dielectric constant tensor:
#      x y z
#    x 2.372620 -0.062560 0.019930 
#    y -0.062560 2.295070 -0.077100 
#    z 0.019930 -0.077100 2.182630 
# 
# From -- ./inp_files/280985.got.cif
#   From: 2010.05.17/outbox.cif.g08.bks.cpg/sg2_141_cif.got.tgz:280985.got - 2010.06.03 11:33:40.
