data_PCOD9001602
_publ_section_title
;
Structure prediction by ZEFSAII (Michael W. Deem and Ramdas Pophale) SiO2 
 PCOD9001602
Probable space group: P -1
;
_chemical_formula_sum "Si O2"
_cell_formula_units_Z 16
_cell_length_a 5.072741
_cell_length_b 14.760347
_cell_length_c 12.177004
_cell_angle_alpha 94.811792
_cell_angle_beta 64.626018
_cell_angle_gamma 65.688979
_cell_volume 712.248703
_symmetry_space_group_name_H-M "P -1"
_symmetry_group_IT_number 2
_symmetry_cell_setting 'triclinic'
loop_
_space_group_symop_operation_xyz
x,y,z
-x,-y,-z
loop_
_atom_site_type_symbol
_atom_site_label
_atom_site_fract_x
_atom_site_fract_y
_atom_site_fract_z
Si Si1 0.460940 0.899972 0.139458
Si Si2 0.407113 0.426772 0.653060
Si Si3 0.291232 0.397574 0.210942
Si Si4 0.571641 0.304078 0.826639
Si Si5 0.770919 0.793002 0.842369
Si Si6 0.190839 0.607349 0.023064
Si Si7 0.483806 0.631325 0.615644
Si Si8 0.803937 0.021735 0.152313
O O1 0.401468 0.809273 0.190080
O O2 0.666980 0.940155 0.177756
O O3 0.091851 0.997303 0.186610
O O4 0.668736 0.856301 0.982200
O O5 0.611498 0.349631 0.707815
O O6 0.475476 0.523494 0.631039
O O7 0.455262 0.368325 0.523345
O O8 0.008686 0.489806 0.757300
O O9 0.296754 0.302838 0.136726
O O10 0.236729 0.381743 0.347336
O O11 0.654616 0.382684 0.118889
O O12 0.806393 0.311884 0.879064
O O13 0.171615 0.378854 0.929067
O O14 0.149613 0.735884 0.724427
O O15 0.518427 0.865839 0.799552
O O16 0.500000 0.500000 0.000000
O O17 0.000000 0.000000 0.000000
#
# Coordination Sequence:
#
# PCOD9001602 Si02
#       8
#     2   2   2   2   2   2   2   2
#     4  11  22  38  59  91 125 152 194 247 309 367
#     4  10  23  40  55  87 118 165 207 243 288 353
#     4  11  21  35  59  87 120 155 197 250 296 355
#     4  12  24  39  60  88 125 166 196 242 303 365
#     4  10  21  35  59  88 115 152 195 249 303 355
#     4  12  23  36  59  88 126 161 196 238 304 361
#     4  10  22  39  61  82 120 158 211 247 290 347
#     4  10  22  37  60  89 123 152 191 249 311 363
#
# _framework density 22.464064
#
# number of rings (size 3 to 8) (size 9 to 14) (size 15 to 20)
#    0.000    1.250    2.500    4.500    8.750    0.000 
#    0.000    0.000    0.000    1.500    0.000    0.000 
#    0.000    0.000    0.000    0.000    0.000    0.000 
#
# Total GULP energy -89387.452067 kJ/mol
# GULP energy per Si atom -5586.715754 kJ/mol
# Density = 2.241293 g / cm^3
# Si number density = 22.464064 Si / 1000 Ang^3
#
#
#
# Elastic Constant Matrix: (Units=GPa)
#
#
# Indices 1 2 3 4 5 6 
#
# 1 72.8503 9.0062 9.1845 3.8998 6.7938 -1.0902
# 2 9.0062 97.1223 21.3417 -0.7303 -0.9687 -18.4874
# 3 9.1845 21.3417 70.6866 -7.8823 17.1698 -5.7137
# 4 3.8998 -0.7303 -7.8823 23.8560 -6.6249 -4.4257
# 5 6.7938 -0.9687 17.1698 -6.6249 27.3476 0.6966
# 6 -1.0902 -18.4874 -5.7137 -4.4257 0.6966 33.3849
#
#
#
# Elastic Compliance Matrix: (Units=1/GPa)
#
#
# Indices 1 2 3 4 5 6 
#
# 1 0.014601 -0.001369 -0.001043 -0.004048 -0.003978 -0.000913
# 2 -0.001369 0.012497 -0.003721 0.001478 0.003315 0.006366
# 3 -0.001043 -0.003721 0.018544 0.003540 -0.010703 0.001772
# 4 -0.004048 0.001478 0.003540 0.048031 0.010281 0.007445
# 5 -0.003978 0.003315 -0.010703 0.010281 0.046876 0.000259
# 6 -0.000913 0.006366 0.001772 0.007445 0.000259 0.034734
#
#
# Mechanical properties :
#
#
# Convention : Reuss Voigt Hill
#
# Bulk Modulus (GPa) = 29.96101 35.52490 32.74296
# Shear Modulus (GPa) = 25.16702 30.32614 27.74658
#
# Velocity S-wave (km/s) = 3.35075 3.67820 3.51829
# Velocity P-wave (km/s) = 5.32319 5.82128 5.57780
#
# Compressibility (1/GPa) = 0.03337671
#
# Stress axis : x y z
#
# Youngs Moduli (GPa) = 68.48616 80.02091 53.92722
#
# Poissons Ratio (x) = 0.10953 0.05623
# Poissons Ratio (y) = 0.09374 0.20066
# Poissons Ratio (z) = 0.07141 0.29775
#
# Static dielectric constant tensor:
#      x y z
#    x 1.907630 0.011780 -0.002830 
#    y 0.011780 1.900260 -0.007260 
#    z -0.002830 -0.007260 1.841830 
# 
# From -- ./inp_files/83796.got.cif
#   From: 2010.05.17/outbox.cif.g08.bks.cpg/sg2_42_cif.got.tgz:83796.got - 2010.06.03 11:33:40.
