data_PCOD9001532
_publ_section_title
;
Structure prediction by ZEFSAII (Michael W. Deem and Ramdas Pophale) SiO2 
 PCOD9001532
Probable space group: P -1
;
_chemical_formula_sum "Si O2"
_cell_formula_units_Z 14
_cell_length_a 10.919373
_cell_length_b 11.208161
_cell_length_c 13.005526
_cell_angle_alpha 144.380001
_cell_angle_beta 122.384486
_cell_angle_gamma 40.740184
_cell_volume 591.336759
_symmetry_space_group_name_H-M "P -1"
_symmetry_group_IT_number 2
_symmetry_cell_setting 'triclinic'
loop_
_space_group_symop_operation_xyz
x,y,z
-x,-y,-z
loop_
_atom_site_type_symbol
_atom_site_label
_atom_site_fract_x
_atom_site_fract_y
_atom_site_fract_z
Si Si1 0.106736 0.028032 0.213068
Si Si2 0.933437 0.185078 0.450090
Si Si3 0.828570 0.459581 0.073666
Si Si4 0.403020 0.212179 0.352948
Si Si5 0.431080 0.733162 0.997532
Si Si6 0.736109 0.546547 0.322290
Si Si7 0.855709 0.854457 0.282050
O O1 0.314528 0.829692 0.119490
O O2 0.038518 0.853370 0.054096
O O3 0.084151 0.106889 0.375349
O O4 0.960442 0.302808 0.277409
O O5 0.739446 0.486959 0.547552
O O6 0.897959 0.974153 0.293580
O O7 0.025986 0.166873 0.584351
O O8 0.656619 0.526686 0.974547
O O9 0.735664 0.618070 0.252914
O O10 0.910132 0.565635 0.115840
O O11 0.346995 0.249361 0.475769
O O12 0.625465 0.068905 0.344954
O O13 0.382532 0.014578 0.144052
O O14 0.364159 0.587383 0.809499
#
# Coordination Sequence:
#
# PCOD9001532 Si02
#       7
#     2   2   2   2   2   2   2
#     4  10  21  35  58  84 116 148 186 237 282 349
#     4  10  23  39  59  83 112 155 194 235 283 331
#     4  10  21  35  58  84 116 148 186 237 282 349
#     4  10  23  38  64  84 115 152 190 238 284 348
#     4  10  21  35  57  91 115 149 182 235 297 334
#     4  10  21  35  57  91 115 149 182 235 297 334
#     4  10  23  39  59  83 112 155 194 235 283 331
#
# _framework density 23.675173000000001
#
# number of rings (size 3 to 8) (size 9 to 14) (size 15 to 20)
#    0.000    2.000    0.000    3.857   10.000    2.857 
#    0.000    0.000    0.000    4.286    0.000    0.000 
#    0.000    0.000    0.000    0.000    0.000    0.000 
#
# Total GULP energy -78097.692028 kJ/mol
# GULP energy per Si atom -5578.406573 kJ/mol
# Density = 2.362129 g / cm^3
# Si number density = 23.675173 Si / 1000 Ang^3
#
#
#
# Elastic Constant Matrix: (Units=GPa)
#
#
# Indices 1 2 3 4 5 6 
#
# 1 56.1721 5.3359 -2.3111 -7.8174 17.7573 0.3017
# 2 5.3359 56.3913 19.7228 14.8077 4.0020 13.5697
# 3 -2.3111 19.7228 87.7642 8.1031 21.4725 -2.2247
# 4 -7.8174 14.8077 8.1031 41.8264 1.9078 9.0689
# 5 17.7573 4.0020 21.4725 1.9078 35.4846 0.9370
# 6 0.3017 13.5697 -2.2247 9.0689 0.9370 30.4634
#
#
#
# Elastic Compliance Matrix: (Units=1/GPa)
#
#
# Indices 1 2 3 4 5 6 
#
# 1 0.023822 -0.004570 0.004729 0.005620 -0.014594 0.000921
# 2 -0.004570 0.023914 -0.006093 -0.006301 0.003861 -0.009295
# 3 0.004729 -0.006093 0.015811 -0.000438 -0.011337 0.004301
# 4 0.005620 -0.006301 -0.000438 0.028660 -0.003227 -0.005714
# 5 -0.014594 0.003861 -0.011337 -0.003227 0.042155 -0.002739
# 6 0.000921 -0.009295 0.004301 -0.005714 -0.002739 0.039057
#
#
# Mechanical properties :
#
#
# Convention : Reuss Voigt Hill
#
# Bulk Modulus (GPa) = 19.34989 27.31364 23.33177
# Shear Modulus (GPa) = 24.68989 33.39354 29.04172
#
# Velocity S-wave (km/s) = 3.23284 3.75972 3.50619
# Velocity P-wave (km/s) = 4.70381 5.51445 5.12518
#
# Compressibility (1/GPa) = 0.05167989
#
# Stress axis : x y z
#
# Youngs Moduli (GPa) = 41.97851 41.81700 63.24663
#
# Poissons Ratio (x) = 0.19109 -0.29911
# Poissons Ratio (y) = 0.19183 0.38535
# Poissons Ratio (z) = -0.19853 0.25478
#
# Static dielectric constant tensor:
#      x y z
#    x 1.919970 0.041950 0.073150 
#    y 0.041950 1.852750 0.047540 
#    z 0.073150 0.047540 2.034510 
# 
# From -- ./inp_files/170729.got.cif
#   From: 2010.05.17/outbox.cif.g08.bks.cpg/sg2_86_cif.got.tgz:170729.got - 2010.06.03 11:33:40.
