data_PCOD9001048
_publ_section_title
;
Structure prediction by ZEFSAII (Michael W. Deem and Ramdas Pophale) SiO2 
 PCOD9001048
Probable space group: P -1
;
_chemical_formula_sum "Si O2"
_cell_formula_units_Z 16
_cell_length_a 16.494687
_cell_length_b 16.941977
_cell_length_c 10.737793
_cell_angle_alpha 31.832697
_cell_angle_beta 129.142587
_cell_angle_gamma 149.483553
_cell_volume 744.751694
_symmetry_space_group_name_H-M "P -1"
_symmetry_group_IT_number 2
_symmetry_cell_setting 'triclinic'
loop_
_space_group_symop_operation_xyz
x,y,z
-x,-y,-z
loop_
_atom_site_type_symbol
_atom_site_label
_atom_site_fract_x
_atom_site_fract_y
_atom_site_fract_z
Si Si1 0.169929 0.594894 0.029923
Si Si2 0.658982 0.624939 0.334135
Si Si3 0.731428 0.985934 0.522855
Si Si4 0.673630 0.233743 0.780164
Si Si5 0.050788 0.887946 0.669814
Si Si6 0.647230 0.496505 0.231299
Si Si7 0.961573 0.018256 0.801261
Si Si8 0.328376 0.096920 0.850301
O O1 0.289013 0.859101 0.730062
O O2 0.210518 0.610102 0.193487
O O3 0.000000 0.500000 0.000000
O O4 0.118113 0.397970 0.155254
O O5 0.636799 0.598308 0.200986
O O6 0.503291 0.345772 0.611777
O O7 0.651652 0.783414 0.167179
O O8 0.850305 0.781599 0.346345
O O9 0.538119 0.716174 0.726170
O O10 0.871790 0.079148 0.630056
O O11 0.810433 0.994736 0.463213
O O12 0.678313 0.377918 0.497734
O O13 0.500000 0.000000 0.000000
O O14 0.694791 0.106409 0.892647
O O15 0.157004 0.952675 0.804879
O O16 0.000000 0.000000 0.500000
O O17 0.810184 0.733292 0.990290
O O18 0.000000 0.000000 0.000000
#
# Coordination Sequence:
#
# PCOD9001048 Si02
#       8
#     2   2   2   2   2   2   2   2
#     4  10  21  33  57  85 125 153 194 251 300 355
#     4  10  21  38  58  89 121 156 204 244 307 355
#     4  11  20  41  57  88 123 154 209 247 298 360
#     4  12  20  37  60  91 121 153 204 248 302 360
#     4  11  22  33  56  93 127 158 188 249 316 363
#     4  11  22  40  61  88 122 165 206 245 298 359
#     4  10  24  37  63  88 117 166 211 247 288 364
#     4  11  21  36  60  90 127 155 192 258 313 353
#
# _framework density 21.483668999999999
#
# number of rings (size 3 to 8) (size 9 to 14) (size 15 to 20)
#    0.000    1.250    6.250    1.125    8.750    0.000 
#    0.000    0.625    0.000    3.000    0.000    7.000 
#    0.000    0.000    0.000    0.000    0.000    0.000 
#
# Total GULP energy -89091.084873 kJ/mol
# GULP energy per Si atom -5568.192805 kJ/mol
# Density = 2.143477 g / cm^3
# Si number density = 21.483669 Si / 1000 Ang^3
#
#
#
# Elastic Constant Matrix: (Units=GPa)
#
#
# Indices 1 2 3 4 5 6 
#
# 1 65.6082 22.1595 35.8624 -8.5703 36.2189 -7.8134
# 2 22.1595 108.3258 46.1398 -13.2853 8.2996 10.3742
# 3 35.8624 46.1398 122.0844 -11.5335 30.4006 -2.6439
# 4 -8.5703 -13.2853 -11.5335 45.1605 4.1134 -1.7105
# 5 36.2189 8.2996 30.4006 4.1134 34.5618 -13.9397
# 6 -7.8134 10.3742 -2.6439 -1.7105 -13.9397 34.8522
#
#
#
# Elastic Compliance Matrix: (Units=1/GPa)
#
#
# Indices 1 2 3 4 5 6 
#
# 1 0.046068 -0.003803 0.002660 0.012960 -0.055188 -0.009776
# 2 -0.003803 0.012030 -0.004190 0.001322 0.003260 -0.003383
# 3 0.002660 -0.004190 0.012986 0.003830 -0.014837 -0.002918
# 4 0.012960 0.001322 0.003830 0.027839 -0.022534 -0.004844
# 5 -0.055188 0.003260 -0.014837 -0.022534 0.113793 0.029939
# 6 -0.009776 -0.003383 -0.002918 -0.004844 0.029939 0.039023
#
#
# Mechanical properties :
#
#
# Convention : Reuss Voigt Hill
#
# Bulk Modulus (GPa) = 16.55103 56.03799 36.29451
# Shear Modulus (GPa) = 17.69641 35.70533 26.70087
#
# Velocity S-wave (km/s) = 2.87316 4.08116 3.52923
# Velocity P-wave (km/s) = 4.32752 6.95330 5.79119
#
# Compressibility (1/GPa) = 0.06041920
#
# Stress axis : x y z
#
# Youngs Moduli (GPa) = 21.70722 83.12418 77.00484
#
# Poissons Ratio (x) = 0.31610 -0.20483
# Poissons Ratio (y) = 0.08255 0.32262
# Poissons Ratio (z) = -0.05774 0.34825
#
# Static dielectric constant tensor:
#      x y z
#    x 1.732280 0.059370 0.090620 
#    y 0.059370 1.871380 -0.107970 
#    z 0.090620 -0.107970 1.894980 
# 
# From -- ./inp_files/466542.got.cif
#   From: 2010.05.17/outbox.cif.g08.bks.cpg/sg2_234_cif.got.tgz:466542.got - 2010.06.03 11:33:40.
