data_PCOD9001233
_publ_section_title
;
Structure prediction by ZEFSAII (Michael W. Deem and Ramdas Pophale) SiO2 
 PCOD9001233
Probable space group: P -1
;
_chemical_formula_sum "Si O2"
_cell_formula_units_Z 12
_cell_length_a 20.288993
_cell_length_b 13.940993
_cell_length_c 11.205206
_cell_angle_alpha 148.890238
_cell_angle_beta 31.369321
_cell_angle_gamma 156.582992
_cell_volume 613.887393
_symmetry_space_group_name_H-M "P -1"
_symmetry_group_IT_number 2
_symmetry_cell_setting 'triclinic'
loop_
_space_group_symop_operation_xyz
x,y,z
-x,-y,-z
loop_
_atom_site_type_symbol
_atom_site_label
_atom_site_fract_x
_atom_site_fract_y
_atom_site_fract_z
Si Si1 0.312535 0.306582 0.514119
Si Si2 0.123368 0.878507 0.634543
Si Si3 0.815759 0.649786 0.019480
Si Si4 0.935244 0.276689 0.702406
Si Si5 0.552745 0.065489 0.845009
Si Si6 0.219392 0.536079 0.739450
O O1 0.500000 0.500000 0.500000
O O2 0.173231 0.266633 0.774110
O O3 0.299084 0.424338 0.546157
O O4 0.235657 0.022740 0.318149
O O5 0.026190 0.735456 0.506770
O O6 0.293819 0.926023 0.408964
O O7 0.187422 0.158294 0.841732
O O8 0.983336 0.709072 0.775629
O O9 0.641140 0.347940 0.969784
O O10 0.092040 0.382975 0.661768
O O11 0.888144 0.444608 0.977931
O O12 0.388351 0.836267 0.776888
O O13 0.500000 0.000000 0.000000
#
# Coordination Sequence:
#
# PCOD9001233 Si02
#       6
#     2   2   2   2   2   2
#     4  11  20  35  60  84 109 144 196 238 275 329
#     4  10  21  38  56  81 113 149 189 233 284 338
#     4  10  21  34  58  83 110 146 188 238 284 329
#     4  10  21  35  54  79 119 148 182 230 287 342
#     4  12  20  34  58  85 111 143 196 239 274 329
#     4  11  21  34  53  86 113 146 184 235 288 331
#
# _framework density 19.547559
#
# number of rings (size 3 to 8) (size 9 to 14) (size 15 to 20)
#    0.000    1.333    3.333    4.000    0.000    0.000 
#    0.000    0.833    0.000   18.000    0.000    0.000 
#    0.000    0.000    0.000    0.000    0.000    0.000 
#
# Total GULP energy -66863.422482 kJ/mol
# GULP energy per Si atom -5571.951873 kJ/mol
# Density = 1.950307 g / cm^3
# Si number density = 19.547559 Si / 1000 Ang^3
#
#
#
# Elastic Constant Matrix: (Units=GPa)
#
#
# Indices 1 2 3 4 5 6 
#
# 1 65.8110 38.7673 24.5696 1.3556 -12.8733 21.3965
# 2 38.7673 112.3530 22.3993 -0.3482 9.4135 9.3186
# 3 24.5696 22.3993 93.0793 -13.5885 -0.0005 4.0448
# 4 1.3556 -0.3482 -13.5885 35.0909 -6.1206 0.7838
# 5 -12.8733 9.4135 -0.0005 -6.1206 24.5744 -0.4307
# 6 21.3965 9.3186 4.0448 0.7838 -0.4307 35.0474
#
#
#
# Elastic Compliance Matrix: (Units=1/GPa)
#
#
# Indices 1 2 3 4 5 6 
#
# 1 0.032998 -0.010743 -0.005318 0.000636 0.021272 -0.016428
# 2 -0.010743 0.013448 -0.000788 -0.001771 -0.011168 0.002977
# 3 -0.005318 -0.000788 0.012983 0.004973 -0.001213 0.001832
# 4 0.000636 -0.001771 0.004973 0.031967 0.008955 -0.001096
# 5 0.021272 -0.011168 -0.001213 0.008955 0.058180 -0.009362
# 6 -0.016428 0.002977 0.001832 -0.001096 -0.009362 0.037469
#
#
# Mechanical properties :
#
#
# Convention : Reuss Voigt Hill
#
# Bulk Modulus (GPa) = 38.86541 49.19064 44.02803
# Shear Modulus (GPa) = 21.80338 31.30968 26.55653
#
# Velocity S-wave (km/s) = 3.34339 4.00649 3.68986
# Velocity P-wave (km/s) = 5.90169 6.82802 6.38168
#
# Compressibility (1/GPa) = 0.02572982
#
# Stress axis : x y z
#
# Youngs Moduli (GPa) = 30.30483 74.35993 77.02155
#
# Poissons Ratio (x) = 0.79888 0.40960
# Poissons Ratio (y) = 0.32558 0.06072
# Poissons Ratio (z) = 0.16116 0.05862
#
# Static dielectric constant tensor:
#      x y z
#    x 1.718810 -0.033440 -0.062160 
#    y -0.033440 1.719360 0.010080 
#    z -0.062160 0.010080 1.780360 
# 
# From -- ./inp_files/255533.got.cif
#   From: 2010.05.17/outbox.cif.g08.bks.cpg/sg2_128_cif.got.tgz:255533.got - 2010.06.03 11:33:40.
