data_PCOD9001406
_publ_section_title
;
Structure prediction by ZEFSAII (Michael W. Deem and Ramdas Pophale) SiO2 
 PCOD9001406
Probable space group: P -1
;
_chemical_formula_sum "Si O2"
_cell_formula_units_Z 12
_cell_length_a 12.784181
_cell_length_b 5.426373
_cell_length_c 15.300197
_cell_angle_alpha 87.464922
_cell_angle_beta 28.429755
_cell_angle_gamma 87.431349
_cell_volume 504.779275
_symmetry_space_group_name_H-M "P -1"
_symmetry_group_IT_number 2
_symmetry_cell_setting 'triclinic'
loop_
_space_group_symop_operation_xyz
x,y,z
-x,-y,-z
loop_
_atom_site_type_symbol
_atom_site_label
_atom_site_fract_x
_atom_site_fract_y
_atom_site_fract_z
Si Si1 0.460633 0.849001 0.663708
Si Si2 0.055701 0.202428 0.384303
Si Si3 0.374469 0.659779 0.408274
Si Si4 0.533987 0.545751 0.872296
Si Si5 0.716328 0.939911 0.964246
Si Si6 0.817245 0.111781 0.293001
O O1 0.502496 0.598572 0.688520
O O2 0.407004 0.799598 0.939267
O O3 0.246416 0.845242 0.760780
O O4 0.667368 0.889164 0.444246
O O5 0.209237 0.396458 0.317560
O O6 0.193024 0.083749 0.202898
O O7 0.837152 0.305609 0.497138
O O8 0.000000 0.000000 0.500000
O O9 0.276380 0.669151 0.579716
O O10 0.522191 0.904388 0.295469
O O11 0.500000 0.500000 0.000000
O O12 0.437057 0.298759 0.905172
O O13 0.931352 0.929208 0.867119
#
# Coordination Sequence:
#
# PCOD9001406 Si02
#       6
#     2   2   2   2   2   2
#     4   9  17  28  46  74 104 126 162 218 263 302
#     4  10  21  36  55  78 107 144 181 212 255 310
#     4   9  18  29  45  70 106 126 164 212 262 291
#     4  10  21  36  52  75 106 143 173 217 259 307
#     4  10  21  35  55  77 110 135 173 215 267 308
#     4   8  18  26  52  71 104 126 169 206 272 297
#
# _framework density 23.772769
#
# number of rings (size 3 to 8) (size 9 to 14) (size 15 to 20)
#    1.000    1.667    0.000    2.500    7.000    1.333 
#    0.000   13.333    0.000    0.000    0.000    7.000 
#    0.000    0.000    0.000    0.000    0.000    0.000 
#
# Total GULP energy -67078.080671 kJ/mol
# GULP energy per Si atom -5589.840056 kJ/mol
# Density = 2.371866 g / cm^3
# Si number density = 23.772769 Si / 1000 Ang^3
#
#
#
# Elastic Constant Matrix: (Units=GPa)
#
#
# Indices 1 2 3 4 5 6 
#
# 1 191.7314 104.5947 62.2766 9.4197 -30.2191 10.8402
# 2 104.5947 203.7920 55.5865 -17.7863 -10.0845 5.7500
# 3 62.2766 55.5865 99.3784 -8.8097 -18.3311 -4.5757
# 4 9.4197 -17.7863 -8.8097 33.9578 4.2758 6.0453
# 5 -30.2191 -10.0845 -18.3311 4.2758 42.9652 3.0415
# 6 10.8402 5.7500 -4.5757 6.0453 3.0415 19.6590
#
#
#
# Elastic Compliance Matrix: (Units=1/GPa)
#
#
# Indices 1 2 3 4 5 6 
#
# 1 0.010173 -0.004360 -0.003653 -0.005996 0.005467 -0.004187
# 2 -0.004360 0.008050 -0.001794 0.005564 -0.002375 -0.001712
# 3 -0.003653 -0.001794 0.014265 0.002629 0.002504 0.004663
# 4 -0.005996 0.005564 0.002629 0.036793 -0.004866 -0.008271
# 5 0.005467 -0.002375 0.002504 -0.004866 0.028443 -0.004641
# 6 -0.004187 -0.001712 0.004663 -0.008271 -0.004641 0.058023
#
#
# Mechanical properties :
#
#
# Convention : Reuss Voigt Hill
#
# Bulk Modulus (GPa) = 77.67018 104.42415 91.04716
# Shear Modulus (GPa) = 27.83134 37.47934 32.65534
#
# Velocity S-wave (km/s) = 3.42530 3.97491 3.71029
# Velocity P-wave (km/s) = 6.95603 8.06770 7.53240
#
# Compressibility (1/GPa) = 0.01287495
#
# Stress axis : x y z
#
# Youngs Moduli (GPa) = 98.29635 124.21634 70.10241
#
# Poissons Ratio (x) = 0.54156 0.25605
# Poissons Ratio (y) = 0.42855 0.12580
# Poissons Ratio (z) = 0.35903 0.22291
#
# Static dielectric constant tensor:
#      x y z
#    x 1.784430 -0.025530 0.048880 
#    y -0.025530 1.836870 0.021980 
#    z 0.048880 0.021980 1.928940 
# 
# From -- ./inp_files/187116.got.cif
#   From: 2010.05.17/outbox.cif.g08.bks.cpg/sg2_94_cif.got.tgz:187116.got - 2010.06.03 11:33:40.
