data_PCOD9001110
_publ_section_title
;
Structure prediction by ZEFSAII (Michael W. Deem and Ramdas Pophale) SiO2 
 PCOD9001110
Probable space group: P -1
;
_chemical_formula_sum "Si O2"
_cell_formula_units_Z 16
_cell_length_a 24.205041
_cell_length_b 14.920204
_cell_length_c 15.428992
_cell_angle_alpha 17.991479
_cell_angle_beta 151.865520
_cell_angle_gamma 152.327893
_cell_volume 768.343650
_symmetry_space_group_name_H-M "P -1"
_symmetry_group_IT_number 2
_symmetry_cell_setting 'triclinic'
loop_
_space_group_symop_operation_xyz
x,y,z
-x,-y,-z
loop_
_atom_site_type_symbol
_atom_site_label
_atom_site_fract_x
_atom_site_fract_y
_atom_site_fract_z
Si Si1 0.665481 0.473792 0.941508
Si Si2 0.508509 0.180661 0.636344
Si Si3 0.378168 0.746161 0.101713
Si Si4 0.832325 0.014566 0.324801
Si Si5 0.771428 0.345350 0.786020
Si Si6 0.012653 0.018528 0.808364
Si Si7 0.936278 0.544828 0.282399
Si Si8 0.067620 0.439224 0.352373
O O1 0.581579 0.673101 0.670018
O O2 0.678512 0.479761 0.848615
O O3 0.800259 0.566137 0.083116
O O4 0.581744 0.138056 0.161624
O O5 0.569997 0.371993 0.632164
O O6 0.624989 0.170848 0.750769
O O7 0.276313 0.893318 0.861042
O O8 0.500000 0.000000 0.000000
O O9 0.959185 0.162511 0.414329
O O10 0.799233 0.656910 0.592966
O O11 0.840967 0.152977 0.112755
O O12 0.822115 0.427965 0.684393
O O13 0.918208 0.215703 0.510417
O O14 0.016639 0.855775 0.057071
O O15 0.106795 0.294045 0.627588
O O16 0.005379 0.708839 0.031103
O O17 0.000000 0.500000 0.500000
#
# Coordination Sequence:
#
# PCOD9001110 Si02
#       8
#     2   2   2   2   2   2   2   2
#     4  11  21  35  56  81 111 150 187 229 285 341
#     4  10  21  34  51  81 113 155 198 224 265 332
#     4   9  18  31  48  73 113 151 185 224 260 321
#     4  11  21  31  49  76 113 160 202 237 277 321
#     4  11  21  35  51  76 115 157 198 243 276 311
#     4  10  22  37  58  86 110 140 181 225 291 353
#     4  11  23  41  63  90 116 139 176 237 301 360
#     4  11  21  36  55  81 112 152 198 241 277 329
#
# _framework density 20.824013999999998
#
# number of rings (size 3 to 8) (size 9 to 14) (size 15 to 20)
#    0.000    1.500    0.000    7.500    0.000    5.000 
#    0.000    0.000    0.000    0.000    0.000   17.500 
#    0.000    0.000    0.000    0.000    0.000    0.000 
#
# Total GULP energy -89129.221521 kJ/mol
# GULP energy per Si atom -5570.576345 kJ/mol
# Density = 2.077662 g / cm^3
# Si number density = 20.824014 Si / 1000 Ang^3
#
#
#
# Elastic Constant Matrix: (Units=GPa)
#
#
# Indices 1 2 3 4 5 6 
#
# 1 98.9989 28.2373 30.0655 9.7634 -20.3566 29.0578
# 2 28.2373 54.8275 23.0357 11.3470 -8.4847 8.1495
# 3 30.0655 23.0357 111.7237 -4.7645 -13.8942 2.9773
# 4 9.7634 11.3470 -4.7645 37.2764 0.1103 2.0791
# 5 -20.3566 -8.4847 -13.8942 0.1103 38.2621 -10.1318
# 6 29.0578 8.1495 2.9773 2.0791 -10.1318 12.6196
#
#
#
# Elastic Compliance Matrix: (Units=1/GPa)
#
#
# Indices 1 2 3 4 5 6 
#
# 1 0.039913 -0.003079 -0.008758 -0.005445 -0.007159 -0.092699
# 2 -0.003079 0.023907 -0.004151 -0.006683 0.000654 -0.005744
# 3 -0.008758 -0.004151 0.012335 0.003815 0.005081 0.023388
# 4 -0.005445 -0.006683 0.003815 0.030173 -0.000219 0.010806
# 5 -0.007159 0.000654 0.005081 -0.000219 0.035894 0.043717
# 6 -0.092699 -0.005744 0.023388 0.010806 0.043717 0.324200
#
#
# Mechanical properties :
#
#
# Convention : Reuss Voigt Hill
#
# Bulk Modulus (GPa) = 22.63562 47.58080 35.10821
# Shear Modulus (GPa) = 9.74425 29.91238 19.82832
#
# Velocity S-wave (km/s) = 2.16552 3.79415 3.08910
# Velocity P-wave (km/s) = 4.14080 6.48789 5.44237
#
# Compressibility (1/GPa) = 0.04417815
#
# Stress axis : x y z
#
# Youngs Moduli (GPa) = 25.05477 41.82885 81.07161
#
# Poissons Ratio (x) = 0.12877 0.71004
# Poissons Ratio (y) = 0.07713 0.33656
# Poissons Ratio (z) = 0.21943 0.17365
#
# Static dielectric constant tensor:
#      x y z
#    x 1.853030 -0.045160 0.006660 
#    y -0.045160 1.739840 -0.005160 
#    z 0.006660 -0.005160 1.765620 
# 
# From -- ./inp_files/542985.got.cif
#   From: 2010.05.17/outbox.cif.g08.bks.cpg/sg2_272_cif.got.tgz:542985.got - 2010.06.03 11:33:40.
