data_PCOD9001636
_publ_section_title
;
Structure prediction by ZEFSAII (Michael W. Deem and Ramdas Pophale) SiO2 
 PCOD9001636
Probable space group: P -1
;
_chemical_formula_sum "Si O2"
_cell_formula_units_Z 16
_cell_length_a 11.761962
_cell_length_b 17.660168
_cell_length_c 18.064289
_cell_angle_alpha 26.792733
_cell_angle_beta 143.586688
_cell_angle_gamma 149.500163
_cell_volume 847.970575
_symmetry_space_group_name_H-M "P -1"
_symmetry_group_IT_number 2
_symmetry_cell_setting 'triclinic'
loop_
_space_group_symop_operation_xyz
x,y,z
-x,-y,-z
loop_
_atom_site_type_symbol
_atom_site_label
_atom_site_fract_x
_atom_site_fract_y
_atom_site_fract_z
Si Si1 0.441845 0.858971 0.162423
Si Si2 0.204258 0.248001 0.545777
Si Si3 0.985964 0.469669 0.282120
Si Si4 0.188179 0.378953 0.257921
Si Si5 0.333492 0.795266 0.905041
Si Si6 0.408781 0.836621 0.749152
Si Si7 0.260861 0.145991 0.374840
Si Si8 0.482237 0.668094 0.802287
O O1 0.569872 0.741664 0.322334
O O2 0.175888 0.698047 0.172609
O O3 0.543677 0.002164 0.161648
O O4 0.500000 0.000000 0.000000
O O5 0.111996 0.350957 0.461423
O O6 0.229508 0.338304 0.398355
O O7 0.003534 0.016736 0.636272
O O8 0.831889 0.369494 0.215184
O O9 0.783901 0.416813 0.279041
O O10 0.282899 0.287763 0.328904
O O11 0.917889 0.263769 0.200507
O O12 0.295272 0.610701 0.094615
O O13 0.469032 0.820216 0.878478
O O14 0.553290 0.839638 0.752133
O O15 0.368551 0.016094 0.565116
O O16 0.373752 0.260450 0.258413
O O17 0.500000 0.500000 0.000000
#
# Coordination Sequence:
#
# PCOD9001636 Si02
#       8
#     2   2   2   2   2   2   2   2
#     4  12  25  36  57  91 125 159 186 240 308 361
#     4  11  21  37  61  87 122 155 193 246 293 359
#     4   9  22  39  55  85 123 150 198 229 301 344
#     4  11  20  34  58  91 117 151 198 246 295 338
#     4  11  21  35  60  85 123 150 195 245 294 350
#     4   9  20  37  59  86 111 152 200 245 277 343
#     4  11  19  32  59  91 112 146 202 244 291 329
#     4  10  21  35  60  85 118 154 198 253 281 337
#
# _framework density 18.868579
#
# number of rings (size 3 to 8) (size 9 to 14) (size 15 to 20)
#    0.750    0.750    3.750    3.375    3.500    0.000 
#    0.000    0.000    0.000    6.000    0.000    0.000 
#    0.000    0.000    0.000    0.000    0.000    0.000 
#
# Total GULP energy -89242.605759 kJ/mol
# GULP energy per Si atom -5577.662860 kJ/mol
# Density = 1.882563 g / cm^3
# Si number density = 18.868579 Si / 1000 Ang^3
#
#
#
# Elastic Constant Matrix: (Units=GPa)
#
#
# Indices 1 2 3 4 5 6 
#
# 1 90.7918 3.9724 36.1779 -1.4033 -3.0306 1.9715
# 2 3.9724 45.6929 20.6318 -12.1461 -2.5003 -4.4155
# 3 36.1779 20.6318 86.6874 -0.8260 -10.1963 7.3411
# 4 -1.4033 -12.1461 -0.8260 21.8997 -2.1783 1.8398
# 5 -3.0306 -2.5003 -10.1963 -2.1783 35.5340 -7.3351
# 6 1.9715 -4.4155 7.3411 1.8398 -7.3351 16.2021
#
#
#
# Elastic Compliance Matrix: (Units=1/GPa)
#
#
# Indices 1 2 3 4 5 6 
#
# 1 0.013399 0.002277 -0.006260 0.001745 -0.000055 0.001603
# 2 0.002277 0.031450 -0.008897 0.016581 0.003338 0.011954
# 3 -0.006260 -0.008897 0.017137 -0.003821 0.001838 -0.008161
# 4 0.001745 0.016581 -0.003821 0.055086 0.003917 0.001556
# 5 -0.000055 0.003338 0.001838 0.003917 0.032062 0.014154
# 6 0.001603 0.011954 -0.008161 0.001556 0.014154 0.074712
#
#
# Mechanical properties :
#
#
# Convention : Reuss Voigt Hill
#
# Bulk Modulus (GPa) = 27.60380 38.30402 32.95391
# Shear Modulus (GPa) = 19.10731 25.55316 22.33023
#
# Velocity S-wave (km/s) = 3.18567 3.68403 3.44388
# Velocity P-wave (km/s) = 5.30967 6.20005 5.77206
#
# Compressibility (1/GPa) = 0.03622690
#
# Stress axis : x y z
#
# Youngs Moduli (GPa) = 74.63146 31.79639 58.35446
#
# Poissons Ratio (x) = -0.07241 0.36528
# Poissons Ratio (y) = -0.16997 0.51920
# Poissons Ratio (z) = 0.46717 0.28290
#
# Static dielectric constant tensor:
#      x y z
#    x 1.694070 0.001650 0.026040 
#    y 0.001650 1.659860 -0.005420 
#    z 0.026040 -0.005420 1.659500 
# 
# From -- ./inp_files/570237.got.cif
#   From: 2010.05.17/outbox.cif.g08.bks.cpg/sg2_286_cif.got.tgz:570237.got - 2010.06.03 11:33:40.
