data_PCOD9001274
_publ_section_title
;
Structure prediction by ZEFSAII (Michael W. Deem and Ramdas Pophale) SiO2 
 PCOD9001274
Probable space group: P -1
;
_chemical_formula_sum "Si O2"
_cell_formula_units_Z 16
_cell_length_a 14.118642
_cell_length_b 14.139677
_cell_length_c 6.614033
_cell_angle_alpha 141.107968
_cell_angle_beta 132.815671
_cell_angle_gamma 50.618410
_cell_volume 591.944383
_symmetry_space_group_name_H-M "P -1"
_symmetry_group_IT_number 2
_symmetry_cell_setting 'triclinic'
loop_
_space_group_symop_operation_xyz
x,y,z
-x,-y,-z
loop_
_atom_site_type_symbol
_atom_site_label
_atom_site_fract_x
_atom_site_fract_y
_atom_site_fract_z
Si Si1 0.170731 0.655527 0.477520
Si Si2 0.130490 0.543780 0.680806
Si Si3 0.613597 0.872384 0.836675
Si Si4 0.263087 0.925364 0.869820
Si Si5 0.996935 0.870922 0.048271
Si Si6 0.887822 0.845238 0.424219
Si Si7 0.532393 0.303710 0.446679
Si Si8 0.647194 0.581542 0.958819
O O1 0.164190 0.578758 0.558419
O O2 0.241577 0.802600 0.806776
O O3 0.253920 0.525684 0.237476
O O4 0.014687 0.722326 0.313923
O O5 0.000000 0.500000 0.500000
O O6 0.099813 0.718994 0.017379
O O7 0.248874 0.405431 0.697622
O O8 0.749344 0.838549 0.110568
O O9 0.646529 0.947592 0.798765
O O10 0.542154 0.730435 0.519069
O O11 0.500000 0.000000 0.000000
O O12 0.330821 0.816931 0.603361
O O13 0.115410 0.031120 0.807360
O O14 0.908137 0.819505 0.652557
O O15 0.080534 0.986346 0.272167
O O16 0.557392 0.474041 0.748273
O O17 0.443532 0.289337 0.094050
#
# Coordination Sequence:
#
# PCOD9001274 Si02
#       8
#     2   2   2   2   2   2   2   2
#     4   9  21  40  62  96 121 156 206 255 310 369
#     4  11  25  39  62  97 124 157 208 256 302 367
#     4  10  21  34  60  86 122 154 203 254 288 364
#     4   9  19  39  61  89 120 153 204 251 305 362
#     4   9  20  36  60  88 119 156 191 256 322 348
#     4   9  19  36  60  88 123 150 193 261 308 357
#     4   9  21  41  60  91 121 164 211 245 296 375
#     4  10  22  42  69  81 127 176 197 246 316 356
#
# _framework density 27.029567
#
# number of rings (size 3 to 8) (size 9 to 14) (size 15 to 20)
#    0.000    2.500    0.000    0.750   10.500    2.500 
#    0.000    8.125    2.750    0.000    0.000    0.000 
#    0.000    0.000    0.000    0.000    0.000    0.000 
#
# Total GULP energy -89318.903232 kJ/mol
# GULP energy per Si atom -5582.431452 kJ/mol
# Density = 2.696805 g / cm^3
# Si number density = 27.029567 Si / 1000 Ang^3
#
#
#
# Elastic Constant Matrix: (Units=GPa)
#
#
# Indices 1 2 3 4 5 6 
#
# 1 174.4348 45.6042 48.6400 9.1742 34.2686 16.0633
# 2 45.6042 112.6149 32.8103 -4.6688 11.2050 -11.4238
# 3 48.6400 32.8103 65.1111 -11.8588 22.2060 6.7898
# 4 9.1742 -4.6688 -11.8588 39.8143 5.5915 13.8624
# 5 34.2686 11.2050 22.2060 5.5915 48.3361 10.4165
# 6 16.0633 -11.4238 6.7898 13.8624 10.4165 58.2018
#
#
#
# Elastic Compliance Matrix: (Units=1/GPa)
#
#
# Indices 1 2 3 4 5 6 
#
# 1 0.008337 -0.001940 -0.004727 -0.002835 -0.002754 -0.000962
# 2 -0.001940 0.011390 -0.004959 -0.000970 0.000368 0.003515
# 3 -0.004727 -0.004959 0.026554 0.010920 -0.008118 -0.003915
# 4 -0.002835 -0.000970 0.010920 0.032199 -0.004896 -0.007475
# 5 -0.002754 0.000368 -0.008118 -0.004896 0.027268 -0.001935
# 6 -0.000962 0.003515 -0.003915 -0.007475 -0.001935 0.020720
#
#
# Mechanical properties :
#
#
# Convention : Reuss Voigt Hill
#
# Bulk Modulus (GPa) = 43.42343 67.36332 55.39337
# Shear Modulus (GPa) = 31.76693 44.27753 38.02223
#
# Velocity S-wave (km/s) = 3.43193 4.05175 3.75466
# Velocity P-wave (km/s) = 5.63953 6.84581 6.27174
#
# Compressibility (1/GPa) = 0.02302904
#
# Stress axis : x y z
#
# Youngs Moduli (GPa) = 119.95032 87.79705 37.65889
#
# Poissons Ratio (x) = 0.17032 0.17801
# Poissons Ratio (y) = 0.23270 0.18675
# Poissons Ratio (z) = 0.56701 0.43538
#
# Static dielectric constant tensor:
#      x y z
#    x 2.128360 0.058950 -0.089380 
#    y 0.058950 2.180450 0.049360 
#    z -0.089380 0.049360 2.300390 
# 
# From -- ./inp_files/314166.got.cif
#   From: 2010.05.17/outbox.cif.g08.bks.cpg/sg2_158_cif.got.tgz:314166.got - 2010.06.03 11:33:40.
