data_PCOD9001713
_publ_section_title
;
Structure prediction by ZEFSAII (Michael W. Deem and Ramdas Pophale) SiO2 
 PCOD9001713
Probable space group: P -1
;
_chemical_formula_sum "Si O2"
_cell_formula_units_Z 16
_cell_length_a 14.469913
_cell_length_b 11.779011
_cell_length_c 14.582888
_cell_angle_alpha 28.428026
_cell_angle_beta 53.207737
_cell_angle_gamma 73.406910
_cell_volume 733.951027
_symmetry_space_group_name_H-M "P -1"
_symmetry_group_IT_number 2
_symmetry_cell_setting 'triclinic'
loop_
_space_group_symop_operation_xyz
x,y,z
-x,-y,-z
loop_
_atom_site_type_symbol
_atom_site_label
_atom_site_fract_x
_atom_site_fract_y
_atom_site_fract_z
Si Si1 0.267144 0.763365 0.558658
Si Si2 0.130931 0.201411 0.915634
Si Si3 0.188473 0.167424 0.696600
Si Si4 0.657848 0.641688 0.857761
Si Si5 0.588318 0.387206 0.283658
Si Si6 0.278448 0.770937 0.955993
Si Si7 0.589888 0.191226 0.964319
Si Si8 0.383939 0.243107 0.826550
O O1 0.160664 0.491205 0.743535
O O2 0.291080 0.626007 0.730067
O O3 0.241820 0.992245 0.450337
O O4 0.426664 0.989438 0.249356
O O5 0.191141 0.267895 0.728034
O O6 0.223372 0.130344 0.970077
O O7 0.956703 0.927005 0.201996
O O8 0.332290 0.458085 0.353129
O O9 0.178512 0.866705 0.921545
O O10 0.622051 0.511602 0.074037
O O11 0.746128 0.536909 0.834500
O O12 0.500000 0.500000 0.000000
O O13 0.579323 0.593543 0.214070
O O14 0.435471 0.040740 0.623232
O O15 0.310920 0.813300 0.014435
O O16 0.599425 0.017417 0.999380
O O17 0.500000 0.500000 0.500000
#
# Coordination Sequence:
#
# PCOD9001713 Si02
#       8
#     2   2   2   2   2   2   2   2
#     4  10  22  39  60  94 123 158 207 259 305 360
#     4  10  22  42  59  90 136 161 200 257 308 377
#     4  11  24  39  61  91 129 172 199 246 318 371
#     4  12  23  37  61  96 123 161 215 258 308 368
#     4  10  21  35  61  92 128 162 191 270 320 346
#     4  11  22  39  57  88 132 160 206 255 310 366
#     4  11  21  36  65  95 119 164 205 258 304 378
#     4  11  18  39  64  96 131 153 201 263 314 360
#
# _framework density 21.799817999999998
#
# number of rings (size 3 to 8) (size 9 to 14) (size 15 to 20)
#    0.000    1.250    7.500    1.125    1.750    1.000 
#    0.000    0.625    0.000    3.750    0.000    0.000 
#    0.000    0.000    0.000    0.000    0.000    0.000 
#
# Total GULP energy -89374.848408 kJ/mol
# GULP energy per Si atom -5585.928026 kJ/mol
# Density = 2.175020 g / cm^3
# Si number density = 21.799818 Si / 1000 Ang^3
#
#
#
# Elastic Constant Matrix: (Units=GPa)
#
#
# Indices 1 2 3 4 5 6 
#
# 1 115.7010 20.8019 29.5859 -4.8171 4.5423 10.2275
# 2 20.8019 118.5250 10.1530 -37.0511 15.7761 -1.1433
# 3 29.5859 10.1530 36.1353 -6.8969 12.3176 8.3687
# 4 -4.8171 -37.0511 -6.8969 24.1714 -0.8853 12.4565
# 5 4.5423 15.7761 12.3176 -0.8853 23.6540 -2.6947
# 6 10.2275 -1.1433 8.3687 12.4565 -2.6947 33.7276
#
#
#
# Elastic Compliance Matrix: (Units=1/GPa)
#
#
# Indices 1 2 3 4 5 6 
#
# 1 0.012708 -0.008350 -0.018085 -0.019349 0.012793 0.008519
# 2 -0.008350 0.044415 0.042551 0.101467 -0.051864 -0.048139
# 3 -0.018085 0.042551 0.095972 0.121113 -0.078080 -0.067855
# 4 -0.019349 0.101467 0.121113 0.295053 -0.131961 -0.140259
# 5 0.012793 -0.051864 -0.078080 -0.131961 0.118324 0.071927
# 6 0.008519 -0.048139 -0.067855 -0.140259 0.071927 0.099819
#
#
# Mechanical properties :
#
#
# Convention : Reuss Voigt Hill
#
# Bulk Modulus (GPa) = 5.39589 43.49367 24.44478
# Shear Modulus (GPa) = 7.18561 30.29865 18.74213
#
# Velocity S-wave (km/s) = 1.81751 3.73212 2.93531
# Velocity P-wave (km/s) = 2.62393 6.21018 4.76715
#
# Compressibility (1/GPa) = 0.18532621
#
# Stress axis : x y z
#
# Youngs Moduli (GPa) = 78.69067 22.51488 10.41971
#
# Poissons Ratio (x) = 0.18801 0.18844
# Poissons Ratio (y) = 0.65709 -0.44337
# Poissons Ratio (z) = 1.42315 -0.95804
#
# Static dielectric constant tensor:
#      x y z
#    x 1.815280 -0.043160 0.026970 
#    y -0.043160 1.868380 -0.041820 
#    z 0.026970 -0.041820 1.791890 
# 
# From -- ./inp_files/532266.got.cif
#   From: 2010.05.17/outbox.cif.g08.bks.cpg/sg2_267_cif.got.tgz:532266.got - 2010.06.03 11:33:40.
