data_PCOD9001244
_publ_section_title
;
Structure prediction by ZEFSAII (Michael W. Deem and Ramdas Pophale) SiO2 
 PCOD9001244
Probable space group: P -1
;
_chemical_formula_sum "Si O2"
_cell_formula_units_Z 16
_cell_length_a 13.934192
_cell_length_b 4.797667
_cell_length_c 12.685884
_cell_angle_alpha 91.888590
_cell_angle_beta 115.588659
_cell_angle_gamma 75.115708
_cell_volume 736.261861
_symmetry_space_group_name_H-M "P -1"
_symmetry_group_IT_number 2
_symmetry_cell_setting 'triclinic'
loop_
_space_group_symop_operation_xyz
x,y,z
-x,-y,-z
loop_
_atom_site_type_symbol
_atom_site_label
_atom_site_fract_x
_atom_site_fract_y
_atom_site_fract_z
Si Si1 0.085327 0.976562 0.201133
Si Si2 0.756719 0.335833 0.896856
Si Si3 0.118677 0.405225 0.703000
Si Si4 0.940110 0.586334 0.096967
Si Si5 0.237753 0.803257 0.682637
Si Si6 0.576499 0.640526 0.110541
Si Si7 0.634102 0.903436 0.932023
Si Si8 0.075232 0.810234 0.439127
O O1 0.046739 0.317337 0.166029
O O2 0.198757 0.819094 0.193846
O O3 0.084218 0.920497 0.325724
O O4 0.990742 0.849972 0.099683
O O5 0.657889 0.629731 0.861481
O O6 0.716760 0.102210 0.946765
O O7 0.121704 0.318398 0.822917
O O8 0.150138 0.703463 0.714962
O O9 0.993345 0.428422 0.609233
O O10 0.207700 0.150394 0.680885
O O11 0.855516 0.464464 0.988223
O O12 0.350361 0.604719 0.781442
O O13 0.196469 0.725426 0.547974
O O14 0.490620 0.895267 0.134793
O O15 0.500000 0.500000 0.000000
O O16 0.640421 0.779658 0.053863
O O17 0.000000 0.000000 0.500000
#
# Coordination Sequence:
#
# PCOD9001244 Si02
#       8
#     2   2   2   2   2   2   2   2
#     4  11  23  38  59  87 127 164 206 248 287 362
#     4  12  23  39  60  88 122 169 203 241 308 360
#     4  10  21  34  58  90 121 156 196 236 297 369
#     4  11  21  35  57  86 126 163 202 241 288 360
#     4  11  23  36  61  87 122 158 194 248 312 352
#     4  11  25  42  63  92 121 151 205 260 312 365
#     4  11  25  40  62  87 122 154 200 257 309 362
#     4   9  20  40  59  91 123 159 200 247 293 357
#
# _framework density 21.731399
#
# number of rings (size 3 to 8) (size 9 to 14) (size 15 to 20)
#    0.000    1.250    1.250    5.625    5.250    4.000 
#    0.000    0.000    0.000    1.500    0.000    0.000 
#    0.000    0.000    0.000    0.000    0.000    0.000 
#
# Total GULP energy -89256.098154 kJ/mol
# GULP energy per Si atom -5578.506135 kJ/mol
# Density = 2.168194 g / cm^3
# Si number density = 21.731399 Si / 1000 Ang^3
#
#
#
# Elastic Constant Matrix: (Units=GPa)
#
#
# Indices 1 2 3 4 5 6 
#
# 1 84.6681 34.2806 45.9582 4.5313 -15.6302 -6.3006
# 2 34.2806 136.6383 36.9274 -3.2194 -2.3777 -16.0266
# 3 45.9582 36.9274 108.2102 -7.3037 5.3225 -10.2141
# 4 4.5313 -3.2194 -7.3037 29.5863 -3.3496 -0.8112
# 5 -15.6302 -2.3777 5.3225 -3.3496 34.9839 -4.4022
# 6 -6.3006 -16.0266 -10.2141 -0.8112 -4.4022 48.7705
#
#
#
# Elastic Compliance Matrix: (Units=1/GPa)
#
#
# Indices 1 2 3 4 5 6 
#
# 1 0.019112 -0.002499 -0.007925 -0.004084 0.009279 0.000758
# 2 -0.002499 0.008669 -0.001626 0.000996 0.000094 0.002211
# 3 -0.007925 -0.001626 0.013768 0.003865 -0.005261 0.000915
# 4 -0.004084 0.000996 0.003865 0.035663 0.001235 0.001314
# 5 0.009279 0.000094 -0.005261 0.001235 0.034061 0.003223
# 6 0.000758 0.002211 0.000915 0.001314 0.003223 0.021833
#
#
# Mechanical properties :
#
#
# Convention : Reuss Voigt Hill
#
# Bulk Modulus (GPa) = 57.30706 62.64988 59.97847
# Shear Modulus (GPa) = 30.67055 36.82485 33.74770
#
# Velocity S-wave (km/s) = 3.76087 4.12095 3.94502
# Velocity P-wave (km/s) = 6.72954 7.17877 6.95778
#
# Compressibility (1/GPa) = 0.01744986
#
# Stress axis : x y z
#
# Youngs Moduli (GPa) = 52.32218 115.34917 72.63275
#
# Poissons Ratio (x) = 0.28827 0.57561
# Poissons Ratio (y) = 0.13076 0.11808
# Poissons Ratio (z) = 0.41465 0.18753
#
# Static dielectric constant tensor:
#      x y z
#    x 1.865180 -0.020300 0.039600 
#    y -0.020300 1.865740 -0.024730 
#    z 0.039600 -0.024730 1.857100 
# 
# From -- ./inp_files/441946.got.cif
#   From: 2010.05.17/outbox.cif.g08.bks.cpg/sg2_221_cif.got.tgz:441946.got - 2010.06.03 11:33:40.
