data_PCOD9001944
_publ_section_title
;
Structure prediction by ZEFSAII (Michael W. Deem and Ramdas Pophale) SiO2 
 PCOD9001944
Probable space group: P -1
;
_chemical_formula_sum "Si O2"
_cell_formula_units_Z 16
_cell_length_a 8.772445
_cell_length_b 17.082569
_cell_length_c 12.771995
_cell_angle_alpha 23.097615
_cell_angle_beta 118.160745
_cell_angle_gamma 119.586331
_cell_volume 652.054798
_symmetry_space_group_name_H-M "P -1"
_symmetry_group_IT_number 2
_symmetry_cell_setting 'triclinic'
loop_
_space_group_symop_operation_xyz
x,y,z
-x,-y,-z
loop_
_atom_site_type_symbol
_atom_site_label
_atom_site_fract_x
_atom_site_fract_y
_atom_site_fract_z
Si Si1 0.824682 0.865628 0.916953
Si Si2 0.795268 0.063465 0.278858
Si Si3 0.377145 0.183791 0.302728
Si Si4 0.317312 0.399962 0.467247
Si Si5 0.006468 0.561332 0.247788
Si Si6 0.545370 0.829625 0.044810
Si Si7 0.255058 0.591667 0.815246
Si Si8 0.041642 0.244131 0.406148
O O1 0.687000 0.812832 0.840849
O O2 0.714661 0.896777 0.945298
O O3 0.955587 0.068042 0.677168
O O4 0.940046 0.684110 0.170808
O O5 0.717071 0.022023 0.419990
O O6 0.904025 0.885116 0.511629
O O7 0.919257 0.265594 0.029346
O O8 0.614738 0.048390 0.171101
O O9 0.584329 0.228079 0.334183
O O10 0.321417 0.378537 0.102571
O O11 0.171312 0.446262 0.448397
O O12 0.460435 0.602257 0.257702
O O13 0.398121 0.211961 0.768023
O O14 0.215403 0.359293 0.376334
O O15 0.842203 0.418605 0.316261
O O16 0.105940 0.617432 0.817965
#
# Coordination Sequence:
#
# PCOD9001944 Si02
#       8
#     2   2   2   2   2   2   2   2
#     4  10  21  36  56  81 110 144 180 217 267 321
#     4  10  21  36  55  80 112 145 179 217 264 320
#     4  10  21  37  55  79 112 146 178 219 263 315
#     4   9  20  39  59  79 107 139 178 228 273 314
#     4   8  18  37  56  80 110 139 178 222 266 322
#     4  10  21  38  58  79 106 144 182 220 269 322
#     4   9  19  35  54  77 108 142 181 218 261 315
#     4  10  21  36  55  81 109 140 180 223 267 319
#
# _framework density 24.537815999999999
#
# number of rings (size 3 to 8) (size 9 to 14) (size 15 to 20)
#    0.000    2.500    0.000    0.750    0.000   11.500 
#    0.000    3.750    0.000    0.000    0.000    0.000 
#    0.000    0.000    0.000    0.000    0.000    0.000 
#
# Total GULP energy -89384.833369 kJ/mol
# GULP energy per Si atom -5586.552086 kJ/mol
# Density = 2.448197 g / cm^3
# Si number density = 24.537816 Si / 1000 Ang^3
#
#
#
# Elastic Constant Matrix: (Units=GPa)
#
#
# Indices 1 2 3 4 5 6 
#
# 1 69.6306 1.2360 19.3922 -0.0569 11.7190 4.8466
# 2 1.2360 42.9325 -1.2420 -6.5980 -0.1752 7.2184
# 3 19.3922 -1.2420 38.6535 4.1995 15.6286 -6.5586
# 4 -0.0569 -6.5980 4.1995 25.0583 1.2307 9.8397
# 5 11.7190 -0.1752 15.6286 1.2307 47.0281 -4.8879
# 6 4.8466 7.2184 -6.5586 9.8397 -4.8879 31.3679
#
#
#
# Elastic Compliance Matrix: (Units=1/GPa)
#
#
# Indices 1 2 3 4 5 6 
#
# 1 0.017899 0.001082 -0.009807 0.004770 -0.002037 -0.006879
# 2 0.001082 0.026765 -0.002441 0.011665 -0.000767 -0.010616
# 3 -0.009807 -0.002441 0.037408 -0.011279 -0.008442 0.012121
# 4 0.004770 0.011665 -0.011279 0.053922 -0.001186 -0.022879
# 5 -0.002037 -0.000767 -0.008442 -0.001186 0.024915 0.002981
# 6 -0.006879 -0.010616 0.012121 -0.022879 0.002981 0.045561
#
#
# Mechanical properties :
#
#
# Convention : Reuss Voigt Hill
#
# Bulk Modulus (GPa) = 16.73916 21.10989 18.92453
# Shear Modulus (GPa) = 20.10331 29.47955 24.79143
#
# Velocity S-wave (km/s) = 2.86541 3.46987 3.18203
# Velocity P-wave (km/s) = 4.21711 4.96740 4.60755
#
# Compressibility (1/GPa) = 0.05974016
#
# Stress axis : x y z
#
# Youngs Moduli (GPa) = 55.86883 37.36213 26.73239
#
# Poissons Ratio (x) = -0.04044 0.26216
# Poissons Ratio (y) = -0.06047 0.06526
# Poissons Ratio (z) = 0.54790 0.09121
#
# Static dielectric constant tensor:
#      x y z
#    x 1.946590 0.011930 0.042310 
#    y 0.011930 1.907790 0.004170 
#    z 0.042310 0.004170 2.003990 
# 
# From -- ./inp_files/203809.got.cif
#   From: 2010.05.17/outbox.cif.g08.bks.cpg/sg2_102_cif.got.tgz:203809.got - 2010.06.03 11:33:40.
