data_PCOD9001929
_publ_section_title
;
Structure prediction by ZEFSAII (Michael W. Deem and Ramdas Pophale) SiO2 
 PCOD9001929
Probable space group: P -1
;
_chemical_formula_sum "Si O2"
_cell_formula_units_Z 14
_cell_length_a 5.016573
_cell_length_b 12.468713
_cell_length_c 11.691886
_cell_angle_alpha 122.707334
_cell_angle_beta 87.072724
_cell_angle_gamma 110.966798
_cell_volume 565.126496
_symmetry_space_group_name_H-M "P -1"
_symmetry_group_IT_number 2
_symmetry_cell_setting 'triclinic'
loop_
_space_group_symop_operation_xyz
x,y,z
-x,-y,-z
loop_
_atom_site_type_symbol
_atom_site_label
_atom_site_fract_x
_atom_site_fract_y
_atom_site_fract_z
Si Si1 0.786403 0.627425 0.106744
Si Si2 0.106044 0.280192 0.488256
Si Si3 0.274521 0.046327 0.277883
Si Si4 0.157590 0.888596 0.805990
Si Si5 0.831844 0.705486 0.900223
Si Si6 0.174156 0.531352 0.776150
Si Si7 0.943668 0.129593 0.619398
O O1 0.929348 0.555537 0.152359
O O2 0.777545 0.749596 0.259241
O O3 0.500000 0.500000 0.000000
O O4 0.918540 0.703530 0.029807
O O5 0.318189 0.196314 0.420448
O O6 0.224615 0.434098 0.622190
O O7 0.879631 0.196216 0.545145
O O8 0.955610 0.250080 0.351724
O O9 0.501434 0.057759 0.180951
O O10 0.962773 0.013511 0.206603
O O11 0.277732 0.937613 0.311192
O O12 0.004840 0.841558 0.902369
O O13 0.486155 0.655076 0.865097
O O14 0.933955 0.587931 0.780855
O O15 0.000000 0.000000 0.500000
#
# Coordination Sequence:
#
# PCOD9001929 Si02
#       7
#     2   2   2   2   2   2   2
#     4   9  20  40  62  92 121 155 202 251 300 358
#     4   8  20  35  57  86 118 149 206 248 300 345
#     4   9  20  37  55  84 118 150 201 244 300 342
#     4  10  21  36  54  83 124 157 195 247 293 364
#     4  11  22  37  57  82 122 159 198 238 309 351
#     4  10  21  36  59  85 113 159 202 252 289 361
#     4   9  17  40  65  91 117 160 200 254 300 347
#
# _framework density 24.773213999999999
#
# number of rings (size 3 to 8) (size 9 to 14) (size 15 to 20)
#    0.857    1.714    0.000    1.286    2.000    1.714 
#    0.000    7.143    0.000    0.000    0.000    0.000 
#    0.000    0.000    0.000    0.000    0.000    0.000 
#
# Total GULP energy -77992.511044 kJ/mol
# GULP energy per Si atom -5570.893646 kJ/mol
# Density = 2.471683 g / cm^3
# Si number density = 24.773214 Si / 1000 Ang^3
#
#
#
# Elastic Constant Matrix: (Units=GPa)
#
#
# Indices 1 2 3 4 5 6 
#
# 1 62.7722 3.3714 1.3338 1.6028 -8.9774 5.1119
# 2 3.3714 80.7164 33.0946 -24.2987 -1.9796 -1.3866
# 3 1.3338 33.0946 114.7257 4.3618 13.1520 11.7654
# 4 1.6028 -24.2987 4.3618 43.8218 7.9350 -2.0174
# 5 -8.9774 -1.9796 13.1520 7.9350 24.1790 -3.5158
# 6 5.1119 -1.3866 11.7654 -2.0174 -3.5158 24.3300
#
#
#
# Elastic Compliance Matrix: (Units=1/GPa)
#
#
# Indices 1 2 3 4 5 6 
#
# 1 0.017297 -0.001338 -0.000213 -0.002736 0.006914 -0.002835
# 2 -0.001338 0.018558 -0.006544 0.010921 0.001823 0.005672
# 3 -0.000213 -0.006544 0.012364 -0.003905 -0.007173 -0.007667
# 4 -0.002736 0.010921 -0.003905 0.030930 -0.007483 0.004569
# 5 0.006914 0.001823 -0.007173 -0.007483 0.051737 0.008976
# 6 -0.002835 0.005672 -0.007667 0.004569 0.008976 0.047404
#
#
# Mechanical properties :
#
#
# Convention : Reuss Voigt Hill
#
# Bulk Modulus (GPa) = 31.22161 37.09044 34.15602
# Shear Modulus (GPa) = 24.37190 33.16045 28.76617
#
# Velocity S-wave (km/s) = 3.13996 3.66260 3.41131
# Velocity P-wave (km/s) = 5.07702 5.73504 5.41603
#
# Compressibility (1/GPa) = 0.03202910
#
# Stress axis : x y z
#
# Youngs Moduli (GPa) = 57.81508 53.88576 80.88227
#
# Poissons Ratio (x) = 0.07209 0.01723
# Poissons Ratio (y) = 0.07734 0.52926
# Poissons Ratio (z) = 0.01232 0.35261
#
# Static dielectric constant tensor:
#      x y z
#    x 1.944290 0.039190 0.008740 
#    y 0.039190 2.039520 0.047720 
#    z 0.008740 0.047720 2.045480 
# 
# From -- ./inp_files/367057.got.cif
#   From: 2010.05.17/outbox.cif.g08.bks.cpg/sg2_184_cif.got.tgz:367057.got - 2010.06.03 11:33:40.
