data_PCOD9001686
_publ_section_title
;
Structure prediction by ZEFSAII (Michael W. Deem and Ramdas Pophale) SiO2 
 PCOD9001686
Probable space group: P -1
;
_chemical_formula_sum "Si O2"
_cell_formula_units_Z 16
_cell_length_a 11.061498
_cell_length_b 9.820951
_cell_length_c 16.364072
_cell_angle_alpha 138.568900
_cell_angle_beta 39.878901
_cell_angle_gamma 112.273494
_cell_volume 668.615743
_symmetry_space_group_name_H-M "P -1"
_symmetry_group_IT_number 2
_symmetry_cell_setting 'triclinic'
loop_
_space_group_symop_operation_xyz
x,y,z
-x,-y,-z
loop_
_atom_site_type_symbol
_atom_site_label
_atom_site_fract_x
_atom_site_fract_y
_atom_site_fract_z
Si Si1 0.385902 0.188452 0.903976
Si Si2 0.081827 0.847293 0.175440
Si Si3 0.651735 0.913069 0.782830
Si Si4 0.048464 0.530075 0.333300
Si Si5 0.439610 0.610113 0.782911
Si Si6 0.125127 0.788330 0.681043
Si Si7 0.174970 0.901801 0.438945
Si Si8 0.311088 0.752877 0.733901
O O1 0.583955 0.184448 0.751907
O O2 0.471086 0.126080 0.924661
O O3 0.356262 0.970153 0.792473
O O4 0.167367 0.422562 0.137561
O O5 0.199294 0.997473 0.211676
O O6 0.953011 0.975102 0.219682
O O7 0.915512 0.893699 0.354913
O O8 0.279940 0.611030 0.935966
O O9 0.548537 0.775868 0.822743
O O10 0.800305 0.728135 0.552163
O O11 0.166567 0.669869 0.370758
O O12 0.024485 0.335518 0.311573
O O13 0.637630 0.371773 0.547354
O O14 0.302776 0.726932 0.824048
O O15 0.130928 0.794846 0.779520
O O16 0.000000 0.000000 0.500000
O O17 0.500000 0.500000 0.500000
#
# Coordination Sequence:
#
# PCOD9001686 Si02
#       8
#     2   2   2   2   2   2   2   2
#     4  11  20  39  61  84 115 159 201 235 284 348
#     4  11  21  34  56  85 119 154 189 240 294 343
#     4   9  19  34  52  84 119 146 185 241 290 346
#     4  10  21  35  61  88 116 152 193 240 293 349
#     4   9  19  34  56  84 113 151 187 232 301 340
#     4  10  21  38  57  92 120 140 194 251 294 339
#     4  11  23  41  56  83 124 162 196 235 281 356
#     4   9  20  38  65  87 116 153 192 248 294 345
#
# _framework density 23.930039000000001
#
# number of rings (size 3 to 8) (size 9 to 14) (size 15 to 20)
#    0.000    2.000    2.500    3.000    0.000    8.500 
#    2.250    0.625    0.000    3.000    0.000    0.000 
#    0.000    0.000    0.000    0.000    0.000    0.000 
#
# Total GULP energy -89194.290532 kJ/mol
# GULP energy per Si atom -5574.643158 kJ/mol
# Density = 2.387557 g / cm^3
# Si number density = 23.930039 Si / 1000 Ang^3
#
#
#
# Elastic Constant Matrix: (Units=GPa)
#
#
# Indices 1 2 3 4 5 6 
#
# 1 51.3547 -6.7707 2.8268 2.6176 -5.9844 -3.2931
# 2 -6.7707 31.5494 29.5259 -11.7216 -5.2436 3.9728
# 3 2.8268 29.5259 176.5990 -42.9908 3.2687 3.2107
# 4 2.6176 -11.7216 -42.9908 37.4106 -2.6454 2.9364
# 5 -5.9844 -5.2436 3.2687 -2.6454 23.2428 3.2770
# 6 -3.2931 3.9728 3.2107 2.9364 3.2770 16.0888
#
#
#
# Elastic Compliance Matrix: (Units=1/GPa)
#
#
# Indices 1 2 3 4 5 6 
#
# 1 0.021487 0.006901 -0.001968 -0.001260 0.006955 0.001900
# 2 0.006901 0.046502 -0.005486 0.010033 0.016169 -0.014100
# 3 -0.001968 -0.005486 0.008751 0.008510 -0.001725 -0.001996
# 4 -0.001260 0.010033 0.008510 0.041318 0.007344 -0.013471
# 5 0.006955 0.016169 -0.001725 0.007344 0.051523 -0.014060
# 6 0.001900 -0.014100 -0.001996 -0.013471 -0.014060 0.071746
#
#
# Mechanical properties :
#
#
# Convention : Reuss Voigt Hill
#
# Bulk Modulus (GPa) = 13.22117 34.51856 23.86986
# Shear Modulus (GPa) = 18.68158 30.94320 24.81239
#
# Velocity S-wave (km/s) = 2.79709 3.59983 3.22354
# Velocity P-wave (km/s) = 3.99606 5.63333 4.88380
#
# Compressibility (1/GPa) = 0.07563626
#
# Stress axis : x y z
#
# Youngs Moduli (GPa) = 46.53953 21.50458 114.27185
#
# Poissons Ratio (x) = -0.14841 0.22485
# Poissons Ratio (y) = -0.32119 0.62685
# Poissons Ratio (z) = 0.09158 0.11797
#
# Static dielectric constant tensor:
#      x y z
#    x 1.957520 -0.033600 0.055000 
#    y -0.033600 1.933890 -0.015740 
#    z 0.055000 -0.015740 2.010760 
# 
# From -- ./inp_files/569207.got.cif
#   From: 2010.05.17/outbox.cif.g08.bks.cpg/sg2_285_cif.got.tgz:569207.got - 2010.06.03 11:33:40.
