data_PCOD9001378
_publ_section_title
;
Structure prediction by ZEFSAII (Michael W. Deem and Ramdas Pophale) SiO2 
 PCOD9001378
Probable space group: P -1
;
_chemical_formula_sum "Si O2"
_cell_formula_units_Z 12
_cell_length_a 7.981396
_cell_length_b 9.191785
_cell_length_c 13.731039
_cell_angle_alpha 40.507618
_cell_angle_beta 135.142380
_cell_angle_gamma 130.216391
_cell_volume 448.833100
_symmetry_space_group_name_H-M "P -1"
_symmetry_group_IT_number 2
_symmetry_cell_setting 'triclinic'
loop_
_space_group_symop_operation_xyz
x,y,z
-x,-y,-z
loop_
_atom_site_type_symbol
_atom_site_label
_atom_site_fract_x
_atom_site_fract_y
_atom_site_fract_z
Si Si1 0.275878 0.729104 0.205083
Si Si2 0.347368 0.799212 0.420090
Si Si3 0.999303 0.753100 0.659939
Si Si4 0.805979 0.833328 0.717225
Si Si5 0.426650 0.382783 0.776339
Si Si6 0.250269 0.401184 0.893141
O O1 0.358703 0.828683 0.293590
O O2 0.245504 0.450436 0.344461
O O3 0.457517 0.779135 0.163893
O O4 0.988065 0.733254 0.075633
O O5 0.171904 0.956433 0.308206
O O6 0.285941 0.537013 0.571610
O O7 0.614717 0.894431 0.527814
O O8 0.170379 0.640619 0.720567
O O9 0.035289 0.788742 0.773583
O O10 0.000000 0.000000 0.500000
O O11 0.651238 0.581847 0.812904
O O12 0.284422 0.282155 0.866289
O O13 0.500000 0.500000 0.000000
#
# Coordination Sequence:
#
# PCOD9001378 Si02
#       6
#     2   2   2   2   2   2
#     4   9  20  31  52  83 106 133 177 217 258 310
#     4   9  15  30  52  82 109 129 171 222 262 309
#     4   9  18  33  50  81 102 135 176 215 259 304
#     4   8  17  29  50  78 108 135 165 211 273 307
#     4   9  17  32  51  77 102 142 166 217 265 306
#     4  10  21  35  54  77 105 141 179 213 256 313
#
# _framework density 26.735996
#
# number of rings (size 3 to 8) (size 9 to 14) (size 15 to 20)
#    2.000    1.000    0.000    1.500    0.000    1.333 
#    0.000    0.000    0.000    2.000    0.000    0.000 
#    0.000    0.000    0.000    0.000    0.000    0.000 
#
# Total GULP energy -66810.289484 kJ/mol
# GULP energy per Si atom -5567.524124 kJ/mol
# Density = 2.667514 g / cm^3
# Si number density = 26.735996 Si / 1000 Ang^3
#
#
#
# Elastic Constant Matrix: (Units=GPa)
#
#
# Indices 1 2 3 4 5 6 
#
# 1 140.2802 45.5121 32.9781 31.2078 -17.7169 -44.8471
# 2 45.5121 82.3626 27.6453 24.3302 -6.9495 -28.2523
# 3 32.9781 27.6453 63.5304 23.7933 0.0079 -3.8762
# 4 31.2078 24.3302 23.7933 38.8499 -0.5563 -17.9999
# 5 -17.7169 -6.9495 0.0079 -0.5563 27.1587 15.7321
# 6 -44.8471 -28.2523 -3.8762 -17.9999 15.7321 53.0215
#
#
#
# Elastic Compliance Matrix: (Units=1/GPa)
#
#
# Indices 1 2 3 4 5 6 
#
# 1 0.011856 -0.001779 -0.003924 -0.002764 0.003228 0.006897
# 2 -0.001779 0.018229 -0.005218 -0.003689 -0.000457 0.006710
# 3 -0.003924 -0.005218 0.024181 -0.012479 0.000973 -0.008857
# 4 -0.002764 -0.003689 -0.012479 0.043423 -0.008902 0.012167
# 5 0.003228 -0.000457 0.000973 -0.008902 0.046968 -0.014400
# 6 0.006897 0.006710 -0.008857 0.012167 -0.014400 0.036025
#
#
# Mechanical properties :
#
#
# Convention : Reuss Voigt Hill
#
# Bulk Modulus (GPa) = 30.84203 55.38266 43.11235
# Shear Modulus (GPa) = 23.43753 35.80855 29.62304
#
# Velocity S-wave (km/s) = 2.96400 3.66367 3.33225
# Velocity P-wave (km/s) = 4.82437 6.21741 5.56466
#
# Compressibility (1/GPa) = 0.03242328
#
# Stress axis : x y z
#
# Youngs Moduli (GPa) = 84.34497 54.85811 41.35439
#
# Poissons Ratio (x) = 0.09762 0.16229
# Poissons Ratio (y) = 0.15009 0.21577
# Poissons Ratio (z) = 0.33100 0.28623
#
# Static dielectric constant tensor:
#      x y z
#    x 2.299960 -0.079560 -0.110990 
#    y -0.079560 2.098290 -0.011200 
#    z -0.110990 -0.011200 2.051930 
# 
# From -- ./inp_files/326016.got.cif
#   From: 2010.05.17/outbox.cif.g08.bks.cpg/sg2_164_cif.got.tgz:326016.got - 2010.06.03 11:33:40.
