data_PCOD9001156
_publ_section_title
;
Structure prediction by ZEFSAII (Michael W. Deem and Ramdas Pophale) SiO2 
 PCOD9001156
Probable space group: P -1
;
_chemical_formula_sum "Si O2"
_cell_formula_units_Z 16
_cell_length_a 17.045652
_cell_length_b 7.652171
_cell_length_c 6.895690
_cell_angle_alpha 124.105185
_cell_angle_beta 65.741833
_cell_angle_gamma 96.050061
_cell_volume 669.623734
_symmetry_space_group_name_H-M "P -1"
_symmetry_group_IT_number 2
_symmetry_cell_setting 'triclinic'
loop_
_space_group_symop_operation_xyz
x,y,z
-x,-y,-z
loop_
_atom_site_type_symbol
_atom_site_label
_atom_site_fract_x
_atom_site_fract_y
_atom_site_fract_z
Si Si1 0.871379 0.292266 0.146167
Si Si2 0.172206 0.156274 0.236962
Si Si3 0.532295 0.725572 0.622984
Si Si4 0.831236 0.425351 0.707731
Si Si5 0.715522 0.635992 0.495384
Si Si6 0.646406 0.427915 0.814347
Si Si7 0.996326 0.251735 0.689276
Si Si8 0.505462 0.823066 0.170176
O O1 0.862191 0.313774 0.399651
O O2 0.801379 0.481922 0.241444
O O3 0.968695 0.298948 0.970195
O O4 0.844121 0.069912 0.963814
O O5 0.184370 0.319709 0.154838
O O6 0.253321 0.163270 0.303263
O O7 0.087693 0.275633 0.516440
O O8 0.500000 0.500000 0.500000
O O9 0.636307 0.699949 0.473136
O O10 0.488368 0.926152 0.662115
O O11 0.517540 0.784522 0.901525
O O12 0.735086 0.369382 0.811372
O O13 0.912390 0.360732 0.723753
O O14 0.680583 0.492934 0.610765
O O15 0.588850 0.242285 0.737127
O O16 0.578800 0.641599 0.077281
O O17 0.000000 0.000000 0.500000
#
# Coordination Sequence:
#
# PCOD9001156 Si02
#       8
#     2   2   2   2   2   2   2   2
#     4   9  20  38  58  81 118 158 189 242 293 333
#     4   9  19  37  58  80 112 154 196 238 290 346
#     4  10  21  34  54  85 114 147 191 237 291 349
#     4  10  21  37  57  86 118 149 198 243 282 351
#     4   9  20  36  54  82 115 149 194 237 285 352
#     4   8  17  36  56  77 108 151 191 231 287 339
#     4  10  21  36  58  87 114 152 198 236 289 351
#     4   9  18  36  56  76 112 150 185 239 289 339
#
# _framework density 23.894015
#
# number of rings (size 3 to 8) (size 9 to 14) (size 15 to 20)
#    0.000    3.000    0.000    0.375    0.000   11.000 
#    0.000   18.125    0.000    0.000    0.000    0.000 
#    0.000    0.000    0.000    0.000    0.000    0.000 
#
# Total GULP energy -89322.754599 kJ/mol
# GULP energy per Si atom -5582.672162 kJ/mol
# Density = 2.383963 g / cm^3
# Si number density = 23.894015 Si / 1000 Ang^3
#
#
#
# Elastic Constant Matrix: (Units=GPa)
#
#
# Indices 1 2 3 4 5 6 
#
# 1 128.6300 42.5008 13.8965 4.2140 -5.3039 9.4538
# 2 42.5008 83.1132 16.9111 24.7217 2.4282 19.9957
# 3 13.8965 16.9111 69.3683 7.1220 8.6852 16.9368
# 4 4.2140 24.7217 7.1220 41.2611 11.6426 1.5914
# 5 -5.3039 2.4282 8.6852 11.6426 28.3218 -8.5718
# 6 9.4538 19.9957 16.9368 1.5914 -8.5718 32.4194
#
#
#
# Elastic Compliance Matrix: (Units=1/GPa)
#
#
# Indices 1 2 3 4 5 6 
#
# 1 0.009768 -0.005860 -0.001609 0.001944 0.002700 0.002225
# 2 -0.005860 0.021072 0.000165 -0.011109 -0.001810 -0.011308
# 3 -0.001609 0.000165 0.018865 0.000031 -0.009767 -0.012072
# 4 0.001944 -0.011109 0.000031 0.034109 -0.012309 0.001340
# 5 0.002700 -0.001810 -0.009767 -0.012309 0.049840 0.019214
# 6 0.002225 -0.011308 -0.012072 0.001340 0.019214 0.048493
#
#
# Mechanical properties :
#
#
# Convention : Reuss Voigt Hill
#
# Bulk Modulus (GPa) = 28.49211 47.52538 38.00874
# Shear Modulus (GPa) = 23.98591 34.25398 29.11994
#
# Velocity S-wave (km/s) = 3.17179 3.79037 3.49479
# Velocity P-wave (km/s) = 5.03626 6.25213 5.67684
#
# Compressibility (1/GPa) = 0.03509744
#
# Stress axis : x y z
#
# Youngs Moduli (GPa) = 102.37074 47.45550 53.00771
#
# Poissons Ratio (x) = 0.27809 0.08529
# Poissons Ratio (y) = 0.59989 -0.00874
# Poissons Ratio (z) = 0.16472 -0.00782
#
# Static dielectric constant tensor:
#      x y z
#    x 1.347380 -0.288250 0.052200 
#    y -0.288250 1.789020 -0.002990 
#    z 0.052200 -0.002990 1.990980 
# 
# From -- ./inp_files/327969.got.cif
#   From: 2010.05.17/outbox.cif.g08.bks.cpg/sg2_164_cif.got.tgz:327969.got - 2010.06.03 11:33:40.
