data_PCOD9001152
_publ_section_title
;
Structure prediction by ZEFSAII (Michael W. Deem and Ramdas Pophale) SiO2 
 PCOD9001152
Probable space group: P -1
;
_chemical_formula_sum "Si O2"
_cell_formula_units_Z 15
_cell_length_a 13.251310
_cell_length_b 12.434352
_cell_length_c 4.939078
_cell_angle_alpha 80.155393
_cell_angle_beta 86.378552
_cell_angle_gamma 116.170569
_cell_volume 710.744334
_symmetry_space_group_name_H-M "P -1"
_symmetry_group_IT_number 2
_symmetry_cell_setting 'triclinic'
loop_
_space_group_symop_operation_xyz
x,y,z
-x,-y,-z
loop_
_atom_site_type_symbol
_atom_site_label
_atom_site_fract_x
_atom_site_fract_y
_atom_site_fract_z
Si Si1 0.892566 0.838994 0.321269
Si Si2 0.040323 0.881530 0.765948
Si Si3 0.246219 0.847558 0.950166
Si Si4 0.579022 0.884266 0.071676
Si Si5 0.500000 0.500000 0.000000
Si Si6 0.543031 0.326946 0.211182
Si Si7 0.361643 0.321366 0.614432
Si Si8 0.346012 0.787549 0.430512
O O1 0.767739 0.729301 0.427095
O O2 0.986225 0.832644 0.504900
O O3 0.893679 0.969633 0.328463
O O4 0.936359 0.848789 0.004158
O O5 0.124367 0.832754 0.891077
O O6 0.307817 0.841095 0.666890
O O7 0.318176 0.981456 0.016624
O O8 0.258565 0.758798 0.210211
O O9 0.621829 0.797451 0.255622
O O10 0.470208 0.879398 0.248374
O O11 0.527283 0.809734 0.836023
O O12 0.580293 0.426236 0.928306
O O13 0.600978 0.588976 0.179074
O O14 0.450352 0.372531 0.322484
O O15 0.632043 0.322096 0.403753
#
# Coordination Sequence:
#
# PCOD9001152 Si02
#       8
#     2   2   2   2   1   2   2   2
#     4  10  21  38  57  82 120 155 199 242 285 336
#     4  10  22  36  55  85 116 162 204 231 277 342
#     4  12  22  35  55  83 122 165 195 236 275 348
#     4  10  21  34  54  84 122 157 196 226 289 359
#     4  10  22  40  60  90 120 144 202 244 312 358
#     4  10  22  38  57  88 118 153 191 245 293 369
#     4  10  21  36  61  87 121 155 189 248 299 352
#     4  11  23  35  54  83 121 160 198 230 290 352
#
# _framework density 21.104634000000001
#
# number of rings (size 3 to 8) (size 9 to 14) (size 15 to 20)
#    0.000    1.600    2.667    2.000    7.467    1.067 
#    0.000    0.000    0.000    0.000    0.000    5.600 
#    0.000    0.000    0.000    0.000    0.000    0.000 
#
# Total GULP energy -83578.607327 kJ/mol
# GULP energy per Si atom -5571.907155 kJ/mol
# Density = 2.105660 g / cm^3
# Si number density = 21.104634 Si / 1000 Ang^3
#
#
#
# Elastic Constant Matrix: (Units=GPa)
#
#
# Indices 1 2 3 4 5 6 
#
# 1 100.3337 32.6792 20.7516 -3.5381 29.1276 1.8423
# 2 32.6792 58.1904 23.7073 5.2766 -3.4766 4.9643
# 3 20.7516 23.7073 86.5841 13.5419 22.8157 -1.8094
# 4 -3.5381 5.2766 13.5419 30.4456 -12.6892 4.2440
# 5 29.1276 -3.4766 22.8157 -12.6892 40.7656 -3.2348
# 6 1.8423 4.9643 -1.8094 4.2440 -3.2348 17.1935
#
#
#
# Elastic Compliance Matrix: (Units=1/GPa)
#
#
# Indices 1 2 3 4 5 6 
#
# 1 0.018441 -0.013021 0.005011 -0.005712 -0.018855 0.000174
# 2 -0.013021 0.030501 -0.012092 0.008141 0.020667 -0.006805
# 3 0.005011 -0.012092 0.022234 -0.017113 -0.021955 0.005388
# 4 -0.005712 0.008141 -0.017113 0.052303 0.029773 -0.010849
# 5 -0.018855 0.020667 -0.021955 0.029773 0.061154 -0.002101
# 6 0.000174 -0.006805 0.005388 -0.010849 -0.002101 0.062957
#
#
# Mechanical properties :
#
#
# Convention : Reuss Voigt Hill
#
# Bulk Modulus (GPa) = 32.28787 44.37604 38.33196
# Shear Modulus (GPa) = 16.77194 28.87895 22.82544
#
# Velocity S-wave (km/s) = 2.82211 3.70316 3.29224
# Velocity P-wave (km/s) = 5.09423 6.27351 5.71437
#
# Compressibility (1/GPa) = 0.03097138
#
# Stress axis : x y z
#
# Youngs Moduli (GPa) = 54.22831 32.78587 44.97698
#
# Poissons Ratio (x) = 0.42691 -0.22539
# Poissons Ratio (y) = 0.70611 0.54386
# Poissons Ratio (z) = -0.27175 0.39645
#
# Static dielectric constant tensor:
#      x y z
#    x 1.789220 -0.046480 0.003260 
#    y -0.046480 1.789830 -0.056320 
#    z 0.003260 -0.056320 1.873280 
# 
# From -- ./inp_files/70591.got.cif
#   From: 2010.05.17/outbox.cif.g08.bks.cpg/sg2_36_cif.got.tgz:70591.got - 2010.06.03 11:33:40.
