data_PCOD9001292
_publ_section_title
;
Structure prediction by ZEFSAII (Michael W. Deem and Ramdas Pophale) SiO2 
 PCOD9001292
Probable space group: P -1
;
_chemical_formula_sum "Si O2"
_cell_formula_units_Z 16
_cell_length_a 13.269823
_cell_length_b 13.283434
_cell_length_c 10.332168
_cell_angle_alpha 39.932932
_cell_angle_beta 132.754943
_cell_angle_gamma 148.025859
_cell_volume 616.882497
_symmetry_space_group_name_H-M "P -1"
_symmetry_group_IT_number 2
_symmetry_cell_setting 'triclinic'
loop_
_space_group_symop_operation_xyz
x,y,z
-x,-y,-z
loop_
_atom_site_type_symbol
_atom_site_label
_atom_site_fract_x
_atom_site_fract_y
_atom_site_fract_z
Si Si1 0.452310 0.774120 0.113115
Si Si2 0.162442 0.997185 0.692543
Si Si3 0.091653 0.451162 0.791498
Si Si4 0.226248 0.335919 0.251153
Si Si5 0.181435 0.964468 0.203656
Si Si6 0.099298 0.161297 0.729373
Si Si7 0.724772 0.363570 0.626362
Si Si8 0.450282 0.922660 0.691258
O O1 0.670523 0.977249 0.137977
O O2 0.418766 0.569385 0.237736
O O3 0.342746 0.701002 0.221945
O O4 0.400985 0.830310 0.886507
O O5 0.234899 0.161692 0.475304
O O6 0.116613 0.073971 0.699942
O O7 0.959049 0.753735 0.736615
O O8 0.255303 0.712458 0.658254
O O9 0.994781 0.286911 0.748054
O O10 0.909454 0.397912 0.741903
O O11 0.177834 0.379322 0.028198
O O12 0.117324 0.965407 0.290077
O O13 0.383736 0.046178 0.266417
O O14 0.174568 0.109853 0.960411
O O15 0.218091 0.413282 0.571344
O O16 0.558692 0.171307 0.573105
#
# Coordination Sequence:
#
# PCOD9001292 Si02
#       8
#     2   2   2   2   2   2   2   2
#     4  11  21  37  62  88 127 162 202 247 302 368
#     4  11  20  38  59  93 123 160 199 254 308 355
#     4  10  22  42  61  91 126 165 197 249 310 364
#     4  10  21  34  61  88 125 159 198 247 307 364
#     4  10  22  45  68  85 122 161 211 257 301 356
#     4  11  22  42  67  91 120 163 206 260 303 352
#     4  11  24  39  60  96 127 160 203 249 307 368
#     4  10  22  41  64  90 122 169 202 245 309 364
#
# _framework density 25.936866999999999
#
# number of rings (size 3 to 8) (size 9 to 14) (size 15 to 20)
#    0.000    1.500    3.750    1.500    0.000    5.000 
#    0.000    7.500    0.000    0.000    0.000    0.000 
#    0.000    0.000    0.000    0.000    0.000    0.000 
#
# Total GULP energy -89410.321941 kJ/mol
# GULP energy per Si atom -5588.145121 kJ/mol
# Density = 2.587783 g / cm^3
# Si number density = 25.936867 Si / 1000 Ang^3
#
#
#
# Elastic Constant Matrix: (Units=GPa)
#
#
# Indices 1 2 3 4 5 6 
#
# 1 135.8498 33.4510 29.2731 -4.9233 -25.1607 -7.5187
# 2 33.4510 133.3259 46.0819 -12.3212 -3.2323 7.5600
# 3 29.2731 46.0819 109.4938 -10.2163 -19.2974 -17.1874
# 4 -4.9233 -12.3212 -10.2163 38.6450 -3.2015 -0.7430
# 5 -25.1607 -3.2323 -19.2974 -3.2015 31.5509 0.3958
# 6 -7.5187 7.5600 -17.1874 -0.7430 0.3958 29.3780
#
#
#
# Elastic Compliance Matrix: (Units=1/GPa)
#
#
# Indices 1 2 3 4 5 6 
#
# 1 0.009513 -0.002430 0.000468 0.001262 0.007711 0.003262
# 2 -0.002430 0.010288 -0.005242 0.001142 -0.003896 -0.006255
# 3 0.000468 -0.005242 0.014673 0.003206 0.009010 0.010013
# 4 0.001262 0.001142 0.003206 0.027784 0.005872 0.002529
# 5 0.007711 -0.003896 0.009010 0.005872 0.043454 0.007810
# 6 0.003262 -0.006255 0.010013 0.002529 0.007810 0.042300
#
#
# Mechanical properties :
#
#
# Convention : Reuss Voigt Hill
#
# Bulk Modulus (GPa) = 49.83553 66.25348 58.04451
# Shear Modulus (GPa) = 29.56712 37.90568 33.73640
#
# Velocity S-wave (km/s) = 3.38000 3.82705 3.61045
# Velocity P-wave (km/s) = 5.87268 6.71774 6.30938
#
# Compressibility (1/GPa) = 0.02006600
#
# Stress axis : x y z
#
# Youngs Moduli (GPa) = 105.12021 97.20476 68.15366
#
# Poissons Ratio (x) = 0.23620 -0.03191
# Poissons Ratio (y) = 0.25543 0.35725
# Poissons Ratio (z) = -0.04922 0.50953
#
# Static dielectric constant tensor:
#      x y z
#    x 2.056030 0.004740 0.042110 
#    y 0.004740 2.081960 0.025110 
#    z 0.042110 0.025110 2.092130 
# 
# From -- ./inp_files/454533.got.cif
#   From: 2010.05.17/outbox.cif.g08.bks.cpg/sg2_228_cif.got.tgz:454533.got - 2010.06.03 11:33:40.
