data_PCOD9001755
_publ_section_title
;
Structure prediction by ZEFSAII (Michael W. Deem and Ramdas Pophale) SiO2 
 PCOD9001755
Probable space group: P -1
;
_chemical_formula_sum "Si O2"
_cell_formula_units_Z 16
_cell_length_a 11.712260
_cell_length_b 8.788433
_cell_length_c 16.615411
_cell_angle_alpha 121.220210
_cell_angle_beta 125.470032
_cell_angle_gamma 106.439560
_cell_volume 649.635522
_symmetry_space_group_name_H-M "P -1"
_symmetry_group_IT_number 2
_symmetry_cell_setting 'triclinic'
loop_
_space_group_symop_operation_xyz
x,y,z
-x,-y,-z
loop_
_atom_site_type_symbol
_atom_site_label
_atom_site_fract_x
_atom_site_fract_y
_atom_site_fract_z
Si Si1 0.726118 0.234901 0.417296
Si Si2 0.466523 0.672139 0.529600
Si Si3 0.625771 0.413306 0.826648
Si Si4 0.528698 0.658962 0.931217
Si Si5 0.257318 0.650389 0.717614
Si Si6 0.070548 0.019719 0.679744
Si Si7 0.225375 0.603501 0.277548
Si Si8 0.959031 0.240051 0.782634
O O1 0.611438 0.300930 0.417077
O O2 0.647835 0.140457 0.265138
O O3 0.030490 0.529303 0.628182
O O4 0.617267 0.971147 0.361841
O O5 0.500000 0.500000 0.500000
O O6 0.242042 0.483881 0.323739
O O7 0.738123 0.024002 0.700611
O O8 0.572621 0.564834 0.851051
O O9 0.776331 0.505545 0.835842
O O10 0.787727 0.541703 0.007381
O O11 0.455372 0.770147 0.893083
O O12 0.280703 0.322059 0.786616
O O13 0.766505 0.889158 0.153679
O O14 0.099211 0.312472 0.522314
O O15 0.906612 0.016598 0.642376
O O16 0.022844 0.545459 0.188856
O O17 0.500000 0.000000 0.500000
#
# Coordination Sequence:
#
# PCOD9001755 Si02
#       8
#     2   2   2   2   2   2   2   2
#     4  11  24  40  61  92 123 162 210 246 315 366
#     4  11  24  41  61  90 125 160 200 257 302 369
#     4  11  21  41  63  92 122 154 209 257 298 370
#     4  10  23  38  68  93 122 165 207 254 308 365
#     4  11  24  41  65  88 130 168 197 262 308 364
#     4  10  21  39  65  97 123 157 213 250 306 373
#     4  10  21  35  62  91 116 159 209 239 304 371
#     4  10  22  38  65  91 123 158 197 261 303 361
#
# _framework density 24.629194999999999
#
# number of rings (size 3 to 8) (size 9 to 14) (size 15 to 20)
#    0.000    1.500    3.750    1.500    7.000    0.000 
#    0.000    6.875    0.000    0.000    0.000    0.000 
#    0.000    0.000    0.000    0.000    0.000    0.000 
#
# Total GULP energy -89473.640330 kJ/mol
# GULP energy per Si atom -5592.102521 kJ/mol
# Density = 2.457314 g / cm^3
# Si number density = 24.629195 Si / 1000 Ang^3
#
#
#
# Elastic Constant Matrix: (Units=GPa)
#
#
# Indices 1 2 3 4 5 6 
#
# 1 150.9264 24.7721 13.1226 5.9620 8.1358 -34.1639
# 2 24.7721 87.3386 15.5536 -24.9728 7.4819 -28.0756
# 3 13.1226 15.5536 47.7745 -14.1735 4.6599 -6.8481
# 4 5.9620 -24.9728 -14.1735 30.5062 -8.2947 11.0450
# 5 8.1358 7.4819 4.6599 -8.2947 31.9025 -5.3019
# 6 -34.1639 -28.0756 -6.8481 11.0450 -5.3019 38.5376
#
#
#
# Elastic Compliance Matrix: (Units=1/GPa)
#
#
# Indices 1 2 3 4 5 6 
#
# 1 0.009647 -0.001504 -0.003157 -0.008483 -0.002356 0.009003
# 2 -0.001504 0.018037 -0.000816 0.011853 0.000745 0.008367
# 3 -0.003157 -0.000816 0.025467 0.012731 0.000172 -0.002492
# 4 -0.008483 0.011853 0.012731 0.057076 0.010445 -0.011544
# 5 -0.002356 0.000745 0.000172 0.010445 0.034502 0.000238
# 6 0.009003 0.008367 -0.002492 -0.011544 0.000238 0.042924
#
#
# Mechanical properties :
#
#
# Convention : Reuss Voigt Hill
#
# Bulk Modulus (GPa) = 23.69776 43.65958 33.67867
# Shear Modulus (GPa) = 23.51046 35.69531 29.60289
#
# Velocity S-wave (km/s) = 3.09297 3.81111 3.47067
# Velocity P-wave (km/s) = 4.73266 6.09355 5.45570
#
# Compressibility (1/GPa) = 0.04219808
#
# Stress axis : x y z
#
# Youngs Moduli (GPa) = 103.65844 55.44305 39.26624
#
# Poissons Ratio (x) = 0.08338 0.12395
# Poissons Ratio (y) = 0.15588 0.03203
# Poissons Ratio (z) = 0.32722 0.04523
#
# Static dielectric constant tensor:
#      x y z
#    x 2.007630 -0.024990 -0.016340 
#    y -0.024990 2.084310 0.029150 
#    z -0.016340 0.029150 2.006570 
# 
# From -- ./inp_files/187428.got.cif
#   From: 2010.05.17/outbox.cif.g08.bks.cpg/sg2_94_cif.got.tgz:187428.got - 2010.06.03 11:33:40.
