data_PCOD9001053
_publ_section_title
;
Structure prediction by ZEFSAII (Michael W. Deem and Ramdas Pophale) SiO2 
 PCOD9001053
Probable space group: P -1
;
_chemical_formula_sum "Si O2"
_cell_formula_units_Z 16
_cell_length_a 5.142456
_cell_length_b 11.236414
_cell_length_c 19.618886
_cell_angle_alpha 131.045929
_cell_angle_beta 89.385734
_cell_angle_gamma 105.950334
_cell_volume 799.215362
_symmetry_space_group_name_H-M "P -1"
_symmetry_group_IT_number 2
_symmetry_cell_setting 'triclinic'
loop_
_space_group_symop_operation_xyz
x,y,z
-x,-y,-z
loop_
_atom_site_type_symbol
_atom_site_label
_atom_site_fract_x
_atom_site_fract_y
_atom_site_fract_z
Si Si1 0.616840 0.758640 0.738876
Si Si2 0.742879 0.220850 0.379511
Si Si3 0.839958 0.949300 0.199026
Si Si4 0.745819 0.233253 0.126136
Si Si5 0.699297 0.577810 0.094230
Si Si6 0.297198 0.115128 0.963983
Si Si7 0.692635 0.488524 0.558666
Si Si8 0.130363 0.428481 0.101603
O O1 0.486906 0.792337 0.681255
O O2 0.432463 0.759034 0.804653
O O3 0.619400 0.569381 0.657017
O O4 0.910842 0.912094 0.791321
O O5 0.791518 0.046725 0.302242
O O6 0.688535 0.297822 0.480018
O O7 0.009227 0.372438 0.407268
O O8 0.864885 0.775075 0.155952
O O9 0.609181 0.897068 0.119158
O O10 0.005682 0.396683 0.166306
O O11 0.839414 0.073422 0.077653
O O12 0.546148 0.196141 0.046844
O O13 0.453697 0.545355 0.138828
O O14 0.500000 0.500000 0.000000
O O15 0.075386 0.507143 0.918764
O O16 0.127463 0.242028 0.009760
O O17 0.500000 0.500000 0.500000
#
# Coordination Sequence:
#
# PCOD9001053 Si02
#       8
#     2   2   2   2   2   2   2   2
#     4  10  21  33  57  89 119 152 193 243 308 368
#     4   9  17  34  53  86 120 146 188 238 309 371
#     4  11  23  34  57  88 114 163 205 250 302 349
#     4  11  24  38  57  85 123 160 207 248 304 362
#     4  12  26  41  62  77 120 164 218 260 294 346
#     4  11  24  36  58  81 120 160 202 258 295 356
#     4   8  16  32  55  82 121 146 178 238 306 379
#     4  12  25  42  55  83 111 168 206 254 299 345
#
# _framework density 20.019635999999998
#
# number of rings (size 3 to 8) (size 9 to 14) (size 15 to 20)
#    0.000    1.500    3.750    0.750    7.000    0.000 
#    0.000    0.000    0.000    0.000    0.000    1.750 
#    0.000    0.125    0.000    0.000    0.000    0.000 
#
# Total GULP energy -89080.491046 kJ/mol
# GULP energy per Si atom -5567.530690 kJ/mol
# Density = 1.997407 g / cm^3
# Si number density = 20.019636 Si / 1000 Ang^3
#
#
#
# Elastic Constant Matrix: (Units=GPa)
#
#
# Indices 1 2 3 4 5 6 
#
# 1 98.2962 30.0656 40.9377 4.8301 -9.6261 -14.5432
# 2 30.0656 81.7113 47.9155 4.6993 -20.4615 -5.9147
# 3 40.9377 47.9155 116.0406 16.3969 -29.9582 -7.5452
# 4 4.8301 4.6993 16.3969 12.9008 -2.3150 -12.9118
# 5 -9.6261 -20.4615 -29.9582 -2.3150 37.7446 2.2517
# 6 -14.5432 -5.9147 -7.5452 -12.9118 2.2517 37.6808
#
#
#
# Elastic Compliance Matrix: (Units=1/GPa)
#
#
# Indices 1 2 3 4 5 6 
#
# 1 0.013410 -0.002469 -0.004944 0.008765 -0.001717 0.006904
# 2 -0.002469 0.017500 -0.005716 0.004568 0.004484 0.001947
# 3 -0.004944 -0.005716 0.018191 -0.026291 0.008986 -0.008709
# 4 0.008765 0.004568 -0.026291 0.157771 -0.009669 0.053476
# 5 -0.001717 0.004484 0.008986 -0.009669 0.035239 -0.003579
# 6 0.006904 0.001947 -0.008709 0.053476 -0.003579 0.046303
#
#
# Mechanical properties :
#
#
# Convention : Reuss Voigt Hill
#
# Bulk Modulus (GPa) = 43.77989 59.32064 51.55027
# Shear Modulus (GPa) = 15.51410 29.47389 22.49399
#
# Velocity S-wave (km/s) = 2.78680 3.84115 3.35565
# Velocity P-wave (km/s) = 5.68075 7.02625 6.38902
#
# Compressibility (1/GPa) = 0.02284154
#
# Stress axis : x y z
#
# Youngs Moduli (GPa) = 74.56890 57.14357 54.97287
#
# Poissons Ratio (x) = 0.14111 0.27180
# Poissons Ratio (y) = 0.18414 0.31423
# Poissons Ratio (z) = 0.36869 0.32664
#
# Static dielectric constant tensor:
#      x y z
#    x 1.744770 -0.005190 -0.194860 
#    y -0.005190 1.724670 -0.041460 
#    z -0.194860 -0.041460 1.642810 
# 
# From -- ./inp_files/583068.got.cif
#   From: 2010.05.17/outbox.cif.g08.bks.cpg/sg2_292_cif.got.tgz:583068.got - 2010.06.03 11:33:40.
