data_PCOD9001012
_publ_section_title
;
Structure prediction by ZEFSAII (Michael W. Deem and Ramdas Pophale) SiO2 
 PCOD9001012
Probable space group: P -1
;
_chemical_formula_sum "Si O2"
_cell_formula_units_Z 16
_cell_length_a 11.729715
_cell_length_b 24.885495
_cell_length_c 24.795176
_cell_angle_alpha 11.712997
_cell_angle_beta 147.952656
_cell_angle_gamma 147.270528
_cell_volume 775.370802
_symmetry_space_group_name_H-M "P -1"
_symmetry_group_IT_number 2
_symmetry_cell_setting 'triclinic'
loop_
_space_group_symop_operation_xyz
x,y,z
-x,-y,-z
loop_
_atom_site_type_symbol
_atom_site_label
_atom_site_fract_x
_atom_site_fract_y
_atom_site_fract_z
Si Si1 0.495727 0.987852 0.192392
Si Si2 0.901894 0.036051 0.243849
Si Si3 0.086615 0.313515 0.502123
Si Si4 0.555801 0.255334 0.808117
Si Si5 0.870012 0.808297 0.966955
Si Si6 0.874682 0.087276 0.809500
Si Si7 0.638621 0.774267 0.797997
Si Si8 0.282399 0.445690 0.601501
O O1 0.752847 0.988875 0.284223
O O2 0.373028 0.895429 0.289417
O O3 0.372613 0.755262 0.333521
O O4 0.414066 0.276296 0.863259
O O5 0.953778 0.767670 0.497238
O O6 0.133114 0.206668 0.162198
O O7 0.726407 0.164058 0.010626
O O8 0.314893 0.484271 0.421281
O O9 0.043560 0.033619 0.789879
O O10 0.939093 0.514938 0.273262
O O11 0.354451 0.325872 0.692767
O O12 0.500000 0.000000 0.000000
O O13 0.682003 0.816107 0.838757
O O14 0.861006 0.896052 0.939474
O O15 0.027156 0.360978 0.588965
O O16 0.000000 0.000000 0.000000
O O17 0.500000 0.000000 0.500000
O O18 0.500000 0.500000 0.000000
#
# Coordination Sequence:
#
# PCOD9001012 Si02
#       8
#     2   2   2   2   2   2   2   2
#     4  10  21  38  58  80 120 165 203 250 292 355
#     4  10  22  39  61  90 123 160 206 255 319 378
#     4  11  20  38  57  87 126 162 203 254 306 370
#     4  11  21  34  54  88 129 165 197 246 307 377
#     4  11  24  39  65  90 124 161 206 263 311 375
#     4  10  23  43  60  88 126 172 218 248 294 362
#     4  11  23  40  66  94 123 156 201 267 333 374
#     4  10  21  33  53  83 118 165 211 236 286 356
#
# _framework density 20.635287999999999
#
# number of rings (size 3 to 8) (size 9 to 14) (size 15 to 20)
#    0.000    1.500    3.750    2.625    0.000    6.500 
#    0.000    0.000    0.000    1.500    0.000    0.000 
#    0.000    0.000    0.000    0.000    0.000    0.000 
#
# Total GULP energy -89136.672960 kJ/mol
# GULP energy per Si atom -5571.042060 kJ/mol
# Density = 2.058832 g / cm^3
# Si number density = 20.635288 Si / 1000 Ang^3
#
#
#
# Elastic Constant Matrix: (Units=GPa)
#
#
# Indices 1 2 3 4 5 6 
#
# 1 136.1650 40.7503 19.9383 -3.0253 15.5990 18.5373
# 2 40.7503 121.2902 28.0984 -14.3481 -0.8643 13.5462
# 3 19.9383 28.0984 84.6445 -19.5172 0.2838 3.1593
# 4 -3.0253 -14.3481 -19.5172 31.4820 -0.8835 -3.4854
# 5 15.5990 -0.8643 0.2838 -0.8835 28.5638 -4.6512
# 6 18.5373 13.5462 3.1593 -3.4854 -4.6512 41.2209
#
#
#
# Elastic Compliance Matrix: (Units=1/GPa)
#
#
# Indices 1 2 3 4 5 6 
#
# 1 0.009594 -0.002648 -0.001653 -0.001940 -0.006041 -0.004163
# 2 -0.002648 0.010137 -0.001997 0.003001 0.001613 -0.001552
# 3 -0.001653 -0.001997 0.014714 0.008205 0.001128 0.001093
# 4 -0.001940 0.003001 0.008205 0.038420 0.002715 0.002812
# 5 -0.006041 0.001613 0.001128 0.002715 0.039536 0.006791
# 6 -0.004163 -0.001552 0.001093 0.002812 0.006791 0.027562
#
#
# Mechanical properties :
#
#
# Convention : Reuss Voigt Hill
#
# Bulk Modulus (GPa) = 45.76680 57.74149 51.75415
# Shear Modulus (GPa) = 31.28115 37.14086 34.21100
#
# Velocity S-wave (km/s) = 3.89769 4.24709 4.07613
# Velocity P-wave (km/s) = 6.51790 7.21755 6.87663
#
# Compressibility (1/GPa) = 0.02184990
#
# Stress axis : x y z
#
# Youngs Moduli (GPa) = 104.22855 98.65102 67.96411
#
# Poissons Ratio (x) = 0.26124 0.11231
# Poissons Ratio (y) = 0.27601 0.13571
# Poissons Ratio (z) = 0.17224 0.19698
#
# Static dielectric constant tensor:
#      x y z
#    x 1.857130 -0.009270 -0.032940 
#    y -0.009270 1.787700 0.063850 
#    z -0.032940 0.063850 1.824390 
# 
# From -- ./inp_files/618861.got.cif
#   From: 2010.05.17/outbox.cif.g08.bks.cpg/sg2_310_cif.got.tgz:618861.got - 2010.06.03 11:33:40.
