data_PCOD9001688
_publ_section_title
;
Structure prediction by ZEFSAII (Michael W. Deem and Ramdas Pophale) SiO2 
 PCOD9001688
Probable space group: P -1
;
_chemical_formula_sum "Si O2"
_cell_formula_units_Z 16
_cell_length_a 16.604102
_cell_length_b 12.316075
_cell_length_c 9.571982
_cell_angle_alpha 141.833125
_cell_angle_beta 35.791413
_cell_angle_gamma 146.096314
_cell_volume 599.042134
_symmetry_space_group_name_H-M "P -1"
_symmetry_group_IT_number 2
_symmetry_cell_setting 'triclinic'
loop_
_space_group_symop_operation_xyz
x,y,z
-x,-y,-z
loop_
_atom_site_type_symbol
_atom_site_label
_atom_site_fract_x
_atom_site_fract_y
_atom_site_fract_z
Si Si1 0.992479 0.178948 0.770965
Si Si2 0.103169 0.041578 0.057063
Si Si3 0.817990 0.181295 0.477663
Si Si4 0.009788 0.688605 0.378916
Si Si5 0.477168 0.795959 0.613505
Si Si6 0.339748 0.518359 0.762376
Si Si7 0.674911 0.293029 0.530531
Si Si8 0.605219 0.539748 0.065240
O O1 0.941360 0.275119 0.814774
O O2 0.169357 0.341564 0.753548
O O3 0.000000 0.000000 0.500000
O O4 0.869022 0.067220 0.958649
O O5 0.988033 0.110414 0.359122
O O6 0.255995 0.250690 0.993522
O O7 0.059726 0.875071 0.826969
O O8 0.749081 0.240131 0.503098
O O9 0.895910 0.341482 0.657669
O O10 0.663451 0.975543 0.552110
O O11 0.828090 0.494464 0.447564
O O12 0.388358 0.725868 0.815918
O O13 0.412640 0.855540 0.628693
O O14 0.473337 0.591228 0.354584
O O15 0.500000 0.500000 0.500000
O O16 0.327844 0.506867 0.935059
O O17 0.559933 0.358059 0.836175
#
# Coordination Sequence:
#
# PCOD9001688 Si02
#       8
#     2   2   2   2   2   2   2   2
#     4  10  21  35  61  88 119 149 192 247 288 338
#     4   9  21  36  60  88 114 150 193 240 285 341
#     4  11  23  38  61  86 117 158 193 239 292 345
#     4  10  21  38  58  86 119 150 194 239 289 341
#     4  10  21  40  60  85 118 154 193 239 294 345
#     4  10  21  37  59  88 119 151 192 241 295 340
#     4  11  21  40  59  87 118 152 198 241 288 345
#     4   9  21  37  62  89 114 151 194 242 290 341
#
# _framework density 26.709308
#
# number of rings (size 3 to 8) (size 9 to 14) (size 15 to 20)
#    0.000    2.000    1.250    1.500   14.000    0.000 
#    2.250    2.500    0.000    0.000    0.000    0.000 
#    0.000    0.000    0.000    0.000    0.000    0.000 
#
# Total GULP energy -89342.569516 kJ/mol
# GULP energy per Si atom -5583.910595 kJ/mol
# Density = 2.664852 g / cm^3
# Si number density = 26.709308 Si / 1000 Ang^3
#
#
#
# Elastic Constant Matrix: (Units=GPa)
#
#
# Indices 1 2 3 4 5 6 
#
# 1 187.0416 46.2617 36.7649 -22.0789 39.0217 -4.0097
# 2 46.2617 93.8765 22.6705 -24.6116 25.0713 -5.3735
# 3 36.7649 22.6705 87.1647 -10.4730 22.5074 -13.1323
# 4 -22.0789 -24.6116 -10.4730 30.9781 -15.6191 13.8745
# 5 39.0217 25.0713 22.5074 -15.6191 60.9460 -11.0847
# 6 -4.0097 -5.3735 -13.1323 13.8745 -11.0847 47.6166
#
#
#
# Elastic Compliance Matrix: (Units=1/GPa)
#
#
# Indices 1 2 3 4 5 6 
#
# 1 0.006921 -0.001773 -0.001687 0.002165 -0.002771 -0.001358
# 2 -0.001773 0.015043 -0.001731 0.010019 -0.002279 -0.002379
# 3 -0.001687 -0.001731 0.013753 -0.000747 -0.002934 0.002990
# 4 0.002165 0.010019 -0.000747 0.049624 0.005281 -0.012123
# 5 -0.002771 -0.002279 -0.002934 0.005281 0.021971 0.002276
# 6 -0.001358 -0.002379 0.002990 -0.012123 0.002276 0.025505
#
#
# Mechanical properties :
#
#
# Convention : Reuss Voigt Hill
#
# Bulk Modulus (GPa) = 39.47145 64.38631 51.92888
# Shear Modulus (GPa) = 32.97198 45.40050 39.18624
#
# Velocity S-wave (km/s) = 3.51732 4.12734 3.83448
# Velocity P-wave (km/s) = 5.59515 6.84630 6.25210
#
# Compressibility (1/GPa) = 0.02533477
#
# Stress axis : x y z
#
# Youngs Moduli (GPa) = 144.48395 66.47478 72.71295
#
# Poissons Ratio (x) = 0.11789 0.12267
# Poissons Ratio (y) = 0.25623 0.12585
# Poissons Ratio (z) = 0.24375 0.11505
#
# Static dielectric constant tensor:
#      x y z
#    x 2.318550 -0.110990 -0.099980 
#    y -0.110990 2.042340 0.023880 
#    z -0.099980 0.023880 2.166880 
# 
# From -- ./inp_files/308476.got.cif
#   From: 2010.05.17/outbox.cif.g08.bks.cpg/sg2_155_cif.got.tgz:308476.got - 2010.06.03 11:33:40.
