data_PCOD9001562
_publ_section_title
;
Structure prediction by ZEFSAII (Michael W. Deem and Ramdas Pophale) SiO2 
 PCOD9001562
Probable space group: P -1
;
_chemical_formula_sum "Si O2"
_cell_formula_units_Z 14
_cell_length_a 16.383687
_cell_length_b 9.764814
_cell_length_c 20.314459
_cell_angle_alpha 28.693389
_cell_angle_beta 150.858570
_cell_angle_gamma 141.398044
_cell_volume 758.221948
_symmetry_space_group_name_H-M "P -1"
_symmetry_group_IT_number 2
_symmetry_cell_setting 'triclinic'
loop_
_space_group_symop_operation_xyz
x,y,z
-x,-y,-z
loop_
_atom_site_type_symbol
_atom_site_label
_atom_site_fract_x
_atom_site_fract_y
_atom_site_fract_z
Si Si1 0.499779 0.477241 0.930632
Si Si2 0.638928 0.258805 0.002819
Si Si3 0.495153 0.608273 0.343983
Si Si4 0.773801 0.029657 0.071795
Si Si5 0.901337 0.219066 0.578625
Si Si6 0.627875 0.926195 0.427291
Si Si7 0.419306 0.692157 0.594424
O O1 0.647035 0.327128 0.057596
O O2 0.483788 0.801438 0.759737
O O3 0.336263 0.273942 0.880446
O O4 0.500000 0.500000 0.000000
O O5 0.558422 0.535488 0.799672
O O6 0.782981 0.164704 0.095131
O O7 0.500000 0.000000 0.000000
O O8 0.600992 0.811761 0.382903
O O9 0.430561 0.329155 0.457177
O O10 0.603266 0.504951 0.402953
O O11 0.335894 0.766173 0.136075
O O12 0.961340 0.966313 0.211079
O O13 0.750840 0.286857 0.493282
O O14 0.000000 0.500000 0.500000
O O15 0.811656 0.042880 0.529934
O O16 0.500000 0.000000 0.500000
#
# Coordination Sequence:
#
# PCOD9001562 Si02
#       7
#     2   2   2   2   2   2   2
#     4  11  18  34  59  86 115 163 203 236 293 363
#     4   9  18  34  54  82 115 153 200 241 279 358
#     4  10  22  39  62  89 115 160 205 244 288 366
#     4  10  21  35  58  88 117 150 201 251 297 341
#     4  12  22  38  62  91 125 156 196 255 305 348
#     4  11  21  38  61  85 123 157 201 240 302 355
#     4  11  20  39  63  86 115 163 206 235 293 370
#
# _framework density 18.464248999999999
#
# number of rings (size 3 to 8) (size 9 to 14) (size 15 to 20)
#    0.000    1.429    5.714    0.857    0.000    0.571 
#    0.000    2.143    0.000    1.714    0.000    0.000 
#    0.000    0.000    0.000    0.000    0.000    0.000 
#
# Total GULP energy -77979.155479 kJ/mol
# GULP energy per Si atom -5569.939677 kJ/mol
# Density = 1.842222 g / cm^3
# Si number density = 18.464249 Si / 1000 Ang^3
#
#
#
# Elastic Constant Matrix: (Units=GPa)
#
#
# Indices 1 2 3 4 5 6 
#
# 1 114.4045 50.8799 37.4604 -0.3760 14.0054 -27.4379
# 2 50.8799 101.5411 34.4207 -10.5445 5.6209 -21.4694
# 3 37.4604 34.4207 86.4114 -9.9769 6.3526 0.0360
# 4 -0.3760 -10.5445 -9.9769 32.1624 6.2392 -3.4664
# 5 14.0054 5.6209 6.3526 6.2392 30.9516 -6.0541
# 6 -27.4379 -21.4694 0.0360 -3.4664 -6.0541 42.8717
#
#
#
# Elastic Compliance Matrix: (Units=1/GPa)
#
#
# Indices 1 2 3 4 5 6 
#
# 1 0.013862 -0.004123 -0.004278 -0.001226 -0.003173 0.006263
# 2 -0.004123 0.014613 -0.003561 0.004163 0.000088 0.005031
# 3 -0.004278 -0.003561 0.015411 0.003494 -0.002177 -0.004559
# 4 -0.001226 0.004163 0.003494 0.035302 -0.007428 0.003103
# 5 -0.003173 0.000088 -0.002177 -0.007428 0.036166 0.002521
# 6 0.006263 0.005031 -0.004559 0.003103 0.002521 0.030464
#
#
# Mechanical properties :
#
#
# Convention : Reuss Voigt Hill
#
# Bulk Modulus (GPa) = 50.09734 60.87545 55.48640
# Shear Modulus (GPa) = 28.34551 33.17021 30.75786
#
# Velocity S-wave (km/s) = 3.92236 4.24306 4.08586
# Velocity P-wave (km/s) = 6.90682 7.55286 7.23705
#
# Compressibility (1/GPa) = 0.01996114
#
# Stress axis : x y z
#
# Youngs Moduli (GPa) = 72.14005 68.43412 64.88936
#
# Poissons Ratio (x) = 0.28217 0.27758
# Poissons Ratio (y) = 0.29745 0.23108
# Poissons Ratio (z) = 0.30860 0.24370
#
# Static dielectric constant tensor:
#      x y z
#    x 1.707570 -0.030270 -0.020340 
#    y -0.030270 1.627070 -0.018990 
#    z -0.020340 -0.018990 1.668400 
# 
# From -- ./inp_files/159841.got.cif
#   From: 2010.05.17/outbox.cif.g08.bks.cpg/sg2_80_cif.got.tgz:159841.got - 2010.06.03 11:33:40.
