data_PCOD9001073
_publ_section_title
;
Structure prediction by ZEFSAII (Michael W. Deem and Ramdas Pophale) SiO2 
 PCOD9001073
Probable space group: P -1
;
_chemical_formula_sum "Si O2"
_cell_formula_units_Z 12
_cell_length_a 9.158016
_cell_length_b 8.723536
_cell_length_c 8.856203
_cell_angle_alpha 94.853078
_cell_angle_beta 72.028146
_cell_angle_gamma 136.942238
_cell_volume 448.546719
_symmetry_space_group_name_H-M "P -1"
_symmetry_group_IT_number 2
_symmetry_cell_setting 'triclinic'
loop_
_space_group_symop_operation_xyz
x,y,z
-x,-y,-z
loop_
_atom_site_type_symbol
_atom_site_label
_atom_site_fract_x
_atom_site_fract_y
_atom_site_fract_z
Si Si1 0.023561 0.404710 0.841675
Si Si2 0.276496 0.862241 0.659264
Si Si3 0.397520 0.793135 0.167380
Si Si4 0.465460 0.635718 0.840354
Si Si5 0.265336 0.143140 0.520359
Si Si6 0.301503 0.455747 0.369218
O O1 0.204808 0.414516 0.842693
O O2 0.772003 0.199334 0.836298
O O3 0.151865 0.608109 0.696527
O O4 0.000000 0.500000 0.000000
O O5 0.372909 0.984215 0.802507
O O6 0.147739 0.911402 0.625032
O O7 0.500000 0.000000 0.500000
O O8 0.257541 0.585698 0.316889
O O9 0.449632 0.725300 0.001099
O O10 0.604054 0.814225 0.669777
O O11 0.608913 0.586273 0.799951
O O12 0.160812 0.231767 0.505764
O O13 0.469314 0.340185 0.587408
#
# Coordination Sequence:
#
# PCOD9001073 Si02
#       6
#     2   2   2   2   2   2
#     4  10  22  37  55  85 116 138 184 235 273 322
#     4  11  20  38  55  81 115 149 181 227 276 329
#     4  10  21  33  60  82 109 149 186 221 277 330
#     4   9  16  33  55  80 110 147 181 222 273 326
#     4   8  16  30  56  78 106 145 182 223 268 320
#     4   8  15  32  54  83 105 147 186 219 272 332
#
# _framework density 26.753067999999999
#
# number of rings (size 3 to 8) (size 9 to 14) (size 15 to 20)
#    1.000    1.667    1.667    0.500    0.000    3.333 
#    0.000    0.833    0.000   31.000    0.000    0.000 
#    0.000    0.000    0.000    0.000    0.000    0.000 
#
# Total GULP energy -66920.297287 kJ/mol
# GULP energy per Si atom -5576.691441 kJ/mol
# Density = 2.669218 g / cm^3
# Si number density = 26.753068 Si / 1000 Ang^3
#
#
#
# Elastic Constant Matrix: (Units=GPa)
#
#
# Indices 1 2 3 4 5 6 
#
# 1 110.6706 -4.8868 0.4293 3.4461 24.7700 21.4765
# 2 -4.8868 57.0057 12.6766 -3.3396 14.4090 -20.0456
# 3 0.4293 12.6766 116.8861 15.5460 -1.2202 7.6095
# 4 3.4461 -3.3396 15.5460 52.1416 -13.8530 16.8380
# 5 24.7700 14.4090 -1.2202 -13.8530 45.3679 -1.0121
# 6 21.4765 -20.0456 7.6095 16.8380 -1.0121 23.1611
#
#
#
# Elastic Compliance Matrix: (Units=1/GPa)
#
#
# Indices 1 2 3 4 5 6 
#
# 1 0.013780 -0.004408 0.001206 0.003328 -0.005513 -0.019649
# 2 -0.004408 0.038274 -0.005478 -0.015157 -0.013422 0.049446
# 3 0.001206 -0.005478 0.009759 -0.000181 0.001090 -0.008887
# 4 0.003328 -0.015157 -0.000181 0.034542 0.012632 -0.040705
# 5 -0.005513 -0.013422 0.001090 0.012632 0.032876 -0.014609
# 6 -0.019649 0.049446 -0.008887 -0.040705 -0.014609 0.136064
#
#
# Mechanical properties :
#
#
# Convention : Reuss Voigt Hill
#
# Bulk Modulus (GPa) = 22.49498 33.44451 27.96974
# Shear Modulus (GPa) = 16.80829 42.55701 29.68265
#
# Velocity S-wave (km/s) = 2.50926 3.99273 3.33454
# Velocity P-wave (km/s) = 4.10144 5.81241 5.03021
#
# Compressibility (1/GPa) = 0.04445437
#
# Stress axis : x y z
#
# Youngs Moduli (GPa) = 72.56919 26.12725 102.46969
#
# Poissons Ratio (x) = 0.11517 -0.12363
# Poissons Ratio (y) = 0.31988 0.56132
# Poissons Ratio (z) = -0.08755 0.14312
#
# Static dielectric constant tensor:
#      x y z
#    x 2.179530 0.024420 0.038950 
#    y 0.024420 2.162750 -0.035730 
#    z 0.038950 -0.035730 2.082860 
# 
# From -- ./inp_files/253541.got.cif
#   From: 2010.05.17/outbox.cif.g08.bks.cpg/sg2_127_cif.got.tgz:253541.got - 2010.06.03 11:33:40.
