data_PCOD9001525
_publ_section_title
;
Structure prediction by ZEFSAII (Michael W. Deem and Ramdas Pophale) SiO2 
 PCOD9001525
Probable space group: P -1
;
_chemical_formula_sum "Si O2"
_cell_formula_units_Z 16
_cell_length_a 12.380441
_cell_length_b 13.624225
_cell_length_c 9.740616
_cell_angle_alpha 83.792822
_cell_angle_beta 38.743015
_cell_angle_gamma 54.954412
_cell_volume 630.112357
_symmetry_space_group_name_H-M "P -1"
_symmetry_group_IT_number 2
_symmetry_cell_setting 'triclinic'
loop_
_space_group_symop_operation_xyz
x,y,z
-x,-y,-z
loop_
_atom_site_type_symbol
_atom_site_label
_atom_site_fract_x
_atom_site_fract_y
_atom_site_fract_z
Si Si1 0.441524 0.179295 0.178922
Si Si2 0.112584 0.661579 0.381952
Si Si3 0.235959 0.537712 0.570831
Si Si4 0.303738 0.995564 0.648662
Si Si5 0.160652 0.669269 0.034598
Si Si6 0.737646 0.187095 0.695654
Si Si7 0.991542 0.145431 0.206635
Si Si8 0.793542 0.663041 0.307597
O O1 0.335950 0.265345 0.419016
O O2 0.215416 0.208000 0.335557
O O3 0.488140 0.245969 0.013402
O O4 0.730596 0.994431 0.955567
O O5 0.199695 0.554277 0.438743
O O6 0.238328 0.587682 0.117205
O O7 0.194933 0.735617 0.324740
O O8 0.124125 0.487957 0.754693
O O9 0.085632 0.705269 0.741664
O O10 0.567399 0.402487 0.287144
O O11 0.091131 0.136781 0.726227
O O12 0.500000 0.000000 0.500000
O O13 0.538735 0.805862 0.436212
O O14 0.088613 0.066645 0.973886
O O15 0.035281 0.636522 0.075181
O O16 0.745986 0.198011 0.521330
O O17 0.000000 0.000000 0.500000
#
# Coordination Sequence:
#
# PCOD9001525 Si02
#       8
#     2   2   2   2   2   2   2   2
#     4   9  18  36  58  80 115 157 193 230 275 334
#     4  10  21  35  57  88 117 150 191 231 281 342
#     4  11  22  34  55  88 124 145 179 239 295 340
#     4   9  19  41  65  80 107 153 202 236 270 334
#     4  10  21  37  59  83 115 155 189 233 282 330
#     4   9  18  32  53  82 115 145 182 231 281 331
#     4   9  20  36  56  85 116 149 189 237 286 336
#     4   9  20  38  60  85 111 151 198 232 275 339
#
# _framework density 25.392298
#
# number of rings (size 3 to 8) (size 9 to 14) (size 15 to 20)
#    0.000    2.500    0.000    1.875    0.000   10.500 
#    0.000    3.750    0.000    6.000    0.000    0.000 
#    0.000    0.000    0.000    0.000    0.000    0.000 
#
# Total GULP energy -89491.309474 kJ/mol
# GULP energy per Si atom -5593.206842 kJ/mol
# Density = 2.533450 g / cm^3
# Si number density = 25.392298 Si / 1000 Ang^3
#
#
#
# Elastic Constant Matrix: (Units=GPa)
#
#
# Indices 1 2 3 4 5 6 
#
# 1 77.2898 36.5930 30.0574 -0.4558 -6.6265 -12.8566
# 2 36.5930 154.9439 20.6734 -9.2195 -17.1885 -5.4300
# 3 30.0574 20.6734 85.4929 -22.6232 -16.4924 -10.5844
# 4 -0.4558 -9.2195 -22.6232 54.6145 -5.1370 7.0326
# 5 -6.6265 -17.1885 -16.4924 -5.1370 30.8665 -1.2612
# 6 -12.8566 -5.4300 -10.5844 7.0326 -1.2612 21.2827
#
#
#
# Elastic Compliance Matrix: (Units=1/GPa)
#
#
# Indices 1 2 3 4 5 6 
#
# 1 0.018182 -0.003640 -0.005874 -0.004129 -0.001606 0.008402
# 2 -0.003640 0.007803 0.000719 0.002021 0.004273 -0.000265
# 3 -0.005874 0.000719 0.018178 0.008111 0.010349 0.003608
# 4 -0.004129 0.002021 0.008111 0.023422 0.008259 -0.005195
# 5 -0.001606 0.004273 0.010349 0.008259 0.041541 0.005000
# 6 0.008402 -0.000265 0.003608 -0.005195 0.005000 0.055802
#
#
# Mechanical properties :
#
#
# Convention : Reuss Voigt Hill
#
# Bulk Modulus (GPa) = 37.63290 54.70825 46.17058
# Shear Modulus (GPa) = 26.12671 36.71291 31.41981
#
# Velocity S-wave (km/s) = 3.21116 3.80653 3.52145
# Velocity P-wave (km/s) = 5.34804 6.39621 5.89547
#
# Compressibility (1/GPa) = 0.02657249
#
# Stress axis : x y z
#
# Youngs Moduli (GPa) = 55.00063 128.16289 55.01197
#
# Poissons Ratio (x) = 0.46646 0.32316
# Poissons Ratio (y) = 0.20018 -0.03956
# Poissons Ratio (z) = 0.32309 -0.09217
#
# Static dielectric constant tensor:
#      x y z
#    x 2.023260 -0.025420 0.082100 
#    y -0.025420 2.012320 -0.006950 
#    z 0.082100 -0.006950 2.057600 
# 
# From -- ./inp_files/455684.got.cif
#   From: 2010.05.17/outbox.cif.g08.bks.cpg/sg2_228_cif.got.tgz:455684.got - 2010.06.03 11:33:40.
