data_PCOD9001269
_publ_section_title
;
Structure prediction by ZEFSAII (Michael W. Deem and Ramdas Pophale) SiO2 
 PCOD9001269
Probable space group: P -1
;
_chemical_formula_sum "Si O2"
_cell_formula_units_Z 16
_cell_length_a 15.088731
_cell_length_b 9.179904
_cell_length_c 10.195330
_cell_angle_alpha 110.345211
_cell_angle_beta 78.471745
_cell_angle_gamma 142.756466
_cell_volume 793.946117
_symmetry_space_group_name_H-M "P -1"
_symmetry_group_IT_number 2
_symmetry_cell_setting 'triclinic'
loop_
_space_group_symop_operation_xyz
x,y,z
-x,-y,-z
loop_
_atom_site_type_symbol
_atom_site_label
_atom_site_fract_x
_atom_site_fract_y
_atom_site_fract_z
Si Si1 0.794689 0.432772 0.840791
Si Si2 0.861399 0.140711 0.087589
Si Si3 0.144548 0.551635 0.689295
Si Si4 0.170556 0.862222 0.210190
Si Si5 0.877814 0.820258 0.364680
Si Si6 0.661309 0.298462 0.554036
Si Si7 0.350538 0.367071 0.450068
Si Si8 0.142411 0.181237 0.923241
O O1 0.750943 0.198708 0.822304
O O2 0.718411 0.373249 0.709025
O O3 0.972241 0.653270 0.841404
O O4 0.771926 0.542125 0.985160
O O5 0.796449 0.211178 0.187657
O O6 0.779393 0.872049 0.071713
O O7 0.881273 0.185315 0.939264
O O8 0.182960 0.437743 0.705045
O O9 0.215184 0.624975 0.547101
O O10 0.968033 0.318869 0.703120
O O11 0.276285 0.147546 0.302759
O O12 0.751932 0.762603 0.432078
O O13 0.920193 0.916716 0.235562
O O14 0.000000 0.000000 0.500000
O O15 0.647197 0.456299 0.554982
O O16 0.500000 0.000000 0.500000
O O17 0.500000 0.500000 0.500000
O O18 0.000000 0.000000 0.000000
#
# Coordination Sequence:
#
# PCOD9001269 Si02
#       8
#     2   2   2   2   2   2   2   2
#     4  10  21  35  61  86 127 163 210 259 317 373
#     4  10  21  34  61  96 129 158 207 267 325 372
#     4  10  21  37  62  90 124 161 211 264 312 369
#     4  11  20  38  64  95 127 162 212 263 323 381
#     4  11  22  38  64  94 127 166 216 263 315 382
#     4  11  25  42  60  88 129 172 218 259 322 382
#     4  11  25  41  65  91 131 173 212 266 324 385
#     4  10  21  34  59  93 132 160 208 265 323 368
#
# _framework density 20.1525
#
# number of rings (size 3 to 8) (size 9 to 14) (size 15 to 20)
#    0.000    1.500    1.250    5.250    7.000    4.000 
#    0.000    1.250    0.000   11.250    0.000    0.000 
#    0.000    0.000    0.000    0.000    0.000    0.000 
#
# Total GULP energy -89152.766943 kJ/mol
# GULP energy per Si atom -5572.047934 kJ/mol
# Density = 2.010663 g / cm^3
# Si number density = 20.152500 Si / 1000 Ang^3
#
#
#
# Elastic Constant Matrix: (Units=GPa)
#
#
# Indices 1 2 3 4 5 6 
#
# 1 102.2748 34.5427 73.0852 9.5230 -8.0258 -12.5094
# 2 34.5427 64.7174 59.8755 8.2440 -4.3097 -17.5164
# 3 73.0852 59.8755 157.8822 0.8198 8.5886 -8.3597
# 4 9.5230 8.2440 0.8198 28.3124 -14.5770 -5.3067
# 5 -8.0258 -4.3097 8.5886 -14.5770 36.2547 12.3600
# 6 -12.5094 -17.5164 -8.3597 -5.3067 12.3600 39.3359
#
#
#
# Elastic Compliance Matrix: (Units=1/GPa)
#
#
# Indices 1 2 3 4 5 6 
#
# 1 0.015882 -0.000851 -0.007107 -0.002829 0.003375 0.001719
# 2 -0.000851 0.028280 -0.009791 -0.005957 -0.000135 0.009480
# 3 -0.007107 -0.009791 0.013448 0.002241 -0.004303 -0.002108
# 4 -0.002829 -0.005957 0.002241 0.046600 0.017669 -0.002341
# 5 0.003375 -0.000135 -0.004303 0.017669 0.039861 -0.010042
# 6 0.001719 0.009480 -0.002108 -0.002341 -0.010042 0.032582
#
#
# Mechanical properties :
#
#
# Convention : Reuss Voigt Hill
#
# Bulk Modulus (GPa) = 45.22449 73.32012 59.27231
# Shear Modulus (GPa) = 22.77674 31.27201 27.02437
#
# Velocity S-wave (km/s) = 3.36552 3.94352 3.66593
# Velocity P-wave (km/s) = 6.13124 7.56286 6.88436
#
# Compressibility (1/GPa) = 0.02211191
#
# Stress axis : x y z
#
# Youngs Moduli (GPa) = 62.96317 35.36029 74.36228
#
# Poissons Ratio (x) = 0.03011 0.52850
# Poissons Ratio (y) = 0.05361 0.72806
# Poissons Ratio (z) = 0.44748 0.34620
#
# Static dielectric constant tensor:
#      x y z
#    x 1.753580 -0.047720 -0.030110 
#    y -0.047720 1.794180 0.002000 
#    z -0.030110 0.002000 1.749990 
# 
# From -- ./inp_files/299202.got.cif
#   From: 2010.05.17/outbox.cif.g08.bks.cpg/sg2_150_cif.got.tgz:299202.got - 2010.06.03 11:33:40.
