data_PCOD9001484
_publ_section_title
;
Structure prediction by ZEFSAII (Michael W. Deem and Ramdas Pophale) SiO2 
 PCOD9001484
Probable space group: P -1
;
_chemical_formula_sum "Si O2"
_cell_formula_units_Z 16
_cell_length_a 11.113568
_cell_length_b 21.238673
_cell_length_c 15.730554
_cell_angle_alpha 146.565768
_cell_angle_beta 158.934408
_cell_angle_gamma 39.061862
_cell_volume 735.281463
_symmetry_space_group_name_H-M "P -1"
_symmetry_group_IT_number 2
_symmetry_cell_setting 'triclinic'
loop_
_space_group_symop_operation_xyz
x,y,z
-x,-y,-z
loop_
_atom_site_type_symbol
_atom_site_label
_atom_site_fract_x
_atom_site_fract_y
_atom_site_fract_z
Si Si1 0.889736 0.283898 0.114533
Si Si2 0.208528 0.422095 0.798947
Si Si3 0.725848 0.938209 0.186864
Si Si4 0.490323 0.070915 0.662104
Si Si5 0.181535 0.776756 0.603484
Si Si6 0.370293 0.860970 0.457032
Si Si7 0.441732 0.175991 0.264024
Si Si8 0.638713 0.627887 0.336533
O O1 0.096352 0.241885 0.122161
O O2 0.126946 0.362910 0.417284
O O3 0.551229 0.350530 0.951615
O O4 0.782342 0.166396 0.959558
O O5 0.153084 0.421947 0.661237
O O6 0.931019 0.347586 0.579140
O O7 0.312484 0.546995 0.040980
O O8 0.974528 0.885180 0.221469
O O9 0.477559 0.040887 0.117757
O O10 0.467774 0.834220 0.917608
O O11 0.000000 0.000000 0.500000
O O12 0.141547 0.140059 0.516327
O O13 0.500000 0.000000 0.500000
O O14 0.522582 0.980602 0.658396
O O15 0.325744 0.771181 0.596504
O O16 0.433862 0.822143 0.552761
O O17 0.524292 0.757547 0.389470
#
# Coordination Sequence:
#
# PCOD9001484 Si02
#       8
#     2   2   2   2   2   2   2   2
#     4  10  22  39  65  89 121 159 201 251 302 362
#     4  10  23  43  64  86 120 156 211 259 297 349
#     4  10  21  35  56  86 125 156 188 239 304 361
#     4  11  22  35  61  95 125 157 200 246 302 361
#     4  11  22  37  60  89 120 159 201 247 297 365
#     4  10  21  37  57  89 124 156 196 245 297 366
#     4  10  21  36  59  90 121 160 190 236 313 363
#     4  10  22  41  65  87 116 164 207 250 304 352
#
# _framework density 21.760372
#
# number of rings (size 3 to 8) (size 9 to 14) (size 15 to 20)
#    0.000    1.750    1.250    3.000    3.500    4.000 
#    2.250    3.125    0.000    0.000    0.000    0.000 
#    0.000    0.000    0.000    0.000    0.000    0.000 
#
# Total GULP energy -89196.647918 kJ/mol
# GULP energy per Si atom -5574.790495 kJ/mol
# Density = 2.171084 g / cm^3
# Si number density = 21.760372 Si / 1000 Ang^3
#
#
#
# Elastic Constant Matrix: (Units=GPa)
#
#
# Indices 1 2 3 4 5 6 
#
# 1 96.4122 3.9391 60.3687 9.0869 8.3386 3.2138
# 2 3.9391 46.8681 17.3592 5.5031 3.4690 1.6815
# 3 60.3687 17.3592 121.5649 26.9223 5.4952 3.7473
# 4 9.0869 5.5031 26.9223 44.5849 9.4828 8.0550
# 5 8.3386 3.4690 5.4952 9.4828 44.5825 4.0168
# 6 3.2138 1.6815 3.7473 8.0550 4.0168 31.8183
#
#
#
# Elastic Compliance Matrix: (Units=1/GPa)
#
#
# Indices 1 2 3 4 5 6 
#
# 1 0.015550 0.001724 -0.008349 0.002350 -0.002426 -0.000967
# 2 0.001724 0.022829 -0.003951 -0.000353 -0.001479 -0.000639
# 3 -0.008349 -0.003951 0.014387 -0.006986 0.001497 0.000937
# 4 0.002350 -0.000353 -0.006986 0.028359 -0.005048 -0.005938
# 5 -0.002426 -0.001479 0.001497 -0.005048 0.024033 -0.001609
# 6 -0.000967 -0.000639 0.000937 -0.005938 -0.001609 0.033156
#
#
# Mechanical properties :
#
#
# Convention : Reuss Voigt Hill
#
# Bulk Modulus (GPa) = 31.63278 47.57548 39.60413
# Shear Modulus (GPa) = 29.41085 36.40902 32.90994
#
# Velocity S-wave (km/s) = 3.68037 4.09489 3.89315
# Velocity P-wave (km/s) = 5.71215 6.65344 6.20068
#
# Compressibility (1/GPa) = 0.03161278
#
# Stress axis : x y z
#
# Youngs Moduli (GPa) = 64.30759 43.80410 69.50647
#
# Poissons Ratio (x) = -0.07551 0.58034
# Poissons Ratio (y) = -0.11086 0.27464
# Poissons Ratio (z) = 0.53693 0.17308
#
# Static dielectric constant tensor:
#      x y z
#    x 1.882210 0.046270 -0.073630 
#    y 0.046270 1.856100 -0.047470 
#    z -0.073630 -0.047470 1.869440 
# 
# From -- ./inp_files/571045.got.cif
#   From: 2010.05.17/outbox.cif.g08.bks.cpg/sg2_286_cif.got.tgz:571045.got - 2010.06.03 11:33:40.
