data_PCOD9001987
_publ_section_title
;
Structure prediction by ZEFSAII (Michael W. Deem and Ramdas Pophale) SiO2 
 PCOD9001987
Probable space group: P -1
;
_chemical_formula_sum "Si O2"
_cell_formula_units_Z 14
_cell_length_a 9.465022
_cell_length_b 11.943770
_cell_length_c 10.024067
_cell_angle_alpha 91.545203
_cell_angle_beta 28.229216
_cell_angle_gamma 98.980666
_cell_volume 514.393200
_symmetry_space_group_name_H-M "P -1"
_symmetry_group_IT_number 2
_symmetry_cell_setting 'triclinic'
loop_
_space_group_symop_operation_xyz
x,y,z
-x,-y,-z
loop_
_atom_site_type_symbol
_atom_site_label
_atom_site_fract_x
_atom_site_fract_y
_atom_site_fract_z
Si Si1 0.232903 0.374540 0.007913
Si Si2 0.301826 0.809509 0.861340
Si Si3 0.730322 0.474111 0.413147
Si Si4 0.410062 0.156372 0.101042
Si Si5 0.813865 0.156160 0.505919
Si Si6 0.732057 0.884899 0.256646
Si Si7 0.445968 0.378983 0.234869
O O1 0.981956 0.421056 0.137876
O O2 0.048163 0.260085 0.229877
O O3 0.367838 0.497075 0.978759
O O4 0.524628 0.370614 0.677096
O O5 0.418319 0.874254 0.909600
O O6 0.479184 0.878732 0.351061
O O7 0.356140 0.682686 0.836075
O O8 0.953789 0.800369 0.101979
O O9 0.500000 0.500000 0.500000
O O10 0.801265 0.583003 0.462979
O O11 0.344156 0.277473 0.209747
O O12 0.066556 0.084866 0.332316
O O13 0.655675 0.176293 0.777695
O O14 0.538105 0.875429 0.553625
O O15 0.000000 0.000000 0.000000
#
# Coordination Sequence:
#
# PCOD9001987 Si02
#       7
#     2   2   2   2   2   2   2
#     4  10  23  35  58  99 133 187 222 278 320 392
#     4  10  24  47  75  98 137 186 223 275 350 421
#     4  10  21  36  55  93 138 182 239 267 318 397
#     4  10  24  44  70 100 144 185 227 270 341 419
#     4  12  25  44  66 105 144 176 233 289 336 395
#     4  12  27  49  75 103 134 174 228 297 361 407
#     4   8  24  38  68  95 142 185 234 260 339 405
#
# _framework density 27.216535
#
# number of rings (size 3 to 8) (size 9 to 14) (size 15 to 20)
#    1.714    0.000    0.000    3.429    6.000    1.143 
#    0.000    4.286    0.000    0.000    0.000    0.000 
#    0.000    0.000    0.000    0.000    0.000    0.000 
#
# Total GULP energy -78055.013213 kJ/mol
# GULP energy per Si atom -5575.358087 kJ/mol
# Density = 2.715459 g / cm^3
# Si number density = 27.216535 Si / 1000 Ang^3
#
#
#
# Elastic Constant Matrix: (Units=GPa)
#
#
# Indices 1 2 3 4 5 6 
#
# 1 156.6487 17.8816 37.4975 -27.8118 5.0133 -1.5088
# 2 17.8816 73.9478 25.1546 -12.2669 -0.9148 -12.7837
# 3 37.4975 25.1546 159.7566 -6.1307 15.5668 -1.7089
# 4 -27.8118 -12.2669 -6.1307 40.1413 -11.5874 0.8302
# 5 5.0133 -0.9148 15.5668 -11.5874 48.7022 -3.0184
# 6 -1.5088 -12.7837 -1.7089 0.8302 -3.0184 26.7539
#
#
#
# Elastic Compliance Matrix: (Units=1/GPa)
#
#
# Indices 1 2 3 4 5 6 
#
# 1 0.007726 -0.000412 -0.001641 0.005257 0.000977 0.000081
# 2 -0.000412 0.016751 -0.002540 0.005112 0.002880 0.007985
# 3 -0.001641 -0.002540 0.007229 -0.001544 -0.002625 -0.001093
# 4 0.005257 0.005112 -0.001544 0.032092 0.007841 0.002529
# 5 0.000977 0.002880 -0.002625 0.007841 0.023418 0.003662
# 6 0.000081 0.007985 -0.001093 0.002529 0.003662 0.041463
#
#
# Mechanical properties :
#
#
# Convention : Reuss Voigt Hill
#
# Bulk Modulus (GPa) = 44.40382 61.26894 52.83638
# Shear Modulus (GPa) = 34.39466 43.77411 39.08438
#
# Velocity S-wave (km/s) = 3.55877 4.01479 3.79364
# Velocity P-wave (km/s) = 5.76515 6.63716 6.21646
#
# Compressibility (1/GPa) = 0.02252058
#
# Stress axis : x y z
#
# Youngs Moduli (GPa) = 129.42492 59.69951 138.32249
#
# Poissons Ratio (x) = 0.02458 0.22703
# Poissons Ratio (y) = 0.05330 0.35132
# Poissons Ratio (z) = 0.21243 0.15163
#
# Static dielectric constant tensor:
#      x y z
#    x 2.229250 0.073700 -0.106370 
#    y 0.073700 2.313970 -0.038660 
#    z -0.106370 -0.038660 2.143350 
# 
# From -- ./inp_files/433994.got.cif
#   From: 2010.05.17/outbox.cif.g08.bks.cpg/sg2_217_cif.got.tgz:433994.got - 2010.06.03 11:33:40.
