data_PCOD9001285
_publ_section_title
;
Structure prediction by ZEFSAII (Michael W. Deem and Ramdas Pophale) SiO2 
 PCOD9001285
Probable space group: P -1
;
_chemical_formula_sum "Si O2"
_cell_formula_units_Z 16
_cell_length_a 11.526104
_cell_length_b 11.685453
_cell_length_c 16.600730
_cell_angle_alpha 150.018914
_cell_angle_beta 146.558665
_cell_angle_gamma 40.239587
_cell_volume 609.020798
_symmetry_space_group_name_H-M "P -1"
_symmetry_group_IT_number 2
_symmetry_cell_setting 'triclinic'
loop_
_space_group_symop_operation_xyz
x,y,z
-x,-y,-z
loop_
_atom_site_type_symbol
_atom_site_label
_atom_site_fract_x
_atom_site_fract_y
_atom_site_fract_z
Si Si1 0.232242 0.145239 0.974202
Si Si2 0.677182 0.547753 0.069311
Si Si3 0.212916 0.857032 0.307789
Si Si4 0.955311 0.629254 0.732818
Si Si5 0.649856 0.238182 0.327027
Si Si6 0.714778 0.764228 0.539633
Si Si7 0.223459 0.950305 0.554230
Si Si8 0.699988 0.324627 0.178564
O O1 0.264958 0.995176 0.818023
O O2 0.275917 0.940062 0.941294
O O3 0.988339 0.262811 0.908744
O O4 0.415966 0.303599 0.191110
O O5 0.718649 0.798059 0.272418
O O6 0.898844 0.375629 0.105279
O O7 0.500000 0.500000 0.000000
O O8 0.545386 0.585706 0.933539
O O9 0.174988 0.099125 0.381821
O O10 0.202094 0.851096 0.394007
O O11 0.463484 0.802991 0.405832
O O12 0.819743 0.417214 0.533928
O O13 0.781802 0.821211 0.704578
O O14 0.141983 0.630268 0.774658
O O15 0.622164 0.188243 0.375331
O O16 0.766151 0.489885 0.387167
O O17 0.000000 0.000000 0.500000
#
# Coordination Sequence:
#
# PCOD9001285 Si02
#       8
#     2   2   2   2   2   2   2   2
#     4  11  20  37  61  93 120 156 208 252 301 356
#     4  10  21  34  60  95 120 150 206 260 301 344
#     4  11  24  41  61  92 126 167 203 254 309 364
#     4  11  20  37  62  93 119 159 208 254 302 360
#     4  11  22  34  62  92 123 156 201 251 306 361
#     4  11  23  40  64  91 125 164 208 253 308 360
#     4  12  21  38  62  90 125 161 201 247 305 370
#     4  11  20  36  66  93 119 151 213 261 291 357
#
# _framework density 26.271681000000001
#
# number of rings (size 3 to 8) (size 9 to 14) (size 15 to 20)
#    0.000    1.000    6.250    2.625    0.000    0.000 
#    0.000    2.500    0.000    4.500    0.000    0.000 
#    0.000    0.000    0.000    0.000    0.000    0.000 
#
# Total GULP energy -89264.522591 kJ/mol
# GULP energy per Si atom -5579.032662 kJ/mol
# Density = 2.621189 g / cm^3
# Si number density = 26.271681 Si / 1000 Ang^3
#
#
#
# Elastic Constant Matrix: (Units=GPa)
#
#
# Indices 1 2 3 4 5 6 
#
# 1 78.9899 17.6771 34.0938 0.2305 6.6340 22.6838
# 2 17.6771 85.8728 47.3845 -23.0530 1.1175 19.4379
# 3 34.0938 47.3845 147.5927 -35.3493 35.4099 2.1968
# 4 0.2305 -23.0530 -35.3493 51.6989 9.7815 12.9184
# 5 6.6340 1.1175 35.4099 9.7815 44.5367 -11.8677
# 6 22.6838 19.4379 2.1968 12.9184 -11.8677 34.3799
#
#
#
# Elastic Compliance Matrix: (Units=1/GPa)
#
#
# Indices 1 2 3 4 5 6 
#
# 1 0.018967 0.003449 -0.001353 0.007218 -0.008783 -0.020122
# 2 0.003449 0.021835 -0.000401 0.017920 -0.011412 -0.025269
# 3 -0.001353 -0.000401 0.017365 0.019554 -0.021855 -0.014882
# 4 0.007218 0.017920 0.019554 0.063267 -0.045818 -0.055733
# 5 -0.008783 -0.011412 -0.021855 -0.045818 0.065759 0.053560
# 6 -0.020122 -0.025269 -0.014882 -0.055733 0.053560 0.097031
#
#
# Mechanical properties :
#
#
# Convention : Reuss Voigt Hill
#
# Bulk Modulus (GPa) = 16.24502 56.75181 36.49841
# Shear Modulus (GPa) = 16.59179 40.34310 28.46745
#
# Velocity S-wave (km/s) = 2.51579 3.92294 3.29535
# Velocity P-wave (km/s) = 3.82568 6.49369 5.32935
#
# Compressibility (1/GPa) = 0.06155734
#
# Stress axis : x y z
#
# Youngs Moduli (GPa) = 52.72252 45.79720 57.58755
#
# Poissons Ratio (x) = -0.15796 0.07793
# Poissons Ratio (y) = -0.18185 0.02309
# Poissons Ratio (z) = 0.07135 0.01836
#
# Static dielectric constant tensor:
#      x y z
#    x 2.101580 0.011230 -0.001190 
#    y 0.011230 2.212070 -0.061350 
#    z -0.001190 -0.061350 2.060000 
# 
# From -- ./inp_files/568909.got.cif
#   From: 2010.05.17/outbox.cif.g08.bks.cpg/sg2_285_cif.got.tgz:568909.got - 2010.06.03 11:33:40.
