data_PCOD9001974
_publ_section_title
;
Structure prediction by ZEFSAII (Michael W. Deem and Ramdas Pophale) SiO2 
 PCOD9001974
Probable space group: P -1
;
_chemical_formula_sum "Si O2"
_cell_formula_units_Z 16
_cell_length_a 5.193600
_cell_length_b 11.831288
_cell_length_c 15.851874
_cell_angle_alpha 54.856529
_cell_angle_beta 59.503872
_cell_angle_gamma 76.425087
_cell_volume 684.027867
_symmetry_space_group_name_H-M "P -1"
_symmetry_group_IT_number 2
_symmetry_cell_setting 'triclinic'
loop_
_space_group_symop_operation_xyz
x,y,z
-x,-y,-z
loop_
_atom_site_type_symbol
_atom_site_label
_atom_site_fract_x
_atom_site_fract_y
_atom_site_fract_z
Si Si1 0.689822 0.369081 0.541146
Si Si2 0.814118 0.343211 0.274980
Si Si3 0.012409 0.069491 0.336430
Si Si4 0.076929 0.919875 0.936620
Si Si5 0.582043 0.925153 0.344302
Si Si6 0.677358 0.483625 0.664359
Si Si7 0.550070 0.515473 0.852050
Si Si8 0.649964 0.768701 0.943328
O O1 0.500000 0.500000 0.500000
O O2 0.534779 0.231568 0.586893
O O3 0.694762 0.363864 0.644892
O O4 0.028998 0.410627 0.438877
O O5 0.612287 0.428289 0.334420
O O6 0.646023 0.365880 0.204062
O O7 0.832460 0.183631 0.364364
O O8 0.145864 0.417354 0.188879
O O9 0.157241 0.160718 0.195182
O O10 0.288156 0.011642 0.363832
O O11 0.796223 0.951738 0.377807
O O12 0.315151 0.810820 0.967608
O O13 0.794100 0.836888 0.974699
O O14 0.236727 0.017971 0.794526
O O15 0.000000 0.000000 0.000000
O O16 0.649843 0.434902 0.785816
O O17 0.360713 0.397255 0.984689
#
# Coordination Sequence:
#
# PCOD9001974 Si02
#       8
#     2   2   2   2   2   2   2   2
#     4  11  23  43  68  90 125 155 206 265 312 373
#     4  10  21  40  63  90 130 162 206 255 305 353
#     4  10  22  43  61  91 131 164 206 251 294 382
#     4  10  21  36  55  86 125 165 204 251 294 371
#     4  10  24  40  64  91 120 168 203 247 323 360
#     4   9  24  39  62  97 120 157 202 265 308 366
#     4  10  21  37  62  93 121 162 205 252 307 353
#     4  10  21  36  57  89 127 162 209 245 300 361
#
# _framework density 23.39086
#
# number of rings (size 3 to 8) (size 9 to 14) (size 15 to 20)
#    0.750    1.250    0.000    2.625    5.250    2.000 
#    0.000    1.250    0.000    0.000    0.000    0.000 
#    0.000    0.000    0.000    0.000    0.000    0.000 
#
# Total GULP energy -89474.893596 kJ/mol
# GULP energy per Si atom -5592.180850 kJ/mol
# Density = 2.333762 g / cm^3
# Si number density = 23.390860 Si / 1000 Ang^3
#
#
#
# Elastic Constant Matrix: (Units=GPa)
#
#
# Indices 1 2 3 4 5 6 
#
# 1 91.3581 -3.7772 19.6089 -2.6233 -10.2649 4.4139
# 2 -3.7772 52.4614 22.6815 -12.7545 -7.4020 5.4694
# 3 19.6089 22.6815 64.1578 -6.0378 -6.4266 5.3897
# 4 -2.6233 -12.7545 -6.0378 35.1180 10.7237 -3.3608
# 5 -10.2649 -7.4020 -6.4266 10.7237 20.2036 -8.3734
# 6 4.4139 5.4694 5.3897 -3.3608 -8.3734 35.1727
#
#
#
# Elastic Compliance Matrix: (Units=1/GPa)
#
#
# Indices 1 2 3 4 5 6 
#
# 1 0.012830 0.003737 -0.004624 -0.000526 0.006724 0.000068
# 2 0.003737 0.025582 -0.009016 0.006561 0.004338 -0.001406
# 3 -0.004624 -0.009016 0.020294 -0.000411 0.000596 -0.001025
# 4 -0.000526 0.006561 -0.000411 0.036027 -0.017818 -0.001690
# 5 0.006724 0.004338 0.000596 -0.017818 0.069648 0.013268
# 6 0.000068 -0.001406 -0.001025 -0.001690 0.013268 0.031795
#
#
# Mechanical properties :
#
#
# Convention : Reuss Voigt Hill
#
# Bulk Modulus (GPa) = 25.70686 31.66706 28.68696
# Shear Modulus (GPa) = 21.83873 29.39647 25.61760
#
# Velocity S-wave (km/s) = 3.05887 3.54891 3.31297
# Velocity P-wave (km/s) = 4.84661 5.51005 5.18894
#
# Compressibility (1/GPa) = 0.03890013
#
# Stress axis : x y z
#
# Youngs Moduli (GPa) = 77.94204 39.08924 49.27469
#
# Poissons Ratio (x) = -0.14606 0.22785
# Poissons Ratio (y) = -0.29124 0.44426
# Poissons Ratio (z) = 0.36040 0.35243
#
# Static dielectric constant tensor:
#      x y z
#    x 1.871920 0.009320 0.056560 
#    y 0.009320 1.891940 0.053390 
#    z 0.056560 0.053390 1.919140 
# 
# From -- ./inp_files/549402.got.cif
#   From: 2010.05.17/outbox.cif.g08.bks.cpg/sg2_275_cif.got.tgz:549402.got - 2010.06.03 11:33:40.
