data_PCOD9001404
_publ_section_title
;
Structure prediction by ZEFSAII (Michael W. Deem and Ramdas Pophale) SiO2 
 PCOD9001404
Probable space group: P -1
;
_chemical_formula_sum "Si O2"
_cell_formula_units_Z 16
_cell_length_a 8.286565
_cell_length_b 25.369000
_cell_length_c 7.528677
_cell_angle_alpha 73.969455
_cell_angle_beta 94.818736
_cell_angle_gamma 145.507763
_cell_volume 830.895923
_symmetry_space_group_name_H-M "P -1"
_symmetry_group_IT_number 2
_symmetry_cell_setting 'triclinic'
loop_
_space_group_symop_operation_xyz
x,y,z
-x,-y,-z
loop_
_atom_site_type_symbol
_atom_site_label
_atom_site_fract_x
_atom_site_fract_y
_atom_site_fract_z
Si Si1 0.458596 0.263586 0.295187
Si Si2 0.401849 0.079447 0.104090
Si Si3 0.506894 0.942632 0.240955
Si Si4 0.467066 0.757431 0.076774
Si Si5 0.114392 0.209628 0.786377
Si Si6 0.261440 0.615412 0.456067
Si Si7 0.809378 0.921709 0.396165
Si Si8 0.891358 0.152548 0.198452
O O1 0.560182 0.272556 0.100198
O O2 0.703862 0.358473 0.358921
O O3 0.333440 0.175619 0.470742
O O4 0.177669 0.224307 0.278055
O O5 0.520272 0.173754 0.983044
O O6 0.618088 0.115926 0.243026
O O7 0.428795 0.044814 0.975466
O O8 0.062278 0.988075 0.210421
O O9 0.565433 0.897698 0.351405
O O10 0.168798 0.866273 0.294559
O O11 0.732872 0.048515 0.254459
O O12 0.778047 0.820626 0.117621
O O13 0.244397 0.664144 0.279185
O O14 0.416400 0.318113 0.630762
O O15 0.023769 0.209745 0.966928
O O16 0.000000 0.500000 0.500000
O O17 0.000000 0.000000 0.500000
#
# Coordination Sequence:
#
# PCOD9001404 Si02
#       8
#     2   2   2   2   2   2   2   2
#     4  11  22  39  59  89 122 157 197 245 290 354
#     4  11  21  34  57  83 124 168 192 231 285 353
#     4  11  21  34  55  83 126 167 192 231 287 352
#     4   9  20  41  58  86 120 145 205 240 295 353
#     4   8  19  37  56  83 114 147 195 241 288 353
#     4  10  23  41  68  88 105 153 209 256 303 340
#     4  12  22  33  52  86 126 158 198 225 282 358
#     4  10  21  35  54  87 125 161 193 229 292 356
#
# _framework density 19.256321
#
# number of rings (size 3 to 8) (size 9 to 14) (size 15 to 20)
#    0.750    1.000    2.500    3.375    3.500    2.000 
#    0.000    0.000    0.000    7.500    0.000    0.000 
#    0.000    0.000    0.000    0.000    0.000    0.000 
#
# Total GULP energy -89209.688624 kJ/mol
# GULP energy per Si atom -5575.605539 kJ/mol
# Density = 1.921249 g / cm^3
# Si number density = 19.256321 Si / 1000 Ang^3
#
#
#
# Elastic Constant Matrix: (Units=GPa)
#
#
# Indices 1 2 3 4 5 6 
#
# 1 79.6463 25.0380 15.9363 1.1359 17.0203 2.4879
# 2 25.0380 128.1430 33.7937 6.6519 2.8895 -11.0166
# 3 15.9363 33.7937 62.4779 9.3012 -0.1192 -5.8028
# 4 1.1359 6.6519 9.3012 22.7344 0.3476 -1.8768
# 5 17.0203 2.8895 -0.1192 0.3476 35.7977 5.3843
# 6 2.4879 -11.0166 -5.8028 -1.8768 5.3843 19.8672
#
#
#
# Elastic Compliance Matrix: (Units=1/GPa)
#
#
# Indices 1 2 3 4 5 6 
#
# 1 0.015400 -0.002287 -0.003064 0.001081 -0.006837 -0.002136
# 2 -0.002287 0.009789 -0.004194 -0.000654 -0.000393 0.004534
# 3 -0.003064 -0.004194 0.020333 -0.006717 0.001483 0.002961
# 4 0.001081 -0.000654 -0.006717 0.047084 -0.001293 0.002338
# 5 -0.006837 -0.000393 0.001483 -0.001293 0.032413 -0.007835
# 6 -0.002136 0.004534 0.002961 0.002338 -0.007835 0.056325
#
#
# Mechanical properties :
#
#
# Convention : Reuss Voigt Hill
#
# Bulk Modulus (GPa) = 37.83027 46.64481 42.23754
# Shear Modulus (GPa) = 23.89552 28.71313 26.30433
#
# Velocity S-wave (km/s) = 3.52649 3.86567 3.69997
# Velocity P-wave (km/s) = 6.02244 6.64832 6.34311
#
# Compressibility (1/GPa) = 0.02643386
#
# Stress axis : x y z
#
# Youngs Moduli (GPa) = 64.93655 102.15355 49.18032
#
# Poissons Ratio (x) = 0.23359 0.15067
# Poissons Ratio (y) = 0.14849 0.20626
# Poissons Ratio (z) = 0.19894 0.42842
#
# Static dielectric constant tensor:
#      x y z
#    x 1.748000 0.014610 -0.018990 
#    y 0.014610 1.646420 0.056480 
#    z -0.018990 0.056480 1.771210 
# 
# From -- ./inp_files/227448.got.cif
#   From: 2010.05.17/outbox.cif.g08.bks.cpg/sg2_114_cif.got.tgz:227448.got - 2010.06.03 11:33:40.
