data_PCOD9001242
_publ_section_title
;
Structure prediction by ZEFSAII (Michael W. Deem and Ramdas Pophale) SiO2 
 PCOD9001242
Probable space group: P -1
;
_chemical_formula_sum "Si O2"
_cell_formula_units_Z 16
_cell_length_a 13.127807
_cell_length_b 13.186829
_cell_length_c 10.905117
_cell_angle_alpha 57.375678
_cell_angle_beta 50.741536
_cell_angle_gamma 31.736975
_cell_volume 768.906078
_symmetry_space_group_name_H-M "P -1"
_symmetry_group_IT_number 2
_symmetry_cell_setting 'triclinic'
loop_
_space_group_symop_operation_xyz
x,y,z
-x,-y,-z
loop_
_atom_site_type_symbol
_atom_site_label
_atom_site_fract_x
_atom_site_fract_y
_atom_site_fract_z
Si Si1 0.515100 0.987428 0.845500
Si Si2 0.779250 0.296193 0.042255
Si Si3 0.551310 0.691599 0.044883
Si Si4 0.878575 0.117284 0.827465
Si Si5 0.204773 0.402064 0.840544
Si Si6 0.845471 0.301737 0.387595
Si Si7 0.797209 0.992471 0.535695
Si Si8 0.440131 0.623574 0.626922
O O1 0.702763 0.928549 0.676678
O O2 0.310495 0.212088 0.818340
O O3 0.533002 0.834556 0.900426
O O4 0.500000 0.000000 0.000000
O O5 0.716921 0.478657 0.998898
O O6 0.596978 0.351247 0.217250
O O7 0.792318 0.257069 0.915512
O O8 0.989849 0.087916 0.078135
O O9 0.321343 0.796196 0.145592
O O10 0.631278 0.664128 0.139196
O O11 0.038754 0.085764 0.645795
O O12 0.131205 0.571476 0.712708
O O13 0.000000 0.500000 0.000000
O O14 0.659414 0.413560 0.553754
O O15 0.747110 0.323333 0.323395
O O16 0.063297 0.084959 0.398739
O O17 0.601472 0.219580 0.508924
#
# Coordination Sequence:
#
# PCOD9001242 Si02
#       8
#     2   2   2   2   2   2   2   2
#     4  10  23  39  58  88 129 163 200 245 307 384
#     4  10  21  42  63  95 122 163 211 263 314 350
#     4  11  22  40  65  92 123 168 212 249 311 372
#     4  10  24  40  68  92 125 159 217 266 304 362
#     4  11  23  38  58  89 130 167 202 245 310 382
#     4  11  20  33  55  89 121 157 198 243 314 369
#     4  11  22  38  58  91 127 161 197 260 311 360
#     4  10  21  34  58  88 122 154 202 253 304 373
#
# _framework density 20.808782999999998
#
# number of rings (size 3 to 8) (size 9 to 14) (size 15 to 20)
#    0.000    1.500    2.500    3.000    3.500    4.000 
#    0.000    0.625    0.000    8.250    0.000    0.000 
#    0.000    0.000    0.000    0.000    0.000    0.000 
#
# Total GULP energy -89186.708128 kJ/mol
# GULP energy per Si atom -5574.169258 kJ/mol
# Density = 2.076142 g / cm^3
# Si number density = 20.808783 Si / 1000 Ang^3
#
#
#
# Elastic Constant Matrix: (Units=GPa)
#
#
# Indices 1 2 3 4 5 6 
#
# 1 46.9744 42.4396 47.0098 2.9428 -9.1233 -2.8451
# 2 42.4396 114.7055 48.2823 -16.4461 -1.8536 22.2206
# 3 47.0098 48.2823 131.6727 -10.1539 -20.6014 11.8175
# 4 2.9428 -16.4461 -10.1539 45.7016 8.5173 -7.4875
# 5 -9.1233 -1.8536 -20.6014 8.5173 19.8250 -2.8224
# 6 -2.8451 22.2206 11.8175 -7.4875 -2.8224 35.6682
#
#
#
# Elastic Compliance Matrix: (Units=1/GPa)
#
#
# Indices 1 2 3 4 5 6 
#
# 1 0.063875 -0.024407 -0.013542 -0.016471 0.023417 0.023182
# 2 -0.024407 0.021520 0.000557 0.009824 -0.014948 -0.014659
# 3 -0.013542 0.000557 0.013877 0.002092 0.006621 -0.005062
# 4 -0.016471 0.009824 0.002092 0.029704 -0.017717 -0.003294
# 5 0.023417 -0.014948 0.006621 -0.017717 0.075917 0.011275
# 6 0.023182 -0.014659 -0.005062 -0.003294 0.011275 0.040895
#
#
# Mechanical properties :
#
#
# Convention : Reuss Voigt Hill
#
# Bulk Modulus (GPa) = 40.83597 63.20179 52.01888
# Shear Modulus (GPa) = 15.20986 30.61368 22.91177
#
# Velocity S-wave (km/s) = 2.70651 3.83977 3.32183
# Velocity P-wave (km/s) = 5.42531 7.07793 6.30599
#
# Compressibility (1/GPa) = 0.02448822
#
# Stress axis : x y z
#
# Youngs Moduli (GPa) = 15.65567 46.46759 72.06342
#
# Poissons Ratio (x) = 1.13412 0.97588
# Poissons Ratio (y) = 0.38210 -0.04013
# Poissons Ratio (z) = 0.21201 -0.02587
#
# Static dielectric constant tensor:
#      x y z
#    x 1.742880 -0.022220 -0.012020 
#    y -0.022220 1.824000 -0.030970 
#    z -0.012020 -0.030970 1.785790 
# 
# From -- ./inp_files/427721.got.cif
#   From: 2010.05.17/outbox.cif.g08.bks.cpg/sg2_214_cif.got.tgz:427721.got - 2010.06.03 11:33:40.
