data_PCOD9001475
_publ_section_title
;
Structure prediction by ZEFSAII (Michael W. Deem and Ramdas Pophale) SiO2 
 PCOD9001475
Probable space group: P -1
;
_chemical_formula_sum "Si O2"
_cell_formula_units_Z 12
_cell_length_a 13.100751
_cell_length_b 12.542937
_cell_length_c 23.921323
_cell_angle_alpha 151.919330
_cell_angle_beta 153.325490
_cell_angle_gamma 22.367535
_cell_volume 634.490764
_symmetry_space_group_name_H-M "P -1"
_symmetry_group_IT_number 2
_symmetry_cell_setting 'triclinic'
loop_
_space_group_symop_operation_xyz
x,y,z
-x,-y,-z
loop_
_atom_site_type_symbol
_atom_site_label
_atom_site_fract_x
_atom_site_fract_y
_atom_site_fract_z
Si Si1 0.826388 0.261846 0.665791
Si Si2 0.500239 0.094168 0.211516
Si Si3 0.240231 0.788117 0.971271
Si Si4 0.724467 0.056895 0.419826
Si Si5 0.928197 0.489785 0.326690
Si Si6 0.567220 0.002044 0.469581
O O1 0.687281 0.591383 0.765497
O O2 0.786501 0.078877 0.604298
O O3 0.635395 0.287855 0.531486
O O4 0.162807 0.093506 0.732567
O O5 0.496377 0.144318 0.300032
O O6 0.365691 0.930911 0.067898
O O7 0.126797 0.692419 0.823226
O O8 0.500000 0.500000 0.000000
O O9 0.000000 0.000000 0.000000
O O10 0.852302 0.750897 0.370199
O O11 0.000000 0.000000 0.500000
O O12 0.258596 0.260540 0.406999
O O13 0.713309 0.689769 0.366277
O O14 0.500000 0.000000 0.500000
#
# Coordination Sequence:
#
# PCOD9001475 Si02
#       6
#     2   2   2   2   2   2
#     4  10  21  35  56  85 113 153 196 244 298 340
#     4  11  21  35  55  83 124 160 186 230 286 360
#     4  12  24  38  58  85 129 170 194 223 279 367
#     4   9  18  31  53  81 119 148 182 229 286 350
#     4  11  23  38  59  91 119 154 202 239 294 357
#     4  11  23  42  66  86 113 150 203 266 306 334
#
# _framework density 18.912804999999999
#
# number of rings (size 3 to 8) (size 9 to 14) (size 15 to 20)
#    0.000    1.333    1.667    6.000    4.667    0.000 
#    0.000    0.000    0.000    6.000    0.000    0.000 
#    0.000    0.000    0.000    0.000    0.000    0.000 
#
# Total GULP energy -66939.070578 kJ/mol
# GULP energy per Si atom -5578.255882 kJ/mol
# Density = 1.886976 g / cm^3
# Si number density = 18.912805 Si / 1000 Ang^3
#
#
#
# Elastic Constant Matrix: (Units=GPa)
#
#
# Indices 1 2 3 4 5 6 
#
# 1 117.9413 27.3432 67.5369 2.4319 7.1475 -17.0637
# 2 27.3432 113.0897 39.8014 10.3475 1.6838 -20.3964
# 3 67.5369 39.8014 126.0462 21.4389 17.6211 -0.2684
# 4 2.4319 10.3475 21.4389 23.7716 0.7592 -0.3188
# 5 7.1475 1.6838 17.6211 0.7592 22.6596 6.4345
# 6 -17.0637 -20.3964 -0.2684 -0.3188 6.4345 25.0505
#
#
#
# Elastic Compliance Matrix: (Units=1/GPa)
#
#
# Indices 1 2 3 4 5 6 
#
# 1 0.015256 0.001147 -0.009511 0.006705 -0.001011 0.011569
# 2 0.001147 0.012087 -0.003963 -0.001620 -0.001210 0.010870
# 3 -0.009511 -0.003963 0.017556 -0.012991 -0.007737 -0.007695
# 4 0.006705 -0.001620 -0.012991 0.053654 0.005645 0.002342
# 5 -0.001011 -0.001210 -0.007737 0.005645 0.054847 -0.015773
# 6 0.011569 0.010870 -0.007695 0.002342 -0.015773 0.060649
#
#
# Mechanical properties :
#
#
# Convention : Reuss Voigt Hill
#
# Bulk Modulus (GPa) = 49.39709 69.60446 59.50078
# Shear Modulus (GPa) = 20.37057 29.12271 24.74664
#
# Velocity S-wave (km/s) = 3.28545 3.92834 3.62119
# Velocity P-wave (km/s) = 6.36924 7.58014 7.00092
#
# Compressibility (1/GPa) = 0.02024411
#
# Stress axis : x y z
#
# Youngs Moduli (GPa) = 65.54806 82.73447 56.96037
#
# Poissons Ratio (x) = -0.09487 0.54175
# Poissons Ratio (y) = -0.07517 0.22575
# Poissons Ratio (z) = 0.62342 0.32789
#
# Static dielectric constant tensor:
#      x y z
#    x 1.696920 -0.052560 0.011140 
#    y -0.052560 1.783490 0.002450 
#    z 0.011140 0.002450 1.685370 
# 
# From -- ./inp_files/64254.got.cif
#   From: 2010.05.17/outbox.cif.g08.bks.cpg/sg2_33_cif.got.tgz:64254.got - 2010.06.03 11:33:40.
