data_PCOD9001392
_publ_section_title
;
Structure prediction by ZEFSAII (Michael W. Deem and Ramdas Pophale) SiO2 
 PCOD9001392
Probable space group: P -1
;
_chemical_formula_sum "Si O2"
_cell_formula_units_Z 13
_cell_length_a 16.772997
_cell_length_b 23.329421
_cell_length_c 24.042421
_cell_angle_alpha 11.610948
_cell_angle_beta 161.383092
_cell_angle_gamma 166.116031
_cell_volume 453.327085
_symmetry_space_group_name_H-M "P -1"
_symmetry_group_IT_number 2
_symmetry_cell_setting 'triclinic'
loop_
_space_group_symop_operation_xyz
x,y,z
-x,-y,-z
loop_
_atom_site_type_symbol
_atom_site_label
_atom_site_fract_x
_atom_site_fract_y
_atom_site_fract_z
Si Si1 0.174725 0.884106 0.354058
Si Si2 0.377600 0.504075 0.496033
Si Si3 0.986632 0.315995 0.853686
Si Si4 0.552716 0.776383 0.552747
Si Si5 0.283958 0.494973 0.174391
Si Si6 0.395382 0.250809 0.036356
Si Si7 0.500000 0.000000 0.000000
O O1 0.202226 0.612700 0.663732
O O2 0.815745 0.561379 0.393980
O O3 0.400647 0.153503 0.196045
O O4 0.128448 0.109159 0.152049
O O5 0.072928 0.467737 0.350496
O O6 0.609067 0.615856 0.596746
O O7 0.336366 0.151084 0.782795
O O8 0.501594 0.800599 0.246722
O O9 0.601119 0.930533 0.951921
O O10 0.783090 0.776361 0.662574
O O11 0.571830 0.128627 0.234767
O O12 0.558865 0.651876 0.736957
O O13 0.000000 0.500000 0.000000
O O14 0.000000 0.000000 0.000000
#
# Coordination Sequence:
#
# PCOD9001392 Si02
#       7
#     2   2   2   2   2   2   1
#     4  10  17  27  46  66  99 133 180 205 252 310
#     4  11  20  38  54  75 101 134 185 218 276 304
#     4  11  18  33  49  76 101 139 181 208 256 312
#     4  10  18  30  42  67  99 137 187 203 245 301
#     4  11  24  36  53  76 111 153 189 214 246 307
#     4  10  18  27  44  65  94 139 182 204 249 305
#     4  10  22  36  58  72  94 138 174 236 274 318
#
# _framework density 28.676863999999998
#
# number of rings (size 3 to 8) (size 9 to 14) (size 15 to 20)
#    0.000    1.538    4.615    5.538    0.000    0.615 
#    0.000    0.000    0.000    0.000    0.000    0.000 
#    0.000    0.000    0.000   96.923   45.538    1.077 
#
# Total GULP energy -72511.626572 kJ/mol
# GULP energy per Si atom -5577.817429 kJ/mol
# Density = 2.861159 g / cm^3
# Si number density = 28.676864 Si / 1000 Ang^3
#
#
#
# Elastic Constant Matrix: (Units=GPa)
#
#
# Indices 1 2 3 4 5 6 
#
# 1 143.8379 20.5301 75.9459 24.8359 -6.7569 9.1332
# 2 20.5301 93.7221 44.3568 20.4392 5.3026 4.3625
# 3 75.9459 44.3568 249.6626 15.0248 2.5140 4.2415
# 4 24.8359 20.4392 15.0248 41.5901 8.6073 11.3514
# 5 -6.7569 5.3026 2.5140 8.6073 85.8985 5.9348
# 6 9.1332 4.3625 4.2415 11.3514 5.9348 28.6232
#
#
#
# Elastic Compliance Matrix: (Units=1/GPa)
#
#
# Indices 1 2 3 4 5 6 
#
# 1 0.009203 0.000178 -0.002547 -0.004661 0.001324 -0.001012
# 2 0.000178 0.012824 -0.001991 -0.005824 -0.000179 0.000631
# 3 -0.002547 -0.001991 0.005093 0.000680 -0.000305 0.000155
# 4 -0.004661 -0.005824 0.000680 0.032761 -0.002607 -0.010178
# 5 0.001324 -0.000179 -0.000305 -0.002607 0.012154 -0.001836
# 6 -0.001012 0.000631 0.000155 -0.010178 -0.001836 0.039558
#
#
# Mechanical properties :
#
#
# Convention : Reuss Voigt Hill
#
# Bulk Modulus (GPa) = 54.34501 85.43203 69.88852
# Shear Modulus (GPa) = 39.54248 54.31502 46.92875
#
# Velocity S-wave (km/s) = 3.71738 4.35677 4.04972
# Velocity P-wave (km/s) = 6.11696 7.42729 6.80374
#
# Compressibility (1/GPa) = 0.01840095
#
# Stress axis : x y z
#
# Youngs Moduli (GPa) = 108.66287 77.97801 196.33470
#
# Poissons Ratio (x) = -0.01388 0.50001
# Poissons Ratio (y) = -0.01935 0.39090
# Poissons Ratio (z) = 0.27673 0.15525
#
# Static dielectric constant tensor:
#      x y z
#    x 2.282060 -0.088070 0.019100 
#    y -0.088070 2.466940 -0.019420 
#    z 0.019100 -0.019420 2.095890 
# 
# From -- ./inp_files/620517.got.cif
#   From: 2010.05.17/outbox.cif.g08.bks.cpg/sg2_311_cif.got.tgz:620517.got - 2010.06.03 11:33:40.
