data_PCOD9001224
_publ_section_title
;
Structure prediction by ZEFSAII (Michael W. Deem and Ramdas Pophale) SiO2 
 PCOD9001224
Probable space group: P -1
;
_chemical_formula_sum "Si O2"
_cell_formula_units_Z 16
_cell_length_a 8.942884
_cell_length_b 20.030352
_cell_length_c 9.686840
_cell_angle_alpha 144.341598
_cell_angle_beta 103.044095
_cell_angle_gamma 54.653843
_cell_volume 707.806980
_symmetry_space_group_name_H-M "P -1"
_symmetry_group_IT_number 2
_symmetry_cell_setting 'triclinic'
loop_
_space_group_symop_operation_xyz
x,y,z
-x,-y,-z
loop_
_atom_site_type_symbol
_atom_site_label
_atom_site_fract_x
_atom_site_fract_y
_atom_site_fract_z
Si Si1 0.120277 0.338836 0.838140
Si Si2 0.286318 0.055260 0.263337
Si Si3 0.865788 0.251654 0.312732
Si Si4 0.139567 0.011776 0.736439
Si Si5 0.773218 0.042566 0.634578
Si Si6 0.427797 0.789662 0.679625
Si Si7 0.332891 0.483235 0.923281
Si Si8 0.623440 0.613845 0.922452
O O1 0.282624 0.191767 0.520905
O O2 0.234232 0.345019 0.997428
O O3 0.000000 0.500000 0.000000
O O4 0.920686 0.359035 0.866286
O O5 0.062976 0.150289 0.293299
O O6 0.290561 0.004926 0.334000
O O7 0.458726 0.892589 0.940478
O O8 0.718147 0.220239 0.273968
O O9 0.733737 0.438682 0.605013
O O10 0.974639 0.178191 0.063556
O O11 0.007979 0.967355 0.590251
O O12 0.231246 0.008741 0.605630
O O13 0.302228 0.889006 0.681708
O O14 0.609752 0.234854 0.925279
O O15 0.621814 0.614825 0.368036
O O16 0.500000 0.500000 0.000000
O O17 0.387194 0.390917 0.922139
#
# Coordination Sequence:
#
# PCOD9001224 Si02
#       8
#     2   2   2   2   2   2   2   2
#     4  10  22  41  62  91 119 168 204 250 301 374
#     4  11  20  38  63  86 120 161 204 255 302 359
#     4  11  19  38  62  90 123 162 206 256 298 358
#     4  10  21  34  57  92 129 155 201 260 306 355
#     4  11  22  36  57  90 129 162 196 250 319 360
#     4  11  19  36  61  98 118 156 210 264 297 349
#     4  11  20  35  64  94 118 154 213 258 289 354
#     4  11  23  39  61  88 130 166 200 242 314 374
#
# _framework density 22.605034
#
# number of rings (size 3 to 8) (size 9 to 14) (size 15 to 20)
#    0.000    1.250    7.500    0.750    0.000    1.000 
#    0.000    3.750    0.000    1.500    0.000    0.000 
#    0.000    0.000    0.000    0.000    0.000    0.000 
#
# Total GULP energy -89244.278066 kJ/mol
# GULP energy per Si atom -5577.767379 kJ/mol
# Density = 2.255358 g / cm^3
# Si number density = 22.605034 Si / 1000 Ang^3
#
#
#
# Elastic Constant Matrix: (Units=GPa)
#
#
# Indices 1 2 3 4 5 6 
#
# 1 53.6743 11.1224 11.8789 -2.0519 5.6891 -9.9678
# 2 11.1224 80.9495 29.2721 -14.6231 -6.5723 7.0250
# 3 11.8789 29.2721 196.0331 -8.9393 -1.6643 11.0822
# 4 -2.0519 -14.6231 -8.9393 28.4619 4.3791 -3.6951
# 5 5.6891 -6.5723 -1.6643 4.3791 28.5591 2.3192
# 6 -9.9678 7.0250 11.0822 -3.6951 2.3192 15.5322
#
#
#
# Elastic Compliance Matrix: (Units=1/GPa)
#
#
# Indices 1 2 3 4 5 6 
#
# 1 0.025059 -0.004774 -0.001967 0.002827 -0.008390 0.021570
# 2 -0.004774 0.015546 -0.001263 0.005475 0.004308 -0.008534
# 3 -0.001967 -0.001263 0.005699 0.000253 0.000785 -0.004815
# 4 0.002827 0.005475 0.000253 0.040460 -0.006282 0.009721
# 5 -0.008390 0.004308 0.000785 -0.006282 0.039933 -0.015351
# 6 0.021570 -0.008534 -0.004815 0.009721 -0.015351 0.090125
#
#
# Mechanical properties :
#
#
# Convention : Reuss Voigt Hill
#
# Bulk Modulus (GPa) = 33.00932 48.35595 40.68264
# Shear Modulus (GPa) = 20.58213 33.06953 26.82583
#
# Velocity S-wave (km/s) = 3.02074 3.82897 3.44862
# Velocity P-wave (km/s) = 5.17695 6.40204 5.82181
#
# Compressibility (1/GPa) = 0.03029448
#
# Stress axis : x y z
#
# Youngs Moduli (GPa) = 39.90635 64.32672 175.45599
#
# Poissons Ratio (x) = 0.30710 0.34517
# Poissons Ratio (y) = 0.19051 0.22165
# Poissons Ratio (z) = 0.07851 0.08126
#
# Static dielectric constant tensor:
#      x y z
#    x 2.084360 0.013640 0.034210 
#    y 0.013640 1.832520 0.030730 
#    z 0.034210 0.030730 1.924690 
# 
# From -- ./inp_files/218932.got.cif
#   From: 2010.05.17/outbox.cif.g08.bks.cpg/sg2_110_cif.got.tgz:218932.got - 2010.06.03 11:33:40.
