data_PCOD9001604
_publ_section_title
;
Structure prediction by ZEFSAII (Michael W. Deem and Ramdas Pophale) SiO2 
 PCOD9001604
Probable space group: P -1
;
_chemical_formula_sum "Si O2"
_cell_formula_units_Z 14
_cell_length_a 10.628362
_cell_length_b 8.984527
_cell_length_c 12.405735
_cell_angle_alpha 91.754373
_cell_angle_beta 144.303034
_cell_angle_gamma 89.029643
_cell_volume 690.843759
_symmetry_space_group_name_H-M "P -1"
_symmetry_group_IT_number 2
_symmetry_cell_setting 'triclinic'
loop_
_space_group_symop_operation_xyz
x,y,z
-x,-y,-z
loop_
_atom_site_type_symbol
_atom_site_label
_atom_site_fract_x
_atom_site_fract_y
_atom_site_fract_z
Si Si1 0.507380 0.440523 0.626390
Si Si2 0.326258 0.735378 0.553059
Si Si3 0.326437 0.907947 0.998882
Si Si4 0.118128 0.702513 0.021812
Si Si5 0.304303 0.199154 0.358873
Si Si6 0.228539 0.933850 0.691947
Si Si7 0.953748 0.111326 0.808036
O O1 0.500000 0.500000 0.500000
O O2 0.363969 0.559823 0.590183
O O3 0.746374 0.433882 0.841621
O O4 0.423483 0.270959 0.546888
O O5 0.531688 0.797834 0.627827
O O6 0.127826 0.776871 0.337926
O O7 0.578910 0.943370 0.168775
O O8 0.273523 0.782507 0.045631
O O9 0.704735 0.183902 0.354366
O O10 0.229727 0.871161 0.812921
O O11 0.191235 0.051553 0.947754
O O12 0.068175 0.810135 0.090515
O O13 0.892484 0.691707 0.803135
O O14 0.201582 0.036391 0.303400
O O15 0.000000 0.000000 0.500000
#
# Coordination Sequence:
#
# PCOD9001604 Si02
#       7
#     2   2   2   2   2   2   2
#     4  10  22  37  52  86 126 152 188 223 294 354
#     4  11  21  37  58  86 118 154 190 232 287 344
#     4  10  23  37  59  93 109 148 198 244 281 335
#     4  11  21  37  60  88 120 147 189 241 288 344
#     4  10  21  35  59  88 118 152 184 238 294 338
#     4  11  22  40  60  83 117 152 194 243 283 331
#     4  11  19  36  62  90 115 145 191 242 292 335
#
# _framework density 20.265073999999998
#
# number of rings (size 3 to 8) (size 9 to 14) (size 15 to 20)
#    0.000    1.429    4.286    3.857    2.000    2.286 
#    2.571    0.714    0.000    6.000    0.000    0.000 
#    0.000    0.000    0.000    0.000    0.000    0.000 
#
# Total GULP energy -78166.571420 kJ/mol
# GULP energy per Si atom -5583.326530 kJ/mol
# Density = 2.021895 g / cm^3
# Si number density = 20.265074 Si / 1000 Ang^3
#
#
#
# Elastic Constant Matrix: (Units=GPa)
#
#
# Indices 1 2 3 4 5 6 
#
# 1 98.3845 23.4172 31.1248 -5.2719 -18.7613 -14.8917
# 2 23.4172 43.4667 10.2319 -10.7173 3.4374 -18.8397
# 3 31.1248 10.2319 106.9246 -16.8608 2.0698 -2.3265
# 4 -5.2719 -10.7173 -16.8608 32.8801 -4.5755 -6.2004
# 5 -18.7613 3.4374 2.0698 -4.5755 35.2977 1.5010
# 6 -14.8917 -18.8397 -2.3265 -6.2004 1.5010 27.9812
#
#
#
# Elastic Compliance Matrix: (Units=1/GPa)
#
#
# Indices 1 2 3 4 5 6 
#
# 1 0.015068 -0.006756 -0.003858 -0.000040 0.008774 0.002670
# 2 -0.006756 0.045459 0.001528 0.019559 -0.006926 0.031844
# 3 -0.003858 0.001528 0.011282 0.005600 -0.002189 0.001272
# 4 -0.000040 0.019559 0.005600 0.044400 0.002510 0.023317
# 5 0.008774 -0.006926 -0.002189 0.002510 0.034184 -0.001453
# 6 0.002670 0.031844 0.001272 0.023317 -0.001453 0.063951
#
#
# Mechanical properties :
#
#
# Convention : Reuss Voigt Hill
#
# Bulk Modulus (GPa) = 18.64386 42.03595 30.33991
# Shear Modulus (GPa) = 19.96846 31.49859 25.73353
#
# Velocity S-wave (km/s) = 3.14246 3.94677 3.56736
# Velocity P-wave (km/s) = 4.73146 6.44651 5.65438
#
# Compressibility (1/GPa) = 0.05363697
#
# Stress axis : x y z
#
# Youngs Moduli (GPa) = 66.36651 21.99802 88.63468
#
# Poissons Ratio (x) = 0.14862 0.34192
# Poissons Ratio (y) = 0.44836 -0.13540
# Poissons Ratio (z) = 0.25602 -0.03361
#
# Static dielectric constant tensor:
#      x y z
#    x 1.702140 0.010970 0.008840 
#    y 0.010970 1.776860 0.005320 
#    z 0.008840 0.005320 1.759560 
# 
# From -- ./inp_files/397694.got.cif
#   From: 2010.05.17/outbox.cif.g08.bks.cpg/sg2_199_cif.got.tgz:397694.got - 2010.06.03 11:33:40.
