data_PCOD9001595
_publ_section_title
;
Structure prediction by ZEFSAII (Michael W. Deem and Ramdas Pophale) SiO2 
 PCOD9001595
Probable space group: P -1
;
_chemical_formula_sum "Si O2"
_cell_formula_units_Z 16
_cell_length_a 12.558377
_cell_length_b 27.572956
_cell_length_c 11.952524
_cell_angle_alpha 26.536046
_cell_angle_beta 30.246220
_cell_angle_gamma 25.615778
_cell_volume 763.620932
_symmetry_space_group_name_H-M "P -1"
_symmetry_group_IT_number 2
_symmetry_cell_setting 'triclinic'
loop_
_space_group_symop_operation_xyz
x,y,z
-x,-y,-z
loop_
_atom_site_type_symbol
_atom_site_label
_atom_site_fract_x
_atom_site_fract_y
_atom_site_fract_z
Si Si1 0.563961 0.894572 0.450663
Si Si2 0.259021 0.928220 0.049849
Si Si3 0.126643 0.501843 0.523811
Si Si4 0.139177 0.706023 0.224989
Si Si5 0.196367 0.587043 0.062041
Si Si6 0.685016 0.187148 0.986507
Si Si7 0.230531 0.872467 0.620196
Si Si8 0.368123 0.755436 0.507392
O O1 0.514045 0.833515 0.728651
O O2 0.365108 0.917257 0.488792
O O3 0.845567 0.793007 0.353418
O O4 0.555732 0.022455 0.228856
O O5 0.265860 0.882581 0.262896
O O6 0.338465 0.814183 0.122521
O O7 0.969302 0.053260 0.029937
O O8 0.196442 0.567545 0.419180
O O9 0.054684 0.598978 0.281678
O O10 0.377019 0.362180 0.543705
O O11 0.901176 0.479871 0.792613
O O12 0.311069 0.700838 0.182095
O O13 0.165659 0.786352 0.933856
O O14 0.500000 0.500000 0.000000
O O15 0.161982 0.717366 0.777857
O O16 0.411400 0.778444 0.548250
O O17 0.000000 0.000000 0.500000
#
# Coordination Sequence:
#
# PCOD9001595 Si02
#       8
#     2   2   2   2   2   2   2   2
#     4  10  21  35  59  82 112 152 186 234 285 339
#     4  10  21  39  60  85 112 149 192 236 289 338
#     4  10  21  36  56  82 113 153 195 224 277 345
#     4  10  21  36  58  83 110 150 192 233 281 340
#     4   9  20  35  53  78 111 151 187 226 268 330
#     4   9  20  40  62  83 110 146 196 241 282 337
#     4  11  23  36  53  86 123 148 184 233 286 343
#     4  11  22  35  57  84 118 153 184 236 285 333
#
# _framework density 20.952805000000001
#
# number of rings (size 3 to 8) (size 9 to 14) (size 15 to 20)
#    0.000    2.000    1.250    2.625    5.250    5.000 
#    0.000    0.625    0.000    1.500    0.000    0.000 
#    0.000    0.000    0.000    0.000    0.000    0.000 
#
# Total GULP energy -89249.365432 kJ/mol
# GULP energy per Si atom -5578.085340 kJ/mol
# Density = 2.090512 g / cm^3
# Si number density = 20.952805 Si / 1000 Ang^3
#
#
#
# Elastic Constant Matrix: (Units=GPa)
#
#
# Indices 1 2 3 4 5 6 
#
# 1 64.8002 19.7856 16.5938 11.0502 -6.9130 29.9387
# 2 19.7856 52.6771 0.3223 3.0205 -11.3032 16.6701
# 3 16.5938 0.3223 65.7642 16.9986 -21.9468 -1.5572
# 4 11.0502 3.0205 16.9986 21.7574 8.7099 -3.7968
# 5 -6.9130 -11.3032 -21.9468 8.7099 31.1522 -4.1365
# 6 29.9387 16.6701 -1.5572 -3.7968 -4.1365 28.9698
#
#
#
# Elastic Compliance Matrix: (Units=1/GPa)
#
#
# Indices 1 2 3 4 5 6 
#
# 1 0.051969 0.010911 0.012413 -0.061838 0.033203 -0.062682
# 2 0.010911 0.037507 0.024936 -0.053588 0.044303 -0.032215
# 3 0.012413 0.024936 0.061487 -0.093351 0.077903 -0.024984
# 4 -0.061838 -0.053588 -0.093351 0.235740 -0.151703 0.098959
# 5 0.033203 0.044303 0.077903 -0.151703 0.145576 -0.054715
# 6 -0.062682 -0.032215 -0.024984 0.098959 -0.054715 0.121649
#
#
# Mechanical properties :
#
#
# Convention : Reuss Voigt Hill
#
# Bulk Modulus (GPa) = 4.04067 28.51611 16.27839
# Shear Modulus (GPa) = 7.81373 26.14519 16.97946
#
# Velocity S-wave (km/s) = 1.93321 3.53627 2.84978
# Velocity P-wave (km/s) = 2.62977 5.50571 4.31443
#
# Compressibility (1/GPa) = 0.24748350
#
# Stress axis : x y z
#
# Youngs Moduli (GPa) = 19.24230 26.66193 16.26368
#
# Poissons Ratio (x) = -0.29090 -0.20189
# Poissons Ratio (y) = -0.20995 -0.40556
# Poissons Ratio (z) = -0.23886 -0.66485
#
# Static dielectric constant tensor:
#      x y z
#    x 1.783540 0.025140 -0.031840 
#    y 0.025140 1.815760 -0.021880 
#    z -0.031840 -0.021880 1.773810 
# 
# From -- ./inp_files/439537.got.cif
#   From: 2010.05.17/outbox.cif.g08.bks.cpg/sg2_220_cif.got.tgz:439537.got - 2010.06.03 11:33:40.
