data_PCOD9001047
_publ_section_title
;
Structure prediction by ZEFSAII (Michael W. Deem and Ramdas Pophale) SiO2 
 PCOD9001047
Probable space group: P -1
;
_chemical_formula_sum "Si O2"
_cell_formula_units_Z 16
_cell_length_a 12.468107
_cell_length_b 14.586136
_cell_length_c 7.530530
_cell_angle_alpha 33.070386
_cell_angle_beta 83.132140
_cell_angle_gamma 75.153182
_cell_volume 710.502027
_symmetry_space_group_name_H-M "P -1"
_symmetry_group_IT_number 2
_symmetry_cell_setting 'triclinic'
loop_
_space_group_symop_operation_xyz
x,y,z
-x,-y,-z
loop_
_atom_site_type_symbol
_atom_site_label
_atom_site_fract_x
_atom_site_fract_y
_atom_site_fract_z
Si Si1 0.711504 0.094079 0.897399
Si Si2 0.207395 0.525556 0.094939
Si Si3 0.772720 0.690359 0.889304
Si Si4 0.884496 0.307201 0.507831
Si Si5 0.877159 0.748505 0.276757
Si Si6 0.595145 0.326834 0.208455
Si Si7 0.900188 0.912656 0.632636
Si Si8 0.344234 0.942711 0.636627
O O1 0.815164 0.174156 0.788388
O O2 0.640357 0.216319 0.557957
O O3 0.646891 0.089940 0.101470
O O4 0.769978 0.902688 0.116549
O O5 0.259877 0.367669 0.200856
O O6 0.143457 0.440386 0.386388
O O7 0.126451 0.665535 0.748911
O O8 0.307431 0.598447 0.015272
O O9 0.876071 0.778613 0.706117
O O10 0.673688 0.849174 0.730814
O O11 0.819225 0.502021 0.278040
O O12 0.010667 0.250979 0.640567
O O13 0.896538 0.799424 0.991310
O O14 0.570572 0.194409 0.282738
O O15 0.500000 0.500000 0.000000
O O16 0.781476 0.062727 0.391365
O O17 0.000000 0.000000 0.500000
#
# Coordination Sequence:
#
# PCOD9001047 Si02
#       8
#     2   2   2   2   2   2   2   2
#     4  11  20  39  67  89 130 167 206 260 325 371
#     4   9  21  40  59  87 130 161 212 265 307 377
#     4   8  19  38  54  83 131 162 198 257 299 360
#     4   9  20  32  58  92 129 173 204 244 307 378
#     4  12  19  34  62  90 131 178 207 251 311 369
#     4  11  25  46  67  93 121 161 215 278 334 370
#     4  10  21  33  56  94 134 166 214 245 296 373
#     4  10  21  41  63  88 131 159 213 261 305 387
#
# _framework density 22.519290000000002
#
# number of rings (size 3 to 8) (size 9 to 14) (size 15 to 20)
#    1.500    0.500    2.500    1.500    0.000    4.000 
#    0.000    1.250    0.000    0.000    0.000    0.000 
#    0.000    0.000    0.000    0.000    0.000    0.000 
#
# Total GULP energy -89124.649419 kJ/mol
# GULP energy per Si atom -5570.290589 kJ/mol
# Density = 2.246803 g / cm^3
# Si number density = 22.519290 Si / 1000 Ang^3
#
#
#
# Elastic Constant Matrix: (Units=GPa)
#
#
# Indices 1 2 3 4 5 6 
#
# 1 36.2187 0.4225 5.3756 0.3096 3.7869 7.0110
# 2 0.4225 67.3625 12.8834 -9.0798 5.3069 -2.2981
# 3 5.3756 12.8834 74.2287 11.4113 16.0646 -7.1433
# 4 0.3096 -9.0798 11.4113 38.9065 0.0414 -1.4006
# 5 3.7869 5.3069 16.0646 0.0414 19.6476 -9.6430
# 6 7.0110 -2.2981 -7.1433 -1.4006 -9.6430 16.9868
#
#
#
# Elastic Compliance Matrix: (Units=1/GPa)
#
#
# Indices 1 2 3 4 5 6 
#
# 1 0.034502 0.000438 -0.000898 -0.000790 -0.018312 -0.025019
# 2 0.000438 0.016232 -0.003165 0.004715 -0.001891 0.000000
# 3 -0.000898 -0.003165 0.017979 -0.006027 -0.014169 -0.001037
# 4 -0.000790 0.004715 -0.006027 0.028717 0.005736 0.004053
# 5 -0.018312 -0.001891 -0.014169 0.005736 0.093433 0.054856
# 6 -0.025019 0.000000 -0.001037 0.004053 0.054856 0.100233
#
#
# Mechanical properties :
#
#
# Convention : Reuss Voigt Hill
#
# Bulk Modulus (GPa) = 16.26942 23.90809 20.08875
# Shear Modulus (GPa) = 15.68213 25.71676 20.69944
#
# Velocity S-wave (km/s) = 2.64178 3.38300 3.03510
# Velocity P-wave (km/s) = 4.06763 5.08914 4.60679
#
# Compressibility (1/GPa) = 0.06146502
#
# Stress axis : x y z
#
# Youngs Moduli (GPa) = 28.98342 61.60656 55.61940
#
# Poissons Ratio (x) = -0.02698 0.04993
# Poissons Ratio (y) = -0.01269 0.17601
# Poissons Ratio (z) = 0.02602 0.19495
#
# Static dielectric constant tensor:
#      x y z
#    x 1.863640 -0.017810 -0.002460 
#    y -0.017810 1.951450 -0.012300 
#    z -0.002460 -0.012300 1.839390 
# 
# From -- ./inp_files/316847.got.cif
#   From: 2010.05.17/outbox.cif.g08.bks.cpg/sg2_159_cif.got.tgz:316847.got - 2010.06.03 11:33:40.
