data_PCOD9001630
_publ_section_title
;
Structure prediction by ZEFSAII (Michael W. Deem and Ramdas Pophale) SiO2 
 PCOD9001630
Probable space group: P -1
;
_chemical_formula_sum "Si O2"
_cell_formula_units_Z 14
_cell_length_a 5.101893
_cell_length_b 10.159419
_cell_length_c 13.637737
_cell_angle_alpha 63.694425
_cell_angle_beta 76.286571
_cell_angle_gamma 87.755384
_cell_volume 613.844922
_symmetry_space_group_name_H-M "P -1"
_symmetry_group_IT_number 2
_symmetry_cell_setting 'triclinic'
loop_
_space_group_symop_operation_xyz
x,y,z
-x,-y,-z
loop_
_atom_site_type_symbol
_atom_site_label
_atom_site_fract_x
_atom_site_fract_y
_atom_site_fract_z
Si Si1 0.337959 0.402520 0.687797
Si Si2 0.808581 0.879654 0.496167
Si Si3 0.958605 0.142880 0.851712
Si Si4 0.602007 0.124857 0.305030
Si Si5 0.189082 0.634114 0.482416
Si Si6 0.398219 0.246905 0.919975
Si Si7 0.830884 0.850093 0.833901
O O1 0.305288 0.562013 0.594192
O O2 0.567159 0.333049 0.625515
O O3 0.406310 0.389276 0.801332
O O4 0.069719 0.291982 0.736147
O O5 0.577231 0.814032 0.612121
O O6 0.006830 0.764754 0.477848
O O7 0.664002 0.964219 0.394524
O O8 0.409555 0.123804 0.228280
O O9 0.687557 0.182700 0.916502
O O10 0.197230 0.132455 0.913328
O O11 0.913277 0.004787 0.830499
O O12 0.899967 0.196645 0.228839
O O13 0.000000 0.000000 0.500000
O O14 0.000000 0.500000 0.500000
O O15 0.277518 0.259319 0.034055
#
# Coordination Sequence:
#
# PCOD9001630 Si02
#       7
#     2   2   2   2   2   2   2
#     4   9  24  37  66  99 135 179 223 282 346 405
#     4  11  26  46  68  98 142 178 232 288 343 404
#     4  10  21  35  59  96 141 179 218 283 340 402
#     4  11  26  40  66  97 130 186 224 283 337 411
#     4  11  24  44  69 104 132 184 231 285 342 408
#     4  10  21  37  60  97 142 178 222 283 344 405
#     4  12  22  38  65  98 138 180 232 275 345 411
#
# _framework density 22.807065000000001
#
# number of rings (size 3 to 8) (size 9 to 14) (size 15 to 20)
#    0.857    0.571    1.429    3.429    6.000    3.429 
#    0.000    0.000    0.000    1.714    0.000    0.000 
#    0.000    0.000    0.000    0.000    0.000    0.000 
#
# Total GULP energy -78294.456176 kJ/mol
# GULP energy per Si atom -5592.461155 kJ/mol
# Density = 2.275515 g / cm^3
# Si number density = 22.807065 Si / 1000 Ang^3
#
#
#
# Elastic Constant Matrix: (Units=GPa)
#
#
# Indices 1 2 3 4 5 6 
#
# 1 139.8815 38.1330 61.6906 9.3038 -5.6868 -24.1168
# 2 38.1330 55.3675 15.8548 11.7990 3.2209 -6.7843
# 3 61.6906 15.8548 191.5750 12.3410 3.2215 -22.0561
# 4 9.3038 11.7990 12.3410 11.2331 -12.3541 -6.5224
# 5 -5.6868 3.2209 3.2215 -12.3541 52.2059 6.5607
# 6 -24.1168 -6.7843 -22.0561 -6.5224 6.5607 29.9476
#
#
#
# Elastic Compliance Matrix: (Units=1/GPa)
#
#
# Indices 1 2 3 4 5 6 
#
# 1 0.011391 -0.008726 -0.002951 0.010870 0.003707 0.006578
# 2 -0.008726 0.034401 0.002938 -0.051271 -0.014758 -0.005004
# 3 -0.002951 0.002938 0.006934 -0.011509 -0.003872 0.001737
# 4 0.010870 -0.051271 -0.011509 0.220428 0.054101 0.024818
# 5 0.003707 -0.014758 -0.003872 0.054101 0.033352 0.001266
# 6 0.006578 -0.005004 0.001737 0.024818 0.001266 0.043963
#
#
# Mechanical properties :
#
#
# Convention : Reuss Voigt Hill
#
# Bulk Modulus (GPa) = 28.37132 68.68675 48.52904
# Shear Modulus (GPa) = 13.16839 36.75370 24.96104
#
# Velocity S-wave (km/s) = 2.40548 4.01871 3.31183
# Velocity P-wave (km/s) = 4.49242 7.19133 5.99571
#
# Compressibility (1/GPa) = 0.03524686
#
# Stress axis : x y z
#
# Youngs Moduli (GPa) = 87.78720 29.06865 144.22483
#
# Poissons Ratio (x) = 0.25366 0.42563
# Poissons Ratio (y) = 0.76606 -0.42371
# Poissons Ratio (z) = 0.25908 -0.08540
#
# Static dielectric constant tensor:
#      x y z
#    x 2.064780 -0.049760 0.028740 
#    y -0.049760 1.829700 -0.043870 
#    z 0.028740 -0.043870 1.942860 
# 
# From -- ./inp_files/481505.got.cif
#   From: 2010.05.17/outbox.cif.g08.bks.cpg/sg2_241_cif.got.tgz:481505.got - 2010.06.03 11:33:40.
