data_PCOD9001090
_publ_section_title
;
Structure prediction by ZEFSAII (Michael W. Deem and Ramdas Pophale) SiO2 
 PCOD9001090
Probable space group: P -1
;
_chemical_formula_sum "Si O2"
_cell_formula_units_Z 16
_cell_length_a 10.530339
_cell_length_b 16.702917
_cell_length_c 9.243692
_cell_angle_alpha 81.960340
_cell_angle_beta 66.760006
_cell_angle_gamma 137.555599
_cell_volume 724.829883
_symmetry_space_group_name_H-M "P -1"
_symmetry_group_IT_number 2
_symmetry_cell_setting 'triclinic'
loop_
_space_group_symop_operation_xyz
x,y,z
-x,-y,-z
loop_
_atom_site_type_symbol
_atom_site_label
_atom_site_fract_x
_atom_site_fract_y
_atom_site_fract_z
Si Si1 0.956220 0.261723 0.997963
Si Si2 0.626705 0.756399 0.747199
Si Si3 0.938037 0.959860 0.288741
Si Si4 0.187709 0.988472 0.933258
Si Si5 0.274547 0.641290 0.440617
Si Si6 0.024158 0.584499 0.854529
Si Si7 0.298245 0.468789 0.527470
Si Si8 0.427308 0.445795 0.210415
O O1 0.029683 0.334110 0.788349
O O2 0.264156 0.399507 0.892814
O O3 0.792432 0.095332 0.090998
O O4 0.845343 0.272787 0.154810
O O5 0.802884 0.890767 0.756882
O O6 0.737410 0.722831 0.671920
O O7 0.673758 0.822707 0.553317
O O8 0.310234 0.576602 0.987009
O O9 0.921315 0.021553 0.160081
O O10 0.990099 0.906584 0.181269
O O11 0.478376 0.181643 0.788488
O O12 0.188640 0.643499 0.624445
O O13 0.384271 0.606905 0.440037
O O14 0.000000 0.500000 0.500000
O O15 0.000000 0.500000 0.000000
O O16 0.500000 0.500000 0.500000
O O17 0.255142 0.419619 0.393943
O O18 0.500000 0.500000 0.000000
#
# Coordination Sequence:
#
# PCOD9001090 Si02
#       8
#     2   2   2   2   2   2   2   2
#     4  10  22  40  63  94 125 174 223 273 329 393
#     4  10  21  39  61  96 128 171 220 277 329 394
#     4  10  22  37  64  95 132 165 219 281 343 381
#     4  11  24  39  66  94 135 171 221 281 341 392
#     4  12  27  44  68  99 135 182 223 276 337 410
#     4  11  22  42  68  89 132 184 227 260 331 418
#     4  10  23  41  67  96 131 175 230 271 332 401
#     4  10  21  33  63  94 128 162 219 282 327 375
#
# _framework density 22.074145999999999
#
# number of rings (size 3 to 8) (size 9 to 14) (size 15 to 20)
#    0.000    1.500    1.250    3.000   15.750    0.500 
#    0.000    0.625    2.750    0.000    0.000    0.000 
#    0.000    0.000    0.000    0.000    0.000    0.000 
#
# Total GULP energy -89268.554143 kJ/mol
# GULP energy per Si atom -5579.284634 kJ/mol
# Density = 2.202390 g / cm^3
# Si number density = 22.074146 Si / 1000 Ang^3
#
#
#
# Elastic Constant Matrix: (Units=GPa)
#
#
# Indices 1 2 3 4 5 6 
#
# 1 51.8807 53.9992 17.8520 -0.5457 1.7509 -14.9911
# 2 53.9992 133.9173 46.4819 21.7437 3.1256 -25.4781
# 3 17.8520 46.4819 83.2893 32.3638 7.0826 1.5939
# 4 -0.5457 21.7437 32.3638 45.0186 -5.2214 0.5268
# 5 1.7509 3.1256 7.0826 -5.2214 27.2887 2.7777
# 6 -14.9911 -25.4781 1.5939 0.5268 2.7777 45.4797
#
#
#
# Elastic Compliance Matrix: (Units=1/GPa)
#
#
# Indices 1 2 3 4 5 6 
#
# 1 0.036986 -0.014457 -0.004258 0.010680 0.002025 0.003994
# 2 -0.014457 0.016501 -0.003913 -0.005561 -0.001496 0.004771
# 3 -0.004258 -0.003913 0.021336 -0.014288 -0.007169 -0.003740
# 4 0.010680 -0.005561 -0.014288 0.036539 0.010669 -0.000169
# 5 0.002025 -0.001496 -0.007169 0.010669 0.040847 -0.002538
# 6 0.003994 0.004771 -0.003740 -0.000169 -0.002538 0.026265
#
#
# Mechanical properties :
#
#
# Convention : Reuss Voigt Hill
#
# Bulk Modulus (GPa) = 33.82258 56.19482 45.00870
# Shear Modulus (GPa) = 21.40541 33.60767 27.50654
#
# Velocity S-wave (km/s) = 3.11739 3.90614 3.53384
# Velocity P-wave (km/s) = 5.32100 6.77174 6.08972
#
# Compressibility (1/GPa) = 0.02956605
#
# Stress axis : x y z
#
# Youngs Moduli (GPa) = 27.03732 60.60327 46.86988
#
# Poissons Ratio (x) = 0.87616 0.19956
# Poissons Ratio (y) = 0.39089 0.18340
# Poissons Ratio (z) = 0.11512 0.23714
#
# Static dielectric constant tensor:
#      x y z
#    x 1.973020 -0.009000 -0.033650 
#    y -0.009000 1.812310 -0.009430 
#    z -0.033650 -0.009430 1.850900 
# 
# From -- ./inp_files/277810.got.cif
#   From: 2010.05.17/outbox.cif.g08.bks.cpg/sg2_139_cif.got.tgz:277810.got - 2010.06.03 11:33:40.
