data_PCOD9001792
_publ_section_title
;
Structure prediction by ZEFSAII (Michael W. Deem and Ramdas Pophale) SiO2 
 PCOD9001792
Probable space group: P -1
;
_chemical_formula_sum "Si O2"
_cell_formula_units_Z 16
_cell_length_a 18.706889
_cell_length_b 12.297411
_cell_length_c 25.197310
_cell_angle_alpha 156.735555
_cell_angle_beta 18.140477
_cell_angle_gamma 154.481033
_cell_volume 692.138609
_symmetry_space_group_name_H-M "P -1"
_symmetry_group_IT_number 2
_symmetry_cell_setting 'triclinic'
loop_
_space_group_symop_operation_xyz
x,y,z
-x,-y,-z
loop_
_atom_site_type_symbol
_atom_site_label
_atom_site_fract_x
_atom_site_fract_y
_atom_site_fract_z
Si Si1 0.473961 0.655671 0.422676
Si Si2 0.505323 0.708611 0.540522
Si Si3 0.052691 0.700082 0.343908
Si Si4 0.178882 0.738155 0.383095
Si Si5 0.428796 0.276924 0.733182
Si Si6 0.219942 0.967545 0.172132
Si Si7 0.781996 0.640627 0.731122
Si Si8 0.965357 0.587045 0.878187
O O1 0.566847 0.596304 0.389147
O O2 0.563885 0.591124 0.272007
O O3 0.194880 0.507471 0.555891
O O4 0.524878 0.996969 0.538595
O O5 0.500000 0.500000 0.500000
O O6 0.233912 0.724992 0.737136
O O7 0.665810 0.010933 0.578679
O O8 0.228993 0.757567 0.294425
O O9 0.140763 0.563311 0.168976
O O10 0.000000 0.000000 0.500000
O O11 0.230971 0.448449 0.238677
O O12 0.916352 0.805113 0.603778
O O13 0.571616 0.482192 0.769639
O O14 0.165241 0.197005 0.906210
O O15 0.078040 0.671695 0.164563
O O16 0.184793 0.035537 0.165334
O O17 0.500000 0.000000 0.000000
O O18 0.000000 0.500000 0.500000
#
# Coordination Sequence:
#
# PCOD9001792 Si02
#       8
#     2   2   2   2   2   2   2   2
#     4  10  23  41  69  90 124 173 221 260 320 404
#     4  11  21  41  64  91 131 173 208 263 328 392
#     4  11  22  40  64  98 125 174 217 260 321 405
#     4  11  21  41  66  93 131 176 216 259 335 389
#     4  11  22  43  67  93 124 171 225 268 320 383
#     4  11  20  36  64  97 126 165 215 272 319 380
#     4  10  21  35  63  95 127 165 211 268 327 376
#     4  11  24  39  70  96 128 169 222 270 319 384
#
# _framework density 23.116755999999999
#
# number of rings (size 3 to 8) (size 9 to 14) (size 15 to 20)
#    0.000    1.250    5.000    2.250    0.000    2.000 
#    0.000    1.250    8.250    0.000    0.000    0.000 
#    0.000    0.000    0.000    0.000    0.000    0.000 
#
# Total GULP energy -89189.839946 kJ/mol
# GULP energy per Si atom -5574.364997 kJ/mol
# Density = 2.306414 g / cm^3
# Si number density = 23.116756 Si / 1000 Ang^3
#
#
#
# Elastic Constant Matrix: (Units=GPa)
#
#
# Indices 1 2 3 4 5 6 
#
# 1 169.3252 27.9955 41.6740 8.1596 7.7860 -27.0392
# 2 27.9955 60.6073 5.6822 -8.5669 -1.8085 -10.7045
# 3 41.6740 5.6822 79.4586 -16.5981 9.3856 1.4289
# 4 8.1596 -8.5669 -16.5981 25.8006 -3.5819 -8.6576
# 5 7.7860 -1.8085 9.3856 -3.5819 29.0213 4.7743
# 6 -27.0392 -10.7045 1.4289 -8.6576 4.7743 44.8672
#
#
#
# Elastic Compliance Matrix: (Units=1/GPa)
#
#
# Indices 1 2 3 4 5 6 
#
# 1 0.008969 -0.004041 -0.005664 -0.006955 -0.002264 0.003521
# 2 -0.004041 0.020603 0.002745 0.011670 0.002195 0.004411
# 3 -0.005664 0.002745 0.018636 0.014228 -0.002525 -0.000338
# 4 -0.006955 0.011670 0.014228 0.057457 0.003629 0.008840
# 5 -0.002264 0.002195 -0.002525 0.003629 0.037126 -0.004011
# 6 0.003521 0.004411 -0.000338 0.008840 -0.004011 0.027605
#
#
# Mechanical properties :
#
#
# Convention : Reuss Voigt Hill
#
# Bulk Modulus (GPa) = 29.16414 51.12162 40.14288
# Shear Modulus (GPa) = 25.54342 35.54043 30.54193
#
# Velocity S-wave (km/s) = 3.32772 3.92526 3.63878
# Velocity P-wave (km/s) = 5.23530 6.53499 5.92092
#
# Compressibility (1/GPa) = 0.03428868
#
# Stress axis : x y z
#
# Youngs Moduli (GPa) = 111.49065 48.53661 53.66026
#
# Poissons Ratio (x) = 0.19613 0.30393
# Poissons Ratio (y) = 0.45053 -0.14731
# Poissons Ratio (z) = 0.63148 -0.13324
#
# Static dielectric constant tensor:
#      x y z
#    x 1.959700 -0.072260 0.018390 
#    y -0.072260 1.950600 -0.028120 
#    z 0.018390 -0.028120 1.932160 
# 
# From -- ./inp_files/467488.got.cif
#   From: 2010.05.17/outbox.cif.g08.bks.cpg/sg2_234_cif.got.tgz:467488.got - 2010.06.03 11:33:40.
