data_PCOD9001069
_publ_section_title
;
Structure prediction by ZEFSAII (Michael W. Deem and Ramdas Pophale) SiO2 
 PCOD9001069
Probable space group: P -1
;
_chemical_formula_sum "Si O2"
_cell_formula_units_Z 16
_cell_length_a 14.963528
_cell_length_b 15.089228
_cell_length_c 7.108587
_cell_angle_alpha 85.827490
_cell_angle_beta 111.745253
_cell_angle_gamma 150.608734
_cell_volume 611.767277
_symmetry_space_group_name_H-M "P -1"
_symmetry_group_IT_number 2
_symmetry_cell_setting 'triclinic'
loop_
_space_group_symop_operation_xyz
x,y,z
-x,-y,-z
loop_
_atom_site_type_symbol
_atom_site_label
_atom_site_fract_x
_atom_site_fract_y
_atom_site_fract_z
Si Si1 0.533176 0.987125 0.317083
Si Si2 0.389446 0.535894 0.835557
Si Si3 0.126505 0.133574 0.771839
Si Si4 0.410273 0.693777 0.414939
Si Si5 0.323017 0.433678 0.370772
Si Si6 0.063248 0.651085 0.951929
Si Si7 0.002714 0.688001 0.303159
Si Si8 0.128033 0.964152 0.170230
O O1 0.461385 0.823249 0.308867
O O2 0.500000 0.000000 0.500000
O O3 0.332949 0.871403 0.064943
O O4 0.810573 0.216976 0.458169
O O5 0.281058 0.355152 0.877578
O O6 0.306193 0.446212 0.572722
O O7 0.261159 0.517048 0.809104
O O8 0.669618 0.765277 0.039620
O O9 0.916516 0.977984 0.777369
O O10 0.000000 0.000000 0.500000
O O11 0.419224 0.606503 0.328062
O O12 0.148587 0.492558 0.318195
O O13 0.610290 0.847323 0.703736
O O14 0.500000 0.500000 0.500000
O O15 0.069644 0.208770 0.115433
O O16 0.000000 0.500000 0.000000
O O17 0.031359 0.682834 0.109718
O O18 0.093585 0.865811 0.332929
#
# Coordination Sequence:
#
# PCOD9001069 Si02
#       8
#     2   2   2   2   2   2   2   2
#     4   8  16  33  61  91 110 138 194 256 303 346
#     4  10  23  38  55  81 118 159 194 246 292 338
#     4  10  22  37  58  81 109 151 209 251 291 328
#     4  10  21  33  59  88 114 151 198 240 294 344
#     4  12  24  39  55  82 128 168 199 232 285 356
#     4   9  16  30  59  90 108 138 185 250 297 341
#     4   9  17  35  57  87 112 141 190 253 292 335
#     4  10  21  36  58  83 113 156 203 245 278 343
#
# _framework density 26.153738000000001
#
# number of rings (size 3 to 8) (size 9 to 14) (size 15 to 20)
#    0.000    2.250    2.500    0.000    3.500    1.500 
#    0.000    0.000    0.000    7.500    0.000    0.000 
#    0.000    0.000    0.000    0.000    0.000    0.000 
#
# Total GULP energy -89154.000137 kJ/mol
# GULP energy per Si atom -5572.125009 kJ/mol
# Density = 2.609421 g / cm^3
# Si number density = 26.153738 Si / 1000 Ang^3
#
#
#
# Elastic Constant Matrix: (Units=GPa)
#
#
# Indices 1 2 3 4 5 6 
#
# 1 166.8473 22.6497 81.6000 20.0264 57.6346 17.1355
# 2 22.6497 26.3731 8.1322 15.8530 8.9599 0.2094
# 3 81.6000 8.1322 234.4266 28.9078 71.0545 29.6138
# 4 20.0264 15.8530 28.9078 37.9428 9.9971 7.0191
# 5 57.6346 8.9599 71.0545 9.9971 63.7734 15.0304
# 6 17.1355 0.2094 29.6138 7.0191 15.0304 46.0379
#
#
#
# Elastic Compliance Matrix: (Units=1/GPa)
#
#
# Indices 1 2 3 4 5 6 
#
# 1 0.009625 -0.005700 -0.001083 -0.000022 -0.006516 -0.000729
# 2 -0.005700 0.057142 0.003615 -0.023317 -0.004310 0.004498
# 3 -0.001083 0.003615 0.007235 -0.004457 -0.006551 -0.001449
# 4 -0.000022 -0.023317 -0.004457 0.039452 0.003026 -0.004021
# 5 -0.006516 -0.004310 -0.006551 0.003026 0.029834 -0.003543
# 6 -0.000729 0.004498 -0.001449 -0.004021 -0.003543 0.024674
#
#
# Mechanical properties :
#
#
# Convention : Reuss Voigt Hill
#
# Bulk Modulus (GPa) = 14.77789 72.49009 43.63399
# Shear Modulus (GPa) = 25.39951 50.56850 37.98401
#
# Velocity S-wave (km/s) = 3.11973 4.40194 3.81509
# Velocity P-wave (km/s) = 4.31736 7.32210 6.01052
#
# Compressibility (1/GPa) = 0.06766867
#
# Stress axis : x y z
#
# Youngs Moduli (GPa) = 103.89341 17.50017 138.20899
#
# Poissons Ratio (x) = 0.09974 0.14965
# Poissons Ratio (y) = 0.59215 -0.49965
# Poissons Ratio (z) = 0.11249 -0.06327
#
# Static dielectric constant tensor:
#      x y z
#    x 2.142360 -0.038860 0.065140 
#    y -0.038860 2.342920 0.064590 
#    z 0.065140 0.064590 2.130050 
# 
# From -- ./inp_files/313430.got.cif
#   From: 2010.05.17/outbox.cif.g08.bks.cpg/sg2_157_cif.got.tgz:313430.got - 2010.06.03 11:33:40.
