data_PCOD9001800
_publ_section_title
;
Structure prediction by ZEFSAII (Michael W. Deem and Ramdas Pophale) SiO2 
 PCOD9001800
Probable space group: P -1
;
_chemical_formula_sum "Si O2"
_cell_formula_units_Z 16
_cell_length_a 12.565447
_cell_length_b 9.434339
_cell_length_c 11.255546
_cell_angle_alpha 136.023075
_cell_angle_beta 53.983959
_cell_angle_gamma 117.139598
_cell_volume 748.106955
_symmetry_space_group_name_H-M "P -1"
_symmetry_group_IT_number 2
_symmetry_cell_setting 'triclinic'
loop_
_space_group_symop_operation_xyz
x,y,z
-x,-y,-z
loop_
_atom_site_type_symbol
_atom_site_label
_atom_site_fract_x
_atom_site_fract_y
_atom_site_fract_z
Si Si1 0.717609 0.173794 0.627258
Si Si2 0.615146 0.858628 0.887149
Si Si3 0.111597 0.086792 0.811661
Si Si4 0.685181 0.378645 0.237853
Si Si5 0.761999 0.485905 0.004095
Si Si6 0.389680 0.199937 0.389798
Si Si7 0.817068 0.051625 0.060888
Si Si8 0.517096 0.438410 0.815150
O O1 0.630790 0.281263 0.649016
O O2 0.825665 0.040640 0.412736
O O3 0.618127 0.011847 0.663366
O O4 0.767975 0.344748 0.795965
O O5 0.690703 0.830597 0.698171
O O6 0.557314 0.638179 0.833397
O O7 0.500000 0.000000 0.000000
O O8 0.703983 0.944360 0.987558
O O9 0.126078 0.334420 0.941742
O O10 0.181329 0.028195 0.854727
O O11 0.958527 0.021000 0.892165
O O12 0.736950 0.338942 0.046425
O O13 0.538780 0.287169 0.315042
O O14 0.676958 0.620333 0.391051
O O15 0.783160 0.287818 0.213431
O O16 0.631086 0.618401 0.161078
O O17 0.500000 0.500000 0.000000
#
# Coordination Sequence:
#
# PCOD9001800 Si02
#       8
#     2   2   2   2   2   2   2   2
#     4  11  24  42  69  99 136 180 226 280 338 399
#     4  12  21  42  70  99 135 170 230 282 336 397
#     4  11  27  48  64  99 140 179 234 261 335 419
#     4  11  23  41  66  98 139 172 223 281 344 397
#     4  11  22  44  66 100 136 175 220 284 336 401
#     4  11  23  39  66 106 133 171 226 284 343 406
#     4  11  25  46  69  92 136 189 213 283 336 399
#     4  10  21  35  64 104 130 172 218 277 343 388
#
# _framework density 21.387315000000001
#
# number of rings (size 3 to 8) (size 9 to 14) (size 15 to 20)
#    0.000    1.000    3.750    3.750    3.500    1.000 
#    2.250    3.125    0.000    0.000    0.000    0.000 
#    0.000    0.000    0.000    0.000    0.000    0.000 
#
# Total GULP energy -89241.060934 kJ/mol
# GULP energy per Si atom -5577.566308 kJ/mol
# Density = 2.133864 g / cm^3
# Si number density = 21.387315 Si / 1000 Ang^3
#
#
#
# Elastic Constant Matrix: (Units=GPa)
#
#
# Indices 1 2 3 4 5 6 
#
# 1 56.0542 20.9847 21.3792 -2.1860 4.8908 -9.0749
# 2 20.9847 117.6083 31.6722 2.6571 -6.4036 -14.0839
# 3 21.3792 31.6722 107.9216 2.9172 11.3334 6.7966
# 4 -2.1860 2.6571 2.9172 30.6002 -4.4489 2.3924
# 5 4.8908 -6.4036 11.3334 -4.4489 19.4204 2.3735
# 6 -9.0749 -14.0839 6.7966 2.3924 2.3735 31.6479
#
#
#
# Elastic Compliance Matrix: (Units=1/GPa)
#
#
# Indices 1 2 3 4 5 6 
#
# 1 0.021514 -0.002458 -0.003451 0.000911 -0.004752 0.006104
# 2 -0.002458 0.010732 -0.003522 -0.000304 0.005602 0.004430
# 3 -0.003451 -0.003522 0.012069 -0.001788 -0.007198 -0.004474
# 4 0.000911 -0.000304 -0.001788 0.034458 0.008946 -0.002766
# 5 -0.004752 0.005602 -0.007198 0.008946 0.061102 -0.002583
# 6 0.006104 0.004430 -0.004474 -0.002766 -0.002583 0.036683
#
#
# Mechanical properties :
#
#
# Convention : Reuss Voigt Hill
#
# Bulk Modulus (GPa) = 39.28491 47.73959 43.51225
# Shear Modulus (GPa) = 24.52122 30.17025 27.34573
#
# Velocity S-wave (km/s) = 3.38972 3.75995 3.57963
# Velocity P-wave (km/s) = 5.80762 6.42025 6.12160
#
# Compressibility (1/GPa) = 0.02545507
#
# Stress axis : x y z
#
# Youngs Moduli (GPa) = 46.48032 93.17727 82.85602
#
# Poissons Ratio (x) = 0.22902 0.28591
# Poissons Ratio (y) = 0.11424 0.29180
# Poissons Ratio (z) = 0.16039 0.32815
#
# Static dielectric constant tensor:
#      x y z
#    x 1.794840 0.001200 0.046380 
#    y 0.001200 1.811750 0.040780 
#    z 0.046380 0.040780 1.902000 
# 
# From -- ./inp_files/418380.got.cif
#   From: 2010.05.17/outbox.cif.g08.bks.cpg/sg2_210_cif.got.tgz:418380.got - 2010.06.03 11:33:40.
