data_PCOD9001832
_publ_section_title
;
Structure prediction by ZEFSAII (Michael W. Deem and Ramdas Pophale) SiO2 
 PCOD9001832
Probable space group: P -1
;
_chemical_formula_sum "Si O2"
_cell_formula_units_Z 16
_cell_length_a 8.208226
_cell_length_b 11.433152
_cell_length_c 19.056171
_cell_angle_alpha 47.833404
_cell_angle_beta 146.090865
_cell_angle_gamma 119.674413
_cell_volume 731.101266
_symmetry_space_group_name_H-M "P -1"
_symmetry_group_IT_number 2
_symmetry_cell_setting 'triclinic'
loop_
_space_group_symop_operation_xyz
x,y,z
-x,-y,-z
loop_
_atom_site_type_symbol
_atom_site_label
_atom_site_fract_x
_atom_site_fract_y
_atom_site_fract_z
Si Si1 0.255234 0.132240 0.822660
Si Si2 0.056402 0.834342 0.164443
Si Si3 0.165115 0.973884 0.403465
Si Si4 0.826469 0.811514 0.944685
Si Si5 0.817034 0.354741 0.372440
Si Si6 0.562177 0.575712 0.417469
Si Si7 0.381090 0.591291 0.197946
Si Si8 0.857671 0.154186 0.342473
O O1 0.426984 0.261826 0.794755
O O2 0.053024 0.216045 0.779597
O O3 0.040129 0.053656 0.725281
O O4 0.500000 0.000000 0.000000
O O5 0.385143 0.755181 0.292122
O O6 0.046395 0.023532 0.088020
O O7 0.852651 0.786967 0.047906
O O8 0.186052 0.811257 0.521457
O O9 0.500000 0.000000 0.500000
O O10 0.003951 0.121891 0.332138
O O11 0.492611 0.837709 0.790852
O O12 0.041630 0.670929 0.040226
O O13 0.516475 0.469838 0.235656
O O14 0.895150 0.310293 0.337526
O O15 0.093963 0.428650 0.470382
O O16 0.500000 0.500000 0.500000
O O17 0.432603 0.511949 0.325564
O O18 0.000000 0.000000 0.500000
#
# Coordination Sequence:
#
# PCOD9001832 Si02
#       8
#     2   2   2   2   2   2   2   2
#     4  12  23  39  68 102 137 174 231 289 338 408
#     4  10  21  35  65  93 128 173 223 278 340 382
#     4  11  26  42  67 101 140 176 226 287 342 415
#     4  10  21  41  63  95 134 173 227 279 332 404
#     4  11  24  42  67  95 140 176 226 278 341 412
#     4  11  23  39  66  96 134 174 224 284 337 395
#     4  11  24  42  64 103 134 177 228 287 339 393
#     4  10  23  41  63  91 130 178 223 268 341 406
#
# _framework density 21.884792999999998
#
# number of rings (size 3 to 8) (size 9 to 14) (size 15 to 20)
#    0.000    1.250    2.500    3.375    8.750    0.500 
#    0.000    0.000    0.000    8.250    0.000    0.000 
#    0.000    0.000    0.000    0.000    0.000    0.000 
#
# Total GULP energy -89389.659511 kJ/mol
# GULP energy per Si atom -5586.853719 kJ/mol
# Density = 2.183498 g / cm^3
# Si number density = 21.884793 Si / 1000 Ang^3
#
#
#
# Elastic Constant Matrix: (Units=GPa)
#
#
# Indices 1 2 3 4 5 6 
#
# 1 110.4038 18.8643 45.7436 -0.6742 15.4753 -14.4435
# 2 18.8643 42.3951 41.2547 -2.5389 5.4263 -16.2545
# 3 45.7436 41.2547 126.2351 12.9313 26.6616 -21.4621
# 4 -0.6742 -2.5389 12.9313 29.9283 -1.9784 10.1520
# 5 15.4753 5.4263 26.6616 -1.9784 43.4363 -10.9173
# 6 -14.4435 -16.2545 -21.4621 10.1520 -10.9173 38.6945
#
#
#
# Elastic Compliance Matrix: (Units=1/GPa)
#
#
# Indices 1 2 3 4 5 6 
#
# 1 0.010934 -0.001020 -0.003234 0.001064 -0.001439 0.001174
# 2 -0.001020 0.039795 -0.012968 0.006233 0.005944 0.009185
# 3 -0.003234 -0.012968 0.016289 -0.009674 -0.006921 0.002965
# 4 0.001064 0.006233 -0.009674 0.042631 0.003574 -0.012527
# 5 -0.001439 0.005944 -0.006921 0.003574 0.028518 0.005229
# 6 0.001174 0.009185 0.002965 -0.012527 0.005229 0.036547
#
#
# Mechanical properties :
#
#
# Convention : Reuss Voigt Hill
#
# Bulk Modulus (GPa) = 30.70057 54.52879 42.61468
# Shear Modulus (GPa) = 22.72573 33.95659 28.34116
#
# Velocity S-wave (km/s) = 3.22596 3.94332 3.60254
# Velocity P-wave (km/s) = 5.28531 6.76043 6.06786
#
# Compressibility (1/GPa) = 0.03257268
#
# Stress axis : x y z
#
# Youngs Moduli (GPa) = 91.45991 25.12900 61.39236
#
# Poissons Ratio (x) = 0.02563 0.19855
# Poissons Ratio (y) = 0.09330 0.79614
# Poissons Ratio (z) = 0.29579 0.32587
#
# Static dielectric constant tensor:
#      x y z
#    x 1.826830 -0.043090 -0.017200 
#    y -0.043090 1.859440 -0.020640 
#    z -0.017200 -0.020640 1.843770 
# 
# From -- ./inp_files/589031.got.cif
#   From: 2010.05.17/outbox.cif.g08.bks.cpg/sg2_295_cif.got.tgz:589031.got - 2010.06.03 11:33:40.
