data_PCOD9001418
_publ_section_title
;
Structure prediction by ZEFSAII (Michael W. Deem and Ramdas Pophale) SiO2 
 PCOD9001418
Probable space group: P -1
;
_chemical_formula_sum "Si O2"
_cell_formula_units_Z 16
_cell_length_a 5.165217
_cell_length_b 15.451679
_cell_length_c 11.428090
_cell_angle_alpha 112.882588
_cell_angle_beta 76.346527
_cell_angle_gamma 96.920862
_cell_volume 816.145894
_symmetry_space_group_name_H-M "P -1"
_symmetry_group_IT_number 2
_symmetry_cell_setting 'triclinic'
loop_
_space_group_symop_operation_xyz
x,y,z
-x,-y,-z
loop_
_atom_site_type_symbol
_atom_site_label
_atom_site_fract_x
_atom_site_fract_y
_atom_site_fract_z
Si Si1 0.855400 0.475211 0.850592
Si Si2 0.255525 0.540821 0.422448
Si Si3 0.791668 0.283740 0.335870
Si Si4 0.706548 0.831724 0.771374
Si Si5 0.510062 0.650127 0.021211
Si Si6 0.312098 0.580179 0.770567
Si Si7 0.964869 0.027670 0.880348
Si Si8 0.542152 0.855435 0.070041
O O1 0.787778 0.458756 0.712772
O O2 0.731819 0.392201 0.897300
O O3 0.167982 0.497784 0.817678
O O4 0.738816 0.572893 0.964395
O O5 0.313016 0.645640 0.517749
O O6 0.490456 0.467409 0.365034
O O7 0.000000 0.500000 0.500000
O O8 0.569213 0.205673 0.277950
O O9 0.860846 0.351091 0.252217
O O10 0.064305 0.239449 0.321620
O O11 0.665949 0.834840 0.917730
O O12 0.833736 0.935031 0.784751
O O13 0.553071 0.760218 0.094327
O O14 0.445540 0.644482 0.887641
O O15 0.263494 0.067708 0.845849
O O16 0.748876 0.106353 0.913222
O O17 0.000000 0.000000 0.000000
#
# Coordination Sequence:
#
# PCOD9001418 Si02
#       8
#     2   2   2   2   2   2   2   2
#     4  10  22  39  55  80 123 154 206 235 284 331
#     4  11  23  37  53  82 116 160 196 242 284 332
#     4  12  22  33  58  83 115 154 193 228 286 352
#     4  11  21  35  54  86 114 148 188 236 296 353
#     4  10  22  36  57  86 113 162 195 241 281 350
#     4  11  21  35  56  80 119 154 195 235 287 340
#     4  10  21  35  55  82 118 149 179 242 299 357
#     4  11  20  35  57  83 117 151 188 230 300 354
#
# _framework density 19.604339
#
# number of rings (size 3 to 8) (size 9 to 14) (size 15 to 20)
#    0.000    1.250    2.500    6.000    3.500    0.000 
#    0.000    0.000    0.000    0.000    0.000    5.250 
#    0.000    0.000    0.000    0.000    0.000    0.000 
#
# Total GULP energy -89162.623996 kJ/mol
# GULP energy per Si atom -5572.664000 kJ/mol
# Density = 1.955972 g / cm^3
# Si number density = 19.604339 Si / 1000 Ang^3
#
#
#
# Elastic Constant Matrix: (Units=GPa)
#
#
# Indices 1 2 3 4 5 6 
#
# 1 70.4980 15.4153 10.5180 -2.8923 -7.3209 13.1660
# 2 15.4153 76.8123 12.7415 2.5902 -5.1741 4.9953
# 3 10.5180 12.7415 54.2589 -0.2055 -0.3440 3.3818
# 4 -2.8923 2.5902 -0.2055 18.8576 4.5828 0.5374
# 5 -7.3209 -5.1741 -0.3440 4.5828 29.3684 4.7922
# 6 13.1660 4.9953 3.3818 0.5374 4.7922 28.9667
#
#
#
# Elastic Compliance Matrix: (Units=1/GPa)
#
#
# Indices 1 2 3 4 5 6 
#
# 1 0.017083 -0.002281 -0.002243 0.001964 0.004820 -0.007943
# 2 -0.002281 0.014317 -0.002822 -0.002942 0.002621 -0.001482
# 3 -0.002243 -0.002822 0.019565 0.000468 -0.000793 -0.000656
# 4 0.001964 -0.002942 0.000468 0.055863 -0.008735 -0.000031
# 5 0.004820 0.002621 -0.000793 -0.008735 0.038496 -0.008757
# 6 -0.007943 -0.001482 -0.000656 -0.000031 -0.008757 0.039914
#
#
# Mechanical properties :
#
#
# Convention : Reuss Voigt Hill
#
# Bulk Modulus (GPa) = 27.56880 30.99098 29.27989
# Shear Modulus (GPa) = 23.58256 26.29817 24.94036
#
# Velocity S-wave (km/s) = 3.47208 3.66655 3.57064
# Velocity P-wave (km/s) = 5.49245 5.81097 5.65395
#
# Compressibility (1/GPa) = 0.03627288
#
# Stress axis : x y z
#
# Youngs Moduli (GPa) = 58.53861 69.84794 51.11119
#
# Poissons Ratio (x) = 0.15934 0.11463
# Poissons Ratio (y) = 0.13354 0.14423
# Poissons Ratio (z) = 0.13128 0.19711
#
# Static dielectric constant tensor:
#      x y z
#    x 1.819580 0.013230 0.025160 
#    y 0.013230 1.722650 0.023720 
#    z 0.025160 0.023720 1.677830 
# 
# From -- ./inp_files/93354.got.cif
#   From: 2010.05.17/outbox.cif.g08.bks.cpg/sg2_47_cif.got.tgz:93354.got - 2010.06.03 11:33:40.
