data_PCOD9001733
_publ_section_title
;
Structure prediction by ZEFSAII (Michael W. Deem and Ramdas Pophale) SiO2 
 PCOD9001733
Probable space group: P -1
;
_chemical_formula_sum "Si O2"
_cell_formula_units_Z 16
_cell_length_a 23.841011
_cell_length_b 8.042897
_cell_length_c 6.350068
_cell_angle_alpha 121.132273
_cell_angle_beta 40.251672
_cell_angle_gamma 116.784064
_cell_volume 669.988713
_symmetry_space_group_name_H-M "P -1"
_symmetry_group_IT_number 2
_symmetry_cell_setting 'triclinic'
loop_
_space_group_symop_operation_xyz
x,y,z
-x,-y,-z
loop_
_atom_site_type_symbol
_atom_site_label
_atom_site_fract_x
_atom_site_fract_y
_atom_site_fract_z
Si Si1 0.251286 0.652041 0.116342
Si Si2 0.880128 0.149638 0.893605
Si Si3 0.946654 0.925100 0.902258
Si Si4 0.658765 0.634087 0.629088
Si Si5 0.716572 0.964769 0.999814
Si Si6 0.896519 0.501924 0.809391
Si Si7 0.610003 0.384947 0.985500
Si Si8 0.571597 0.785060 0.594362
O O1 0.284999 0.473615 0.769379
O O2 0.283223 0.849064 0.030077
O O3 0.297079 0.662514 0.218901
O O4 0.148681 0.599116 0.334285
O O5 0.862440 0.367063 0.015998
O O6 0.975748 0.128510 0.509250
O O7 0.890098 0.080253 0.057281
O O8 0.806315 0.001925 0.897542
O O9 0.885850 0.729260 0.000270
O O10 0.000000 0.000000 0.000000
O O11 0.598986 0.762390 0.743699
O O12 0.610996 0.459503 0.792257
O O13 0.708477 0.774988 0.750983
O O14 0.635999 0.937041 0.376781
O O15 0.000000 0.500000 0.500000
O O16 0.588241 0.574583 0.305649
O O17 0.532282 0.213538 0.130526
#
# Coordination Sequence:
#
# PCOD9001733 Si02
#       8
#     2   2   2   2   2   2   2   2
#     4  10  22  39  60  88 120 155 204 245 300 363
#     4   9  21  39  54  85 119 149 195 245 294 355
#     4  10  21  35  62  85 111 154 196 240 298 360
#     4  10  21  36  61  87 113 163 199 244 301 360
#     4  10  22  38  59  86 123 157 195 253 299 352
#     4   9  20  40  59  83 123 155 189 252 299 348
#     4   9  19  37  59  88 118 157 202 249 296 355
#     4   9  19  36  59  86 122 158 197 249 300 353
#
# _framework density 23.881003
#
# number of rings (size 3 to 8) (size 9 to 14) (size 15 to 20)
#    0.000    2.500    0.000    0.375    7.000    3.000 
#    0.000    7.500    0.000    0.000    0.000    0.000 
#    0.000    0.000    0.000    0.000    0.000    0.000 
#
# Total GULP energy -89357.601708 kJ/mol
# GULP energy per Si atom -5584.850107 kJ/mol
# Density = 2.382665 g / cm^3
# Si number density = 23.881003 Si / 1000 Ang^3
#
#
#
# Elastic Constant Matrix: (Units=GPa)
#
#
# Indices 1 2 3 4 5 6 
#
# 1 99.2671 23.5904 25.8898 -17.7025 5.9306 -6.6216
# 2 23.5904 115.6823 18.6696 -20.2189 4.0910 4.4113
# 3 25.8898 18.6696 55.9575 -11.2429 -3.8649 8.2384
# 4 -17.7025 -20.2189 -11.2429 30.7009 7.4002 -5.9712
# 5 5.9306 4.0910 -3.8649 7.4002 30.9951 -10.1481
# 6 -6.6216 4.4113 8.2384 -5.9712 -10.1481 32.8399
#
#
#
# Elastic Compliance Matrix: (Units=1/GPa)
#
#
# Indices 1 2 3 4 5 6 
#
# 1 0.013389 -0.000686 -0.005449 0.006938 -0.003374 0.004378
# 2 -0.000686 0.010357 -0.001962 0.006323 -0.003286 -0.000903
# 3 -0.005449 -0.001962 0.022438 0.002290 0.001750 -0.005507
# 4 0.006938 0.006323 0.002290 0.045178 -0.011105 0.004758
# 5 -0.003374 -0.003286 0.001750 -0.011105 0.039306 0.009449
# 6 0.004378 -0.000903 -0.005507 0.004758 0.009449 0.036621
#
#
# Mechanical properties :
#
#
# Convention : Reuss Voigt Hill
#
# Bulk Modulus (GPa) = 33.34465 45.24516 39.29491
# Shear Modulus (GPa) = 25.84263 32.42433 29.13348
#
# Velocity S-wave (km/s) = 3.29316 3.68876 3.49656
# Velocity P-wave (km/s) = 5.33414 6.09342 5.72638
#
# Compressibility (1/GPa) = 0.02998982
#
# Stress axis : x y z
#
# Youngs Moduli (GPa) = 74.68889 96.55687 44.56685
#
# Poissons Ratio (x) = 0.06623 0.24286
# Poissons Ratio (y) = 0.05123 0.08742
# Poissons Ratio (z) = 0.40701 0.18940
#
# Static dielectric constant tensor:
#      x y z
#    x 1.961760 -0.050890 -0.018770 
#    y -0.050890 1.934310 0.017830 
#    z -0.018770 0.017830 1.992460 
# 
# From -- ./inp_files/52963.got.cif
#   From: 2010.05.17/outbox.cif.g08.bks.cpg/sg2_27_cif.got.tgz:52963.got - 2010.06.03 11:33:40.
