data_PCOD9001032
_publ_section_title
;
Structure prediction by ZEFSAII (Michael W. Deem and Ramdas Pophale) SiO2 
 PCOD9001032
Probable space group: P -1
;
_chemical_formula_sum "Si O2"
_cell_formula_units_Z 16
_cell_length_a 11.321448
_cell_length_b 10.945702
_cell_length_c 12.210954
_cell_angle_alpha 121.123670
_cell_angle_beta 143.819466
_cell_angle_gamma 67.449657
_cell_volume 762.997956
_symmetry_space_group_name_H-M "P -1"
_symmetry_group_IT_number 2
_symmetry_cell_setting 'triclinic'
loop_
_space_group_symop_operation_xyz
x,y,z
-x,-y,-z
loop_
_atom_site_type_symbol
_atom_site_label
_atom_site_fract_x
_atom_site_fract_y
_atom_site_fract_z
Si Si1 0.573812 0.859022 0.810224
Si Si2 0.719603 0.757658 0.448384
Si Si3 0.573518 0.243698 0.574209
Si Si4 0.467202 0.841027 0.100338
Si Si5 0.552155 0.458138 0.142922
Si Si6 0.622530 0.558405 0.774634
Si Si7 0.965538 0.734522 0.009961
Si Si8 0.953771 0.144516 0.096419
O O1 0.505428 0.851627 0.629197
O O2 0.506773 0.702881 0.736537
O O3 0.816115 0.855562 0.991737
O O4 0.503232 0.007596 0.868676
O O5 0.546080 0.793822 0.421979
O O6 0.654701 0.810096 0.304623
O O7 0.715100 0.583665 0.360028
O O8 0.917481 0.827620 0.684782
O O9 0.531185 0.408524 0.590875
O O10 0.810662 0.240291 0.767171
O O11 0.410488 0.707721 0.917181
O O12 0.276746 0.850694 0.042339
O O13 0.375859 0.466790 0.104952
O O14 0.500000 0.500000 0.000000
O O15 0.836889 0.597818 0.898497
O O16 0.979858 0.736019 0.889902
O O17 0.000000 0.000000 0.000000
#
# Coordination Sequence:
#
# PCOD9001032 Si02
#       8
#     2   2   2   2   2   2   2   2
#     4  10  22  33  55  89 110 149 185 229 284 338
#     4  10  21  35  59  83 114 152 189 234 273 331
#     4  11  18  35  58  82 117 148 180 228 295 332
#     4  11  22  37  58  80 117 158 187 230 279 324
#     4   9  21  41  61  80 106 155 197 229 274 330
#     4   9  20  38  56  82 114 145 188 236 271 337
#     4  10  21  33  54  90 113 146 180 227 293 333
#     4  12  21  35  56  91 121 141 184 234 283 345
#
# _framework density 20.969912999999998
#
# number of rings (size 3 to 8) (size 9 to 14) (size 15 to 20)
#    0.750    1.000    3.750    0.750    1.750    2.000 
#    0.000    0.000    5.500    0.750    0.000    0.000 
#    0.000    0.000    0.000    0.000    0.000    0.000 
#
# Total GULP energy -89122.147303 kJ/mol
# GULP energy per Si atom -5570.134206 kJ/mol
# Density = 2.092218 g / cm^3
# Si number density = 20.969913 Si / 1000 Ang^3
#
#
#
# Elastic Constant Matrix: (Units=GPa)
#
#
# Indices 1 2 3 4 5 6 
#
# 1 48.6060 -11.4287 5.0841 0.5576 -8.1500 13.7881
# 2 -11.4287 86.1981 34.4006 14.8878 -1.7572 -3.5260
# 3 5.0841 34.4006 103.1890 9.8739 -1.0179 -4.9108
# 4 0.5576 14.8878 9.8739 30.6032 -5.0267 -5.2369
# 5 -8.1500 -1.7572 -1.0179 -5.0267 24.9321 2.4317
# 6 13.7881 -3.5260 -4.9108 -5.2369 2.4317 20.2652
#
#
#
# Elastic Compliance Matrix: (Units=1/GPa)
#
#
# Indices 1 2 3 4 5 6 
#
# 1 0.031085 0.005729 -0.004053 -0.004140 0.011870 -0.023629
# 2 0.005729 0.015304 -0.004961 -0.006377 0.001884 -0.004312
# 3 -0.004053 -0.004961 0.011831 -0.000813 -0.001821 0.004770
# 4 -0.004140 -0.006377 -0.000813 0.038798 0.004919 0.010946
# 5 0.011870 0.001884 -0.001821 0.004919 0.046255 -0.012469
# 6 -0.023629 -0.004312 0.004770 0.010946 -0.012469 0.070153
#
#
# Mechanical properties :
#
#
# Convention : Reuss Voigt Hill
#
# Bulk Modulus (GPa) = 19.36018 32.67832 26.01925
# Shear Modulus (GPa) = 21.07816 29.15590 25.11703
#
# Velocity S-wave (km/s) = 3.17387 3.73281 3.46463
# Velocity P-wave (km/s) = 4.76274 5.84771 5.33289
#
# Compressibility (1/GPa) = 0.05165242
#
# Stress axis : x y z
#
# Youngs Moduli (GPa) = 32.16944 65.34207 84.52207
#
# Poissons Ratio (x) = -0.37437 0.34256
# Poissons Ratio (y) = -0.18431 0.41928
# Poissons Ratio (z) = 0.13038 0.32414
#
# Static dielectric constant tensor:
#      x y z
#    x 1.753040 0.039410 -0.008510 
#    y 0.039410 1.889330 0.020530 
#    z -0.008510 0.020530 1.740210 
# 
# From -- ./inp_files/426764.got.cif
#   From: 2010.05.17/outbox.cif.g08.bks.cpg/sg2_214_cif.got.tgz:426764.got - 2010.06.03 11:33:40.
