data_PCOD9001166
_publ_section_title
;
Structure prediction by ZEFSAII (Michael W. Deem and Ramdas Pophale) SiO2 
 PCOD9001166
Probable space group: P -1
;
_chemical_formula_sum "Si O2"
_cell_formula_units_Z 14
_cell_length_a 8.101777
_cell_length_b 10.221068
_cell_length_c 6.486399
_cell_angle_alpha 72.587491
_cell_angle_beta 84.099183
_cell_angle_gamma 84.172509
_cell_volume 508.382223
_symmetry_space_group_name_H-M "P -1"
_symmetry_group_IT_number 2
_symmetry_cell_setting 'triclinic'
loop_
_space_group_symop_operation_xyz
x,y,z
-x,-y,-z
loop_
_atom_site_type_symbol
_atom_site_label
_atom_site_fract_x
_atom_site_fract_y
_atom_site_fract_z
Si Si1 0.606417 0.424086 0.202561
Si Si2 0.726874 0.632678 0.579749
Si Si3 0.313559 0.955957 0.252326
Si Si4 0.046612 0.543090 0.738073
Si Si5 0.105905 0.195704 0.242826
Si Si6 0.677718 0.898779 0.231278
Si Si7 0.192265 0.817290 0.960426
O O1 0.463044 0.396550 0.394803
O O2 0.755804 0.495243 0.267550
O O3 0.500000 0.500000 0.000000
O O4 0.696905 0.295304 0.128071
O O5 0.879017 0.513757 0.641154
O O6 0.759861 0.754505 0.360964
O O7 0.743349 0.711139 0.764574
O O8 0.491564 0.913340 0.343100
O O9 0.249200 0.833682 0.181074
O O10 0.169687 0.040463 0.355133
O O11 0.346599 0.078687 0.022175
O O12 0.027944 0.711101 0.645841
O O13 0.000000 0.500000 0.000000
O O14 0.002928 0.198577 0.041690
O O15 0.774531 0.032335 0.202340
#
# Coordination Sequence:
#
# PCOD9001166 Si02
#       7
#     2   2   2   2   2   2   2
#     4  11  19  34  57  81 103 144 176 220 269 311
#     4  10  21  34  55  84 108 137 179 229 262 308
#     4   9  18  35  51  75 108 151 170 214 271 325
#     4   9  19  35  52  84 105 134 182 223 261 317
#     4   9  18  31  54  79 103 142 179 218 266 311
#     4   9  20  34  51  79 113 138 180 218 267 320
#     4   9  19  32  52  81 106 141 179 216 265 325
#
# _framework density 27.538336000000001
#
# number of rings (size 3 to 8) (size 9 to 14) (size 15 to 20)
#    1.714    0.857    1.429    1.286    0.000    2.857 
#    2.571    0.000    0.000    1.714    0.000    0.000 
#    0.000    0.000    0.000    0.000    0.000    0.000 
#
# Total GULP energy -77947.918771 kJ/mol
# GULP energy per Si atom -5567.708484 kJ/mol
# Density = 2.747566 g / cm^3
# Si number density = 27.538336 Si / 1000 Ang^3
#
#
#
# Elastic Constant Matrix: (Units=GPa)
#
#
# Indices 1 2 3 4 5 6 
#
# 1 192.6011 32.3520 48.2940 -5.3582 17.4718 7.1239
# 2 32.3520 114.7246 8.4563 3.4692 1.7309 -5.1981
# 3 48.2940 8.4563 103.8035 -27.5785 15.2763 3.2951
# 4 -5.3582 3.4692 -27.5785 28.0411 0.2387 10.6002
# 5 17.4718 1.7309 15.2763 0.2387 37.5695 9.1893
# 6 7.1239 -5.1981 3.2951 10.6002 9.1893 38.2070
#
#
#
# Elastic Compliance Matrix: (Units=1/GPa)
#
#
# Indices 1 2 3 4 5 6 
#
# 1 0.006297 -0.001515 -0.002911 -0.001313 -0.001572 -0.000387
# 2 -0.001515 0.009449 -0.001101 -0.003532 0.000099 0.002619
# 3 -0.002911 -0.001101 0.016590 0.017807 -0.004242 -0.004958
# 4 -0.001313 -0.003532 0.017807 0.060133 -0.002481 -0.017858
# 5 -0.001572 0.000099 -0.004242 -0.002481 0.030549 -0.005987
# 6 -0.000387 0.002619 -0.004958 -0.017858 -0.005987 0.033424
#
#
# Mechanical properties :
#
#
# Convention : Reuss Voigt Hill
#
# Bulk Modulus (GPa) = 46.99025 65.48152 56.23589
# Shear Modulus (GPa) = 28.63839 42.23199 35.43519
#
# Velocity S-wave (km/s) = 3.22832 3.92033 3.59103
# Velocity P-wave (km/s) = 5.56747 6.65747 6.13672
#
# Compressibility (1/GPa) = 0.02128101
#
# Stress axis : x y z
#
# Youngs Moduli (GPa) = 158.80563 105.83169 60.27585
#
# Poissons Ratio (x) = 0.16036 0.17549
# Poissons Ratio (y) = 0.24063 0.06636
# Poissons Ratio (z) = 0.46236 0.11652
#
# Static dielectric constant tensor:
#      x y z
#    x 2.553420 -0.004900 -0.161800 
#    y -0.004900 2.376720 0.092460 
#    z -0.161800 0.092460 2.296680 
# 
# From -- ./inp_files/192088.got.cif
#   From: 2010.05.17/outbox.cif.g08.bks.cpg/sg2_97_cif.got.tgz:192088.got - 2010.06.03 11:33:40.
