data_PCOD9001961
_publ_section_title
;
Structure prediction by ZEFSAII (Michael W. Deem and Ramdas Pophale) SiO2 
 PCOD9001961
Probable space group: P -1
;
_chemical_formula_sum "Si O2"
_cell_formula_units_Z 16
_cell_length_a 18.769695
_cell_length_b 12.050507
_cell_length_c 5.219802
_cell_angle_alpha 107.925944
_cell_angle_beta 127.070214
_cell_angle_gamma 61.917237
_cell_volume 830.637135
_symmetry_space_group_name_H-M "P -1"
_symmetry_group_IT_number 2
_symmetry_cell_setting 'triclinic'
loop_
_space_group_symop_operation_xyz
x,y,z
-x,-y,-z
loop_
_atom_site_type_symbol
_atom_site_label
_atom_site_fract_x
_atom_site_fract_y
_atom_site_fract_z
Si Si1 0.674919 0.562803 0.656735
Si Si2 0.653657 0.302096 0.597003
Si Si3 0.088828 0.703873 0.377557
Si Si4 0.794212 0.546622 0.385023
Si Si5 0.532758 0.352958 0.890215
Si Si6 0.043053 0.131800 0.422557
Si Si7 0.149885 0.863135 0.278462
Si Si8 0.039569 0.376060 0.323609
O O1 0.668405 0.430805 0.641482
O O2 0.737150 0.548221 0.523458
O O3 0.566911 0.656758 0.421650
O O4 0.725075 0.600752 0.032528
O O5 0.603378 0.322269 0.778046
O O6 0.756041 0.187175 0.726652
O O7 0.585911 0.282693 0.210924
O O8 0.143305 0.602649 0.639087
O O9 0.161296 0.757222 0.441479
O O10 0.996345 0.825308 0.347979
O O11 0.045601 0.626557 0.045171
O O12 0.869000 0.615885 0.619028
O O13 0.500000 0.500000 0.000000
O O14 0.067821 0.247057 0.451086
O O15 0.124665 0.997626 0.452337
O O16 0.945612 0.131326 0.075894
O O17 0.000000 0.500000 0.500000
#
# Coordination Sequence:
#
# PCOD9001961 Si02
#       8
#     2   2   2   2   2   2   2   2
#     4  11  21  35  54  86 114 148 189 234 295 352
#     4  11  20  35  58  82 119 152 190 232 299 356
#     4  11  21  36  56  81 121 156 197 238 289 341
#     4  12  22  33  58  83 116 155 192 229 287 351
#     4  10  21  36  55  83 119 151 181 243 300 358
#     4  10  22  38  57  79 124 154 205 238 283 334
#     4  10  22  37  56  88 112 163 197 239 284 350
#     4  11  23  37  53  83 117 160 197 242 287 335
#
# _framework density 19.262322999999999
#
# number of rings (size 3 to 8) (size 9 to 14) (size 15 to 20)
#    0.000    1.250    2.500    6.000    3.500    0.000 
#    0.000    0.000    0.000    0.000    0.000    5.250 
#    0.000    0.000    0.000    0.000    0.000    0.000 
#
# Total GULP energy -89343.798073 kJ/mol
# GULP energy per Si atom -5583.987380 kJ/mol
# Density = 1.921848 g / cm^3
# Si number density = 19.262323 Si / 1000 Ang^3
#
#
#
# Elastic Constant Matrix: (Units=GPa)
#
#
# Indices 1 2 3 4 5 6 
#
# 1 124.8219 39.9028 28.4440 7.6700 -4.9004 -24.0736
# 2 39.9028 75.1490 31.0532 13.1649 7.5168 -15.0678
# 3 28.4440 31.0532 71.2108 0.7882 -10.2032 0.1124
# 4 7.6700 13.1649 0.7882 20.3930 -5.2512 0.6044
# 5 -4.9004 7.5168 -10.2032 -5.2512 27.2448 3.4787
# 6 -24.0736 -15.0678 0.1124 0.6044 3.4787 27.9669
#
#
#
# Elastic Compliance Matrix: (Units=1/GPa)
#
#
# Indices 1 2 3 4 5 6 
#
# 1 0.011411 -0.002228 -0.003624 -0.003076 -0.000401 0.008753
# 2 -0.002228 0.031108 -0.015570 -0.024825 -0.021919 0.018168
# 3 -0.003624 -0.015570 0.024661 0.015427 0.017658 -0.014137
# 4 -0.003076 -0.024825 0.015427 0.073722 0.029000 -0.021285
# 5 -0.000401 -0.021919 0.017658 0.029000 0.057435 -0.019996
# 6 0.008753 0.018168 -0.014137 -0.021285 -0.019996 0.056083
#
#
# Mechanical properties :
#
#
# Convention : Reuss Voigt Hill
#
# Bulk Modulus (GPa) = 41.08858 52.22019 46.65439
# Shear Modulus (GPa) = 16.37335 26.57305 21.47320
#
# Velocity S-wave (km/s) = 2.91867 3.71824 3.34245
# Velocity P-wave (km/s) = 5.72150 6.75297 6.25852
#
# Compressibility (1/GPa) = 0.02433766
#
# Stress axis : x y z
#
# Youngs Moduli (GPa) = 87.63737 32.14656 40.54914
#
# Poissons Ratio (x) = 0.07161 0.14693
# Poissons Ratio (y) = 0.19521 0.63134
# Poissons Ratio (z) = 0.31756 0.50052
#
# Static dielectric constant tensor:
#      x y z
#    x 1.723610 -0.017670 -0.025080 
#    y -0.017670 1.666170 -0.024890 
#    z -0.025080 -0.024890 1.759040 
# 
# From -- ./inp_files/77304.got.cif
#   From: 2010.05.17/outbox.cif.g08.bks.cpg/sg2_39_cif.got.tgz:77304.got - 2010.06.03 11:33:40.
