data_PCOD9001760
_publ_section_title
;
Structure prediction by ZEFSAII (Michael W. Deem and Ramdas Pophale) SiO2 
 PCOD9001760
Probable space group: P -1
;
_chemical_formula_sum "Si O2"
_cell_formula_units_Z 16
_cell_length_a 13.986388
_cell_length_b 13.611940
_cell_length_c 9.558937
_cell_angle_alpha 117.748598
_cell_angle_beta 146.590281
_cell_angle_gamma 48.446758
_cell_volume 732.527751
_symmetry_space_group_name_H-M "P -1"
_symmetry_group_IT_number 2
_symmetry_cell_setting 'triclinic'
loop_
_space_group_symop_operation_xyz
x,y,z
-x,-y,-z
loop_
_atom_site_type_symbol
_atom_site_label
_atom_site_fract_x
_atom_site_fract_y
_atom_site_fract_z
Si Si1 0.554085 0.602415 0.266675
Si Si2 0.749590 0.998048 0.727536
Si Si3 0.781905 0.643063 0.818456
Si Si4 0.821599 0.232762 0.909373
Si Si5 0.316434 0.076503 0.115338
Si Si6 0.618956 0.247182 0.404070
Si Si7 0.140162 0.035588 0.605768
Si Si8 0.285032 0.696731 0.749802
O O1 0.670928 0.645417 0.539609
O O2 0.342843 0.640723 0.116549
O O3 0.692819 0.443952 0.307605
O O4 0.456557 0.683945 0.058919
O O5 0.753355 0.985488 0.892650
O O6 0.780275 0.116065 0.810061
O O7 0.541651 0.032346 0.419919
O O8 0.935789 0.847071 0.812325
O O9 0.816741 0.762132 0.939195
O O10 0.612177 0.677349 0.757842
O O11 0.000000 0.500000 0.000000
O O12 0.758409 0.269603 0.695760
O O13 0.294676 0.036622 0.907402
O O14 0.646553 0.287876 0.310876
O O15 0.724592 0.086374 0.416453
O O16 0.953682 0.182805 0.423574
O O17 0.000000 0.000000 0.500000
#
# Coordination Sequence:
#
# PCOD9001760 Si02
#       8
#     2   2   2   2   2   2   2   2
#     4  10  22  40  62  90 120 166 207 251 301 376
#     4  10  21  35  62  92 124 154 212 256 306 363
#     4  11  24  42  62  86 128 164 206 257 306 363
#     4  10  21  38  63  91 121 163 207 256 308 359
#     4  11  22  38  59  96 121 166 204 255 319 363
#     4  10  22  39  61  92 118 166 207 253 306 368
#     4  10  22  37  63  88 125 159 201 255 312 367
#     4  10  22  38  63  91 122 160 211 248 308 371
#
# _framework density 21.842178000000001
#
# number of rings (size 3 to 8) (size 9 to 14) (size 15 to 20)
#    0.000    1.750    2.500    2.250    7.000    3.500 
#    0.000    3.125    0.000    0.000    0.000    0.000 
#    0.000    0.000    0.000    0.000    0.000    0.000 
#
# Total GULP energy -89337.291697 kJ/mol
# GULP energy per Si atom -5583.580731 kJ/mol
# Density = 2.179246 g / cm^3
# Si number density = 21.842178 Si / 1000 Ang^3
#
#
#
# Elastic Constant Matrix: (Units=GPa)
#
#
# Indices 1 2 3 4 5 6 
#
# 1 70.7859 6.0974 31.2783 -8.0321 -21.5353 -12.2060
# 2 6.0974 88.3900 33.0843 -19.8589 -0.2405 -31.4815
# 3 31.2783 33.0843 70.2110 -22.6892 -20.1154 -12.2500
# 4 -8.0321 -19.8589 -22.6892 38.9469 -5.4560 7.6487
# 5 -21.5353 -0.2405 -20.1154 -5.4560 34.1580 -4.6044
# 6 -12.2060 -31.4815 -12.2500 7.6487 -4.6044 29.0232
#
#
#
# Elastic Compliance Matrix: (Units=1/GPa)
#
#
# Indices 1 2 3 4 5 6 
#
# 1 0.023869 0.007511 -0.005606 0.004207 0.014771 0.017054
# 2 0.007511 0.023557 -0.006859 0.005328 0.005113 0.025224
# 3 -0.005606 -0.006859 0.029666 0.014640 0.016424 0.001470
# 4 0.004207 0.005328 0.014640 0.039124 0.018415 0.006338
# 5 0.014771 0.005113 0.016424 0.018415 0.054263 0.022446
# 6 0.017054 0.025224 0.001470 0.006338 0.022446 0.071499
#
#
# Mechanical properties :
#
#
# Convention : Reuss Voigt Hill
#
# Bulk Modulus (GPa) = 14.88456 41.14520 28.01488
# Shear Modulus (GPa) = 18.22949 31.02076 24.62512
#
# Velocity S-wave (km/s) = 2.89208 3.77267 3.36134
# Velocity P-wave (km/s) = 4.24047 6.15271 5.28381
#
# Compressibility (1/GPa) = 0.06718370
#
# Stress axis : x y z
#
# Youngs Moduli (GPa) = 41.89519 42.44935 33.70915
#
# Poissons Ratio (x) = -0.31885 0.18898
# Poissons Ratio (y) = -0.31469 0.23122
# Poissons Ratio (z) = 0.23487 0.29118
#
# Static dielectric constant tensor:
#      x y z
#    x 1.861570 -0.014980 -0.001870 
#    y -0.014980 1.826190 -0.028240 
#    z -0.001870 -0.028240 1.824260 
# 
# From -- ./inp_files/314037.got.cif
#   From: 2010.05.17/outbox.cif.g08.bks.cpg/sg2_158_cif.got.tgz:314037.got - 2010.06.03 11:33:40.
