data_PCOD9001581
_publ_section_title
;
Structure prediction by ZEFSAII (Michael W. Deem and Ramdas Pophale) SiO2 
 PCOD9001581
Probable space group: P -1
;
_chemical_formula_sum "Si O2"
_cell_formula_units_Z 12
_cell_length_a 15.434249
_cell_length_b 11.610601
_cell_length_c 6.864153
_cell_angle_alpha 57.941267
_cell_angle_beta 48.308894
_cell_angle_gamma 31.346425
_cell_volume 475.632880
_symmetry_space_group_name_H-M "P -1"
_symmetry_group_IT_number 2
_symmetry_cell_setting 'triclinic'
loop_
_space_group_symop_operation_xyz
x,y,z
-x,-y,-z
loop_
_atom_site_type_symbol
_atom_site_label
_atom_site_fract_x
_atom_site_fract_y
_atom_site_fract_z
Si Si1 0.031998 0.168916 0.138939
Si Si2 0.689510 0.660390 0.315297
Si Si3 0.049072 0.575094 0.502695
Si Si4 0.563321 0.288793 0.559851
Si Si5 0.337068 0.024489 0.028792
Si Si6 0.993258 0.101785 0.698930
O O1 0.869056 0.435495 0.120279
O O2 0.235759 0.050874 0.969144
O O3 0.969548 0.164637 0.448676
O O4 0.055193 0.012275 0.115272
O O5 0.783800 0.607055 0.429514
O O6 0.538403 0.680199 0.503118
O O7 0.589413 0.892853 0.190720
O O8 0.000000 0.500000 0.500000
O O9 0.850252 0.775265 0.737708
O O10 0.095995 0.683702 0.254802
O O11 0.500000 0.500000 0.500000
O O12 0.530258 0.207670 0.854423
O O13 0.787333 0.093458 0.401225
#
# Coordination Sequence:
#
# PCOD9001581 Si02
#       6
#     2   2   2   2   2   2
#     4   8  13  25  44  64  90 117 148 193 231 256
#     4  10  17  29  49  73  98 120 150 199 244 271
#     4   9  18  31  49  69  94 127 163 188 227 284
#     4  10  17  27  46  76  97 119 154 196 236 280
#     4   9  19  29  47  73 101 116 154 200 239 270
#     4   8  15  26  42  69  93 112 157 195 220 265
#
# _framework density 25.229541000000001
#
# number of rings (size 3 to 8) (size 9 to 14) (size 15 to 20)
#    0.000    3.667    1.667    2.500    2.333    0.000 
#    0.000    3.333    0.000    4.000    0.000    5.833 
#    0.000    0.000    0.000    0.000    0.000    0.000 
#
# Total GULP energy -66911.912751 kJ/mol
# GULP energy per Si atom -5575.992729 kJ/mol
# Density = 2.517212 g / cm^3
# Si number density = 25.229541 Si / 1000 Ang^3
#
#
#
# Elastic Constant Matrix: (Units=GPa)
#
#
# Indices 1 2 3 4 5 6 
#
# 1 237.3484 67.5773 29.4060 -25.0969 -35.0813 38.0535
# 2 67.5773 116.4353 40.9992 -37.8285 3.3225 12.3949
# 3 29.4060 40.9992 59.1377 -36.3083 -4.0592 23.7946
# 4 -25.0969 -37.8285 -36.3083 38.4372 12.0111 -12.1388
# 5 -35.0813 3.3225 -4.0592 12.0111 25.0753 -14.8099
# 6 38.0535 12.3949 23.7946 -12.1388 -14.8099 47.9665
#
#
#
# Elastic Compliance Matrix: (Units=1/GPa)
#
#
# Indices 1 2 3 4 5 6 
#
# 1 0.008372 -0.007689 -0.006105 -0.013457 0.018611 0.000714
# 2 -0.007689 0.022226 0.008882 0.033378 -0.031377 -0.005291
# 3 -0.006105 0.008882 0.069209 0.077556 -0.052399 -0.028336
# 4 -0.013457 0.033378 0.077556 0.144349 -0.097567 -0.030016
# 5 0.018611 -0.031377 -0.052399 -0.097567 0.128619 0.034358
# 6 0.000714 -0.005291 -0.028336 -0.030016 0.034358 0.038717
#
#
# Mechanical properties :
#
#
# Convention : Reuss Voigt Hill
#
# Bulk Modulus (GPa) = 11.11304 76.54294 43.82799
# Shear Modulus (GPa) = 11.07889 40.62505 25.85197
#
# Velocity S-wave (km/s) = 2.09780 4.01711 3.20452
# Velocity P-wave (km/s) = 3.20656 7.20560 5.57686
#
# Compressibility (1/GPa) = 0.08998437
#
# Stress axis : x y z
#
# Youngs Moduli (GPa) = 119.44561 44.99260 14.44908
#
# Poissons Ratio (x) = 0.34593 0.08821
# Poissons Ratio (y) = 0.91837 -0.12834
# Poissons Ratio (z) = 0.72917 -0.39963
#
# Static dielectric constant tensor:
#      x y z
#    x 2.060840 0.041180 0.050460 
#    y 0.041180 2.005010 -0.086430 
#    z 0.050460 -0.086430 2.221910 
# 
# From -- ./inp_files/167778.got.cif
#   From: 2010.05.17/outbox.cif.g08.bks.cpg/sg2_84_cif.got.tgz:167778.got - 2010.06.03 11:33:40.
