data_PCOD9001862
_publ_section_title
;
Structure prediction by ZEFSAII (Michael W. Deem and Ramdas Pophale) SiO2 
 PCOD9001862
Probable space group: P -1
;
_chemical_formula_sum "Si O2"
_cell_formula_units_Z 14
_cell_length_a 9.712521
_cell_length_b 20.818207
_cell_length_c 5.461817
_cell_angle_alpha 119.590332
_cell_angle_beta 89.524707
_cell_angle_gamma 44.427224
_cell_volume 541.308594
_symmetry_space_group_name_H-M "P -1"
_symmetry_group_IT_number 2
_symmetry_cell_setting 'triclinic'
loop_
_space_group_symop_operation_xyz
x,y,z
-x,-y,-z
loop_
_atom_site_type_symbol
_atom_site_label
_atom_site_fract_x
_atom_site_fract_y
_atom_site_fract_z
Si Si1 0.663255 0.046436 0.558374
Si Si2 0.532235 0.249735 0.142348
Si Si3 0.273158 0.682493 0.764463
Si Si4 0.298635 0.529921 0.243919
Si Si5 0.117791 0.260881 0.023403
Si Si6 0.795891 0.027934 0.021605
Si Si7 0.109271 0.511541 0.842041
O O1 0.758578 0.990073 0.178738
O O2 0.606449 0.160648 0.760884
O O3 0.830528 0.969600 0.653590
O O4 0.405444 0.122429 0.766307
O O5 0.722077 0.232890 0.124366
O O6 0.557489 0.183249 0.247884
O O7 0.261741 0.401971 0.422463
O O8 0.305620 0.616324 0.395900
O O9 0.503168 0.572035 0.738497
O O10 0.042660 0.742655 0.006206
O O11 0.019337 0.643412 0.559856
O O12 0.314309 0.465793 0.905571
O O13 0.062614 0.347117 0.983840
O O14 0.000000 0.000000 0.000000
O O15 0.000000 0.500000 0.000000
#
# Coordination Sequence:
#
# PCOD9001862 Si02
#       7
#     2   2   2   2   2   2   2
#     4  10  23  38  63  91 113 152 199 246 308 354
#     4  10  22  34  58  88 111 157 206 235 295 356
#     4   9  19  38  49  80 120 170 200 229 286 349
#     4   9  20  35  48  75 126 166 199 222 282 335
#     4  10  21  36  51  83 124 157 193 239 288 341
#     4  10  23  43  65  88 113 147 199 261 312 354
#     4  12  22  30  54  84 122 163 200 245 284 343
#
# _framework density 25.863251000000002
#
# number of rings (size 3 to 8) (size 9 to 14) (size 15 to 20)
#    1.714    0.286    1.429    2.143    6.000    3.429 
#    0.000    0.000    0.000    1.714    0.000    0.000 
#    0.000    0.000    0.000    0.000    0.000    0.000 
#
# Total GULP energy -78052.443612 kJ/mol
# GULP energy per Si atom -5575.174544 kJ/mol
# Density = 2.580439 g / cm^3
# Si number density = 25.863251 Si / 1000 Ang^3
#
#
#
# Elastic Constant Matrix: (Units=GPa)
#
#
# Indices 1 2 3 4 5 6 
#
# 1 144.4958 5.9292 24.7179 11.2069 -10.2746 -3.3079
# 2 5.9292 63.4304 12.6307 -2.3024 -2.2224 -10.7011
# 3 24.7179 12.6307 66.1237 -10.5949 -6.4409 -1.0408
# 4 11.2069 -2.3024 -10.5949 30.9187 -2.7229 -8.0711
# 5 -10.2746 -2.2224 -6.4409 -2.7229 52.7246 8.7937
# 6 -3.3079 -10.7011 -1.0408 -8.0711 8.7937 37.9901
#
#
#
# Elastic Compliance Matrix: (Units=1/GPa)
#
#
# Indices 1 2 3 4 5 6 
#
# 1 0.007905 -0.000261 -0.003482 -0.004145 0.000988 -0.000590
# 2 -0.000261 0.017296 -0.002893 0.001719 -0.000461 0.005242
# 3 -0.003482 -0.002893 0.018384 0.007659 0.001739 0.000610
# 4 -0.004145 0.001719 0.007659 0.038862 0.000806 0.008403
# 5 0.000988 -0.000461 0.001739 0.000806 0.020142 -0.004487
# 6 -0.000590 0.005242 0.000610 0.008403 -0.004487 0.030588
#
#
# Mechanical properties :
#
#
# Convention : Reuss Voigt Hill
#
# Bulk Modulus (GPa) = 32.99001 40.06727 36.52864
# Shear Modulus (GPa) = 31.93754 39.71150 35.82452
#
# Velocity S-wave (km/s) = 3.51787 3.92272 3.72580
# Velocity P-wave (km/s) = 5.41145 6.00355 5.71517
#
# Compressibility (1/GPa) = 0.03031221
#
# Stress axis : x y z
#
# Youngs Moduli (GPa) = 126.49736 57.81534 54.39583
#
# Poissons Ratio (x) = 0.01508 0.18943
# Poissons Ratio (y) = 0.03300 0.15739
# Poissons Ratio (z) = 0.44052 0.16728
#
# Static dielectric constant tensor:
#      x y z
#    x 2.065680 0.027810 -0.014400 
#    y 0.027810 2.079340 0.027250 
#    z -0.014400 0.027250 2.103600 
# 
# From -- ./inp_files/56682.got.cif
#   From: 2010.05.17/outbox.cif.g08.bks.cpg/sg2_29_cif.got.tgz:56682.got - 2010.06.03 11:33:40.
