data_PCOD9001352
_publ_section_title
;
Structure prediction by ZEFSAII (Michael W. Deem and Ramdas Pophale) SiO2 
 PCOD9001352
Probable space group: P -1
;
_chemical_formula_sum "Si O2"
_cell_formula_units_Z 12
_cell_length_a 6.733392
_cell_length_b 18.309197
_cell_length_c 7.064147
_cell_angle_alpha 37.430342
_cell_angle_beta 116.539488
_cell_angle_gamma 116.234898
_cell_volume 467.412186
_symmetry_space_group_name_H-M "P -1"
_symmetry_group_IT_number 2
_symmetry_cell_setting 'triclinic'
loop_
_space_group_symop_operation_xyz
x,y,z
-x,-y,-z
loop_
_atom_site_type_symbol
_atom_site_label
_atom_site_fract_x
_atom_site_fract_y
_atom_site_fract_z
Si Si1 0.260192 0.836622 0.209441
Si Si2 0.579931 0.996313 0.755352
Si Si3 0.355821 0.256018 0.648930
Si Si4 0.038403 0.364504 0.673820
Si Si5 0.730992 0.496963 0.997569
Si Si6 0.711226 0.397448 0.779968
O O1 0.450120 0.752278 0.411971
O O2 0.020134 0.766418 0.181269
O O3 0.290130 0.882700 0.341206
O O4 0.354651 0.952057 0.877650
O O5 0.500000 0.000000 0.500000
O O6 0.726520 0.887057 0.065247
O O7 0.207667 0.358893 0.326508
O O8 0.498440 0.309426 0.783931
O O9 0.914733 0.347497 0.858276
O O10 0.098861 0.555002 0.685286
O O11 0.265649 0.462403 0.581320
O O12 0.715594 0.416479 0.966216
O O13 0.500000 0.500000 0.000000
#
# Coordination Sequence:
#
# PCOD9001352 Si02
#       6
#     2   2   2   2   2   2
#     4   8  17  32  48  78 100 129 182 214 248 312
#     4   9  17  31  50  76  97 137 174 226 249 290
#     4   9  19  33  52  81 104 130 179 219 256 307
#     4  10  21  36  54  78 112 143 168 213 266 321
#     4  12  20  33  52  82 112 140 166 220 271 305
#     4  10  21  35  51  82 112 139 176 204 264 332
#
# _framework density 25.673272999999998
#
# number of rings (size 3 to 8) (size 9 to 14) (size 15 to 20)
#    1.000    1.333    3.333    1.000    2.333    0.000 
#    0.000    0.000    0.000    1.000    0.000    5.833 
#    0.000    0.000    0.000    0.000    0.000    0.000 
#
# Total GULP energy -66904.044578 kJ/mol
# GULP energy per Si atom -5575.337048 kJ/mol
# Density = 2.561484 g / cm^3
# Si number density = 25.673273 Si / 1000 Ang^3
#
#
#
# Elastic Constant Matrix: (Units=GPa)
#
#
# Indices 1 2 3 4 5 6 
#
# 1 62.0904 20.7080 11.7673 9.4984 -6.7122 -15.7893
# 2 20.7080 227.2707 36.8960 24.0187 -4.3141 -17.0657
# 3 11.7673 36.8960 88.7299 30.5472 -1.4174 -10.0018
# 4 9.4984 24.0187 30.5472 55.5075 -6.8644 -8.9514
# 5 -6.7122 -4.3141 -1.4174 -6.8644 32.8372 0.3664
# 6 -15.7893 -17.0657 -10.0018 -8.9514 0.3664 48.5858
#
#
#
# Elastic Compliance Matrix: (Units=1/GPa)
#
#
# Indices 1 2 3 4 5 6 
#
# 1 0.018466 -0.000952 -0.001105 -0.000877 0.003360 0.005252
# 2 -0.000952 0.004901 -0.001467 -0.000980 0.000171 0.000928
# 3 -0.001105 -0.001467 0.014588 -0.007236 -0.001311 0.000805
# 4 -0.000877 -0.000980 -0.007236 0.023448 0.004257 0.002169
# 5 0.003360 0.000171 -0.001311 0.004257 0.031980 0.001425
# 6 0.005252 0.000928 0.000805 0.002169 0.001425 0.023170
#
#
# Mechanical properties :
#
#
# Convention : Reuss Voigt Hill
#
# Bulk Modulus (GPa) = 32.35677 57.42597 44.89137
# Shear Modulus (GPa) = 37.34016 47.96740 42.65378
#
# Velocity S-wave (km/s) = 3.81785 4.32716 4.08046
# Velocity P-wave (km/s) = 5.66262 6.88348 6.30268
#
# Compressibility (1/GPa) = 0.03090543
#
# Stress axis : x y z
#
# Youngs Moduli (GPa) = 54.15501 204.01977 68.54979
#
# Poissons Ratio (x) = 0.19427 0.07577
# Poissons Ratio (y) = 0.05157 0.10058
# Poissons Ratio (z) = 0.05986 0.29934
#
# Static dielectric constant tensor:
#      x y z
#    x 2.213090 0.035840 -0.085560 
#    y 0.035840 2.093860 -0.045900 
#    z -0.085560 -0.045900 2.068990 
# 
# From -- ./inp_files/41617.got.cif
#   From: 2010.05.17/outbox.cif.g08.bks.cpg/sg2_21_cif.got.tgz:41617.got - 2010.06.03 11:33:40.
