data_PCOD9001599
_publ_section_title
;
Structure prediction by ZEFSAII (Michael W. Deem and Ramdas Pophale) SiO2 
 PCOD9001599
Probable space group: P -1
;
_chemical_formula_sum "Si O2"
_cell_formula_units_Z 16
_cell_length_a 7.680783
_cell_length_b 14.340140
_cell_length_c 13.919164
_cell_angle_alpha 41.582608
_cell_angle_beta 95.114969
_cell_angle_gamma 123.841410
_cell_volume 679.929999
_symmetry_space_group_name_H-M "P -1"
_symmetry_group_IT_number 2
_symmetry_cell_setting 'triclinic'
loop_
_space_group_symop_operation_xyz
x,y,z
-x,-y,-z
loop_
_atom_site_type_symbol
_atom_site_label
_atom_site_fract_x
_atom_site_fract_y
_atom_site_fract_z
Si Si1 0.387498 0.516448 0.805583
Si Si2 0.754126 0.366512 0.958021
Si Si3 0.701015 0.430613 0.615817
Si Si4 0.080339 0.325009 0.112792
Si Si5 0.889729 0.691200 0.591274
Si Si6 0.375869 0.058544 0.008869
Si Si7 0.912674 0.605005 0.305358
Si Si8 0.314962 0.025340 0.480832
O O1 0.626455 0.582350 0.714741
O O2 0.177521 0.421666 0.785723
O O3 0.510158 0.735457 0.678914
O O4 0.258607 0.364512 0.008317
O O5 0.748031 0.471171 0.966771
O O6 0.930559 0.560518 0.741525
O O7 0.890779 0.313387 0.051425
O O8 0.512799 0.170919 0.031345
O O9 0.831258 0.636927 0.519346
O O10 0.677109 0.440209 0.494776
O O11 0.904045 0.422659 0.650487
O O12 0.442355 0.231155 0.812577
O O13 0.895371 0.122483 0.328969
O O14 0.135738 0.927702 0.452510
O O15 0.079809 0.836629 0.171514
O O16 0.500000 0.000000 0.000000
O O17 0.500000 0.000000 0.500000
#
# Coordination Sequence:
#
# PCOD9001599 Si02
#       8
#     2   2   2   2   2   2   2   2
#     4  12  24  39  58  88 128 160 194 243 303 371
#     4   9  18  36  59  86 114 152 197 243 295 348
#     4   9  19  38  58  81 115 152 201 254 288 339
#     4  10  21  38  63  89 119 154 199 251 297 353
#     4  10  22  40  60  87 125 159 193 244 308 368
#     4   9  17  32  56  83 111 141 189 245 290 339
#     4  10  21  35  59  86 110 156 207 246 291 344
#     4  11  23  40  65  91 115 155 205 250 297 352
#
# _framework density 23.531834
#
# number of rings (size 3 to 8) (size 9 to 14) (size 15 to 20)
#    0.000    2.000    0.000    5.625    0.000    8.500 
#    0.000    6.250    0.000    0.000    0.000    0.000 
#    0.000    0.000    0.000    0.000    0.000    0.000 
#
# Total GULP energy -89344.497610 kJ/mol
# GULP energy per Si atom -5584.031101 kJ/mol
# Density = 2.347827 g / cm^3
# Si number density = 23.531834 Si / 1000 Ang^3
#
#
#
# Elastic Constant Matrix: (Units=GPa)
#
#
# Indices 1 2 3 4 5 6 
#
# 1 36.7382 4.1242 16.4073 2.0229 -11.8079 8.0697
# 2 4.1242 129.2061 48.9158 -3.6292 -2.0240 -11.1340
# 3 16.4073 48.9158 80.4574 -0.7307 -9.4947 -9.1255
# 4 2.0229 -3.6292 -0.7307 42.8939 -4.5095 -5.3160
# 5 -11.8079 -2.0240 -9.4947 -4.5095 20.8963 3.3409
# 6 8.0697 -11.1340 -9.1255 -5.3160 3.3409 16.2658
#
#
#
# Elastic Compliance Matrix: (Units=1/GPa)
#
#
# Indices 1 2 3 4 5 6 
#
# 1 0.050037 -0.000435 -0.010995 -0.004371 0.028459 -0.038564
# 2 -0.000435 0.010433 -0.005983 0.001145 -0.002488 0.004885
# 3 -0.010995 -0.005983 0.019877 0.002031 0.000591 0.013053
# 4 -0.004371 0.001145 0.002031 0.025354 0.002126 0.011941
# 5 0.028459 -0.002488 0.000591 0.002126 0.069056 -0.028979
# 6 -0.038564 0.004885 0.013053 0.011941 -0.028979 0.101132
#
#
# Mechanical properties :
#
#
# Convention : Reuss Voigt Hill
#
# Bulk Modulus (GPa) = 21.96766 42.81070 32.38918
# Shear Modulus (GPa) = 15.34267 27.80818 21.57542
#
# Velocity S-wave (km/s) = 2.55619 3.44135 3.03126
# Velocity P-wave (km/s) = 4.25061 5.83290 5.10345
#
# Compressibility (1/GPa) = 0.04552147
#
# Stress axis : x y z
#
# Youngs Moduli (GPa) = 19.98533 95.85130 50.30860
#
# Poissons Ratio (x) = 0.04168 0.55312
# Poissons Ratio (y) = 0.00869 0.30101
# Poissons Ratio (z) = 0.21973 0.57350
#
# Static dielectric constant tensor:
#      x y z
#    x 2.007070 -0.037700 -0.019920 
#    y -0.037700 1.880470 0.020170 
#    z -0.019920 0.020170 1.913510 
# 
# From -- ./inp_files/504008.got.cif
#   From: 2010.05.17/outbox.cif.g08.bks.cpg/sg2_253_cif.got.tgz:504008.got - 2010.06.03 11:33:40.
