data_PCOD9001148
_publ_section_title
;
Structure prediction by ZEFSAII (Michael W. Deem and Ramdas Pophale) SiO2 
 PCOD9001148
Probable space group: P -1
;
_chemical_formula_sum "Si O2"
_cell_formula_units_Z 12
_cell_length_a 11.361482
_cell_length_b 5.159415
_cell_length_c 11.993565
_cell_angle_alpha 91.416382
_cell_angle_beta 107.088780
_cell_angle_gamma 102.292303
_cell_volume 653.727136
_symmetry_space_group_name_H-M "P -1"
_symmetry_group_IT_number 2
_symmetry_cell_setting 'triclinic'
loop_
_space_group_symop_operation_xyz
x,y,z
-x,-y,-z
loop_
_atom_site_type_symbol
_atom_site_label
_atom_site_fract_x
_atom_site_fract_y
_atom_site_fract_z
Si Si1 0.804873 0.554696 0.736736
Si Si2 0.587397 0.291635 0.519461
Si Si3 0.815195 0.371140 0.427568
Si Si4 0.931356 0.626951 0.245850
Si Si5 0.088074 0.293054 0.005444
Si Si6 0.897990 0.914031 0.582905
O O1 0.686969 0.345388 0.650807
O O2 0.807827 0.631784 0.867610
O O3 0.810344 0.814184 0.664069
O O4 0.937480 0.466200 0.746189
O O5 0.500000 0.500000 0.500000
O O6 0.672841 0.344364 0.431604
O O7 0.500000 0.000000 0.500000
O O8 0.845337 0.426177 0.306695
O O9 0.104631 0.361345 0.484941
O O10 0.849614 0.111322 0.488310
O O11 0.870252 0.672644 0.111208
O O12 0.976425 0.909827 0.324226
O O13 0.000000 0.500000 0.000000
O O14 0.000000 0.000000 0.000000
#
# Coordination Sequence:
#
# PCOD9001148 Si02
#       6
#     2   2   2   2   2   2
#     4  10  22  37  58  82 114 145 184 224 271 326
#     4  11  23  38  55  77 107 148 190 227 267 314
#     4  11  24  33  56  82 114 141 178 227 282 322
#     4  11  21  35  57  85 117 139 174 221 286 337
#     4  10  21  34  54  82 115 147 174 213 273 341
#     4  11  19  32  52  83 112 142 165 218 279 331
#
# _framework density 18.356282
#
# number of rings (size 3 to 8) (size 9 to 14) (size 15 to 20)
#    0.000    1.333    5.000    3.000    2.333    0.000 
#    0.000    0.000    0.000    2.000    0.000    0.000 
#    0.000    0.000    0.000    0.000    0.000    0.000 
#
# Total GULP energy -66911.299224 kJ/mol
# GULP energy per Si atom -5575.941602 kJ/mol
# Density = 1.831450 g / cm^3
# Si number density = 18.356282 Si / 1000 Ang^3
#
#
#
# Elastic Constant Matrix: (Units=GPa)
#
#
# Indices 1 2 3 4 5 6 
#
# 1 84.2110 38.4895 49.5408 0.7043 -5.9081 11.0054
# 2 38.4895 142.0282 55.5185 -8.7476 -2.0334 2.9526
# 3 49.5408 55.5185 178.7856 -17.0863 -15.7917 20.6236
# 4 0.7043 -8.7476 -17.0863 22.8958 5.3642 -0.8483
# 5 -5.9081 -2.0334 -15.7917 5.3642 21.1395 1.2884
# 6 11.0054 2.9526 20.6236 -0.8483 1.2884 34.5535
#
#
#
# Elastic Compliance Matrix: (Units=1/GPa)
#
#
# Indices 1 2 3 4 5 6 
#
# 1 0.015942 -0.003249 -0.003249 -0.005016 0.003177 -0.003102
# 2 -0.003249 0.008783 -0.001968 0.002582 -0.002286 0.001607
# 3 -0.003249 -0.001968 0.008345 0.004440 0.004243 -0.003827
# 4 -0.005016 0.002582 0.004440 0.050654 -0.010713 0.000370
# 5 0.003177 -0.002286 0.004243 -0.010713 0.054204 -0.005633
# 6 -0.003102 0.001607 -0.003827 0.000370 -0.005633 0.032295
#
#
# Mechanical properties :
#
#
# Convention : Reuss Voigt Hill
#
# Bulk Modulus (GPa) = 61.96471 76.90248 69.43360
# Shear Modulus (GPa) = 25.96925 33.14949 29.55937
#
# Velocity S-wave (km/s) = 3.76537 4.25419 4.01722
# Velocity P-wave (km/s) = 7.26182 8.13119 7.70877
#
# Compressibility (1/GPa) = 0.01613822
#
# Stress axis : x y z
#
# Youngs Moduli (GPa) = 62.72825 113.85041 119.82720
#
# Poissons Ratio (x) = 0.36990 0.38936
# Poissons Ratio (y) = 0.20380 0.23580
# Poissons Ratio (z) = 0.20383 0.22404
#
# Static dielectric constant tensor:
#      x y z
#    x 1.652210 -0.041080 -0.022990 
#    y -0.041080 1.674530 0.006090 
#    z -0.022990 0.006090 1.680360 
# 
# From -- ./inp_files/84836.got.cif
#   From: 2010.05.17/outbox.cif.g08.bks.cpg/sg2_43_cif.got.tgz:84836.got - 2010.06.03 11:33:40.
