data_PCOD9001559
_publ_section_title
;
Structure prediction by ZEFSAII (Michael W. Deem and Ramdas Pophale) SiO2 
 PCOD9001559
Probable space group: P -1
;
_chemical_formula_sum "Si O2"
_cell_formula_units_Z 12
_cell_length_a 8.385981
_cell_length_b 14.838362
_cell_length_c 12.200919
_cell_angle_alpha 151.287674
_cell_angle_beta 144.640526
_cell_angle_gamma 43.822142
_cell_volume 421.982185
_symmetry_space_group_name_H-M "P -1"
_symmetry_group_IT_number 2
_symmetry_cell_setting 'triclinic'
loop_
_space_group_symop_operation_xyz
x,y,z
-x,-y,-z
loop_
_atom_site_type_symbol
_atom_site_label
_atom_site_fract_x
_atom_site_fract_y
_atom_site_fract_z
Si Si1 0.470982 0.281925 0.062401
Si Si2 0.371336 0.835458 0.505174
Si Si3 0.822374 0.272199 0.934352
Si Si4 0.234015 0.311989 0.737635
Si Si5 0.044022 0.215482 0.223862
Si Si6 0.356870 0.800254 0.705490
O O1 0.268992 0.357593 0.935619
O O2 0.422668 0.056496 0.785008
O O3 0.479561 0.318798 0.236349
O O4 0.780559 0.325786 0.240897
O O5 0.149041 0.818398 0.266509
O O6 0.654445 0.739826 0.517106
O O7 0.335308 0.744531 0.506705
O O8 0.526682 0.220704 0.767688
O O9 0.812210 0.492251 0.139933
O O10 0.041044 0.230140 0.106323
O O11 0.967049 0.191186 0.433888
O O12 0.000000 0.000000 0.000000
O O13 0.500000 0.000000 0.000000
#
# Coordination Sequence:
#
# PCOD9001559 Si02
#       6
#     2   2   2   2   2   2
#     4   9  20  37  60  84 112 155 197 240 284 335
#     4  10  21  35  58  88 115 150 194 241 288 340
#     4  10  22  39  61  88 117 152 193 242 292 341
#     4  10  22  40  60  85 119 155 193 238 292 347
#     4   9  19  36  59  86 114 149 195 241 283 337
#     4  10  22  38  58  86 119 156 194 237 288 344
#
# _framework density 28.43722
#
# number of rings (size 3 to 8) (size 9 to 14) (size 15 to 20)
#    0.000    2.333    0.000    1.000    0.000   17.333 
#    0.000    6.667    0.000    0.000    0.000    0.000 
#    0.000    0.000    0.000    0.000    0.000    0.000 
#
# Total GULP energy -67269.258340 kJ/mol
# GULP energy per Si atom -5605.771528 kJ/mol
# Density = 2.837250 g / cm^3
# Si number density = 28.437220 Si / 1000 Ang^3
#
#
#
# Elastic Constant Matrix: (Units=GPa)
#
#
# Indices 1 2 3 4 5 6 
#
# 1 101.9423 27.2772 54.9758 -12.0008 -17.6757 30.3504
# 2 27.2772 121.8558 36.9955 -19.7559 -17.4129 43.5159
# 3 54.9758 36.9955 144.0650 -24.7882 -8.3088 8.2051
# 4 -12.0008 -19.7559 -24.7882 54.1272 7.0841 -21.0094
# 5 -17.6757 -17.4129 -8.3088 7.0841 73.5447 -27.5206
# 6 30.3504 43.5159 8.2051 -21.0094 -27.5206 52.4792
#
#
#
# Elastic Compliance Matrix: (Units=1/GPa)
#
#
# Indices 1 2 3 4 5 6 
#
# 1 0.015554 0.001775 -0.006301 -0.002952 -0.000323 -0.010833
# 2 0.001775 0.012933 -0.003573 -0.001151 -0.001449 -0.012412
# 3 -0.006301 -0.003573 0.010763 0.005004 0.001202 0.007558
# 4 -0.002952 -0.001151 0.005004 0.024349 0.001977 0.012663
# 5 -0.000323 -0.001449 0.001202 0.001977 0.017253 0.011039
# 6 -0.010833 -0.012412 0.007558 0.012663 0.011039 0.045290
#
#
# Mechanical properties :
#
#
# Convention : Reuss Voigt Hill
#
# Bulk Modulus (GPa) = 43.37900 67.37335 55.37618
# Shear Modulus (GPa) = 33.32803 52.60453 42.96628
#
# Velocity S-wave (km/s) = 3.42714 4.30565 3.89127
# Velocity P-wave (km/s) = 5.56308 6.96143 6.30117
#
# Compressibility (1/GPa) = 0.02305263
#
# Stress axis : x y z
#
# Youngs Moduli (GPa) = 64.29058 77.32236 92.90848
#
# Poissons Ratio (x) = -0.13726 0.58542
# Poissons Ratio (y) = -0.11413 0.33198
# Poissons Ratio (z) = 0.40509 0.27629
#
# Static dielectric constant tensor:
#      x y z
#    x 2.295660 -0.002800 -0.013020 
#    y -0.002800 2.145390 0.011660 
#    z -0.013020 0.011660 2.131880 
# 
# From -- ./inp_files/32563.got.cif
#   From: 2010.05.17/outbox.cif.g08.bks.cpg/sg2_17_cif.got.tgz:32563.got - 2010.06.03 11:33:40.
