data_PCOD9001231
_publ_section_title
;
Structure prediction by ZEFSAII (Michael W. Deem and Ramdas Pophale) SiO2 
 PCOD9001231
Probable space group: P -1
;
_chemical_formula_sum "Si O2"
_cell_formula_units_Z 16
_cell_length_a 18.912192
_cell_length_b 9.613219
_cell_length_c 5.429969
_cell_angle_alpha 134.383645
_cell_angle_beta 115.821811
_cell_angle_gamma 60.564483
_cell_volume 607.727859
_symmetry_space_group_name_H-M "P -1"
_symmetry_group_IT_number 2
_symmetry_cell_setting 'triclinic'
loop_
_space_group_symop_operation_xyz
x,y,z
-x,-y,-z
loop_
_atom_site_type_symbol
_atom_site_label
_atom_site_fract_x
_atom_site_fract_y
_atom_site_fract_z
Si Si1 0.131652 0.523787 0.797337
Si Si2 0.481612 0.718867 0.106784
Si Si3 0.991740 0.719468 0.139199
Si Si4 0.372636 0.327408 0.057560
Si Si5 0.742763 0.259614 0.497671
Si Si6 0.131254 0.799373 0.756082
Si Si7 0.154525 0.096243 0.545607
Si Si8 0.619568 0.877213 0.682329
O O1 0.147617 0.569921 0.600104
O O2 0.151314 0.296804 0.639615
O O3 0.036915 0.652555 0.866371
O O4 0.190231 0.627226 0.165442
O O5 0.529065 0.839703 0.503110
O O6 0.394816 0.886334 0.120244
O O7 0.500000 0.500000 0.000000
O O8 0.533064 0.700053 0.907982
O O9 0.051577 0.826120 0.502519
O O10 0.898621 0.841786 0.207494
O O11 0.000000 0.500000 0.000000
O O12 0.339175 0.563679 0.370930
O O13 0.351098 0.205727 0.105426
O O14 0.339772 0.261571 0.664587
O O15 0.781266 0.194921 0.210441
O O16 0.759180 0.058326 0.435430
O O17 0.112299 0.964316 0.147204
#
# Coordination Sequence:
#
# PCOD9001231 Si02
#       8
#     2   2   2   2   2   2   2   2
#     4   9  21  39  57  79 111 148 198 244 303 360
#     4   9  20  39  66  95 127 154 205 248 301 347
#     4   9  19  35  56  82 112 146 190 251 306 361
#     4  10  21  41  63  85 131 161 203 245 303 358
#     4  10  23  39  55  79 119 155 193 242 297 360
#     4  10  21  34  58  81 109 152 193 245 301 356
#     4  10  21  37  57  80 115 144 201 243 306 358
#     4   9  21  39  63  91 123 163 197 248 298 351
#
# _framework density 26.327575
#
# number of rings (size 3 to 8) (size 9 to 14) (size 15 to 20)
#    0.750    1.750    0.000    0.750    3.500   11.000 
#    2.250    0.000    0.000    0.000    0.000    0.000 
#    0.000    0.000    0.000    0.000    0.000    0.000 
#
# Total GULP energy -89269.970363 kJ/mol
# GULP energy per Si atom -5579.373148 kJ/mol
# Density = 2.626765 g / cm^3
# Si number density = 26.327575 Si / 1000 Ang^3
#
#
#
# Elastic Constant Matrix: (Units=GPa)
#
#
# Indices 1 2 3 4 5 6 
#
# 1 40.7897 28.1670 29.7959 8.1359 -7.7564 5.7740
# 2 28.1670 186.7096 45.6674 31.6674 -16.4474 28.7668
# 3 29.7959 45.6674 81.8747 18.7030 -10.0978 18.2739
# 4 8.1359 31.6674 18.7030 50.9025 5.8300 -5.9966
# 5 -7.7564 -16.4474 -10.0978 5.8300 36.0302 11.5811
# 6 5.7740 28.7668 18.2739 -5.9966 11.5811 33.2630
#
#
#
# Elastic Compliance Matrix: (Units=1/GPa)
#
#
# Indices 1 2 3 4 5 6 
#
# 1 0.034758 -0.002404 -0.011166 -0.000157 0.002915 0.001137
# 2 -0.002404 0.010219 0.002283 -0.009928 0.011348 -0.015415
# 3 -0.011166 0.002283 0.024153 -0.012522 0.014003 -0.020438
# 4 -0.000157 -0.009928 -0.012522 0.036754 -0.023794 0.030403
# 5 0.002915 0.011348 0.014003 -0.023794 0.054618 -0.041320
# 6 0.001137 -0.015415 -0.020438 0.030403 -0.041320 0.074293
#
#
# Mechanical properties :
#
#
# Convention : Reuss Voigt Hill
#
# Bulk Modulus (GPa) = 21.47997 57.40382 39.44190
# Shear Modulus (GPa) = 18.32252 37.75540 28.03896
#
# Velocity S-wave (km/s) = 2.64094 3.79101 3.26698
# Velocity P-wave (km/s) = 4.18041 6.40417 5.40783
#
# Compressibility (1/GPa) = 0.04655500
#
# Stress axis : x y z
#
# Youngs Moduli (GPa) = 28.77069 97.85937 41.40270
#
# Poissons Ratio (x) = 0.23526 0.46232
# Poissons Ratio (y) = 0.06917 -0.09453
# Poissons Ratio (z) = 0.32126 -0.22344
#
# Static dielectric constant tensor:
#      x y z
#    x 2.140910 -0.039560 -0.002630 
#    y -0.039560 2.156180 -0.025160 
#    z -0.002630 -0.025160 2.124340 
# 
# From -- ./inp_files/116483.got.cif
#   From: 2010.05.17/outbox.cif.g08.bks.cpg/sg2_59_cif.got.tgz:116483.got - 2010.06.03 11:33:40.
