data_PCOD9001243
_publ_section_title
;
Structure prediction by ZEFSAII (Michael W. Deem and Ramdas Pophale) SiO2 
 PCOD9001243
Probable space group: P -1
;
_chemical_formula_sum "Si O2"
_cell_formula_units_Z 14
_cell_length_a 31.480778
_cell_length_b 30.715896
_cell_length_c 12.656582
_cell_angle_alpha 158.484722
_cell_angle_beta 21.898206
_cell_angle_gamma 170.757908
_cell_volume 711.221312
_symmetry_space_group_name_H-M "P -1"
_symmetry_group_IT_number 2
_symmetry_cell_setting 'triclinic'
loop_
_space_group_symop_operation_xyz
x,y,z
-x,-y,-z
loop_
_atom_site_type_symbol
_atom_site_label
_atom_site_fract_x
_atom_site_fract_y
_atom_site_fract_z
Si Si1 0.718995 0.302018 0.718624
Si Si2 0.905793 0.309786 0.864782
Si Si3 0.606225 0.248264 0.103005
Si Si4 0.241429 0.384910 0.736894
Si Si5 0.885791 0.723207 0.782295
Si Si6 0.397010 0.274288 0.752665
Si Si7 0.801128 0.789369 0.335452
O O1 0.000000 0.500000 0.500000
O O2 0.500000 0.000000 0.500000
O O3 0.655750 0.264820 0.904521
O O4 0.737692 0.452598 0.961797
O O5 0.115637 0.491917 0.887915
O O6 0.938810 0.229504 0.529020
O O7 0.611090 0.040127 0.986696
O O8 0.000000 0.500000 0.000000
O O9 0.469660 0.248752 0.435897
O O10 0.514056 0.579603 0.510137
O O11 0.203289 0.301571 0.757232
O O12 0.003222 0.091029 0.563146
O O13 0.590247 0.420044 0.734262
O O14 0.869808 0.770341 0.036945
O O15 0.084327 0.988935 0.853430
O O16 0.500000 0.500000 0.000000
#
# Coordination Sequence:
#
# PCOD9001243 Si02
#       7
#     2   2   2   2   2   2   2
#     4  12  26  44  64  92 127 172 221 254 316 381
#     4  10  21  41  61  89 125 161 201 250 309 365
#     4  10  23  39  61  90 123 158 202 256 301 364
#     4  10  23  42  61  89 125 162 211 266 310 363
#     4  10  21  34  58  90 115 149 201 236 297 373
#     4  10  21  37  55  90 119 149 189 236 307 367
#     4  10  21  39  64  91 122 162 209 261 318 364
#
# _framework density 19.684448
#
# number of rings (size 3 to 8) (size 9 to 14) (size 15 to 20)
#    0.000    1.714    0.000    3.429    4.000    2.286 
#    0.000    0.000    0.000    0.000    0.000    0.000 
#    0.000    0.000    0.000    0.000    0.000    0.000 
#
# Total GULP energy -78015.037537 kJ/mol
# GULP energy per Si atom -5572.502681 kJ/mol
# Density = 1.963965 g / cm^3
# Si number density = 19.684448 Si / 1000 Ang^3
#
#
#
# Elastic Constant Matrix: (Units=GPa)
#
#
# Indices 1 2 3 4 5 6 
#
# 1 31.6128 17.0514 139.5779 3.3152 -13.5608 -9.0321
# 2 17.0514 138.3787 85.6032 7.6082 1.0711 -0.1631
# 3 139.5779 85.6032 90.8096 26.7412 65.1992 -5.9637
# 4 3.3152 7.6082 26.7412 39.3383 -13.3554 3.8342
# 5 -13.5608 1.0711 65.1992 -13.3554 23.9233 11.8247
# 6 -9.0321 -0.1631 -5.9637 3.8342 11.8247 35.6668
#
#
#
# Elastic Compliance Matrix: (Units=1/GPa)
#
#
# Indices 1 2 3 4 5 6 
#
# 1 0.009648 -0.003309 0.004575 -0.010231 -0.017562 0.010115
# 2 -0.003309 0.007989 -0.000392 -0.001732 -0.002147 0.000031
# 3 0.004575 -0.000392 -0.000544 0.002148 0.005834 -0.001099
# 4 -0.010231 -0.001732 0.002148 0.028874 0.008593 -0.008193
# 5 -0.017562 -0.002147 0.005834 0.008593 0.027526 -0.013531
# 6 0.010115 0.000031 -0.001099 -0.008193 -0.013531 0.035782
#
#
# Mechanical properties :
#
#
# Convention : Reuss Voigt Hill
#
# Bulk Modulus (GPa) = 53.07321 82.80734 67.94028
# Shear Modulus (GPa) = 43.93390 21.02358 32.47874
#
# Velocity S-wave (km/s) = 4.72943 3.27162 4.06639
# Velocity P-wave (km/s) = 7.53949 7.51199 7.52575
#
# Compressibility (1/GPa) = 0.01884190
#
# Stress axis : x y z
#
# Youngs Moduli (GPa) = 103.64312 125.17862 -1839.79065
#
# Poissons Ratio (x) = 0.41416 8.41652
# Poissons Ratio (y) = 0.34291 -0.72120
# Poissons Ratio (z) = -0.47414 0.04907
#
# Static dielectric constant tensor:
#      x y z
#    x 1.707790 -0.012650 -0.032580 
#    y -0.012650 1.805780 0.058410 
#    z -0.032580 0.058410 1.678360 
# 
# From -- ./inp_files/85425.got.cif
#   From: 2010.05.17/outbox.cif.g08.bks.cpg/sg2_43_cif.got.tgz:85425.got - 2010.06.03 11:33:40.
