data_PCOD9001823
_publ_section_title
;
Structure prediction by ZEFSAII (Michael W. Deem and Ramdas Pophale) SiO2 
 PCOD9001823
Probable space group: P -1
;
_chemical_formula_sum "Si O2"
_cell_formula_units_Z 16
_cell_length_a 7.475875
_cell_length_b 6.374265
_cell_length_c 17.026385
_cell_angle_alpha 115.473666
_cell_angle_beta 95.698629
_cell_angle_gamma 72.808853
_cell_volume 699.395100
_symmetry_space_group_name_H-M "P -1"
_symmetry_group_IT_number 2
_symmetry_cell_setting 'triclinic'
loop_
_space_group_symop_operation_xyz
x,y,z
-x,-y,-z
loop_
_atom_site_type_symbol
_atom_site_label
_atom_site_fract_x
_atom_site_fract_y
_atom_site_fract_z
Si Si1 0.056562 0.035865 0.597142
Si Si2 0.035098 0.892877 0.896442
Si Si3 0.693506 0.280374 0.895887
Si Si4 0.456430 0.068617 0.266451
Si Si5 0.915126 0.545979 0.739790
Si Si6 0.444000 0.145482 0.600448
Si Si7 0.434518 0.763974 0.942828
Si Si8 0.232250 0.676761 0.669182
O O1 0.932909 0.263881 0.679281
O O2 0.246846 0.107248 0.608053
O O3 0.108386 0.783254 0.604666
O O4 0.000000 0.000000 0.500000
O O5 0.907231 0.110430 0.871463
O O6 0.952402 0.662702 0.843380
O O7 0.259662 0.816523 0.884304
O O8 0.000000 0.000000 0.000000
O O9 0.615355 0.542404 0.895375
O O10 0.563251 0.129085 0.828804
O O11 0.650852 0.306045 0.990935
O O12 0.653278 0.129895 0.276478
O O13 0.283681 0.300520 0.277617
O O14 0.434042 0.963682 0.335506
O O15 0.081799 0.620833 0.712362
O O16 0.398498 0.429224 0.627098
O O17 0.500000 0.000000 0.500000
O O18 0.500000 0.000000 0.000000
#
# Coordination Sequence:
#
# PCOD9001823 Si02
#       8
#     2   2   2   2   2   2   2   2
#     4  10  24  40  63  93 125 163 212 263 318 382
#     4   9  20  41  62  89 131 160 207 263 313 377
#     4   9  21  40  56  91 122 160 204 258 313 371
#     4  10  23  40  64  88 127 161 212 264 312 379
#     4  10  23  41  65  94 125 168 209 264 319 376
#     4  10  24  39  61  89 124 165 208 264 316 378
#     4  10  21  35  65  88 120 165 201 256 319 373
#     4  10  24  40  61  94 120 166 213 255 324 378
#
# _framework density 22.876911
#
# number of rings (size 3 to 8) (size 9 to 14) (size 15 to 20)
#    0.000    2.250    0.000    0.000   12.250    2.500 
#    0.000    6.250    0.000    0.000    0.000    0.000 
#    0.000    0.000    0.000    0.000    0.000    0.000 
#
# Total GULP energy -89225.453045 kJ/mol
# GULP energy per Si atom -5576.590815 kJ/mol
# Density = 2.282484 g / cm^3
# Si number density = 22.876911 Si / 1000 Ang^3
#
#
#
# Elastic Constant Matrix: (Units=GPa)
#
#
# Indices 1 2 3 4 5 6 
#
# 1 74.4560 30.1533 4.1997 -4.3522 18.6127 -12.1573
# 2 30.1533 100.3392 25.0960 7.4643 9.2537 -16.7571
# 3 4.1997 25.0960 95.2175 -10.8034 9.1241 -2.8587
# 4 -4.3522 7.4643 -10.8034 32.9206 -4.6651 0.4220
# 5 18.6127 9.2537 9.1241 -4.6651 34.8623 -4.5451
# 6 -12.1573 -16.7571 -2.8587 0.4220 -4.5451 31.1353
#
#
#
# Elastic Compliance Matrix: (Units=1/GPa)
#
#
# Indices 1 2 3 4 5 6 
#
# 1 0.017954 -0.004707 0.001631 0.002807 -0.007940 0.003430
# 2 -0.004707 0.013571 -0.003774 -0.005018 -0.000098 0.005173
# 3 0.001631 -0.003774 0.012181 0.004721 -0.002518 -0.000707
# 4 0.002807 -0.005018 0.004721 0.033871 0.002974 -0.001196
# 5 -0.007940 -0.000098 -0.002518 0.002974 0.034211 0.001569
# 6 0.003430 0.005173 -0.000707 -0.001196 0.001569 0.036422
#
#
# Mechanical properties :
#
#
# Convention : Reuss Voigt Hill
#
# Bulk Modulus (GPa) = 33.32685 43.21228 38.26956
# Shear Modulus (GPa) = 29.08481 33.82122 31.45302
#
# Velocity S-wave (km/s) = 3.56948 3.84917 3.71196
# Velocity P-wave (km/s) = 5.62030 6.21971 5.92759
#
# Compressibility (1/GPa) = 0.03000584
#
# Stress axis : x y z
#
# Youngs Moduli (GPa) = 55.69770 73.68692 82.09769
#
# Poissons Ratio (x) = 0.34686 -0.13391
# Poissons Ratio (y) = 0.26218 0.30982
# Poissons Ratio (z) = -0.09085 0.27808
#
# Static dielectric constant tensor:
#      x y z
#    x 1.876280 -0.031800 -0.082470 
#    y -0.031800 1.939430 -0.003560 
#    z -0.082470 -0.003560 2.015960 
# 
# From -- ./inp_files/46772.got.cif
#   From: 2010.05.17/outbox.cif.g08.bks.cpg/sg2_24_cif.got.tgz:46772.got - 2010.06.03 11:33:40.
