data_PCOD9001821
_publ_section_title
;
Structure prediction by ZEFSAII (Michael W. Deem and Ramdas Pophale) SiO2 
 PCOD9001821
Probable space group: P -1
;
_chemical_formula_sum "Si O2"
_cell_formula_units_Z 14
_cell_length_a 8.812852
_cell_length_b 9.381984
_cell_length_c 9.746421
_cell_angle_alpha 63.450616
_cell_angle_beta 59.882547
_cell_angle_gamma 50.871706
_cell_volume 530.439603
_symmetry_space_group_name_H-M "P -1"
_symmetry_group_IT_number 2
_symmetry_cell_setting 'triclinic'
loop_
_space_group_symop_operation_xyz
x,y,z
-x,-y,-z
loop_
_atom_site_type_symbol
_atom_site_label
_atom_site_fract_x
_atom_site_fract_y
_atom_site_fract_z
Si Si1 0.362178 0.865016 0.391495
Si Si2 0.067783 0.432149 0.152007
Si Si3 0.762734 0.134663 0.157477
Si Si4 0.001163 0.107869 0.282037
Si Si5 0.030919 0.292810 0.669646
Si Si6 0.354231 0.384108 0.413611
Si Si7 0.491442 0.897547 0.910575
O O1 0.173584 0.919635 0.557820
O O2 0.541994 0.667736 0.458831
O O3 0.471994 0.985011 0.275479
O O4 0.225708 0.925520 0.287924
O O5 0.313629 0.309896 0.087374
O O6 0.004347 0.279258 0.279434
O O7 0.994077 0.587855 0.233910
O O8 0.000000 0.500000 0.000000
O O9 0.922214 0.182525 0.131414
O O10 0.545739 0.278878 0.268410
O O11 0.697199 0.124888 0.037428
O O12 0.884028 0.917423 0.239025
O O13 0.210331 0.296344 0.502132
O O14 0.812555 0.403070 0.642069
O O15 0.500000 0.000000 0.000000
#
# Coordination Sequence:
#
# PCOD9001821 Si02
#       7
#     2   2   2   2   2   2   2
#     4   9  19  39  65  96 133 170 221 266 333 387
#     4  11  24  45  65  95 139 176 228 273 330 408
#     4  11  21  42  68  98 134 172 224 278 331 395
#     4   9  22  40  69  99 134 175 217 283 338 381
#     4  11  22  36  66 102 128 179 226 272 328 400
#     4  10  21  35  65 100 137 168 225 275 326 391
#     4  11  22  40  71  96 130 186 222 263 337 408
#
# _framework density 26.393203
#
# number of rings (size 3 to 8) (size 9 to 14) (size 15 to 20)
#    0.000    1.714    2.857    1.286    2.000    4.571 
#    0.000   13.571    0.000    0.000    0.000    0.000 
#    0.000    0.000    0.000    0.000    0.000    0.000 
#
# Total GULP energy -78133.440613 kJ/mol
# GULP energy per Si atom -5580.960044 kJ/mol
# Density = 2.633313 g / cm^3
# Si number density = 26.393203 Si / 1000 Ang^3
#
#
#
# Elastic Constant Matrix: (Units=GPa)
#
#
# Indices 1 2 3 4 5 6 
#
# 1 169.3790 47.0692 30.4646 0.3184 42.4167 -31.7808
# 2 47.0692 94.8103 14.7472 4.5124 11.1264 -10.8456
# 3 30.4646 14.7472 82.6211 4.2429 14.9375 -8.8213
# 4 0.3184 4.5124 4.2429 40.8747 -6.5910 1.3925
# 5 42.4167 11.1264 14.9375 -6.5910 46.7308 -4.8594
# 6 -31.7808 -10.8456 -8.8213 1.3925 -4.8594 62.9533
#
#
#
# Elastic Compliance Matrix: (Units=1/GPa)
#
#
# Indices 1 2 3 4 5 6 
#
# 1 0.009488 -0.003232 -0.001195 -0.000877 -0.007217 0.003528
# 2 -0.003232 0.012386 -0.000940 -0.001234 0.000154 0.000410
# 3 -0.001195 -0.000940 0.013475 -0.001827 -0.003161 0.000919
# 4 -0.000877 -0.001234 -0.001827 0.025670 0.005182 -0.001079
# 5 -0.007217 0.000154 -0.003161 0.005182 0.029457 -0.001901
# 6 0.003528 0.000410 0.000919 -0.001079 -0.001901 0.017742
#
#
# Mechanical properties :
#
#
# Convention : Reuss Voigt Hill
#
# Bulk Modulus (GPa) = 40.62515 59.04138 49.83327
# Shear Modulus (GPa) = 39.32130 47.08039 43.20085
#
# Velocity S-wave (km/s) = 3.86401 4.22810 4.05015
# Velocity P-wave (km/s) = 5.94417 6.80105 6.38699
#
# Compressibility (1/GPa) = 0.02461529
#
# Stress axis : x y z
#
# Youngs Moduli (GPa) = 105.39548 80.73805 74.21004
#
# Poissons Ratio (x) = 0.26096 0.08868
# Poissons Ratio (y) = 0.34066 0.06973
# Poissons Ratio (z) = 0.12595 0.07587
#
# Static dielectric constant tensor:
#      x y z
#    x 2.177420 0.016380 0.094380 
#    y 0.016380 1.992130 0.000750 
#    z 0.094380 0.000750 2.249180 
# 
# From -- ./inp_files/378204.got.cif
#   From: 2010.05.17/outbox.cif.g08.bks.cpg/sg2_190_cif.got.tgz:378204.got - 2010.06.03 11:33:40.
