data_PCOD9001824
_publ_section_title
;
Structure prediction by ZEFSAII (Michael W. Deem and Ramdas Pophale) SiO2 
 PCOD9001824
Probable space group: P -1
;
_chemical_formula_sum "Si O2"
_cell_formula_units_Z 14
_cell_length_a 13.944777
_cell_length_b 9.884533
_cell_length_c 13.786327
_cell_angle_alpha 83.012732
_cell_angle_beta 31.582357
_cell_angle_gamma 58.829143
_cell_volume 597.496387
_symmetry_space_group_name_H-M "P -1"
_symmetry_group_IT_number 2
_symmetry_cell_setting 'triclinic'
loop_
_space_group_symop_operation_xyz
x,y,z
-x,-y,-z
loop_
_atom_site_type_symbol
_atom_site_label
_atom_site_fract_x
_atom_site_fract_y
_atom_site_fract_z
Si Si1 0.427001 0.722273 0.321613
Si Si2 0.927434 0.612637 0.952711
Si Si3 0.590230 0.126632 0.859280
Si Si4 0.694493 0.768276 0.724076
Si Si5 0.634270 0.329615 0.212540
Si Si6 0.865025 0.560288 0.406748
Si Si7 0.891179 0.180482 0.214986
O O1 0.294898 0.825937 0.318668
O O2 0.683177 0.452327 0.120105
O O3 0.237952 0.787091 0.572043
O O4 0.587554 0.768654 0.206543
O O5 0.143730 0.414446 0.702886
O O6 0.978519 0.743717 0.897793
O O7 0.000000 0.500000 0.000000
O O8 0.720303 0.905041 0.731370
O O9 0.580232 0.136630 0.984816
O O10 0.222721 0.341038 0.139221
O O11 0.689066 0.764159 0.612748
O O12 0.000000 0.500000 0.500000
O O13 0.311198 0.478584 0.431647
O O14 0.663644 0.314429 0.305927
O O15 0.863738 0.079056 0.001214
#
# Coordination Sequence:
#
# PCOD9001824 Si02
#       7
#     2   2   2   2   2   2   2
#     4  11  22  39  63  91 124 166 213 257 312 377
#     4  11  21  39  64  88 126 174 214 255 314 367
#     4   9  21  39  66  94 123 163 206 261 322 380
#     4   9  19  40  64  96 127 155 205 264 322 380
#     4  11  23  40  59  89 130 171 209 260 310 360
#     4  10  21  35  65  89 123 165 206 257 311 371
#     4  11  24  42  58  88 137 172 209 266 304 360
#
# _framework density 23.431103
#
# number of rings (size 3 to 8) (size 9 to 14) (size 15 to 20)
#    0.000    1.714    2.857    1.286    4.000    3.429 
#    0.000    2.857    0.000    8.571    0.000    0.000 
#    0.000    0.000    0.000    0.000    0.000    0.000 
#
# Total GULP energy -78020.943401 kJ/mol
# GULP energy per Si atom -5572.924529 kJ/mol
# Density = 2.337777 g / cm^3
# Si number density = 23.431103 Si / 1000 Ang^3
#
#
#
# Elastic Constant Matrix: (Units=GPa)
#
#
# Indices 1 2 3 4 5 6 
#
# 1 85.6729 40.3461 54.0044 4.9964 35.4863 1.4634
# 2 40.3461 141.6113 70.6368 -9.2810 38.9648 0.8630
# 3 54.0044 70.6368 90.8622 -4.1537 46.4531 4.5029
# 4 4.9964 -9.2810 -4.1537 40.4397 1.4254 3.6429
# 5 35.4863 38.9648 46.4531 1.4254 68.7973 -4.7521
# 6 1.4634 0.8630 4.5029 3.6429 -4.7521 40.4413
#
#
#
# Elastic Compliance Matrix: (Units=1/GPa)
#
#
# Indices 1 2 3 4 5 6 
#
# 1 0.019609 0.000250 -0.010426 -0.003361 -0.003120 0.000382
# 2 0.000250 0.011703 -0.008755 0.001744 -0.000850 0.000459
# 3 -0.010426 -0.008755 0.029391 0.003018 -0.009857 -0.004139
# 4 -0.003361 0.001744 0.003018 0.026182 -0.002032 -0.002849
# 5 -0.003120 -0.000850 -0.009857 -0.002032 0.023613 0.004186
# 6 0.000382 0.000459 -0.004139 -0.002849 0.004186 0.025913
#
#
# Mechanical properties :
#
#
# Convention : Reuss Voigt Hill
#
# Bulk Modulus (GPa) = 43.78218 72.01345 57.89782
# Shear Modulus (GPa) = 27.48965 40.14627 33.81796
#
# Velocity S-wave (km/s) = 3.42893 4.14378 3.80319
# Velocity P-wave (km/s) = 5.86539 7.32772 6.63695
#
# Compressibility (1/GPa) = 0.02284034
#
# Stress axis : x y z
#
# Youngs Moduli (GPa) = 50.99792 85.45016 34.02368
#
# Poissons Ratio (x) = -0.02136 0.35474
# Poissons Ratio (y) = -0.01275 0.29787
# Poissons Ratio (z) = 0.53172 0.74809
#
# Static dielectric constant tensor:
#      x y z
#    x 2.124800 -0.060960 -0.015160 
#    y -0.060960 1.869290 -0.026660 
#    z -0.015160 -0.026660 1.949510 
# 
# From -- ./inp_files/529520.got.cif
#   From: 2010.05.17/outbox.cif.g08.bks.cpg/sg2_265_cif.got.tgz:529520.got - 2010.06.03 11:33:40.
