data_PCOD9001204
_publ_section_title
;
Structure prediction by ZEFSAII (Michael W. Deem and Ramdas Pophale) SiO2 
 PCOD9001204
Probable space group: P -1
;
_chemical_formula_sum "Si O2"
_cell_formula_units_Z 14
_cell_length_a 12.149666
_cell_length_b 14.964540
_cell_length_c 5.125024
_cell_angle_alpha 83.918478
_cell_angle_beta 86.293488
_cell_angle_gamma 126.888421
_cell_volume 731.369236
_symmetry_space_group_name_H-M "P -1"
_symmetry_group_IT_number 2
_symmetry_cell_setting 'triclinic'
loop_
_space_group_symop_operation_xyz
x,y,z
-x,-y,-z
loop_
_atom_site_type_symbol
_atom_site_label
_atom_site_fract_x
_atom_site_fract_y
_atom_site_fract_z
Si Si1 0.536744 0.799426 0.450007
Si Si2 0.419159 0.922461 0.285086
Si Si3 0.422517 0.570695 0.777966
Si Si4 0.219332 0.974670 0.334235
Si Si5 0.788363 0.875029 0.094090
Si Si6 0.688373 0.577676 0.674744
Si Si7 0.090403 0.165341 0.414364
O O1 0.438326 0.825272 0.328516
O O2 0.451196 0.688144 0.672803
O O3 0.657362 0.909892 0.567863
O O4 0.625384 0.787066 0.226148
O O5 0.271089 0.898633 0.313681
O O6 0.500000 0.000000 0.500000
O O7 0.500000 0.000000 0.000000
O O8 0.573774 0.597574 0.754146
O O9 0.346193 0.483719 0.576614
O O10 0.336262 0.507497 0.070230
O O11 0.074946 0.907111 0.530662
O O12 0.198302 0.016589 0.050097
O O13 0.845546 0.845509 0.853642
O O14 0.868633 0.878777 0.334761
O O15 0.834266 0.701647 0.604374
#
# Coordination Sequence:
#
# PCOD9001204 Si02
#       7
#     2   2   2   2   2   2   2
#     4  11  23  38  60  87 114 147 194 236 285 326
#     4  10  22  38  58  81 113 150 191 233 275 329
#     4  10  21  34  57  77 113 144 189 234 273 326
#     4  11  24  39  59  84 121 151 186 231 283 348
#     4  12  22  35  56  88 118 150 177 231 287 345
#     4  10  21  36  52  81 111 150 185 226 279 334
#     4  12  25  36  57  86 122 153 183 223 292 347
#
# _framework density 19.14218
#
# number of rings (size 3 to 8) (size 9 to 14) (size 15 to 20)
#    0.000    1.143    4.286    1.714    8.000    0.000 
#    0.000    0.000    0.000    1.714    0.000    0.000 
#    0.000    0.000    0.000    0.000    0.000    0.000 
#
# Total GULP energy -78219.389522 kJ/mol
# GULP energy per Si atom -5587.099252 kJ/mol
# Density = 1.909861 g / cm^3
# Si number density = 19.142180 Si / 1000 Ang^3
#
#
#
# Elastic Constant Matrix: (Units=GPa)
#
#
# Indices 1 2 3 4 5 6 
#
# 1 118.2042 34.9231 37.3031 -14.0270 4.6603 -13.0314
# 2 34.9231 78.8821 16.2728 -27.6402 7.2836 5.7571
# 3 37.3031 16.2728 111.7079 -8.8179 4.6826 0.8741
# 4 -14.0270 -27.6402 -8.8179 30.9370 -9.3097 4.0006
# 5 4.6603 7.2836 4.6826 -9.3097 18.8569 -5.8910
# 6 -13.0314 5.7571 0.8741 4.0006 -5.8910 16.2287
#
#
#
# Elastic Compliance Matrix: (Units=1/GPa)
#
#
# Indices 1 2 3 4 5 6 
#
# 1 0.013085 -0.007405 -0.003784 -0.002510 0.004158 0.015466
# 2 -0.007405 0.025024 0.000819 0.020645 -0.004603 -0.021627
# 3 -0.003784 0.000819 0.010398 0.001852 -0.002714 -0.005331
# 4 -0.002510 0.020645 0.001852 0.056902 0.014604 -0.018165
# 5 0.004158 -0.004603 -0.002714 0.014604 0.070088 0.026960
# 6 0.015466 -0.021627 -0.005331 -0.018165 0.026960 0.096262
#
#
# Mechanical properties :
#
#
# Convention : Reuss Voigt Hill
#
# Bulk Modulus (GPa) = 36.01362 53.97690 44.99526
# Shear Modulus (GPa) = 16.56980 27.89088 22.23034
#
# Velocity S-wave (km/s) = 2.94533 3.82126 3.41152
# Velocity P-wave (km/s) = 5.51554 6.90858 6.25099
#
# Compressibility (1/GPa) = 0.02776728
#
# Stress axis : x y z
#
# Youngs Moduli (GPa) = 76.42251 39.96202 96.17201
#
# Poissons Ratio (x) = 0.29591 0.36395
# Poissons Ratio (y) = 0.56588 -0.07879
# Poissons Ratio (z) = 0.28921 -0.03274
#
# Static dielectric constant tensor:
#      x y z
#    x 1.684590 -0.011830 0.002220 
#    y -0.011830 1.690580 0.028590 
#    z 0.002220 0.028590 1.707100 
# 
# From -- ./inp_files/74276.got.cif
#   From: 2010.05.17/outbox.cif.g08.bks.cpg/sg2_38_cif.got.tgz:74276.got - 2010.06.03 11:33:40.
