data_PCOD9001922
_publ_section_title
;
Structure prediction by ZEFSAII (Michael W. Deem and Ramdas Pophale) SiO2 
 PCOD9001922
Probable space group: P -1
;
_chemical_formula_sum "Si O2"
_cell_formula_units_Z 14
_cell_length_a 8.677702
_cell_length_b 11.312369
_cell_length_c 21.303594
_cell_angle_alpha 148.485416
_cell_angle_beta 42.099708
_cell_angle_gamma 144.941866
_cell_volume 621.085677
_symmetry_space_group_name_H-M "P -1"
_symmetry_group_IT_number 2
_symmetry_cell_setting 'triclinic'
loop_
_space_group_symop_operation_xyz
x,y,z
-x,-y,-z
loop_
_atom_site_type_symbol
_atom_site_label
_atom_site_fract_x
_atom_site_fract_y
_atom_site_fract_z
Si Si1 0.140825 0.121836 0.791729
Si Si2 0.694518 0.963488 0.615691
Si Si3 0.271101 0.516312 0.037177
Si Si4 0.302954 0.068604 0.266883
Si Si5 0.902441 0.400156 0.203098
Si Si6 0.364188 0.888675 0.423714
Si Si7 0.065493 0.716631 0.726391
O O1 0.415084 0.146116 0.696510
O O2 0.942829 0.036214 0.754072
O O3 0.992859 0.888250 0.782615
O O4 0.226142 0.389835 0.924942
O O5 0.767375 0.864524 0.612770
O O6 0.694270 0.931324 0.525378
O O7 0.895717 0.283447 0.703729
O O8 0.380111 0.838128 0.671121
O O9 0.342595 0.817770 0.148304
O O10 0.994886 0.352820 0.087248
O O11 0.500000 0.500000 0.000000
O O12 0.589243 0.306650 0.261789
O O13 0.960662 0.263903 0.182265
O O14 0.106993 0.593871 0.378101
O O15 0.500000 0.000000 0.500000
#
# Coordination Sequence:
#
# PCOD9001922 Si02
#       7
#     2   2   2   2   2   2   2
#     4  11  23  35  53  87 118 145 185 233 279 330
#     4   8  17  35  57  80 106 142 186 226 267 327
#     4  11  21  35  56  82 114 153 194 226 262 327
#     4  10  21  36  54  81 122 153 178 224 278 331
#     4   9  18  34  55  77 107 151 187 217 269 328
#     4  10  21  39  63  84 105 142 191 238 283 329
#     4   9  18  35  58  80 107 142 184 230 276 327
#
# _framework density 22.541173000000001
#
# number of rings (size 3 to 8) (size 9 to 14) (size 15 to 20)
#    0.000    2.286    0.000    5.571    0.000    8.571 
#    0.000    0.714    0.000    8.571    0.000    0.000 
#    0.000    0.000    0.000    0.000    0.000    0.000 
#
# Total GULP energy -78061.604387 kJ/mol
# GULP energy per Si atom -5575.828885 kJ/mol
# Density = 2.248987 g / cm^3
# Si number density = 22.541173 Si / 1000 Ang^3
#
#
#
# Elastic Constant Matrix: (Units=GPa)
#
#
# Indices 1 2 3 4 5 6 
#
# 1 92.2941 31.5209 26.0218 12.7966 21.1330 18.5824
# 2 31.5209 147.3100 39.1292 -2.7613 6.1703 9.5865
# 3 26.0218 39.1292 79.4383 -8.9589 22.2182 0.1940
# 4 12.7966 -2.7613 -8.9589 31.3287 -2.4296 4.4236
# 5 21.1330 6.1703 22.2182 -2.4296 43.3888 3.0436
# 6 18.5824 9.5865 0.1940 4.4236 3.0436 24.8992
#
#
#
# Elastic Compliance Matrix: (Units=1/GPa)
#
#
# Indices 1 2 3 4 5 6 
#
# 1 0.016813 -0.001847 -0.003788 -0.007166 -0.005697 -0.009837
# 2 -0.001847 0.008302 -0.003926 0.000819 0.001927 -0.002169
# 3 -0.003788 -0.003926 0.018298 0.005315 -0.006957 0.004102
# 4 -0.007166 0.000819 0.005315 0.036931 0.002855 -0.001919
# 5 -0.005697 0.001927 -0.006957 0.002855 0.029307 -0.000525
# 6 -0.009837 -0.002169 0.004102 -0.001919 -0.000525 0.048711
#
#
# Mechanical properties :
#
#
# Convention : Reuss Voigt Hill
#
# Bulk Modulus (GPa) = 41.16716 56.93181 49.04948
# Shear Modulus (GPa) = 26.94232 34.74806 30.84519
#
# Velocity S-wave (km/s) = 3.46099 3.93050 3.70319
# Velocity P-wave (km/s) = 5.85440 6.77570 6.33183
#
# Compressibility (1/GPa) = 0.02429121
#
# Stress axis : x y z
#
# Youngs Moduli (GPa) = 59.47955 120.45128 54.65011
#
# Poissons Ratio (x) = 0.22244 0.20703
# Poissons Ratio (y) = 0.10984 0.21454
# Poissons Ratio (z) = 0.22533 0.47287
#
# Static dielectric constant tensor:
#      x y z
#    x 1.926880 -0.023230 0.008410 
#    y -0.023230 1.810670 -0.017940 
#    z 0.008410 -0.017940 1.887610 
# 
# From -- ./inp_files/35190.got.cif
#   From: 2010.05.17/outbox.cif.g08.bks.cpg/sg2_18_cif.got.tgz:35190.got - 2010.06.03 11:33:40.
