data_PCOD9001363
_publ_section_title
;
Structure prediction by ZEFSAII (Michael W. Deem and Ramdas Pophale) SiO2 
 PCOD9001363
Probable space group: P -1
;
_chemical_formula_sum "Si O2"
_cell_formula_units_Z 16
_cell_length_a 13.768559
_cell_length_b 21.866485
_cell_length_c 14.167258
_cell_angle_alpha 31.647870
_cell_angle_beta 148.703101
_cell_angle_gamma 160.381465
_cell_volume 717.129006
_symmetry_space_group_name_H-M "P -1"
_symmetry_group_IT_number 2
_symmetry_cell_setting 'triclinic'
loop_
_space_group_symop_operation_xyz
x,y,z
-x,-y,-z
loop_
_atom_site_type_symbol
_atom_site_label
_atom_site_fract_x
_atom_site_fract_y
_atom_site_fract_z
Si Si1 0.432116 0.316812 0.433806
Si Si2 0.206911 0.006333 0.293954
Si Si3 0.831276 0.014643 0.230514
Si Si4 0.045001 0.491466 0.940173
Si Si5 0.575903 0.072467 0.135499
Si Si6 0.263828 0.420997 0.491253
Si Si7 0.381717 0.155601 0.433044
Si Si8 0.656269 0.894197 0.922961
O O1 0.581651 0.488196 0.396918
O O2 0.556966 0.334454 0.411615
O O3 0.087306 0.179523 0.299973
O O4 0.395416 0.183137 0.644021
O O5 0.999788 0.803627 0.431903
O O6 0.444729 0.164798 0.363065
O O7 0.330692 0.028916 0.265095
O O8 0.975476 0.996450 0.084965
O O9 0.035087 0.033261 0.306836
O O10 0.675713 0.037307 0.010567
O O11 0.887675 0.526494 0.716656
O O12 0.403877 0.670888 0.985304
O O13 0.861355 0.282329 0.053856
O O14 0.000000 0.500000 0.000000
O O15 0.463453 0.089507 0.110891
O O16 0.617515 0.964298 0.351602
O O17 0.500000 0.500000 0.500000
#
# Coordination Sequence:
#
# PCOD9001363 Si02
#       8
#     2   2   2   2   2   2   2   2
#     4   9  20  37  54  87 128 157 196 249 293 370
#     4  11  22  39  65  84 120 169 199 254 306 366
#     4   9  18  37  56  84 124 155 197 241 294 365
#     4  10  21  35  52  90 127 148 196 262 290 365
#     4  11  19  37  63  91 123 157 201 257 295 363
#     4  12  22  36  62  91 124 158 201 251 311 349
#     4  10  21  36  61  89 117 170 192 243 308 350
#     4  10  22  39  57  90 124 156 209 251 308 359
#
# _framework density 22.31119
#
# number of rings (size 3 to 8) (size 9 to 14) (size 15 to 20)
#    0.750    1.000    2.500    3.750    0.000    3.500 
#    0.000    0.000    0.000    9.750    0.000    0.000 
#    0.000    0.000    0.000    0.000    0.000    0.000 
#
# Total GULP energy -89182.115620 kJ/mol
# GULP energy per Si atom -5573.882226 kJ/mol
# Density = 2.226041 g / cm^3
# Si number density = 22.311190 Si / 1000 Ang^3
#
#
#
# Elastic Constant Matrix: (Units=GPa)
#
#
# Indices 1 2 3 4 5 6 
#
# 1 100.6995 13.8464 23.8814 -0.6241 -13.4554 -26.9714
# 2 13.8464 39.1506 7.6617 14.0956 -7.4916 -20.2407
# 3 23.8814 7.6617 97.5956 12.8579 -7.7654 -13.1165
# 4 -0.6241 14.0956 12.8579 22.8925 -9.4372 -11.1942
# 5 -13.4554 -7.4916 -7.7654 -9.4372 34.9924 -0.2881
# 6 -26.9714 -20.2407 -13.1165 -11.1942 -0.2881 33.7029
#
#
#
# Elastic Compliance Matrix: (Units=1/GPa)
#
#
# Indices 1 2 3 4 5 6 
#
# 1 0.016563 0.000292 -0.002877 0.014309 0.009793 0.017147
# 2 0.000292 0.042644 0.001865 -0.014075 0.006041 0.021947
# 3 -0.002877 0.001865 0.011913 -0.007472 -0.000070 0.000972
# 4 0.014309 -0.014075 -0.007472 0.079165 0.022400 0.026576
# 5 0.009793 0.006041 -0.000070 0.022400 0.039820 0.019218
# 6 0.017147 0.021947 0.000972 0.026576 0.019218 0.065943
#
#
# Mechanical properties :
#
#
# Convention : Reuss Voigt Hill
#
# Bulk Modulus (GPa) = 14.35126 36.46942 25.41034
# Shear Modulus (GPa) = 17.81168 31.12130 24.46649
#
# Velocity S-wave (km/s) = 2.82854 3.73885 3.31509
# Velocity P-wave (km/s) = 4.13688 5.91777 5.10557
#
# Compressibility (1/GPa) = 0.06968031
#
# Stress axis : x y z
#
# Youngs Moduli (GPa) = 60.37733 23.45004 83.93893
#
# Poissons Ratio (x) = -0.00685 0.24152
# Poissons Ratio (y) = -0.01765 -0.15657
# Poissons Ratio (z) = 0.17372 -0.04374
#
# Static dielectric constant tensor:
#      x y z
#    x 1.904780 -0.003420 0.015250 
#    y -0.003420 1.869200 0.035670 
#    z 0.015250 0.035670 1.809100 
# 
# From -- ./inp_files/535404.got.cif
#   From: 2010.05.17/outbox.cif.g08.bks.cpg/sg2_268_cif.got.tgz:535404.got - 2010.06.03 11:33:40.
