data_PCOD9001367
_publ_section_title
;
Structure prediction by ZEFSAII (Michael W. Deem and Ramdas Pophale) SiO2 
 PCOD9001367
Probable space group: P -1
;
_chemical_formula_sum "Si O2"
_cell_formula_units_Z 14
_cell_length_a 7.878312
_cell_length_b 13.707917
_cell_length_c 9.022685
_cell_angle_alpha 63.595608
_cell_angle_beta 58.523659
_cell_angle_gamma 103.403771
_cell_volume 591.274140
_symmetry_space_group_name_H-M "P -1"
_symmetry_group_IT_number 2
_symmetry_cell_setting 'triclinic'
loop_
_space_group_symop_operation_xyz
x,y,z
-x,-y,-z
loop_
_atom_site_type_symbol
_atom_site_label
_atom_site_fract_x
_atom_site_fract_y
_atom_site_fract_z
Si Si1 0.567520 0.211076 0.195106
Si Si2 0.378415 0.321189 0.641377
Si Si3 0.926013 0.357292 0.197036
Si Si4 0.884887 0.509337 0.695307
Si Si5 0.845819 0.123871 0.988843
Si Si6 0.571682 0.559912 0.183089
Si Si7 0.149067 0.085702 0.685046
O O1 0.708520 0.360236 0.956272
O O2 0.097369 0.280716 0.785387
O O3 0.611223 0.122300 0.128130
O O4 0.719755 0.240085 0.260234
O O5 0.563951 0.458578 0.372580
O O6 0.440302 0.338926 0.773397
O O7 0.336040 0.199828 0.647389
O O8 0.901693 0.374433 0.370781
O O9 0.172315 0.363928 0.070778
O O10 0.000000 0.500000 0.000000
O O11 0.679699 0.532538 0.732985
O O12 0.000000 0.500000 0.500000
O O13 0.286088 0.140054 0.428557
O O14 0.876160 0.046013 0.160078
O O15 0.899793 0.073487 0.847042
#
# Coordination Sequence:
#
# PCOD9001367 Si02
#       7
#     2   2   2   2   2   2   2
#     4  11  20  38  58  85 115 148 193 237 278 342
#     4   9  18  32  59  82 111 146 187 231 282 337
#     4  10  21  35  53  81 114 149 190 224 280 348
#     4  11  25  34  52  87 122 152 185 228 289 347
#     4   9  18  35  57  90 104 144 195 247 272 330
#     4  11  20  35  56  82 121 152 180 229 292 342
#     4   9  19  33  60  86 108 142 198 240 282 323
#
# _framework density 23.677681
#
# number of rings (size 3 to 8) (size 9 to 14) (size 15 to 20)
#    0.857    1.143    1.429    3.429    8.000    0.000 
#    0.000    0.000    0.000    1.714    7.429    0.000 
#    0.000    0.000    0.000    0.000    0.000    0.000 
#
# Total GULP energy -77996.338016 kJ/mol
# GULP energy per Si atom -5571.167001 kJ/mol
# Density = 2.362379 g / cm^3
# Si number density = 23.677681 Si / 1000 Ang^3
#
#
#
# Elastic Constant Matrix: (Units=GPa)
#
#
# Indices 1 2 3 4 5 6 
#
# 1 49.3011 -1.4275 6.2782 21.7543 -1.1364 -0.8052
# 2 -1.4275 60.4233 26.9491 15.7617 -0.7815 -14.5781
# 3 6.2782 26.9491 144.6614 33.3295 -9.9861 -14.7026
# 4 21.7543 15.7617 33.3295 36.8108 -5.3304 -1.5260
# 5 -1.1364 -0.7815 -9.9861 -5.3304 22.3364 8.9895
# 6 -0.8052 -14.5781 -14.7026 -1.5260 8.9895 14.8976
#
#
#
# Elastic Compliance Matrix: (Units=1/GPa)
#
#
# Indices 1 2 3 4 5 6 
#
# 1 0.033067 0.011408 0.004585 -0.029354 -0.011487 0.021400
# 2 0.011408 0.032670 0.001987 -0.023725 -0.021100 0.044848
# 3 0.004585 0.001987 0.010438 -0.012963 -0.003457 0.013252
# 4 -0.029354 -0.023725 -0.012963 0.068386 0.027092 -0.046939
# 5 -0.011487 -0.021100 -0.003457 0.027092 0.075525 -0.067478
# 6 0.021400 0.044848 0.013252 -0.046939 -0.067478 0.161155
#
#
# Mechanical properties :
#
#
# Convention : Reuss Voigt Hill
#
# Bulk Modulus (GPa) = 8.91787 35.33170 22.12479
# Shear Modulus (GPa) = 13.06640 29.64802 21.35721
#
# Velocity S-wave (km/s) = 2.35169 3.54241 3.00659
# Velocity P-wave (km/s) = 3.33893 5.62903 4.62787
#
# Compressibility (1/GPa) = 0.11213443
#
# Stress axis : x y z
#
# Youngs Moduli (GPa) = 30.24125 30.60947 95.80047
#
# Poissons Ratio (x) = -0.34919 -0.43923
# Poissons Ratio (y) = -0.34499 -0.19032
# Poissons Ratio (z) = -0.13865 -0.06081
#
# Static dielectric constant tensor:
#      x y z
#    x 1.918470 -0.025440 -0.040500 
#    y -0.025440 2.021450 0.042240 
#    z -0.040500 0.042240 1.988090 
# 
# From -- ./inp_files/200617.got.cif
#   From: 2010.05.17/outbox.cif.g08.bks.cpg/sg2_101_cif.got.tgz:200617.got - 2010.06.03 11:33:40.
