data_PCOD9001257
_publ_section_title
;
Structure prediction by ZEFSAII (Michael W. Deem and Ramdas Pophale) SiO2 
 PCOD9001257
Probable space group: P -1
;
_chemical_formula_sum "Si O2"
_cell_formula_units_Z 14
_cell_length_a 14.911977
_cell_length_b 25.667326
_cell_length_c 25.758065
_cell_angle_alpha 168.305055
_cell_angle_beta 162.965176
_cell_angle_gamma 17.860166
_cell_volume 565.065818
_symmetry_space_group_name_H-M "P -1"
_symmetry_group_IT_number 2
_symmetry_cell_setting 'triclinic'
loop_
_space_group_symop_operation_xyz
x,y,z
-x,-y,-z
loop_
_atom_site_type_symbol
_atom_site_label
_atom_site_fract_x
_atom_site_fract_y
_atom_site_fract_z
Si Si1 0.894512 0.468442 0.833208
Si Si2 0.059749 0.256917 0.256042
Si Si3 0.155625 0.114747 0.014597
Si Si4 0.663706 0.002985 0.276638
Si Si5 0.485197 0.975406 0.405929
Si Si6 0.355316 0.597035 0.569855
Si Si7 0.566401 0.507538 0.922083
O O1 0.925611 0.167348 0.575318
O O2 0.625208 0.531181 0.699812
O O3 0.210832 0.499339 0.010991
O O4 0.780246 0.685382 0.026999
O O5 0.794891 0.366811 0.173093
O O6 0.000000 0.500000 0.500000
O O7 0.411344 0.154456 0.327197
O O8 0.000000 0.000000 0.000000
O O9 0.884927 0.014862 0.796606
O O10 0.223900 0.915968 0.809405
O O11 0.457661 0.057664 0.162843
O O12 0.101001 0.425792 0.274779
O O13 0.500000 0.000000 0.500000
O O14 0.588676 0.216448 0.672240
O O15 0.654348 0.699437 0.201769
O O16 0.500000 0.500000 0.500000
#
# Coordination Sequence:
#
# PCOD9001257 Si02
#       7
#     2   2   2   2   2   2   2
#     4  10  23  40  66  94 132 186 210 279 352 381
#     4  12  26  46  76 105 129 177 230 283 351 415
#     4  10  21  37  59  88 125 176 223 266 325 380
#     4  10  21  44  66  94 134 173 221 271 335 411
#     4  12  26  40  68  98 142 187 227 278 341 398
#     4  10  21  34  59  86 129 171 231 269 311 396
#     4  12  26  47  68 101 145 174 234 291 334 409
#
# _framework density 24.775876
#
# number of rings (size 3 to 8) (size 9 to 14) (size 15 to 20)
#    0.000    1.143    1.429    4.286    8.000    0.000 
#    0.000    4.286    0.000    0.000    0.000    0.000 
#    0.000    0.000    0.000    0.000    0.000    0.000 
#
# Total GULP energy -78343.637673 kJ/mol
# GULP energy per Si atom -5595.974119 kJ/mol
# Density = 2.471948 g / cm^3
# Si number density = 24.775876 Si / 1000 Ang^3
#
#
#
# Elastic Constant Matrix: (Units=GPa)
#
#
# Indices 1 2 3 4 5 6 
#
# 1 96.6495 12.0399 72.9902 10.2369 -16.9092 -23.9828
# 2 12.0399 75.1693 33.6547 7.5905 -3.1421 -5.2389
# 3 72.9902 33.6547 198.2094 18.5466 -6.8056 -15.5214
# 4 10.2369 7.5905 18.5466 19.4502 -8.4537 -0.5048
# 5 -16.9092 -3.1421 -6.8056 -8.4537 68.0595 0.1235
# 6 -23.9828 -5.2389 -15.5214 -0.5048 0.1235 50.7204
#
#
#
# Elastic Compliance Matrix: (Units=1/GPa)
#
#
# Indices 1 2 3 4 5 6 
#
# 1 0.016786 0.000560 -0.005460 -0.002222 0.003363 0.006294
# 2 0.000560 0.014686 -0.002258 -0.003794 0.000118 0.001052
# 3 -0.005460 -0.002258 0.007751 -0.004171 -0.001203 -0.000482
# 4 -0.002222 -0.003794 -0.004171 0.060770 0.006408 -0.002129
# 5 0.003363 0.000118 -0.001203 0.006408 0.016207 0.001259
# 6 0.006294 0.001052 -0.000482 -0.002129 0.001259 0.022629
#
#
# Mechanical properties :
#
#
# Convention : Reuss Voigt Hill
#
# Bulk Modulus (GPa) = 40.15284 67.48864 53.82074
# Shear Modulus (GPa) = 30.96973 44.40224 37.68599
#
# Velocity S-wave (km/s) = 3.53936 4.23798 3.90433
# Velocity P-wave (km/s) = 5.73972 7.15864 6.48808
#
# Compressibility (1/GPa) = 0.02490484
#
# Stress axis : x y z
#
# Youngs Moduli (GPa) = 59.57378 68.09159 129.02339
#
# Poissons Ratio (x) = -0.03810 0.70449
# Poissons Ratio (y) = -0.03334 0.29136
# Poissons Ratio (z) = 0.32529 0.15377
#
# Static dielectric constant tensor:
#      x y z
#    x 1.977750 0.010470 -0.037140 
#    y 0.010470 2.014750 -0.011060 
#    z -0.037140 -0.011060 1.947520 
# 
# From -- ./inp_files/525753.got.cif
#   From: 2010.05.17/outbox.cif.g08.bks.cpg/sg2_263_cif.got.tgz:525753.got - 2010.06.03 11:33:40.
