data_PCOD9001796
_publ_section_title
;
Structure prediction by ZEFSAII (Michael W. Deem and Ramdas Pophale) SiO2 
 PCOD9001796
Probable space group: P -1
;
_chemical_formula_sum "Si O2"
_cell_formula_units_Z 16
_cell_length_a 16.750610
_cell_length_b 11.765458
_cell_length_c 7.268430
_cell_angle_alpha 118.902053
_cell_angle_beta 59.997968
_cell_angle_gamma 148.958989
_cell_volume 634.822671
_symmetry_space_group_name_H-M "P -1"
_symmetry_group_IT_number 2
_symmetry_cell_setting 'triclinic'
loop_
_space_group_symop_operation_xyz
x,y,z
-x,-y,-z
loop_
_atom_site_type_symbol
_atom_site_label
_atom_site_fract_x
_atom_site_fract_y
_atom_site_fract_z
Si Si1 0.849051 0.133734 0.978126
Si Si2 0.897592 0.546509 0.467298
Si Si3 0.082114 0.985648 0.522805
Si Si4 0.380824 0.447431 0.718496
Si Si5 0.609943 0.156267 0.752259
Si Si6 0.866299 0.393260 0.902596
Si Si7 0.491100 0.295168 0.867657
Si Si8 0.370312 0.652061 0.605281
O O1 0.840271 0.271740 0.017431
O O2 0.850199 0.039155 0.726788
O O3 0.020213 0.349744 0.042256
O O4 0.698620 0.919403 0.102129
O O5 0.763924 0.338371 0.587931
O O6 0.798339 0.476156 0.343988
O O7 0.038081 0.604739 0.328618
O O8 0.968160 0.767279 0.608704
O O9 0.211240 0.194009 0.670377
O O10 0.000000 0.000000 0.500000
O O11 0.500000 0.500000 0.500000
O O12 0.378682 0.585611 0.732695
O O13 0.439154 0.525538 0.922116
O O14 0.691377 0.226728 0.908834
O O15 0.522417 0.189946 0.841775
O O16 0.502000 0.912016 0.638253
O O17 0.587287 0.400668 0.649507
#
# Coordination Sequence:
#
# PCOD9001796 Si02
#       8
#     2   2   2   2   2   2   2   2
#     4  10  21  39  60  92 131 169 216 270 325 390
#     4  10  21  41  63  91 131 171 208 268 332 383
#     4  11  23  43  66  88 131 179 215 268 325 381
#     4  12  26  46  68  96 132 177 228 263 318 396
#     4  11  23  39  67 101 131 166 218 276 334 384
#     4  10  21  35  63  96 128 169 216 266 334 386
#     4  11  24  43  66  98 131 171 222 268 329 391
#     4  11  24  44  71  96 135 173 212 278 331 385
#
# _framework density 25.203887999999999
#
# number of rings (size 3 to 8) (size 9 to 14) (size 15 to 20)
#    0.000    1.250    2.500    4.125    3.500    3.500 
#    0.000    2.500    0.000    0.000    0.000    0.000 
#    0.000    0.000    0.000    0.000    0.000    0.000 
#
# Total GULP energy -89494.350798 kJ/mol
# GULP energy per Si atom -5593.396925 kJ/mol
# Density = 2.514652 g / cm^3
# Si number density = 25.203888 Si / 1000 Ang^3
#
#
#
# Elastic Constant Matrix: (Units=GPa)
#
#
# Indices 1 2 3 4 5 6 
#
# 1 71.8997 17.3138 7.8712 10.2683 0.7391 4.2859
# 2 17.3138 156.5550 28.3761 20.7106 -4.6107 15.7184
# 3 7.8712 28.3761 93.0898 14.5874 -9.1267 5.8071
# 4 10.2683 20.7106 14.5874 40.9978 5.4638 3.9732
# 5 0.7391 -4.6107 -9.1267 5.4638 37.5039 4.0073
# 6 4.2859 15.7184 5.8071 3.9732 4.0073 37.1593
#
#
#
# Elastic Compliance Matrix: (Units=1/GPa)
#
#
# Indices 1 2 3 4 5 6 
#
# 1 0.014679 -0.001080 -0.000404 -0.002903 -0.000005 -0.000862
# 2 -0.001080 0.007453 -0.001435 -0.002901 0.001292 -0.002633
# 3 -0.000404 -0.001435 0.012242 -0.003878 0.003506 -0.001223
# 4 -0.002903 -0.002901 -0.003878 0.028714 -0.005392 -0.000321
# 5 -0.000005 0.001292 0.003506 -0.005392 0.028849 -0.003629
# 6 -0.000862 -0.002633 -0.001223 -0.000321 -0.003629 0.028741
#
#
# Mechanical properties :
#
#
# Convention : Reuss Voigt Hill
#
# Bulk Modulus (GPa) = 35.04308 47.62962 41.33635
# Shear Modulus (GPa) = 36.75736 40.99776 38.87756
#
# Velocity S-wave (km/s) = 3.82304 4.03754 3.93176
# Velocity P-wave (km/s) = 5.78114 6.37765 6.08671
#
# Compressibility (1/GPa) = 0.02853630
#
# Stress axis : x y z
#
# Youngs Moduli (GPa) = 68.12677 134.16935 81.68794
#
# Poissons Ratio (x) = 0.14486 0.03299
# Poissons Ratio (y) = 0.07356 0.11723
# Poissons Ratio (z) = 0.02751 0.19254
#
# Static dielectric constant tensor:
#      x y z
#    x 2.065940 0.044060 0.081470 
#    y 0.044060 1.993810 0.041310 
#    z 0.081470 0.041310 2.127290 
# 
# From -- ./inp_files/278603.got.cif
#   From: 2010.05.17/outbox.cif.g08.bks.cpg/sg2_140_cif.got.tgz:278603.got - 2010.06.03 11:33:40.
