data_PCOD9001907
_publ_section_title
;
Structure prediction by ZEFSAII (Michael W. Deem and Ramdas Pophale) SiO2 
 PCOD9001907
Probable space group: P -1
;
_chemical_formula_sum "Si O2"
_cell_formula_units_Z 16
_cell_length_a 7.139059
_cell_length_b 5.249361
_cell_length_c 27.350258
_cell_angle_alpha 96.781997
_cell_angle_beta 73.497270
_cell_angle_gamma 113.161583
_cell_volume 903.509062
_symmetry_space_group_name_H-M "P -1"
_symmetry_group_IT_number 2
_symmetry_cell_setting 'triclinic'
loop_
_space_group_symop_operation_xyz
x,y,z
-x,-y,-z
loop_
_atom_site_type_symbol
_atom_site_label
_atom_site_fract_x
_atom_site_fract_y
_atom_site_fract_z
Si Si1 0.225146 0.799928 0.816847
Si Si2 0.542452 0.604463 0.231510
Si Si3 0.659391 0.801745 0.434490
Si Si4 0.958782 0.595981 0.734123
Si Si5 0.782890 0.402350 0.484878
Si Si6 0.750981 0.100785 0.981987
Si Si7 0.983804 0.695472 0.934539
Si Si8 0.192166 0.192189 0.685674
O O1 0.381934 0.635494 0.798121
O O2 0.055443 0.679302 0.783124
O O3 0.107329 0.749970 0.875882
O O4 0.351884 0.122685 0.803283
O O5 0.637584 0.688762 0.280822
O O6 0.292030 0.507471 0.248516
O O7 0.771557 0.637486 0.454542
O O8 0.413441 0.669906 0.464762
O O9 0.699433 0.774924 0.374079
O O10 0.745495 0.121826 0.451464
O O11 0.039003 0.361832 0.703568
O O12 0.060020 0.871519 0.700338
O O13 0.000000 0.500000 0.500000
O O14 0.853059 0.371876 0.946842
O O15 0.828119 0.861682 0.952594
O O16 0.500000 0.000000 0.000000
O O17 0.850719 0.190921 0.030528
#
# Coordination Sequence:
#
# PCOD9001907 Si02
#       8
#     2   2   2   2   2   2   2   2
#     4  10  21  36  56  80 108 140 179 222 266 318
#     4  10  21  37  55  79 108 139 176 220 265 316
#     4  10  21  36  56  80 108 140 177 218 262 314
#     4  10  21  37  55  79 110 139 176 222 265 316
#     4  10  21  38  56  80 110 140 177 220 262 312
#     4  10  21  36  54  78 110 142 179 224 266 316
#     4  10  21  36  54  80 108 140 181 222 266 318
#     4  10  21  36  54  80 108 138 177 218 262 316
#
# _framework density 17.708732999999999
#
# number of rings (size 3 to 8) (size 9 to 14) (size 15 to 20)
#    0.000    2.000    0.000    3.000    0.000    4.000 
#    0.000    0.000    0.000    0.000    0.000    0.000 
#    0.000    0.000    0.000    0.000    0.000    0.000 
#
# Total GULP energy -89381.323536 kJ/mol
# GULP energy per Si atom -5586.332721 kJ/mol
# Density = 1.766843 g / cm^3
# Si number density = 17.708733 Si / 1000 Ang^3
#
#
#
# Elastic Constant Matrix: (Units=GPa)
#
#
# Indices 1 2 3 4 5 6 
#
# 1 122.2567 62.4036 33.7478 -9.8970 -6.1703 -12.1099
# 2 62.4036 50.7447 25.7766 -13.5816 2.9444 -23.5046
# 3 33.7478 25.7766 126.9503 -14.0320 -9.5973 -15.5130
# 4 -9.8970 -13.5816 -14.0320 11.4939 -1.1475 1.3440
# 5 -6.1703 2.9444 -9.5973 -1.1475 6.3906 -2.9207
# 6 -12.1099 -23.5046 -15.5130 1.3440 -2.9207 33.9513
#
#
#
# Elastic Compliance Matrix: (Units=1/GPa)
#
#
# Indices 1 2 3 4 5 6 
#
# 1 0.128574 -0.272027 -0.002399 -0.183645 0.156770 -0.122805
# 2 -0.272027 0.624374 0.005223 0.442910 -0.329619 0.291727
# 3 -0.002399 0.005223 0.012586 0.020570 0.022264 0.009612
# 4 -0.183645 0.442910 0.020570 0.434564 -0.172610 0.218472
# 5 0.156770 -0.329619 0.022264 -0.172610 0.407198 -0.120244
# 6 -0.122805 0.291727 0.009612 0.218472 -0.120244 0.173015
#
#
# Mechanical properties :
#
#
# Convention : Reuss Voigt Hill
#
# Bulk Modulus (GPa) = 4.40279 60.42307 32.41293
# Shear Modulus (GPa) = 2.08818 22.23541 12.16180
#
# Velocity S-wave (km/s) = 1.08708 3.54731 2.62347
# Velocity P-wave (km/s) = 2.01675 7.13950 5.24594
#
# Compressibility (1/GPa) = 0.22712860
#
# Stress axis : x y z
#
# Youngs Moduli (GPa) = 7.77762 1.60160 79.45581
#
# Poissons Ratio (x) = 0.43568 0.19065
# Poissons Ratio (y) = 2.11572 -0.41503
# Poissons Ratio (z) = 0.01866 -0.00837
#
# Static dielectric constant tensor:
#      x y z
#    x 1.574480 -0.016940 0.010500 
#    y -0.016940 1.588450 0.002450 
#    z 0.010500 0.002450 1.566860 
# 
# From -- ./inp_files/603263.got.cif
#   From: 2010.05.17/outbox.cif.g08.bks.cpg/sg2_302_cif.got.tgz:603263.got - 2010.06.03 11:33:40.
