data_PCOD9001697
_publ_section_title
;
Structure prediction by ZEFSAII (Michael W. Deem and Ramdas Pophale) SiO2 
 PCOD9001697
Probable space group: P -1
;
_chemical_formula_sum "Si O2"
_cell_formula_units_Z 14
_cell_length_a 11.792433
_cell_length_b 9.717284
_cell_length_c 12.144348
_cell_angle_alpha 113.274632
_cell_angle_beta 68.777540
_cell_angle_gamma 53.649076
_cell_volume 609.679856
_symmetry_space_group_name_H-M "P -1"
_symmetry_group_IT_number 2
_symmetry_cell_setting 'triclinic'
loop_
_space_group_symop_operation_xyz
x,y,z
-x,-y,-z
loop_
_atom_site_type_symbol
_atom_site_label
_atom_site_fract_x
_atom_site_fract_y
_atom_site_fract_z
Si Si1 0.162087 0.934536 0.847816
Si Si2 0.927307 0.813755 0.550934
Si Si3 0.563597 0.810750 0.568693
Si Si4 0.736416 0.828927 0.815599
Si Si5 0.756779 0.904730 0.419107
Si Si6 0.134570 0.281736 0.025506
Si Si7 0.729431 0.366841 0.493975
O O1 0.441832 0.649711 0.700977
O O2 0.178541 0.855480 0.692749
O O3 0.044942 0.223466 0.983749
O O4 0.000000 0.000000 0.000000
O O5 0.100647 0.486241 0.371675
O O6 0.089028 0.783850 0.520194
O O7 0.745918 0.941231 0.749308
O O8 0.813136 0.956931 0.514873
O O9 0.662590 0.856210 0.498689
O O10 0.742109 0.509691 0.467074
O O11 0.436526 0.854170 0.528591
O O12 0.377960 0.053870 0.804487
O O13 0.831440 0.799717 0.885671
O O14 0.500000 0.000000 0.000000
O O15 0.980318 0.595164 0.179090
#
# Coordination Sequence:
#
# PCOD9001697 Si02
#       7
#     2   2   2   2   2   2   2
#     4  10  19  32  52  74  96 128 170 217 251 285
#     4  10  19  31  47  75 103 127 165 207 250 296
#     4  10  19  33  50  76 105 134 165 197 246 303
#     4  10  17  27  47  72 101 129 156 203 253 292
#     4  10  20  32  51  76 107 135 158 198 251 305
#     4  10  19  31  50  75  99 127 167 207 245 292
#     4  10  20  33  51  75  99 128 172 212 246 292
#
# _framework density 22.962869999999999
#
# number of rings (size 3 to 8) (size 9 to 14) (size 15 to 20)
#    0.000    2.000    0.000    7.286    0.000    0.000 
#    0.000    0.000    0.000    7.714    0.000   12.000 
#    0.000    0.000    0.000    0.000    0.000    0.000 
#
# Total GULP energy -78115.501492 kJ/mol
# GULP energy per Si atom -5579.678678 kJ/mol
# Density = 2.291061 g / cm^3
# Si number density = 22.962870 Si / 1000 Ang^3
#
#
#
# Elastic Constant Matrix: (Units=GPa)
#
#
# Indices 1 2 3 4 5 6 
#
# 1 120.5029 28.2093 42.7204 -24.9128 2.8318 -29.3104
# 2 28.2093 49.3384 18.0120 -16.7401 9.4630 -24.6790
# 3 42.7204 18.0120 93.9992 -25.8122 -13.7888 -7.9816
# 4 -24.9128 -16.7401 -25.8122 15.7946 -2.5636 2.3098
# 5 2.8318 9.4630 -13.7888 -2.5636 41.3774 -10.8935
# 6 -29.3104 -24.6790 -7.9816 2.3098 -10.8935 43.2783
#
#
#
# Elastic Compliance Matrix: (Units=1/GPa)
#
#
# Indices 1 2 3 4 5 6 
#
# 1 0.018129 0.012970 0.005183 0.048887 0.005669 0.019448
# 2 0.012970 0.067337 0.018750 0.117173 0.009538 0.046787
# 3 0.005183 0.018750 0.029194 0.075343 0.014835 0.019299
# 4 0.048887 0.117173 0.075343 0.379853 0.046188 0.105174
# 5 0.005669 0.009538 0.014835 0.046188 0.034183 0.018153
# 6 0.019448 0.046787 0.019299 0.105174 0.018153 0.065473
#
#
# Mechanical properties :
#
#
# Convention : Reuss Voigt Hill
#
# Bulk Modulus (GPa) = 5.30601 49.08045 27.19323
# Shear Modulus (GPa) = 8.57362 31.74999 20.16181
#
# Velocity S-wave (km/s) = 1.93437 3.72246 2.96635
# Velocity P-wave (km/s) = 2.70273 6.31631 4.85801
#
# Compressibility (1/GPa) = 0.18846549
#
# Stress axis : x y z
#
# Youngs Moduli (GPa) = 55.16025 14.85078 34.25358
#
# Poissons Ratio (x) = -0.19261 -0.17753
# Poissons Ratio (y) = -0.71542 -0.64226
# Poissons Ratio (z) = -0.28589 -0.27845
#
# Static dielectric constant tensor:
#      x y z
#    x 1.980870 -0.064150 -0.035890 
#    y -0.064150 1.902560 0.006400 
#    z -0.035890 0.006400 1.905780 
# 
# From -- ./inp_files/423249.got.cif
#   From: 2010.05.17/outbox.cif.g08.bks.cpg/sg2_212_cif.got.tgz:423249.got - 2010.06.03 11:33:40.
