data_PCOD9001819
_publ_section_title
;
Structure prediction by ZEFSAII (Michael W. Deem and Ramdas Pophale) SiO2 
 PCOD9001819
Probable space group: P -1
;
_chemical_formula_sum "Si O2"
_cell_formula_units_Z 16
_cell_length_a 8.554929
_cell_length_b 11.122360
_cell_length_c 14.555357
_cell_angle_alpha 58.440167
_cell_angle_beta 97.123441
_cell_angle_gamma 136.530777
_cell_volume 730.477169
_symmetry_space_group_name_H-M "P -1"
_symmetry_group_IT_number 2
_symmetry_cell_setting 'triclinic'
loop_
_space_group_symop_operation_xyz
x,y,z
-x,-y,-z
loop_
_atom_site_type_symbol
_atom_site_label
_atom_site_fract_x
_atom_site_fract_y
_atom_site_fract_z
Si Si1 0.365619 0.275649 0.526591
Si Si2 0.032813 0.606980 0.703683
Si Si3 0.664742 0.086105 0.888408
Si Si4 0.810713 0.259686 0.132905
Si Si5 0.933786 0.862287 0.787512
Si Si6 0.941636 0.817471 0.196334
Si Si7 0.367788 0.427947 0.279944
Si Si8 0.194799 0.577474 0.556047
O O1 0.500000 0.500000 0.500000
O O2 0.334075 0.287410 0.412425
O O3 0.548212 0.269130 0.541827
O O4 0.112592 0.063608 0.645219
O O5 0.828270 0.339952 0.785974
O O6 0.852864 0.617073 0.691290
O O7 0.176858 0.701030 0.773189
O O8 0.208804 0.697611 0.593074
O O9 0.872768 0.107707 0.899582
O O10 0.466960 0.922057 0.857574
O O11 0.500000 0.000000 0.000000
O O12 0.925451 0.183411 0.156230
O O13 0.000000 0.500000 0.000000
O O14 0.683494 0.652253 0.796185
O O15 0.914184 0.959682 0.828108
O O16 0.661056 0.677168 0.209230
O O17 0.888465 0.636978 0.325789
O O18 0.000000 0.500000 0.500000
#
# Coordination Sequence:
#
# PCOD9001819 Si02
#       8
#     2   2   2   2   2   2   2   2
#     4  11  20  37  62  93 134 168 213 262 315 387
#     4  10  22  41  66  95 130 175 211 269 325 389
#     4  11  23  42  71  91 124 169 218 275 337 373
#     4  11  24  45  68  93 129 169 223 276 326 384
#     4  11  23  41  67  94 126 177 212 266 326 381
#     4  10  23  40  65  96 127 167 214 270 320 393
#     4  10  21  40  62  90 136 168 210 259 321 391
#     4  10  21  35  64  97 132 175 210 260 321 386
#
# _framework density 21.903492
#
# number of rings (size 3 to 8) (size 9 to 14) (size 15 to 20)
#    0.000    1.500    3.750    1.875    3.500    3.000 
#    0.000    5.625    0.000    0.000    0.000    0.000 
#    0.000    0.000    0.000    0.000    0.000    0.000 
#
# Total GULP energy -89361.108212 kJ/mol
# GULP energy per Si atom -5585.069263 kJ/mol
# Density = 2.185364 g / cm^3
# Si number density = 21.903492 Si / 1000 Ang^3
#
#
#
# Elastic Constant Matrix: (Units=GPa)
#
#
# Indices 1 2 3 4 5 6 
#
# 1 76.0612 36.1030 10.7802 17.3604 -15.7325 -5.8706
# 2 36.1030 95.1561 1.6277 13.4023 2.8961 -4.0183
# 3 10.7802 1.6277 27.7258 5.3353 -10.5027 -4.3853
# 4 17.3604 13.4023 5.3353 25.2010 -7.7149 4.2683
# 5 -15.7325 2.8961 -10.5027 -7.7149 30.0223 1.9433
# 6 -5.8706 -4.0183 -4.3853 4.2683 1.9433 29.1087
#
#
#
# Elastic Compliance Matrix: (Units=1/GPa)
#
#
# Indices 1 2 3 4 5 6 
#
# 1 0.020485 -0.006691 -0.002330 -0.008127 0.008250 0.003497
# 2 -0.006691 0.014027 0.000783 -0.005181 -0.006037 0.001868
# 3 -0.002330 0.000783 0.043539 -0.005352 0.012160 0.006170
# 4 -0.008127 -0.005181 -0.005352 0.053889 0.008972 -0.011661
# 5 0.008250 -0.006037 0.012160 0.008972 0.044880 -0.001649
# 6 0.003497 0.001868 0.006170 -0.011661 -0.001649 0.038067
#
#
# Mechanical properties :
#
#
# Convention : Reuss Voigt Hill
#
# Bulk Modulus (GPa) = 16.24010 32.88500 24.56255
# Shear Modulus (GPa) = 19.85019 26.89523 23.37271
#
# Velocity S-wave (km/s) = 3.01368 3.50794 3.27016
# Velocity P-wave (km/s) = 4.42042 5.60836 5.04945
#
# Compressibility (1/GPa) = 0.06157597
#
# Stress axis : x y z
#
# Youngs Moduli (GPa) = 48.81695 71.29326 22.96770
#
# Poissons Ratio (x) = 0.47703 0.05351
# Poissons Ratio (y) = 0.32664 -0.01799
# Poissons Ratio (z) = 0.11373 -0.05585
#
# Static dielectric constant tensor:
#      x y z
#    x 1.847770 -0.006930 -0.021770 
#    y -0.006930 1.822700 0.004020 
#    z -0.021770 0.004020 1.800680 
# 
# From -- ./inp_files/406584.got.cif
#   From: 2010.05.17/outbox.cif.g08.bks.cpg/sg2_204_cif.got.tgz:406584.got - 2010.06.03 11:33:40.
