data_PCOD9001752
_publ_section_title
;
Structure prediction by ZEFSAII (Michael W. Deem and Ramdas Pophale) SiO2 
 PCOD9001752
Probable space group: P -1
;
_chemical_formula_sum "Si O2"
_cell_formula_units_Z 16
_cell_length_a 17.736985
_cell_length_b 6.282559
_cell_length_c 15.499559
_cell_angle_alpha 96.528228
_cell_angle_beta 154.373571
_cell_angle_gamma 75.829245
_cell_volume 700.281742
_symmetry_space_group_name_H-M "P -1"
_symmetry_group_IT_number 2
_symmetry_cell_setting 'triclinic'
loop_
_space_group_symop_operation_xyz
x,y,z
-x,-y,-z
loop_
_atom_site_type_symbol
_atom_site_label
_atom_site_fract_x
_atom_site_fract_y
_atom_site_fract_z
Si Si1 0.927935 0.938739 0.077903
Si Si2 0.647119 0.832282 0.469323
Si Si3 0.129444 0.545721 0.745212
Si Si4 0.340625 0.610679 0.131536
Si Si5 0.166858 0.530190 0.227677
Si Si6 0.157924 0.986221 0.468648
Si Si7 0.109893 0.754854 0.562490
Si Si8 0.404169 0.248440 0.318597
O O1 0.100777 0.798756 0.190652
O O2 0.009608 0.909867 0.256936
O O3 0.772299 0.824616 0.895116
O O4 0.828700 0.209206 0.981447
O O5 0.482004 0.744740 0.264379
O O6 0.803534 0.612943 0.659624
O O7 0.709869 0.957936 0.462128
O O8 0.571405 0.012801 0.477502
O O9 0.206568 0.593724 0.734399
O O10 0.043743 0.346396 0.637162
O O11 0.264954 0.529479 0.964070
O O12 0.955020 0.771221 0.595568
O O13 0.436669 0.403202 0.283058
O O14 0.346634 0.404387 0.350668
O O15 0.000000 0.500000 0.000000
O O16 0.230099 0.802962 0.610374
O O17 0.000000 0.000000 0.500000
#
# Coordination Sequence:
#
# PCOD9001752 Si02
#       8
#     2   2   2   2   2   2   2   2
#     4   9  21  38  61  91 114 160 217 265 300 365
#     4  11  25  40  57  93 126 168 210 254 319 371
#     4   9  19  37  65  93 125 157 208 250 302 369
#     4  10  22  40  62  89 126 169 206 252 319 369
#     4  10  23  41  63  88 121 161 220 272 307 360
#     4  10  21  35  62  90 125 160 208 255 303 370
#     4   9  18  35  63  99 123 155 200 256 304 358
#     4  10  22  42  60  84 127 167 206 263 316 375
#
# _framework density 22.847947000000001
#
# number of rings (size 3 to 8) (size 9 to 14) (size 15 to 20)
#    0.000    2.250    0.000    1.125   10.500    2.000 
#    4.500    0.625    0.000    7.500    0.000    0.000 
#    0.000    0.000    0.000    0.000    0.000    0.000 
#
# Total GULP energy -89326.283676 kJ/mol
# GULP energy per Si atom -5582.892730 kJ/mol
# Density = 2.279594 g / cm^3
# Si number density = 22.847947 Si / 1000 Ang^3
#
#
#
# Elastic Constant Matrix: (Units=GPa)
#
#
# Indices 1 2 3 4 5 6 
#
# 1 83.9552 25.7213 25.8617 4.0930 -2.9664 19.4294
# 2 25.7213 91.4961 53.1685 16.4901 -4.2327 -9.3669
# 3 25.8617 53.1685 61.8117 7.9605 -5.1173 0.4489
# 4 4.0930 16.4901 7.9605 38.9215 1.0196 -0.8045
# 5 -2.9664 -4.2327 -5.1173 1.0196 23.5332 0.4302
# 6 19.4294 -9.3669 0.4489 -0.8045 0.4302 35.9125
#
#
#
# Elastic Compliance Matrix: (Units=1/GPa)
#
#
# Indices 1 2 3 4 5 6 
#
# 1 0.016393 -0.003374 -0.003856 0.000273 0.000787 -0.009704
# 2 -0.003374 0.025219 -0.019553 -0.006154 -0.000030 0.008510
# 3 -0.003856 -0.019553 0.034747 0.001418 0.003555 -0.003459
# 4 0.000273 -0.006154 0.001418 0.028009 -0.001957 -0.001120
# 5 0.000787 -0.000030 0.003555 -0.001957 0.043464 -0.001042
# 6 -0.009704 0.008510 -0.003459 -0.001120 -0.001042 0.035346
#
#
# Mechanical properties :
#
#
# Convention : Reuss Voigt Hill
#
# Bulk Modulus (GPa) = 43.87244 49.64066 46.75655
# Shear Modulus (GPa) = 20.46325 28.50756 24.48541
#
# Velocity S-wave (km/s) = 2.99595 3.53612 3.27719
# Velocity P-wave (km/s) = 5.58670 6.20048 5.90157
#
# Compressibility (1/GPa) = 0.02279335
#
# Stress axis : x y z
#
# Youngs Moduli (GPa) = 61.00236 39.65285 28.77950
#
# Poissons Ratio (x) = 0.13378 0.11098
# Poissons Ratio (y) = 0.20580 0.56272
# Poissons Ratio (z) = 0.23524 0.77532
#
# Static dielectric constant tensor:
#      x y z
#    x 1.917960 -0.017140 0.014530 
#    y -0.017140 1.857190 -0.019290 
#    z 0.014530 -0.019290 1.819560 
# 
# From -- ./inp_files/140579.got.cif
#   From: 2010.05.17/outbox.cif.g08.bks.cpg/sg2_71_cif.got.tgz:140579.got - 2010.06.03 11:33:40.
