data_PCOD9001279
_publ_section_title
;
Structure prediction by ZEFSAII (Michael W. Deem and Ramdas Pophale) SiO2 
 PCOD9001279
Probable space group: P -1
;
_chemical_formula_sum "Si O2"
_cell_formula_units_Z 15
_cell_length_a 8.469544
_cell_length_b 16.154524
_cell_length_c 17.891779
_cell_angle_alpha 23.067784
_cell_angle_beta 123.284777
_cell_angle_gamma 133.670073
_cell_volume 660.694437
_symmetry_space_group_name_H-M "P -1"
_symmetry_group_IT_number 2
_symmetry_cell_setting 'triclinic'
loop_
_space_group_symop_operation_xyz
x,y,z
-x,-y,-z
loop_
_atom_site_type_symbol
_atom_site_label
_atom_site_fract_x
_atom_site_fract_y
_atom_site_fract_z
Si Si1 0.133352 0.676590 0.597213
Si Si2 0.393343 0.266048 0.000961
Si Si3 0.756132 0.077052 0.999308
Si Si4 0.471509 0.062986 0.637173
Si Si5 0.141966 0.603509 0.821558
Si Si6 0.000000 0.000000 0.000000
Si Si7 0.063070 0.102344 0.187662
Si Si8 0.790791 0.728648 0.639928
O O1 0.250928 0.689951 0.695391
O O2 0.920781 0.385089 0.775206
O O3 0.306267 0.756464 0.506674
O O4 0.055792 0.871926 0.416327
O O5 0.457234 0.058494 0.180703
O O6 0.285991 0.226908 0.087713
O O7 0.187525 0.181761 0.961686
O O8 0.607553 0.548890 0.804711
O O9 0.849518 0.018995 0.146735
O O10 0.500000 0.000000 0.000000
O O11 0.793358 0.945031 0.049166
O O12 0.294547 0.816948 0.744567
O O13 0.349413 0.205581 0.506548
O O14 0.905258 0.582190 0.767118
O O15 0.096175 0.331852 0.055176
O O16 0.000000 0.000000 0.500000
#
# Coordination Sequence:
#
# PCOD9001279 Si02
#       8
#     2   2   2   2   2   1   2   2
#     4  10  21  39  60  90 121 156 209 254 310 378
#     4  10  22  40  62  87 121 164 208 257 310 371
#     4  10  22  41  64  90 126 164 209 268 318 368
#     4  10  21  39  61  88 124 164 207 250 307 379
#     4  10  21  34  60  91 126 164 192 255 314 368
#     4  10  22  42  68  88 126 168 208 266 318 368
#     4   9  21  40  60  89 122 158 209 255 309 378
#     4  10  22  37  57  88 127 161 202 253 306 373
#
# _framework density 22.703382999999999
#
# number of rings (size 3 to 8) (size 9 to 14) (size 15 to 20)
#    0.000    2.133    0.000    2.800    3.733    9.067 
#    0.000   10.667    0.000    0.000    0.000    0.000 
#    0.000    0.000    0.000    0.000    0.000    0.000 
#
# Total GULP energy -83565.593655 kJ/mol
# GULP energy per Si atom -5571.039577 kJ/mol
# Density = 2.265171 g / cm^3
# Si number density = 22.703383 Si / 1000 Ang^3
#
#
#
# Elastic Constant Matrix: (Units=GPa)
#
#
# Indices 1 2 3 4 5 6 
#
# 1 70.2508 20.7896 10.1134 -0.7576 7.4716 26.0248
# 2 20.7896 44.4100 26.5596 4.3025 -2.1599 18.2758
# 3 10.1134 26.5596 101.0029 20.4987 25.6621 12.3457
# 4 -0.7576 4.3025 20.4987 20.2452 8.1440 8.6818
# 5 7.4716 -2.1599 25.6621 8.1440 29.3332 7.3129
# 6 26.0248 18.2758 12.3457 8.6818 7.3129 35.1694
#
#
#
# Elastic Compliance Matrix: (Units=1/GPa)
#
#
# Indices 1 2 3 4 5 6 
#
# 1 0.022084 -0.005760 0.000470 0.010198 -0.005585 -0.014870
# 2 -0.005760 0.041535 -0.014281 0.004937 0.020061 -0.017699
# 3 0.000470 -0.014281 0.019600 -0.013139 -0.016376 0.006842
# 4 0.010198 0.004937 -0.013139 0.073990 -0.005650 -0.022590
# 5 -0.005585 0.020061 -0.016376 -0.005650 0.055553 -0.010700
# 6 -0.014870 -0.017699 0.006842 -0.022590 -0.010700 0.054034
#
#
# Mechanical properties :
#
#
# Convention : Reuss Voigt Hill
#
# Bulk Modulus (GPa) = 22.68669 36.73211 29.70940
# Shear Modulus (GPa) = 15.59425 27.49631 21.54528
#
# Velocity S-wave (km/s) = 2.62366 3.48388 3.08391
# Velocity P-wave (km/s) = 4.38092 5.69188 5.07887
#
# Compressibility (1/GPa) = 0.04407872
#
# Stress axis : x y z
#
# Youngs Moduli (GPa) = 45.28133 24.07594 51.02044
#
# Poissons Ratio (x) = 0.13867 -0.02398
# Poissons Ratio (y) = 0.26080 0.72862
# Poissons Ratio (z) = -0.02129 0.34383
#
# Static dielectric constant tensor:
#      x y z
#    x 1.928340 0.009270 0.023780 
#    y 0.009270 1.822110 0.048620 
#    z 0.023780 0.048620 1.868050 
# 
# From -- ./inp_files/348158.got.cif
#   From: 2010.05.17/outbox.cif.g08.bks.cpg/sg2_175_cif.got.tgz:348158.got - 2010.06.03 11:33:40.
