data_PCOD9001128
_publ_section_title
;
Structure prediction by ZEFSAII (Michael W. Deem and Ramdas Pophale) SiO2 
 PCOD9001128
Probable space group: P -1
;
_chemical_formula_sum "Si O2"
_cell_formula_units_Z 14
_cell_length_a 11.553935
_cell_length_b 5.281085
_cell_length_c 12.596588
_cell_angle_alpha 113.548195
_cell_angle_beta 54.130797
_cell_angle_gamma 94.501411
_cell_volume 558.312929
_symmetry_space_group_name_H-M "P -1"
_symmetry_group_IT_number 2
_symmetry_cell_setting 'triclinic'
loop_
_space_group_symop_operation_xyz
x,y,z
-x,-y,-z
loop_
_atom_site_type_symbol
_atom_site_label
_atom_site_fract_x
_atom_site_fract_y
_atom_site_fract_z
Si Si1 0.770716 0.564598 0.170370
Si Si2 0.055423 0.261919 0.065148
Si Si3 0.925933 0.450118 0.372463
Si Si4 0.447801 0.771430 0.778146
Si Si5 0.435447 0.660875 0.166726
Si Si6 0.166890 0.911931 0.460255
Si Si7 0.362168 0.263644 0.525471
O O1 0.924585 0.527115 0.142942
O O2 0.716861 0.273922 0.133820
O O3 0.646520 0.740496 0.343343
O O4 0.800894 0.691741 0.063573
O O5 0.047904 0.284235 0.199568
O O6 0.000000 0.000000 0.000000
O O7 0.906784 0.287363 0.461663
O O8 0.770046 0.480802 0.399508
O O9 0.933962 0.775428 0.445096
O O10 0.526115 0.547724 0.787288
O O11 0.502896 0.710568 0.616609
O O12 0.492547 0.065100 0.825369
O O13 0.299260 0.996103 0.473644
O O14 0.500000 0.500000 0.000000
O O15 0.259465 0.772748 0.286221
#
# Coordination Sequence:
#
# PCOD9001128 Si02
#       7
#     2   2   2   2   2   2   2
#     4  10  21  35  50  84 118 156 183 227 262 328
#     4  10  21  34  53  76 118 158 197 217 262 316
#     4   9  17  30  52  73 110 142 185 217 255 320
#     4  11  22  37  56  86 115 148 184 224 286 340
#     4  11  22  39  60  84 112 141 184 239 291 339
#     4   9  16  33  51  80 104 138 184 216 273 330
#     4   8  17  32  52  76 116 146 173 211 268 336
#
# _framework density 25.075543
#
# number of rings (size 3 to 8) (size 9 to 14) (size 15 to 20)
#    0.857    1.429    1.429    1.714    4.000    0.000 
#    0.000    2.143    0.000    0.000    0.000    6.000 
#    0.000    0.000    0.000    0.000    0.000    0.000 
#
# Total GULP energy -78153.698297 kJ/mol
# GULP energy per Si atom -5582.407021 kJ/mol
# Density = 2.501847 g / cm^3
# Si number density = 25.075543 Si / 1000 Ang^3
#
#
#
# Elastic Constant Matrix: (Units=GPa)
#
#
# Indices 1 2 3 4 5 6 
#
# 1 63.8696 22.7777 21.6443 -14.7672 -5.7531 -8.3317
# 2 22.7777 200.5616 101.2776 -30.1992 0.9283 -4.9218
# 3 21.6443 101.2776 229.2645 -26.0312 11.5472 4.0495
# 4 -14.7672 -30.1992 -26.0312 43.3210 5.6230 -2.2289
# 5 -5.7531 0.9283 11.5472 5.6230 16.5577 -6.1194
# 6 -8.3317 -4.9218 4.0495 -2.2289 -6.1194 21.2021
#
#
#
# Elastic Compliance Matrix: (Units=1/GPa)
#
#
# Indices 1 2 3 4 5 6 
#
# 1 0.020080 -0.000342 -0.002005 0.004554 0.011253 0.011921
# 2 -0.000342 0.006964 -0.002827 0.002991 0.001467 0.002760
# 3 -0.002005 -0.002827 0.006479 0.001966 -0.007432 -0.004620
# 4 0.004554 0.002991 0.001966 0.029192 -0.008907 0.002607
# 5 0.011253 0.001467 -0.007432 -0.008907 0.083249 0.029273
# 6 0.011921 0.002760 -0.004620 0.002607 0.029273 0.062096
#
#
# Mechanical properties :
#
#
# Convention : Reuss Voigt Hill
#
# Bulk Modulus (GPa) = 43.14952 87.23276 65.19114
# Shear Modulus (GPa) = 22.11099 39.41590 30.76345
#
# Velocity S-wave (km/s) = 2.97269 3.96900 3.50641
# Velocity P-wave (km/s) = 5.38774 7.47446 6.51518
#
# Compressibility (1/GPa) = 0.02317523
#
# Stress axis : x y z
#
# Youngs Moduli (GPa) = 49.80076 143.60375 154.34532
#
# Poissons Ratio (x) = 0.04908 0.30945
# Poissons Ratio (y) = 0.01702 0.43632
# Poissons Ratio (z) = 0.09985 0.40596
#
# Static dielectric constant tensor:
#      x y z
#    x 2.121520 -0.030890 -0.060440 
#    y -0.030890 1.959170 0.069780 
#    z -0.060440 0.069780 2.098740 
# 
# From -- ./inp_files/535988.got.cif
#   From: 2010.05.17/outbox.cif.g08.bks.cpg/sg2_268_cif.got.tgz:535988.got - 2010.06.03 11:33:40.
