data_PCOD9001251
_publ_section_title
;
Structure prediction by ZEFSAII (Michael W. Deem and Ramdas Pophale) SiO2 
 PCOD9001251
Probable space group: P -1
;
_chemical_formula_sum "Si O2"
_cell_formula_units_Z 14
_cell_length_a 14.378011
_cell_length_b 5.094787
_cell_length_c 14.386435
_cell_angle_alpha 76.570838
_cell_angle_beta 133.532921
_cell_angle_gamma 109.502401
_cell_volume 720.179822
_symmetry_space_group_name_H-M "P -1"
_symmetry_group_IT_number 2
_symmetry_cell_setting 'triclinic'
loop_
_space_group_symop_operation_xyz
x,y,z
-x,-y,-z
loop_
_atom_site_type_symbol
_atom_site_label
_atom_site_fract_x
_atom_site_fract_y
_atom_site_fract_z
Si Si1 0.549109 0.106678 0.752085
Si Si2 0.976840 0.235051 0.573267
Si Si3 0.385903 0.761721 0.891493
Si Si4 0.215087 0.163433 0.661847
Si Si5 0.278035 0.688454 0.531243
Si Si6 0.427518 0.445092 0.104625
Si Si7 0.592469 0.292168 0.571835
O O1 0.451001 0.589616 0.876267
O O2 0.398722 0.949535 0.626814
O O3 0.611418 0.862176 0.853944
O O4 0.632352 0.246291 0.708523
O O5 0.889506 0.980914 0.476202
O O6 0.870715 0.268564 0.574271
O O7 0.000000 0.500000 0.500000
O O8 0.126451 0.204461 0.687045
O O9 0.295535 0.938423 0.765134
O O10 0.544875 0.331808 0.810638
O O11 0.333302 0.552487 0.957751
O O12 0.279614 0.447309 0.627549
O O13 0.309138 0.613893 0.453926
O O14 0.500000 0.000000 0.000000
O O15 0.500000 0.500000 0.500000
O O16 0.500000 0.000000 0.500000
#
# Coordination Sequence:
#
# PCOD9001251 Si02
#       7
#     2   2   2   2   2   2   2
#     4  11  21  37  53  81 120 154 186 235 282 343
#     4   9  20  37  55  82 112 155 193 229 291 337
#     4  11  22  36  55  85 112 152 195 230 292 342
#     4  10  21  38  57  82 119 150 192 237 282 347
#     4  10  21  34  59  81 117 154 190 235 285 344
#     4  11  23  35  52  79 114 154 188 225 286 340
#     4  10  22  33  52  85 112 151 193 228 286 344
#
# _framework density 19.439591
#
# number of rings (size 3 to 8) (size 9 to 14) (size 15 to 20)
#    0.000    1.714    1.429    3.429    8.000    3.429 
#    2.571    0.000    0.000    0.000    0.000    2.000 
#    0.000    0.143    0.000    0.000    0.000    0.000 
#
# Total GULP energy -77961.813833 kJ/mol
# GULP energy per Si atom -5568.700988 kJ/mol
# Density = 1.939535 g / cm^3
# Si number density = 19.439591 Si / 1000 Ang^3
#
#
#
# Elastic Constant Matrix: (Units=GPa)
#
#
# Indices 1 2 3 4 5 6 
#
# 1 171.0849 36.9722 60.3224 -12.0585 -18.5433 -16.5316
# 2 36.9722 94.9734 26.1347 -8.7507 -9.1960 -24.8972
# 3 60.3224 26.1347 96.1226 -27.7658 -21.2851 -5.7286
# 4 -12.0585 -8.7507 -27.7658 32.3435 -8.4114 0.6976
# 5 -18.5433 -9.1960 -21.2851 -8.4114 29.6511 -0.2219
# 6 -16.5316 -24.8972 -5.7286 0.6976 -0.2219 33.1345
#
#
#
# Elastic Compliance Matrix: (Units=1/GPa)
#
#
# Indices 1 2 3 4 5 6 
#
# 1 0.008004 -0.001248 -0.004677 -0.001172 0.000946 0.002278
# 2 -0.001248 0.014654 -0.000256 0.004328 0.004885 0.010285
# 3 -0.004677 -0.000256 0.026671 0.027260 0.023888 0.001672
# 4 -0.001172 0.004328 0.027260 0.064972 0.038656 0.006272
# 5 0.000946 0.004885 0.023888 0.038656 0.064005 0.007887
# 6 0.002278 0.010285 0.001672 0.006272 0.007887 0.039255
#
#
# Mechanical properties :
#
#
# Convention : Reuss Voigt Hill
#
# Bulk Modulus (GPa) = 27.05091 67.67106 47.36098
# Shear Modulus (GPa) = 20.64034 34.94257 27.79146
#
# Velocity S-wave (km/s) = 3.26201 4.24429 3.78515
# Velocity P-wave (km/s) = 5.30408 7.67497 6.59691
#
# Compressibility (1/GPa) = 0.03696733
#
# Stress axis : x y z
#
# Youngs Moduli (GPa) = 124.94131 68.24215 37.49352
#
# Poissons Ratio (x) = 0.08517 0.17535
# Poissons Ratio (y) = 0.15593 0.00960
# Poissons Ratio (z) = 0.58431 0.01747
#
# Static dielectric constant tensor:
#      x y z
#    x 1.825110 0.069100 0.034110 
#    y 0.069100 1.941810 0.057400 
#    z 0.034110 0.057400 1.764400 
# 
# From -- ./inp_files/73834.got.cif
#   From: 2010.05.17/outbox.cif.g08.bks.cpg/sg2_37_cif.got.tgz:73834.got - 2010.06.03 11:33:40.
