data_PCOD9001958
_publ_section_title
;
Structure prediction by ZEFSAII (Michael W. Deem and Ramdas Pophale) SiO2 
 PCOD9001958
Probable space group: P -1
;
_chemical_formula_sum "Si O2"
_cell_formula_units_Z 13
_cell_length_a 11.267742
_cell_length_b 6.882691
_cell_length_c 16.836941
_cell_angle_alpha 56.511730
_cell_angle_beta 36.570413
_cell_angle_gamma 41.304992
_cell_volume 509.086422
_symmetry_space_group_name_H-M "P -1"
_symmetry_group_IT_number 2
_symmetry_cell_setting 'triclinic'
loop_
_space_group_symop_operation_xyz
x,y,z
-x,-y,-z
loop_
_atom_site_type_symbol
_atom_site_label
_atom_site_fract_x
_atom_site_fract_y
_atom_site_fract_z
Si Si1 0.777643 0.450777 0.034040
Si Si2 0.430227 0.564147 0.332887
Si Si3 0.500000 0.500000 0.500000
Si Si4 0.716712 0.803312 0.573202
Si Si5 0.602007 0.205839 0.960364
Si Si6 0.319986 0.013884 0.867227
Si Si7 0.994139 0.049241 0.336932
O O1 0.654551 0.513275 0.172326
O O2 0.626635 0.704640 0.992914
O O3 0.731809 0.217582 0.079088
O O4 0.064329 0.318745 0.909106
O O5 0.482986 0.551383 0.399257
O O6 0.420807 0.292904 0.382275
O O7 0.173971 0.857061 0.359585
O O8 0.196413 0.598935 0.635866
O O9 0.573816 0.908337 0.710455
O O10 0.752801 0.034937 0.464421
O O11 0.000000 0.500000 0.500000
O O12 0.830174 0.100439 0.800934
O O13 0.500000 0.500000 0.000000
O O14 0.668434 0.985291 0.044674
#
# Coordination Sequence:
#
# PCOD9001958 Si02
#       7
#     2   2   1   2   2   2   2
#     4   8  15  27  46  74 103 131 171 218 259 309
#     4   9  19  35  54  78 108 142 182 226 267 312
#     4  12  22  34  54  78 112 154 184 208 260 340
#     4   9  18  35  55  81 114 138 170 233 284 309
#     4   9  16  29  52  78 102 134 176 221 265 314
#     4   9  15  27  49  75 103 132 166 214 272 317
#     4  10  21  36  55  83 114 140 176 225 275 321
#
# _framework density 25.535938000000002
#
# number of rings (size 3 to 8) (size 9 to 14) (size 15 to 20)
#    0.000    2.769    0.000    4.154    0.000    1.846 
#    0.000    3.077    0.000    3.692    0.000   33.385 
#    0.000    0.000    0.000    0.000    0.000    0.000 
#
# Total GULP energy -72442.729093 kJ/mol
# GULP energy per Si atom -5572.517623 kJ/mol
# Density = 2.547782 g / cm^3
# Si number density = 25.535938 Si / 1000 Ang^3
#
#
#
# Elastic Constant Matrix: (Units=GPa)
#
#
# Indices 1 2 3 4 5 6 
#
# 1 116.0607 54.8433 75.9153 -13.6017 34.5572 -26.8250
# 2 54.8433 84.4662 57.9102 3.0479 9.4865 -26.5747
# 3 75.9153 57.9102 187.9285 18.6603 31.4084 -44.8801
# 4 -13.6017 3.0479 18.6603 46.2732 0.6066 -11.7040
# 5 34.5572 9.4865 31.4084 0.6066 55.3304 -12.2306
# 6 -26.8250 -26.5747 -44.8801 -11.7040 -12.2306 51.5979
#
#
#
# Elastic Compliance Matrix: (Units=1/GPa)
#
#
# Indices 1 2 3 4 5 6 
#
# 1 0.019041 -0.008270 -0.004196 0.008461 -0.007726 0.002078
# 2 -0.008270 0.019723 -0.002150 -0.001767 0.004027 0.004543
# 3 -0.004196 -0.002150 0.009115 -0.003881 -0.001384 0.003431
# 4 0.008461 -0.001767 -0.003881 0.027290 -0.001777 0.005881
# 5 -0.007726 0.004027 -0.001384 -0.001777 0.023458 0.002011
# 6 0.002078 0.004543 0.003431 0.005881 0.002011 0.027596
#
#
# Mechanical properties :
#
#
# Convention : Reuss Voigt Hill
#
# Bulk Modulus (GPa) = 53.62761 85.08810 69.35785
# Shear Modulus (GPa) = 30.92721 43.95940 37.44330
#
# Velocity S-wave (km/s) = 3.48390 4.15356 3.83338
# Velocity P-wave (km/s) = 6.10162 7.50973 6.84200
#
# Compressibility (1/GPa) = 0.01864711
#
# Stress axis : x y z
#
# Youngs Moduli (GPa) = 52.51842 50.70126 109.71380
#
# Poissons Ratio (x) = 0.41931 0.46035
# Poissons Ratio (y) = 0.43434 0.23585
# Poissons Ratio (z) = 0.22036 0.10899
#
# Static dielectric constant tensor:
#      x y z
#    x 2.012740 0.064670 -0.085690 
#    y 0.064670 1.854180 -0.185130 
#    z -0.085690 -0.185130 2.005340 
# 
# From -- ./inp_files/193087.got.cif
#   From: 2010.05.17/outbox.cif.g08.bks.cpg/sg2_97_cif.got.tgz:193087.got - 2010.06.03 11:33:40.
