data_PCOD9001888
_publ_section_title
;
Structure prediction by ZEFSAII (Michael W. Deem and Ramdas Pophale) SiO2 
 PCOD9001888
Probable space group: P -1
;
_chemical_formula_sum "Si O2"
_cell_formula_units_Z 14
_cell_length_a 29.625463
_cell_length_b 29.147222
_cell_length_c 26.689161
_cell_angle_alpha 170.438267
_cell_angle_beta 170.900324
_cell_angle_gamma 10.435511
_cell_volume 562.080000
_symmetry_space_group_name_H-M "P -1"
_symmetry_group_IT_number 2
_symmetry_cell_setting 'triclinic'
loop_
_space_group_symop_operation_xyz
x,y,z
-x,-y,-z
loop_
_atom_site_type_symbol
_atom_site_label
_atom_site_fract_x
_atom_site_fract_y
_atom_site_fract_z
Si Si1 0.775665 0.278101 0.245717
Si Si2 0.610626 0.004510 0.534356
Si Si3 0.967159 0.049570 0.314426
Si Si4 0.371908 0.356982 0.250828
Si Si5 0.886656 0.529545 0.464974
Si Si6 0.300389 0.825156 0.290298
Si Si7 0.613489 0.571832 0.846012
O O1 0.819425 0.079658 0.129462
O O2 0.565739 0.617041 0.393217
O O3 0.117995 0.158655 0.469708
O O4 0.567607 0.217105 0.908337
O O5 0.560333 0.176939 0.613369
O O6 0.461374 0.243459 0.670340
O O7 0.965901 0.804147 0.712555
O O8 0.689180 0.220010 0.231222
O O9 0.166747 0.713646 0.188486
O O10 0.191534 0.235169 0.752464
O O11 0.500000 0.500000 0.500000
O O12 0.500687 0.436500 0.529103
O O13 0.000000 0.500000 0.000000
O O14 0.500000 0.000000 0.000000
O O15 0.000000 0.500000 0.500000
O O16 0.036888 0.694845 0.847492
#
# Coordination Sequence:
#
# PCOD9001888 Si02
#       7
#     2   2   2   2   2   2   2
#     4  10  23  38  60  85 117 164 205 260 326 387
#     4  10  21  36  58  81 112 153 203 250 307 398
#     4  12  27  45  71 101 147 183 229 296 347 411
#     4  12  25  45  74 103 140 190 233 286 344 409
#     4  10  21  36  53  84 115 148 194 255 316 379
#     4  10  21  38  58  84 114 152 213 252 311 404
#     4  12  26  46  69 108 141 182 237 286 345 411
#
# _framework density 24.907487
#
# number of rings (size 3 to 8) (size 9 to 14) (size 15 to 20)
#    0.000    1.143    0.000    6.000    4.000    1.143 
#    0.000    0.000    0.000    0.000    0.000    0.000 
#    0.000    0.000    0.000    0.000    0.000    0.000 
#
# Total GULP energy -78273.059191 kJ/mol
# GULP energy per Si atom -5590.932799 kJ/mol
# Density = 2.485080 g / cm^3
# Si number density = 24.907487 Si / 1000 Ang^3
#
#
#
# Elastic Constant Matrix: (Units=GPa)
#
#
# Indices 1 2 3 4 5 6 
#
# 1 109.0419 53.0881 20.5400 -9.1262 3.5860 -13.6303
# 2 53.0881 214.8296 59.8998 -12.3576 13.2985 -12.0842
# 3 20.5400 59.8998 124.7059 -4.7897 -1.7755 -7.6605
# 4 -9.1262 -12.3576 -4.7897 40.7899 2.2712 3.8530
# 5 3.5860 13.2985 -1.7755 2.2712 48.5569 -1.4872
# 6 -13.6303 -12.0842 -7.6605 3.8530 -1.4872 57.3747
#
#
#
# Elastic Compliance Matrix: (Units=1/GPa)
#
#
# Indices 1 2 3 4 5 6 
#
# 1 0.010759 -0.002319 -0.000487 0.001478 -0.000188 0.001898
# 2 -0.002319 0.006110 -0.002517 0.001101 -0.001637 0.000284
# 3 -0.000487 -0.002517 0.009366 0.000109 0.001082 0.000625
# 4 0.001478 0.001101 0.000109 0.025392 -0.001630 -0.001150
# 5 -0.000188 -0.001637 0.001082 -0.001630 0.021185 0.000414
# 6 0.001898 0.000284 0.000625 -0.001150 0.000414 0.018111
#
#
# Mechanical properties :
#
#
# Convention : Reuss Voigt Hill
#
# Bulk Modulus (GPa) = 64.14880 79.51478 71.83179
# Shear Modulus (GPa) = 46.83104 50.34760 48.58932
#
# Velocity S-wave (km/s) = 4.34083 4.50086 4.42157
# Velocity P-wave (km/s) = 7.13684 7.68138 7.41411
#
# Compressibility (1/GPa) = 0.01558876
#
# Stress axis : x y z
#
# Youngs Moduli (GPa) = 92.94537 163.65777 106.77028
#
# Poissons Ratio (x) = 0.37959 0.05203
# Poissons Ratio (y) = 0.21558 0.26869
# Poissons Ratio (z) = 0.04529 0.41185
#
# Static dielectric constant tensor:
#      x y z
#    x 1.934700 -0.015180 0.024870 
#    y -0.015180 2.076630 -0.036830 
#    z 0.024870 -0.036830 2.182600 
# 
# From -- ./inp_files/13048.got.cif
#   From: 2010.05.17/outbox.cif.g08.bks.cpg/sg2_7_cif.got.tgz:13048.got - 2010.06.03 11:33:40.
