data_PCOD9001370
_publ_section_title
;
Structure prediction by ZEFSAII (Michael W. Deem and Ramdas Pophale) SiO2 
 PCOD9001370
Probable space group: P -1
;
_chemical_formula_sum "Si O2"
_cell_formula_units_Z 16
_cell_length_a 14.678739
_cell_length_b 11.530056
_cell_length_c 13.024133
_cell_angle_alpha 135.539783
_cell_angle_beta 128.388155
_cell_angle_gamma 29.285051
_cell_volume 755.206601
_symmetry_space_group_name_H-M "P -1"
_symmetry_group_IT_number 2
_symmetry_cell_setting 'triclinic'
loop_
_space_group_symop_operation_xyz
x,y,z
-x,-y,-z
loop_
_atom_site_type_symbol
_atom_site_label
_atom_site_fract_x
_atom_site_fract_y
_atom_site_fract_z
Si Si1 0.675966 0.403493 0.016801
Si Si2 0.778640 0.516115 0.764272
Si Si3 0.274492 0.808431 0.757472
Si Si4 0.107386 0.140251 0.642106
Si Si5 0.389554 0.639258 0.403769
Si Si6 0.868862 0.527576 0.043987
Si Si7 0.472931 0.894044 0.064076
Si Si8 0.001230 0.029439 0.872068
O O1 0.500000 0.500000 0.000000
O O2 0.584303 0.681865 0.100456
O O3 0.842677 0.215390 0.097017
O O4 0.792657 0.205056 0.872220
O O5 0.692830 0.453510 0.721656
O O6 0.896242 0.316504 0.623940
O O7 0.645105 0.808969 0.814921
O O8 0.907906 0.456587 0.905155
O O9 0.459597 0.496255 0.664532
O O10 0.106016 0.901458 0.754831
O O11 0.210067 0.951379 0.694174
O O12 0.347227 0.886856 0.923623
O O13 0.097159 0.347152 0.786946
O O14 0.223585 0.952934 0.507048
O O15 0.500000 0.500000 0.500000
O O16 0.644678 0.760216 0.029715
O O17 0.969081 0.263927 0.004460
#
# Coordination Sequence:
#
# PCOD9001370 Si02
#       8
#     2   2   2   2   2   2   2   2
#     4  10  21  35  53  82 123 138 186 246 298 332
#     4  12  20  34  55  83 118 150 191 230 287 350
#     4  11  18  34  53  77 116 151 194 225 279 342
#     4  11  22  34  51  85 123 156 186 232 275 346
#     4  10  23  36  51  78 121 159 190 224 278 345
#     4  11  20  34  57  85 118 146 191 234 284 343
#     4  11  20  31  56  84 109 153 184 234 290 335
#     4  10  21  35  54  87 112 150 188 238 293 334
#
# _framework density 21.186254999999999
#
# number of rings (size 3 to 8) (size 9 to 14) (size 15 to 20)
#    0.000    1.250    5.000    3.375    0.000    0.000 
#    0.000    0.000    0.000    0.000    0.000   25.375 
#    7.500    0.125    0.000    0.000    0.000    0.000 
#
# Total GULP energy -89097.226329 kJ/mol
# GULP energy per Si atom -5568.576646 kJ/mol
# Density = 2.113803 g / cm^3
# Si number density = 21.186255 Si / 1000 Ang^3
#
#
#
# Elastic Constant Matrix: (Units=GPa)
#
#
# Indices 1 2 3 4 5 6 
#
# 1 92.7211 23.1440 25.6977 22.9656 -21.6427 -29.5851
# 2 23.1440 112.7760 22.2130 29.1398 -5.5873 6.8677
# 3 25.6977 22.2130 68.1221 25.5381 -2.9333 -6.9290
# 4 22.9656 29.1398 25.5381 40.1243 -16.2361 -1.8328
# 5 -21.6427 -5.5873 -2.9333 -16.2361 24.3986 11.1788
# 6 -29.5851 6.8677 -6.9290 -1.8328 11.1788 46.9587
#
#
#
# Elastic Compliance Matrix: (Units=1/GPa)
#
#
# Indices 1 2 3 4 5 6 
#
# 1 0.018015 -0.002560 -0.004130 -0.001379 0.010003 0.008679
# 2 -0.002560 0.011620 0.000047 -0.008863 -0.004298 -0.002628
# 3 -0.004130 0.000047 0.022573 -0.017648 -0.014253 0.003426
# 4 -0.001379 -0.008863 -0.017648 0.058071 0.037296 -0.008788
# 5 0.010003 -0.004298 -0.014253 0.037296 0.077561 -0.012181
# 6 0.008679 -0.002628 0.003426 -0.008788 -0.012181 0.030210
#
#
# Mechanical properties :
#
#
# Convention : Reuss Voigt Hill
#
# Bulk Modulus (GPa) = 25.69351 46.19207 35.94279
# Shear Modulus (GPa) = 20.46573 35.80061 28.13317
#
# Velocity S-wave (km/s) = 3.11141 4.11518 3.64799
# Velocity P-wave (km/s) = 5.00616 6.66557 5.89455
#
# Compressibility (1/GPa) = 0.03892034
#
# Stress axis : x y z
#
# Youngs Moduli (GPa) = 55.51076 86.05487 44.30049
#
# Poissons Ratio (x) = 0.22032 0.18298
# Poissons Ratio (y) = 0.14212 -0.00207
# Poissons Ratio (z) = 0.22928 -0.00402
#
# Static dielectric constant tensor:
#      x y z
#    x 1.935590 -0.100430 0.087670 
#    y -0.100430 1.855510 -0.089100 
#    z 0.087670 -0.089100 2.245040 
# 
# From -- ./inp_files/522410.got.cif
#   From: 2010.05.17/outbox.cif.g08.bks.cpg/sg2_262_cif.got.tgz:522410.got - 2010.06.03 11:33:40.
