data_PCOD9001010
_publ_section_title
;
Structure prediction by ZEFSAII (Michael W. Deem and Ramdas Pophale) SiO2 
 PCOD9001010
Probable space group: P -1
;
_chemical_formula_sum "Si O2"
_cell_formula_units_Z 12
_cell_length_a 10.740077
_cell_length_b 17.733003
_cell_length_c 5.431833
_cell_angle_alpha 75.650825
_cell_angle_beta 105.722170
_cell_angle_gamma 149.681516
_cell_volume 502.484276
_symmetry_space_group_name_H-M "P -1"
_symmetry_group_IT_number 2
_symmetry_cell_setting 'triclinic'
loop_
_space_group_symop_operation_xyz
x,y,z
-x,-y,-z
loop_
_atom_site_type_symbol
_atom_site_label
_atom_site_fract_x
_atom_site_fract_y
_atom_site_fract_z
Si Si1 0.746272 0.919234 0.628566
Si Si2 0.112956 0.968406 0.883896
Si Si3 0.934783 0.377117 0.619758
Si Si4 0.020706 0.650246 0.831631
Si Si5 0.583218 0.387044 0.511071
Si Si6 0.272707 0.351094 0.161849
O O1 0.991185 0.991281 0.750673
O O2 0.542677 0.754866 0.545961
O O3 0.783836 0.997701 0.360101
O O4 0.706679 0.933261 0.866820
O O5 0.893495 0.795300 0.963909
O O6 0.825952 0.282528 0.393138
O O7 0.210438 0.480652 0.684599
O O8 0.000000 0.500000 0.500000
O O9 0.836439 0.309700 0.889675
O O10 0.761124 0.469456 0.776615
O O11 0.911957 0.679289 0.803109
O O12 0.387184 0.355755 0.438076
O O13 0.500000 0.500000 0.000000
#
# Coordination Sequence:
#
# PCOD9001010 Si02
#       6
#     2   2   2   2   2   2
#     4   9  18  33  45  72 102 141 179 202 246 304
#     4   9  20  30  48  69 107 143 170 205 246 311
#     4  10  21  36  52  79 105 135 180 219 265 305
#     4  10  21  33  53  80 106 140 166 216 271 314
#     4   9  21  30  57  77 111 138 173 214 263 313
#     4  11  19  35  52  83 116 140 169 207 273 325
#
# _framework density 23.881346000000001
#
# number of rings (size 3 to 8) (size 9 to 14) (size 15 to 20)
#    1.000    1.333    1.667    1.000    2.333    6.667 
#    0.000    0.000    0.000    0.000    0.000    7.000 
#    0.000    0.000    0.000    0.000    0.000    0.000 
#
# Total GULP energy -66800.967726 kJ/mol
# GULP energy per Si atom -5566.747310 kJ/mol
# Density = 2.382699 g / cm^3
# Si number density = 23.881346 Si / 1000 Ang^3
#
#
#
# Elastic Constant Matrix: (Units=GPa)
#
#
# Indices 1 2 3 4 5 6 
#
# 1 63.4429 9.8150 30.4617 10.7522 11.3158 -14.8835
# 2 9.8150 81.6095 49.3127 -0.2475 -0.8039 -3.2586
# 3 30.4617 49.3127 187.0734 22.1830 -22.1955 -4.6677
# 4 10.7522 -0.2475 22.1830 20.2614 -0.1360 1.4549
# 5 11.3158 -0.8039 -22.1955 -0.1360 22.2831 7.0928
# 6 -14.8835 -3.2586 -4.6677 1.4549 7.0928 29.7633
#
#
#
# Elastic Compliance Matrix: (Units=1/GPa)
#
#
# Indices 1 2 3 4 5 6 
#
# 1 0.031587 0.001138 -0.007229 -0.010659 -0.030447 0.022563
# 2 0.001138 0.015591 -0.005652 0.005540 -0.006457 0.002658
# 3 -0.007229 -0.005652 0.010618 -0.007320 0.015909 -0.006002
# 4 -0.010659 0.005540 -0.007320 0.063780 0.001701 -0.009394
# 5 -0.030447 -0.006457 0.015909 0.001701 0.086854 -0.034218
# 6 0.022563 0.002658 -0.006002 -0.009394 -0.034218 0.052845
#
#
# Mechanical properties :
#
#
# Convention : Reuss Voigt Hill
#
# Bulk Modulus (GPa) = 29.14531 56.81161 42.97846
# Shear Modulus (GPa) = 16.88057 30.63066 23.75562
#
# Velocity S-wave (km/s) = 2.66155 3.58525 3.15736
# Velocity P-wave (km/s) = 4.65573 6.40152 5.59711
#
# Compressibility (1/GPa) = 0.03431084
#
# Stress axis : x y z
#
# Youngs Moduli (GPa) = 31.65824 64.13918 94.17692
#
# Poissons Ratio (x) = -0.07298 0.68080
# Poissons Ratio (y) = -0.03602 0.53228
# Poissons Ratio (z) = 0.22885 0.36251
#
# Static dielectric constant tensor:
#      x y z
#    x 2.022850 0.000070 -0.068700 
#    y 0.000070 1.896910 0.001850 
#    z -0.068700 0.001850 2.006790 
# 
# From -- ./inp_files/65125.got.cif
#   From: 2010.05.17/outbox.cif.g08.bks.cpg/sg2_33_cif.got.tgz:65125.got - 2010.06.03 11:33:40.
