data_PCOD9001829
_publ_section_title
;
Structure prediction by ZEFSAII (Michael W. Deem and Ramdas Pophale) SiO2 
 PCOD9001829
Probable space group: P -1
;
_chemical_formula_sum "Si O2"
_cell_formula_units_Z 14
_cell_length_a 8.995296
_cell_length_b 5.143691
_cell_length_c 17.220248
_cell_angle_alpha 74.084712
_cell_angle_beta 125.487880
_cell_angle_gamma 120.249028
_cell_volume 560.235571
_symmetry_space_group_name_H-M "P -1"
_symmetry_group_IT_number 2
_symmetry_cell_setting 'triclinic'
loop_
_space_group_symop_operation_xyz
x,y,z
-x,-y,-z
loop_
_atom_site_type_symbol
_atom_site_label
_atom_site_fract_x
_atom_site_fract_y
_atom_site_fract_z
Si Si1 0.660160 0.446622 0.449106
Si Si2 0.198401 0.743845 0.179073
Si Si3 0.476505 0.439072 0.235535
Si Si4 0.071638 0.856800 0.776890
Si Si5 0.222409 0.058299 0.430205
Si Si6 0.426006 0.725122 0.878065
Si Si7 0.823780 0.820796 0.052110
O O1 0.629145 0.532536 0.345953
O O2 0.431140 0.249638 0.429588
O O3 0.771704 0.730806 0.514363
O O4 0.771034 0.234845 0.508997
O O5 0.324329 0.593111 0.185458
O O6 0.082500 0.500384 0.231797
O O7 0.016867 0.791531 0.077415
O O8 0.348076 0.072127 0.230142
O O9 0.578898 0.478727 0.179482
O O10 0.283600 0.885517 0.805006
O O11 0.961793 0.000814 0.678165
O O12 0.101789 0.984048 0.863143
O O13 0.320047 0.521924 0.936906
O O14 0.663816 0.911206 0.953428
#
# Coordination Sequence:
#
# PCOD9001829 Si02
#       7
#     2   2   2   2   2   2   2
#     4  10  21  36  61  95 126 161 215 266 314 373
#     4  11  23  40  70  93 134 164 220 264 324 373
#     4  12  24  44  63 103 134 167 207 284 322 373
#     4  11  22  43  68  95 130 174 219 263 314 400
#     4  10  21  35  65  91 123 169 215 257 313 382
#     4  10  26  41  69  94 135 173 215 262 335 381
#     4  10  22  47  67  97 123 182 220 262 309 409
#
# _framework density 24.989488999999999
#
# number of rings (size 3 to 8) (size 9 to 14) (size 15 to 20)
#    0.000    1.429    2.857    1.286   10.000    1.143 
#    0.000    1.429    0.000    0.000    0.000    0.000 
#    0.000    0.000    0.000    0.000    0.000    0.000 
#
# Total GULP energy -78405.562936 kJ/mol
# GULP energy per Si atom -5600.397353 kJ/mol
# Density = 2.493261 g / cm^3
# Si number density = 24.989489 Si / 1000 Ang^3
#
#
#
# Elastic Constant Matrix: (Units=GPa)
#
#
# Indices 1 2 3 4 5 6 
#
# 1 109.3224 33.8656 15.8820 -7.5575 23.0242 -16.7621
# 2 33.8656 116.3161 33.8594 -4.7860 10.8425 -32.4632
# 3 15.8820 33.8594 127.1549 -19.8453 23.0517 -27.7531
# 4 -7.5575 -4.7860 -19.8453 35.2436 -8.6970 2.5596
# 5 23.0242 10.8425 23.0517 -8.6970 29.8791 -6.1522
# 6 -16.7621 -32.4632 -27.7531 2.5596 -6.1522 51.0270
#
#
#
# Elastic Compliance Matrix: (Units=1/GPa)
#
#
# Indices 1 2 3 4 5 6 
#
# 1 0.011891 -0.002450 0.001266 0.000651 -0.008658 0.001960
# 2 -0.002450 0.011296 -0.001534 -0.000248 0.000046 0.005565
# 3 0.001266 -0.001534 0.010953 0.004252 -0.006731 0.004372
# 4 0.000651 -0.000248 0.004252 0.032247 0.005998 0.001474
# 5 -0.008658 0.000046 -0.006731 0.005998 0.046829 -0.001130
# 6 0.001960 0.005565 0.004372 0.001474 -0.001130 0.025949
#
#
# Mechanical properties :
#
#
# Convention : Reuss Voigt Hill
#
# Bulk Modulus (GPa) = 34.83880 57.77858 46.30869
# Shear Modulus (GPa) = 32.43174 41.17571 36.80373
#
# Velocity S-wave (km/s) = 3.60643 4.06362 3.84183
# Velocity P-wave (km/s) = 5.59584 6.72225 6.18474
#
# Compressibility (1/GPa) = 0.02870363
#
# Stress axis : x y z
#
# Youngs Moduli (GPa) = 84.09631 88.52782 91.29873
#
# Poissons Ratio (x) = 0.21688 -0.11559
# Poissons Ratio (y) = 0.20603 0.14009
# Poissons Ratio (z) = -0.10647 0.13583
#
# Static dielectric constant tensor:
#      x y z
#    x 2.011740 0.071500 0.009820 
#    y 0.071500 1.991110 -0.022530 
#    z 0.009820 -0.022530 1.917660 
# 
# From -- ./inp_files/104837.got.cif
#   From: 2010.05.17/outbox.cif.g08.bks.cpg/sg2_53_cif.got.tgz:104837.got - 2010.06.03 11:33:40.
