data_PCOD9001869
_publ_section_title
;
Structure prediction by ZEFSAII (Michael W. Deem and Ramdas Pophale) SiO2 
 PCOD9001869
Probable space group: P -1
;
_chemical_formula_sum "Si O2"
_cell_formula_units_Z 16
_cell_length_a 19.145139
_cell_length_b 11.827614
_cell_length_c 5.515323
_cell_angle_alpha 71.568896
_cell_angle_beta 115.704788
_cell_angle_gamma 138.038160
_cell_volume 752.378415
_symmetry_space_group_name_H-M "P -1"
_symmetry_group_IT_number 2
_symmetry_cell_setting 'triclinic'
loop_
_space_group_symop_operation_xyz
x,y,z
-x,-y,-z
loop_
_atom_site_type_symbol
_atom_site_label
_atom_site_fract_x
_atom_site_fract_y
_atom_site_fract_z
Si Si1 0.417812 0.501505 0.602251
Si Si2 0.760841 0.412881 0.059073
Si Si3 0.744494 0.476658 0.472992
Si Si4 0.486892 0.778513 0.176689
Si Si5 0.887269 0.309080 0.406977
Si Si6 0.382973 0.909405 0.487184
Si Si7 0.620326 0.771442 0.042243
Si Si8 0.192487 0.870320 0.083005
O O1 0.333317 0.494442 0.626216
O O2 0.441301 0.602054 0.328570
O O3 0.369761 0.316829 0.672498
O O4 0.539045 0.630111 0.814976
O O5 0.803897 0.543657 0.256464
O O6 0.800779 0.323355 0.236145
O O7 0.801068 0.506737 0.794240
O O8 0.626763 0.271882 0.938562
O O9 0.670918 0.279629 0.444429
O O10 0.551247 0.809728 0.011783
O O11 0.578364 0.951913 0.345946
O O12 0.858972 0.200220 0.677918
O O13 0.000000 0.500000 0.500000
O O14 0.884723 0.238835 0.192046
O O15 0.287923 0.873868 0.224183
O O16 0.500000 0.000000 0.500000
O O17 0.736692 0.934714 0.997056
#
# Coordination Sequence:
#
# PCOD9001869 Si02
#       8
#     2   2   2   2   2   2   2   2
#     4  10  21  36  52  86 129 177 207 230 275 352
#     4  11  21  37  56  86 119 150 203 238 306 360
#     4  11  21  36  54  86 120 161 201 242 288 353
#     4  11  21  34  55  86 129 171 205 238 293 358
#     4  12  25  44  64  87 117 153 203 266 325 369
#     4  12  19  33  55  87 129 156 196 236 296 362
#     4  11  22  36  56  84 132 171 205 239 280 359
#     4  12  24  40  59  92 120 161 201 245 311 365
#
# _framework density 21.265893999999999
#
# number of rings (size 3 to 8) (size 9 to 14) (size 15 to 20)
#    0.000    0.750    7.500    1.500    0.000    0.500 
#    0.000    0.000    0.000    0.000    0.000   12.250 
#    0.000    0.000    0.000    0.000    0.000    0.000 
#
# Total GULP energy -89103.643694 kJ/mol
# GULP energy per Si atom -5568.977731 kJ/mol
# Density = 2.121749 g / cm^3
# Si number density = 21.265894 Si / 1000 Ang^3
#
#
#
# Elastic Constant Matrix: (Units=GPa)
#
#
# Indices 1 2 3 4 5 6 
#
# 1 28.7931 6.0181 13.7658 -5.7889 -10.7052 -10.5306
# 2 6.0181 81.4828 32.2315 -7.3682 6.3302 4.3031
# 3 13.7658 32.2315 110.3477 0.2235 -28.8318 6.2365
# 4 -5.7889 -7.3682 0.2235 21.5797 -3.8541 0.5709
# 5 -10.7052 6.3302 -28.8318 -3.8541 32.0142 -4.2756
# 6 -10.5306 4.3031 6.2365 0.5709 -4.2756 18.9195
#
#
#
# Elastic Compliance Matrix: (Units=1/GPa)
#
#
# Indices 1 2 3 4 5 6 
#
# 1 0.071709 -0.008571 -0.000226 0.021189 0.034581 0.049113
# 2 -0.008571 0.017420 -0.007083 0.001513 -0.013784 -0.009559
# 3 -0.000226 -0.007083 0.015050 0.000023 0.014867 -0.000117
# 4 0.021189 0.001513 0.000023 0.054902 0.015182 0.013216
# 5 0.034581 -0.013784 0.014867 0.015182 0.064976 0.031708
# 6 0.049113 -0.009559 -0.000117 0.013216 0.031708 0.089171
#
#
# Mechanical properties :
#
#
# Convention : Reuss Voigt Hill
#
# Bulk Modulus (GPa) = 13.80842 36.07270 24.94056
# Shear Modulus (GPa) = 13.54539 25.74323 19.64431
#
# Velocity S-wave (km/s) = 2.52653 3.48306 3.04262
# Velocity P-wave (km/s) = 3.87537 5.75978 4.90885
#
# Compressibility (1/GPa) = 0.07241961
#
# Stress axis : x y z
#
# Youngs Moduli (GPa) = 13.94518 57.40548 66.44389
#
# Poissons Ratio (x) = 0.49203 0.01499
# Poissons Ratio (y) = 0.11953 0.47065
# Poissons Ratio (z) = 0.00315 0.40662
#
# Static dielectric constant tensor:
#      x y z
#    x 1.892900 -0.014950 -0.069420 
#    y -0.014950 1.805230 -0.080320 
#    z -0.069420 -0.080320 1.993460 
# 
# From -- ./inp_files/118613.got.cif
#   From: 2010.05.17/outbox.cif.g08.bks.cpg/sg2_60_cif.got.tgz:118613.got - 2010.06.03 11:33:40.
