data_PCOD9001536
_publ_section_title
;
Structure prediction by ZEFSAII (Michael W. Deem and Ramdas Pophale) SiO2 
 PCOD9001536
Probable space group: P -1
;
_chemical_formula_sum "Si O2"
_cell_formula_units_Z 16
_cell_length_a 27.704622
_cell_length_b 5.603885
_cell_length_c 13.999791
_cell_angle_alpha 54.778756
_cell_angle_beta 21.793636
_cell_angle_gamma 57.097397
_cell_volume 659.010227
_symmetry_space_group_name_H-M "P -1"
_symmetry_group_IT_number 2
_symmetry_cell_setting 'triclinic'
loop_
_space_group_symop_operation_xyz
x,y,z
-x,-y,-z
loop_
_atom_site_type_symbol
_atom_site_label
_atom_site_fract_x
_atom_site_fract_y
_atom_site_fract_z
Si Si1 0.089435 0.497093 0.148900
Si Si2 0.501347 0.072576 0.091922
Si Si3 0.498703 0.048578 0.603596
Si Si4 0.657915 0.508144 0.959832
Si Si5 0.013994 0.137551 0.188431
Si Si6 0.727998 0.021839 0.331952
Si Si7 0.751662 0.308846 0.656113
Si Si8 0.244678 0.294101 0.089907
O O1 0.033147 0.270589 0.229030
O O2 0.142164 0.344788 0.183246
O O3 0.005528 0.783834 0.272774
O O4 0.208866 0.663017 0.838695
O O5 0.563775 0.779584 0.092425
O O6 0.361507 0.098527 0.392184
O O7 0.500000 0.000000 0.000000
O O8 0.614779 0.297348 0.855696
O O9 0.636535 0.069149 0.396215
O O10 0.500000 0.000000 0.500000
O O11 0.436979 0.752549 0.825677
O O12 0.387387 0.286556 0.780054
O O13 0.738455 0.555847 0.704449
O O14 0.748354 0.461198 0.896584
O O15 0.882065 0.297326 0.357909
O O16 0.148509 0.183692 0.874358
O O17 0.773359 0.010382 0.749758
#
# Coordination Sequence:
#
# PCOD9001536 Si02
#       8
#     2   2   2   2   2   2   2   2
#     4  10  24  38  62  95 136 181 219 261 320 394
#     4  11  24  44  70  96 122 165 224 285 342 390
#     4  11  20  32  60  94 131 168 211 261 328 387
#     4  10  21  37  63  88 133 163 218 269 333 383
#     4  10  25  41  64  92 139 179 217 264 329 385
#     4  10  22  40  60  98 131 164 221 278 321 391
#     4  10  23  43  61  93 128 174 215 273 325 401
#     4  10  21  35  57  93 129 178 218 264 316 388
#
# _framework density 24.278835999999998
#
# number of rings (size 3 to 8) (size 9 to 14) (size 15 to 20)
#    0.750    1.000    3.750    1.500   10.500    2.500 
#    0.000    0.625    0.000    1.500    0.000    0.000 
#    0.000    0.000    0.000    0.000    0.000    0.000 
#
# Total GULP energy -89277.370873 kJ/mol
# GULP energy per Si atom -5579.835680 kJ/mol
# Density = 2.422358 g / cm^3
# Si number density = 24.278836 Si / 1000 Ang^3
#
#
#
# Elastic Constant Matrix: (Units=GPa)
#
#
# Indices 1 2 3 4 5 6 
#
# 1 118.5634 17.2569 47.2170 1.9935 4.6562 28.1385
# 2 17.2569 66.3187 26.6376 1.3157 -0.2528 13.7953
# 3 47.2170 26.6376 152.5484 26.8255 -11.6170 13.8909
# 4 1.9935 1.3157 26.8255 39.5537 9.1465 4.4141
# 5 4.6562 -0.2528 -11.6170 9.1465 26.7380 -1.5127
# 6 28.1385 13.7953 13.8909 4.4141 -1.5127 40.6247
#
#
#
# Elastic Compliance Matrix: (Units=1/GPa)
#
#
# Indices 1 2 3 4 5 6 
#
# 1 0.012122 0.000061 -0.004322 0.004555 -0.005980 -0.007657
# 2 0.000061 0.017397 -0.003264 0.002798 -0.002517 -0.005232
# 3 -0.004322 -0.003264 0.010521 -0.008965 0.008461 0.001794
# 4 0.004555 0.002798 -0.008965 0.035628 -0.017164 -0.005550
# 5 -0.005980 -0.002517 0.008461 -0.017164 0.048291 0.005767
# 6 -0.007657 -0.005232 0.001794 -0.005550 0.005767 0.031900
#
#
# Mechanical properties :
#
#
# Convention : Reuss Voigt Hill
#
# Bulk Modulus (GPa) = 40.01607 57.73929 48.87768
# Shear Modulus (GPa) = 27.89575 37.80454 32.85014
#
# Velocity S-wave (km/s) = 3.39333 3.95029 3.68235
# Velocity P-wave (km/s) = 5.64540 6.68130 6.18508
#
# Compressibility (1/GPa) = 0.02498996
#
# Stress axis : x y z
#
# Youngs Moduli (GPa) = 82.49466 57.48115 95.05211
#
# Poissons Ratio (x) = -0.00352 0.41081
# Poissons Ratio (y) = -0.00505 0.31026
# Poissons Ratio (z) = 0.35654 0.18763
#
# Static dielectric constant tensor:
#      x y z
#    x 1.950160 0.001000 0.013500 
#    y 0.001000 1.992880 -0.000300 
#    z 0.013500 -0.000300 2.062260 
# 
# From -- ./inp_files/84153.got.cif
#   From: 2010.05.17/outbox.cif.g08.bks.cpg/sg2_43_cif.got.tgz:84153.got - 2010.06.03 11:33:40.
