data_PCOD9001246
_publ_section_title
;
Structure prediction by ZEFSAII (Michael W. Deem and Ramdas Pophale) SiO2 
 PCOD9001246
Probable space group: P -1
;
_chemical_formula_sum "Si O2"
_cell_formula_units_Z 14
_cell_length_a 8.787117
_cell_length_b 15.676043
_cell_length_c 6.760190
_cell_angle_alpha 85.544917
_cell_angle_beta 83.767695
_cell_angle_gamma 47.142559
_cell_volume 678.568995
_symmetry_space_group_name_H-M "P -1"
_symmetry_group_IT_number 2
_symmetry_cell_setting 'triclinic'
loop_
_space_group_symop_operation_xyz
x,y,z
-x,-y,-z
loop_
_atom_site_type_symbol
_atom_site_label
_atom_site_fract_x
_atom_site_fract_y
_atom_site_fract_z
Si Si1 0.074310 0.375692 0.131056
Si Si2 0.581771 0.729342 0.238330
Si Si3 0.539218 0.385958 0.462204
Si Si4 0.994628 0.859688 0.525645
Si Si5 0.124162 0.959434 0.191516
Si Si6 0.153498 0.255109 0.529215
Si Si7 0.175885 0.518687 0.209617
O O1 0.131589 0.282934 0.295541
O O2 0.069662 0.465019 0.241657
O O3 0.251944 0.325223 0.951508
O O4 0.869223 0.435988 0.018011
O O5 0.554858 0.646066 0.357955
O O6 0.364511 0.843430 0.161466
O O7 0.657902 0.765249 0.393787
O O8 0.500000 0.500000 0.500000
O O9 0.782323 0.269617 0.436833
O O10 0.409448 0.421419 0.271309
O O11 0.033700 0.922057 0.358400
O O12 0.849133 0.845514 0.441895
O O13 0.903754 0.937792 0.720384
O O14 0.000000 0.000000 0.000000
O O15 0.950557 0.370266 0.649240
#
# Coordination Sequence:
#
# PCOD9001246 Si02
#       7
#     2   2   2   2   2   2   2
#     4  10  22  35  60  91 128 164 199 246 302 356
#     4  10  24  40  64  91 119 166 207 250 303 360
#     4  11  21  40  63  91 131 164 196 249 306 367
#     4  10  24  42  66  90 118 167 201 250 313 354
#     4  10  24  46  65  87 122 157 208 258 302 361
#     4  11  21  41  62  90 126 156 206 252 302 362
#     4  10  21  34  58  91 127 166 197 238 299 368
#
# _framework density 20.631654000000001
#
# number of rings (size 3 to 8) (size 9 to 14) (size 15 to 20)
#    0.000    1.714    2.857    0.429    6.000    4.000 
#    0.000    2.857    0.000    0.000    0.000    0.000 
#    0.000    0.000    0.000    0.000    0.000    0.000 
#
# Total GULP energy -78156.793601 kJ/mol
# GULP energy per Si atom -5582.628114 kJ/mol
# Density = 2.058470 g / cm^3
# Si number density = 20.631654 Si / 1000 Ang^3
#
#
#
# Elastic Constant Matrix: (Units=GPa)
#
#
# Indices 1 2 3 4 5 6 
#
# 1 82.9589 44.1042 31.0436 -3.1666 22.1834 9.3041
# 2 44.1042 99.7256 41.4664 -3.5714 14.9739 12.3235
# 3 31.0436 41.4664 80.2233 -2.0263 27.4956 -11.5560
# 4 -3.1666 -3.5714 -2.0263 28.1457 -10.8506 15.7313
# 5 22.1834 14.9739 27.4956 -10.8506 25.2715 -5.7910
# 6 9.3041 12.3235 -11.5560 15.7313 -5.7910 29.1297
#
#
#
# Elastic Compliance Matrix: (Units=1/GPa)
#
#
# Indices 1 2 3 4 5 6 
#
# 1 0.020158 -0.005350 -0.000810 -0.000286 -0.015466 -0.007417
# 2 -0.005350 0.019206 -0.013597 0.014765 0.010389 -0.017719
# 3 -0.000810 -0.013597 0.035431 -0.029038 -0.035683 0.028655
# 4 -0.000286 0.014765 -0.029038 0.082967 0.046521 -0.053232
# 5 -0.015466 0.010389 -0.035683 0.046521 0.101538 -0.018549
# 6 -0.007417 -0.017719 0.028655 -0.053232 -0.018549 0.080621
#
#
# Mechanical properties :
#
#
# Convention : Reuss Voigt Hill
#
# Bulk Modulus (GPa) = 28.34399 55.12625 41.73512
# Shear Modulus (GPa) = 12.78134 26.26229 19.52181
#
# Velocity S-wave (km/s) = 2.49168 3.57166 3.07938
# Velocity P-wave (km/s) = 4.69530 6.61712 5.73725
#
# Compressibility (1/GPa) = 0.03528085
#
# Stress axis : x y z
#
# Youngs Moduli (GPa) = 49.60839 52.06826 28.22387
#
# Poissons Ratio (x) = 0.27855 0.02286
# Poissons Ratio (y) = 0.26539 0.38377
# Poissons Ratio (z) = 0.04018 0.70798
#
# Static dielectric constant tensor:
#      x y z
#    x 1.764600 0.004940 0.003320 
#    y 0.004940 1.765620 0.006200 
#    z 0.003320 0.006200 1.736280 
# 
# From -- ./inp_files/38703.got.cif
#   From: 2010.05.17/outbox.cif.g08.bks.cpg/sg2_20_cif.got.tgz:38703.got - 2010.06.03 11:33:40.
