data_PCOD9001649
_publ_section_title
;
Structure prediction by ZEFSAII (Michael W. Deem and Ramdas Pophale) SiO2 
 PCOD9001649
Probable space group: P -1
;
_chemical_formula_sum "Si O2"
_cell_formula_units_Z 12
_cell_length_a 13.551501
_cell_length_b 16.330780
_cell_length_c 7.029691
_cell_angle_alpha 122.766048
_cell_angle_beta 113.131084
_cell_angle_gamma 23.882785
_cell_volume 505.293669
_symmetry_space_group_name_H-M "P -1"
_symmetry_group_IT_number 2
_symmetry_cell_setting 'triclinic'
loop_
_space_group_symop_operation_xyz
x,y,z
-x,-y,-z
loop_
_atom_site_type_symbol
_atom_site_label
_atom_site_fract_x
_atom_site_fract_y
_atom_site_fract_z
Si Si1 0.136046 0.886953 0.666872
Si Si2 0.409965 0.113044 0.279921
Si Si3 0.090762 0.567511 0.686788
Si Si4 0.024712 0.364378 0.863447
Si Si5 0.274206 0.567521 0.380716
Si Si6 0.253446 0.635644 0.999071
O O1 0.119862 0.790422 0.614014
O O2 0.436566 0.662966 0.616749
O O3 0.000000 0.000000 0.500000
O O4 0.984206 0.101281 0.910873
O O5 0.262535 0.337013 0.453769
O O6 0.200698 0.209600 0.323622
O O7 0.686790 0.898704 0.309581
O O8 0.500000 0.000000 0.000000
O O9 0.228745 0.557478 0.760376
O O10 0.043730 0.596381 0.916534
O O11 0.843666 0.442555 0.702926
O O12 0.000000 0.500000 0.000000
O O13 0.263474 0.596410 0.179847
O O14 0.500000 0.500000 0.000000
#
# Coordination Sequence:
#
# PCOD9001649 Si02
#       6
#     2   2   2   2   2   2
#     4   9  19  38  61  82 120 163 200 255 311 359
#     4   9  19  38  61  82 120 163 200 255 311 359
#     4   9  20  39  57  89 125 155 211 260 296 380
#     4  10  21  35  60  89 122 164 202 251 320 369
#     4   9  20  39  57  89 125 155 211 260 296 380
#     4  10  21  35  60  89 122 164 202 251 320 369
#
# _framework density 23.748566
#
# number of rings (size 3 to 8) (size 9 to 14) (size 15 to 20)
#    0.000    2.667    0.000    0.000    4.667    1.333 
#    6.000    5.000    0.000    0.000    0.000    0.000 
#    0.000    0.000    0.000    0.000    0.000    0.000 
#
# Total GULP energy -66963.073678 kJ/mol
# GULP energy per Si atom -5580.256140 kJ/mol
# Density = 2.369451 g / cm^3
# Si number density = 23.748566 Si / 1000 Ang^3
#
#
#
# Elastic Constant Matrix: (Units=GPa)
#
#
# Indices 1 2 3 4 5 6 
#
# 1 143.4814 59.8372 59.7855 5.2703 39.4063 -28.4417
# 2 59.8372 141.0981 78.1067 9.3608 18.1295 -14.1557
# 3 59.7855 78.1067 139.4639 -1.7383 18.2577 -15.6260
# 4 5.2703 9.3608 -1.7383 49.0943 0.1229 -1.3437
# 5 39.4063 18.1295 18.2577 0.1229 43.2341 -16.5888
# 6 -28.4417 -14.1557 -15.6260 -1.3437 -16.5888 32.3683
#
#
#
# Elastic Compliance Matrix: (Units=1/GPa)
#
#
# Indices 1 2 3 4 5 6 
#
# 1 0.011758 -0.002278 -0.002343 -0.000768 -0.007013 0.004578
# 2 -0.002278 0.011140 -0.005234 -0.002062 -0.000349 0.000080
# 3 -0.002343 -0.005234 0.011255 0.001680 0.000020 0.001166
# 4 -0.000768 -0.002062 0.001680 0.020919 0.001040 0.000636
# 5 -0.007013 -0.000349 0.000020 0.001040 0.033926 0.011125
# 6 0.004578 0.000080 0.001166 0.000636 0.011125 0.041242
#
#
# Mechanical properties :
#
#
# Convention : Reuss Voigt Hill
#
# Bulk Modulus (GPa) = 69.23635 91.05581 80.14608
# Shear Modulus (GPa) = 32.30760 40.02694 36.16727
#
# Velocity S-wave (km/s) = 3.69236 4.10987 3.90670
# Velocity P-wave (km/s) = 6.88442 7.80681 7.36008
#
# Compressibility (1/GPa) = 0.01444328
#
# Stress axis : x y z
#
# Youngs Moduli (GPa) = 85.05139 89.76715 88.85122
#
# Poissons Ratio (x) = 0.20447 0.20819
# Poissons Ratio (y) = 0.19373 0.46501
# Poissons Ratio (z) = 0.19929 0.46981
#
# Static dielectric constant tensor:
#      x y z
#    x 1.966110 0.034260 -0.041100 
#    y 0.034260 1.936640 -0.080320 
#    z -0.041100 -0.080320 1.979100 
# 
# From -- ./inp_files/317874.got.cif
#   From: 2010.05.17/outbox.cif.g08.bks.cpg/sg2_159_cif.got.tgz:317874.got - 2010.06.03 11:33:40.
