data_PCOD9001537
_publ_section_title
;
Structure prediction by ZEFSAII (Michael W. Deem and Ramdas Pophale) SiO2 
 PCOD9001537
Probable space group: P -1
;
_chemical_formula_sum "Si O2"
_cell_formula_units_Z 12
_cell_length_a 22.804082
_cell_length_b 8.136560
_cell_length_c 9.084640
_cell_angle_alpha 43.939507
_cell_angle_beta 29.522924
_cell_angle_gamma 38.732012
_cell_volume 515.027709
_symmetry_space_group_name_H-M "P -1"
_symmetry_group_IT_number 2
_symmetry_cell_setting 'triclinic'
loop_
_space_group_symop_operation_xyz
x,y,z
-x,-y,-z
loop_
_atom_site_type_symbol
_atom_site_label
_atom_site_fract_x
_atom_site_fract_y
_atom_site_fract_z
Si Si1 0.482167 0.967177 0.813149
Si Si2 0.953740 0.428423 0.301170
Si Si3 0.586535 0.266461 0.574055
Si Si4 0.170204 0.929025 0.322824
Si Si5 0.478359 0.687986 0.747534
Si Si6 0.798507 0.946758 0.500508
O O1 0.578175 0.013168 0.688361
O O2 0.466137 0.181983 0.579730
O O3 0.543611 0.702827 0.749005
O O4 0.334564 0.068127 0.138446
O O5 0.857069 0.302305 0.540570
O O6 0.890810 0.677994 0.388288
O O7 0.073463 0.196881 0.277786
O O8 0.000000 0.500000 0.000000
O O9 0.500000 0.500000 0.500000
O O10 0.507922 0.400391 0.808266
O O11 0.737494 0.172531 0.359350
O O12 0.148646 0.969451 0.521792
O O13 0.322077 0.858884 0.000648
#
# Coordination Sequence:
#
# PCOD9001537 Si02
#       6
#     2   2   2   2   2   2
#     4   9  19  35  61  92 129 165 207 255 318 393
#     4  11  26  46  71  94 126 175 225 277 324 379
#     4  10  21  35  57  94 134 167 206 260 317 391
#     4  10  24  47  68  96 133 168 221 276 320 389
#     4   9  19  38  61  95 128 167 205 259 327 381
#     4  11  23  42  65  99 130 174 216 266 328 384
#
# _framework density 23.299717999999999
#
# number of rings (size 3 to 8) (size 9 to 14) (size 15 to 20)
#    0.000    2.000    0.000    2.000    4.667    4.667 
#   15.000    0.000    0.000    0.000    0.000    0.000 
#    0.000    0.000    0.000    0.000    0.000    0.000 
#
# Total GULP energy -66895.335488 kJ/mol
# GULP energy per Si atom -5574.611291 kJ/mol
# Density = 2.324669 g / cm^3
# Si number density = 23.299718 Si / 1000 Ang^3
#
#
#
# Elastic Constant Matrix: (Units=GPa)
#
#
# Indices 1 2 3 4 5 6 
#
# 1 157.0702 46.8441 -1.1213 -2.9490 -11.4431 24.7481
# 2 46.8441 114.7780 8.1180 7.4214 -13.3786 23.6138
# 3 -1.1213 8.1180 35.6453 7.2430 3.5748 0.4997
# 4 -2.9490 7.4214 7.2430 21.0941 6.5936 0.6113
# 5 -11.4431 -13.3786 3.5748 6.5936 37.3547 -4.9219
# 6 24.7481 23.6138 0.4997 0.6113 -4.9219 59.2739
#
#
#
# Elastic Compliance Matrix: (Units=1/GPa)
#
#
# Indices 1 2 3 4 5 6 
#
# 1 0.007593 -0.002736 0.000473 0.001692 0.000733 -0.002041
# 2 -0.002736 0.011351 -0.002043 -0.004800 0.003876 -0.002991
# 3 0.000473 -0.002043 0.030574 -0.009140 -0.001860 0.000298
# 4 0.001692 -0.004800 -0.009140 0.055652 -0.010167 -0.000135
# 5 0.000733 0.003876 -0.001860 -0.010167 0.030461 0.000800
# 6 -0.002041 -0.002991 0.000298 -0.000135 0.000800 0.018980
#
#
# Mechanical properties :
#
#
# Convention : Reuss Voigt Hill
#
# Bulk Modulus (GPa) = 24.44611 46.13057 35.28834
# Shear Modulus (GPa) = 28.27129 40.45471 34.36300
#
# Velocity S-wave (km/s) = 3.48713 4.17138 3.84451
# Velocity P-wave (km/s) = 5.16994 6.56067 5.90638
#
# Compressibility (1/GPa) = 0.04090631
#
# Stress axis : x y z
#
# Youngs Moduli (GPa) = 131.70485 88.09626 32.70762
#
# Poissons Ratio (x) = 0.24107 -0.01548
# Poissons Ratio (y) = 0.36040 0.06681
# Poissons Ratio (z) = -0.06235 0.17996
#
# Static dielectric constant tensor:
#      x y z
#    x 2.086460 -0.151470 0.094860 
#    y -0.151470 2.156720 -0.216660 
#    z 0.094860 -0.216660 2.015590 
# 
# From -- ./inp_files/196810.got.cif
#   From: 2010.05.17/outbox.cif.g08.bks.cpg/sg2_99_cif.got.tgz:196810.got - 2010.06.03 11:33:40.
