data_PCOD9001682
_publ_section_title
;
Structure prediction by ZEFSAII (Michael W. Deem and Ramdas Pophale) SiO2 
 PCOD9001682
Probable space group: P -1
;
_chemical_formula_sum "Si O2"
_cell_formula_units_Z 16
_cell_length_a 13.033019
_cell_length_b 20.125662
_cell_length_c 7.364390
_cell_angle_alpha 110.131230
_cell_angle_beta 101.612404
_cell_angle_gamma 23.471017
_cell_volume 687.716339
_symmetry_space_group_name_H-M "P -1"
_symmetry_group_IT_number 2
_symmetry_cell_setting 'triclinic'
loop_
_space_group_symop_operation_xyz
x,y,z
-x,-y,-z
loop_
_atom_site_type_symbol
_atom_site_label
_atom_site_fract_x
_atom_site_fract_y
_atom_site_fract_z
Si Si1 0.327073 0.087732 0.797031
Si Si2 0.585493 0.158926 0.701984
Si Si3 0.120714 0.470221 0.357996
Si Si4 0.882524 0.462189 0.929481
Si Si5 0.349608 0.469956 0.420328
Si Si6 0.930579 0.047218 0.231898
Si Si7 0.353859 0.918327 0.757640
Si Si8 0.187603 0.127240 0.370146
O O1 0.240349 0.120603 0.590554
O O2 0.292397 0.039181 0.859032
O O3 0.624583 0.936520 0.740645
O O4 0.109531 0.282408 0.956759
O O5 0.319245 0.363138 0.870036
O O6 0.547441 0.152218 0.481341
O O7 0.704109 0.020444 0.735083
O O8 0.816329 0.075270 0.695527
O O9 0.217920 0.484281 0.487369
O O10 0.394632 0.260594 0.196381
O O11 0.000000 0.500000 0.500000
O O12 0.971164 0.586471 0.230118
O O13 0.701301 0.519323 0.800530
O O14 0.667795 0.262043 0.371041
O O15 0.138581 0.663463 0.576190
O O16 0.864950 0.006920 0.223135
O O17 0.000000 0.000000 0.000000
#
# Coordination Sequence:
#
# PCOD9001682 Si02
#       8
#     2   2   2   2   2   2   2   2
#     4   9  18  35  57  83 117 151 185 224 289 346
#     4  11  21  34  58  88 117 142 196 244 281 322
#     4   9  17  32  57  79 111 152 194 220 276 352
#     4   9  19  35  57  83 114 154 188 227 287 342
#     4   8  17  33  56  78 106 154 190 216 279 345
#     4  11  20  39  62  80 113 155 192 234 288 344
#     4  10  21  35  61  86 110 147 194 242 277 334
#     4   9  18  32  56  86 113 147 183 231 279 342
#
# _framework density 23.265405000000001
#
# number of rings (size 3 to 8) (size 9 to 14) (size 15 to 20)
#    0.750    1.750    1.250    1.125    3.500    1.000 
#    0.000    0.625   13.750    3.750    0.000    0.000 
#    0.000    0.000    0.000    0.000    0.000    0.000 
#
# Total GULP energy -89262.382312 kJ/mol
# GULP energy per Si atom -5578.898894 kJ/mol
# Density = 2.321245 g / cm^3
# Si number density = 23.265405 Si / 1000 Ang^3
#
#
#
# Elastic Constant Matrix: (Units=GPa)
#
#
# Indices 1 2 3 4 5 6 
#
# 1 124.4162 35.1800 26.0645 25.1375 0.5465 25.0186
# 2 35.1800 73.4680 27.0673 25.6580 13.4259 17.2750
# 3 26.0645 27.0673 89.7211 26.0398 8.3319 11.5039
# 4 25.1375 25.6580 26.0398 42.4815 5.6609 9.1503
# 5 0.5465 13.4259 8.3319 5.6609 22.4548 3.6794
# 6 25.0186 17.2750 11.5039 9.1503 3.6794 38.5029
#
#
#
# Elastic Compliance Matrix: (Units=1/GPa)
#
#
# Indices 1 2 3 4 5 6 
#
# 1 0.010757 -0.003172 -0.000917 -0.003324 0.003607 -0.004847
# 2 -0.003172 0.021154 -0.001849 -0.007631 -0.009277 -0.004178
# 3 -0.000917 -0.001849 0.014212 -0.006516 -0.002331 -0.001050
# 4 -0.003324 -0.007631 -0.006516 0.034422 -0.001535 -0.000504
# 5 0.003607 -0.009277 -0.002331 -0.001535 0.051580 -0.002050
# 6 -0.004847 -0.004178 -0.001050 -0.000504 -0.002050 0.031626
#
#
# Mechanical properties :
#
#
# Convention : Reuss Voigt Hill
#
# Bulk Modulus (GPa) = 29.19842 51.58102 40.38972
# Shear Modulus (GPa) = 26.73219 33.97407 30.35313
#
# Velocity S-wave (km/s) = 3.39338 3.82551 3.61591
# Velocity P-wave (km/s) = 5.28496 6.45999 5.90179
#
# Compressibility (1/GPa) = 0.03424843
#
# Stress axis : x y z
#
# Youngs Moduli (GPa) = 92.96317 47.27321 70.36419
#
# Poissons Ratio (x) = 0.14993 0.06451
# Poissons Ratio (y) = 0.29484 0.13007
# Poissons Ratio (z) = 0.08523 0.08739
#
# Static dielectric constant tensor:
#      x y z
#    x 1.895500 0.014440 -0.009250 
#    y 0.014440 1.935870 -0.001790 
#    z -0.009250 -0.001790 1.856450 
# 
# From -- ./inp_files/320320.got.cif
#   From: 2010.05.17/outbox.cif.g08.bks.cpg/sg2_161_cif.got.tgz:320320.got - 2010.06.03 11:33:40.
