data_PCOD9001372
_publ_section_title
;
Structure prediction by ZEFSAII (Michael W. Deem and Ramdas Pophale) SiO2 
 PCOD9001372
Probable space group: P -1
;
_chemical_formula_sum "Si O2"
_cell_formula_units_Z 14
_cell_length_a 12.704939
_cell_length_b 11.358785
_cell_length_c 13.729794
_cell_angle_alpha 121.914893
_cell_angle_beta 149.525934
_cell_angle_gamma 43.168509
_cell_volume 658.335674
_symmetry_space_group_name_H-M "P -1"
_symmetry_group_IT_number 2
_symmetry_cell_setting 'triclinic'
loop_
_space_group_symop_operation_xyz
x,y,z
-x,-y,-z
loop_
_atom_site_type_symbol
_atom_site_label
_atom_site_fract_x
_atom_site_fract_y
_atom_site_fract_z
Si Si1 0.408398 0.797448 0.515954
Si Si2 0.583254 0.619840 0.963965
Si Si3 0.031729 0.780569 0.688120
Si Si4 0.492036 0.424316 0.668185
Si Si5 0.897271 0.722770 0.351587
Si Si6 0.295512 0.213667 0.416091
Si Si7 0.684916 0.098635 0.299074
O O1 0.381398 0.667880 0.375452
O O2 0.670949 0.758031 0.658083
O O3 0.429014 0.785320 0.642175
O O4 0.150328 0.003732 0.375223
O O5 0.650610 0.455611 0.881432
O O6 0.463661 0.779124 0.859040
O O7 0.340373 0.682508 0.870015
O O8 0.805613 0.612907 0.194030
O O9 0.929459 0.725820 0.494447
O O10 0.965466 0.734542 0.716128
O O11 0.418045 0.303118 0.600325
O O12 0.198472 0.618368 0.505591
O O13 0.692164 0.929238 0.244133
O O14 0.500000 0.000000 0.500000
O O15 0.000000 0.000000 0.500000
#
# Coordination Sequence:
#
# PCOD9001372 Si02
#       7
#     2   2   2   2   2   2   2
#     4   8  17  33  60  77 103 146 177 224 266 314
#     4  11  21  34  55  85 111 144 180 220 272 318
#     4   9  17  36  59  79 105 146 188 215 262 325
#     4   9  19  36  55  81 113 138 182 225 269 320
#     4  10  21  35  53  83 116 141 177 224 268 322
#     4   8  16  34  61  78 103 149 180 217 277 315
#     4  11  18  37  59  80 105 146 186 217 268 325
#
# _framework density 21.265747999999999
#
# number of rings (size 3 to 8) (size 9 to 14) (size 15 to 20)
#    0.857    1.714    4.286    0.429    0.000    2.857 
#    0.000    6.429    0.000    6.000    0.000    0.000 
#    0.000    0.000    0.000    0.000    0.000    0.000 
#
# Total GULP energy -77985.926544 kJ/mol
# GULP energy per Si atom -5570.423325 kJ/mol
# Density = 2.121735 g / cm^3
# Si number density = 21.265748 Si / 1000 Ang^3
#
#
#
# Elastic Constant Matrix: (Units=GPa)
#
#
# Indices 1 2 3 4 5 6 
#
# 1 121.2612 16.8466 27.8659 5.4234 11.0498 -20.4566
# 2 16.8466 103.8930 21.2537 21.7927 -13.8870 -16.4308
# 3 27.8659 21.2537 86.8948 25.7824 -7.0531 -11.9899
# 4 5.4234 21.7927 25.7824 25.1787 1.8703 -7.1060
# 5 11.0498 -13.8870 -7.0531 1.8703 13.6073 4.2226
# 6 -20.4566 -16.4308 -11.9899 -7.1060 4.2226 39.4462
#
#
#
# Elastic Compliance Matrix: (Units=1/GPa)
#
#
# Indices 1 2 3 4 5 6 
#
# 1 0.014138 -0.006049 -0.008666 0.015239 -0.026653 0.007776
# 2 -0.006049 0.018198 0.007032 -0.024241 0.030796 -0.001083
# 3 -0.008666 0.007032 0.024384 -0.032581 0.032414 -0.003493
# 4 0.015239 -0.024241 -0.032581 0.099965 -0.071967 0.013614
# 5 -0.026653 0.030796 0.032414 -0.071967 0.159841 -0.021217
# 6 0.007776 -0.001083 -0.003493 0.013614 -0.021217 0.032595
#
#
# Mechanical properties :
#
#
# Convention : Reuss Voigt Hill
#
# Bulk Modulus (GPa) = 24.18260 49.33126 36.75693
# Shear Modulus (GPa) = 13.21808 32.05195 22.63502
#
# Velocity S-wave (km/s) = 2.49583 3.88649 3.26604
# Velocity P-wave (km/s) = 4.43868 6.58693 5.61647
#
# Compressibility (1/GPa) = 0.04135204
#
# Stress axis : x y z
#
# Youngs Moduli (GPa) = 70.73378 54.95224 41.01122
#
# Poissons Ratio (x) = 0.33240 0.35540
# Poissons Ratio (y) = 0.42786 -0.28837
# Poissons Ratio (z) = 0.61298 -0.38640
#
# Static dielectric constant tensor:
#      x y z
#    x 1.787350 0.005170 0.019690 
#    y 0.005170 1.837440 0.001010 
#    z 0.019690 0.001010 1.749560 
# 
# From -- ./inp_files/387468.got.cif
#   From: 2010.05.17/outbox.cif.g08.bks.cpg/sg2_194_cif.got.tgz:387468.got - 2010.06.03 11:33:40.
