data_PCOD9001885
_publ_section_title
;
Structure prediction by ZEFSAII (Michael W. Deem and Ramdas Pophale) SiO2 
 PCOD9001885
Probable space group: P -1
;
_chemical_formula_sum "Si O2"
_cell_formula_units_Z 14
_cell_length_a 26.890472
_cell_length_b 29.423183
_cell_length_c 29.423179
_cell_angle_alpha 169.350347
_cell_angle_beta 170.391129
_cell_angle_gamma 9.608861
_cell_volume 599.495963
_symmetry_space_group_name_H-M "P -1"
_symmetry_group_IT_number 2
_symmetry_cell_setting 'triclinic'
loop_
_space_group_symop_operation_xyz
x,y,z
-x,-y,-z
loop_
_atom_site_type_symbol
_atom_site_label
_atom_site_fract_x
_atom_site_fract_y
_atom_site_fract_z
Si Si1 0.762928 0.715837 0.784160
Si Si2 0.061598 0.891902 0.608102
Si Si3 0.479795 0.036633 0.463366
Si Si4 0.259854 0.705767 0.794232
Si Si5 0.163891 0.266535 0.233464
Si Si6 0.523450 0.444127 0.055874
Si Si7 0.412031 0.304140 0.195860
O O1 0.860206 0.408161 0.592106
O O2 0.956802 0.652416 0.847583
O O3 0.341873 0.914509 0.585488
O O4 0.860205 0.907890 0.091835
O O5 0.334067 0.789201 0.710799
O O6 0.320639 0.373869 0.641597
O O7 0.500000 0.000000 0.500000
O O8 0.834621 0.892045 0.607953
O O9 0.320640 0.858403 0.126130
O O10 0.353028 0.434887 0.580469
O O11 0.418235 0.608938 0.891061
O O12 0.353026 0.919530 0.065110
O O13 0.906817 0.360607 0.139392
O O14 0.500000 0.500000 0.500000
O O15 0.000000 0.500000 0.000000
O O16 0.500000 0.000000 0.000000
#
# Coordination Sequence:
#
# PCOD9001885 Si02
#       7
#     2   2   2   2   2   2   2
#     4  12  26  44  69  99 143 179 227 289 340 403
#     4  12  26  45  68 106 138 181 233 283 340 403
#     4  10  21  36  53  83 111 143 188 247 306 371
#     4  10  21  38  57  82 112 148 206 244 305 392
#     4  10  23  37  59  83 115 160 200 255 316 379
#     4  10  21  36  57  79 110 149 196 242 301 386
#     4  12  24  44  72 100 139 186 230 283 340 403
#
# _framework density 23.352951999999998
#
# number of rings (size 3 to 8) (size 9 to 14) (size 15 to 20)
#    0.000    1.143    0.000    6.000    4.000    1.143 
#    0.000    0.000    0.000    0.000    0.000    0.000 
#    0.000    0.000    0.000    0.000    0.000    0.000 
#
# Total GULP energy -78129.362937 kJ/mol
# GULP energy per Si atom -5580.668781 kJ/mol
# Density = 2.329980 g / cm^3
# Si number density = 23.352952 Si / 1000 Ang^3
#
#
#
# Elastic Constant Matrix: (Units=GPa)
#
#
# Indices 1 2 3 4 5 6 
#
# 1 171.7069 61.6919 102.6300 35.8093 2.8189 -4.8527
# 2 61.6919 78.9487 163.1320 -27.8044 54.4186 24.7872
# 3 102.6300 163.1320 160.7590 99.3676 -56.2742 -21.5811
# 4 35.8093 -27.8044 99.3676 53.2847 22.6280 28.7629
# 5 2.8189 54.4186 -56.2742 22.6280 38.7362 1.5364
# 6 -4.8527 24.7872 -21.5811 28.7629 1.5364 36.9798
#
#
#
# Elastic Compliance Matrix: (Units=1/GPa)
#
#
# Indices 1 2 3 4 5 6 
#
# 1 0.008540 -0.001549 -0.002743 -0.002089 -0.001298 0.002237
# 2 -0.001549 0.003124 0.002757 -0.005599 0.002859 0.003548
# 3 -0.002743 0.002757 0.001737 0.003171 -0.002862 -0.003542
# 4 -0.002089 -0.005599 0.003171 0.009681 0.007068 -0.002494
# 5 -0.001298 0.002859 -0.002862 0.007068 0.013996 -0.009836
# 6 0.002237 0.003548 -0.003542 -0.002494 -0.009836 0.025239
#
#
# Mechanical properties :
#
#
# Convention : Reuss Voigt Hill
#
# Bulk Modulus (GPa) = 96.80240 118.48028 107.64134
# Shear Modulus (GPa) = 72.64202 31.39751 52.01977
#
# Velocity S-wave (km/s) = 5.58334 3.67069 4.72481
# Velocity P-wave (km/s) = 9.11629 8.29518 8.71541
#
# Compressibility (1/GPa) = 0.01033032
#
# Stress axis : x y z
#
# Youngs Moduli (GPa) = 117.09480 320.10162 575.85899
#
# Poissons Ratio (x) = 0.49590 1.57948
# Poissons Ratio (y) = 0.18140 -1.58756
# Poissons Ratio (z) = 0.32117 -0.88248
#
# Static dielectric constant tensor:
#      x y z
#    x 2.191070 -1.363240 0.791090 
#    y -1.363240 6.426410 -2.626850 
#    z 0.791090 -2.626850 3.424020 
# 
# From -- ./inp_files/12874.got.cif
#   From: 2010.05.17/outbox.cif.g08.bks.cpg/sg2_7_cif.got.tgz:12874.got - 2010.06.03 11:33:40.
