data_PCOD9001067
_publ_section_title
;
Structure prediction by ZEFSAII (Michael W. Deem and Ramdas Pophale) SiO2 
 PCOD9001067
Probable space group: P -1
;
_chemical_formula_sum "Si O2"
_cell_formula_units_Z 10
_cell_length_a 17.484102
_cell_length_b 9.704136
_cell_length_c 17.407047
_cell_angle_alpha 142.966687
_cell_angle_beta 16.636461
_cell_angle_gamma 146.090532
_cell_volume 471.633131
_symmetry_space_group_name_H-M "P -1"
_symmetry_group_IT_number 2
_symmetry_cell_setting 'triclinic'
loop_
_space_group_symop_operation_xyz
x,y,z
-x,-y,-z
loop_
_atom_site_type_symbol
_atom_site_label
_atom_site_fract_x
_atom_site_fract_y
_atom_site_fract_z
Si Si1 0.750751 0.964596 0.839364
Si Si2 0.532816 0.639936 0.408432
Si Si3 0.906611 0.295282 0.686177
Si Si4 0.988938 0.268079 0.124770
Si Si5 0.906098 0.722275 0.219530
O O1 0.867250 0.754948 0.608604
O O2 0.898882 0.175517 0.725517
O O3 0.409530 0.853570 0.108522
O O4 0.846764 0.073895 0.879849
O O5 0.767016 0.807496 0.319013
O O6 0.345670 0.400370 0.530470
O O7 0.304346 0.744049 0.640006
O O8 0.723225 0.581479 0.134225
O O9 0.983442 0.582132 0.756827
O O10 0.000000 0.000000 0.000000
O O11 0.000000 0.500000 0.000000
#
# Coordination Sequence:
#
# PCOD9001067 Si02
#       5
#     2   2   2   2   2
#     4  10  21  33  59  86 122 147 182 259 301 350
#     4  11  23  37  61  93 115 155 207 236 308 340
#     4  10  21  35  55  88 118 152 194 235 310 346
#     4  12  24  42  62  85 124 162 205 242 279 364
#     4  11  22  37  64  91 128 148 193 259 301 358
#
# _framework density 21.202919999999999
#
# number of rings (size 3 to 8) (size 9 to 14) (size 15 to 20)
#    0.000    1.200    4.000    1.800   11.200    0.000 
#    0.000    0.000    0.000    7.200    0.000    0.000 
#    0.000    0.000    0.000    0.000    0.000    0.000 
#
# Total GULP energy -55878.270308 kJ/mol
# GULP energy per Si atom -5587.827031 kJ/mol
# Density = 2.115466 g / cm^3
# Si number density = 21.202920 Si / 1000 Ang^3
#
#
#
# Elastic Constant Matrix: (Units=GPa)
#
#
# Indices 1 2 3 4 5 6 
#
# 1 89.6139 23.2294 32.3779 10.6497 -24.1757 35.6116
# 2 23.2294 53.2788 3.7889 27.1869 2.5430 19.1825
# 3 32.3779 3.7889 115.6424 15.5034 -5.4345 2.3471
# 4 10.6497 27.1869 15.5034 30.9694 4.1068 5.4121
# 5 -24.1757 2.5430 -5.4345 4.1068 37.3143 -5.7067
# 6 35.6116 19.1825 2.3471 5.4121 -5.7067 25.3899
#
#
#
# Elastic Compliance Matrix: (Units=1/GPa)
#
#
# Indices 1 2 3 4 5 6 
#
# 1 0.039026 0.005316 -0.008340 -0.006850 0.016380 -0.052841
# 2 0.005316 0.050939 0.003126 -0.041446 -0.000756 -0.037567
# 3 -0.008340 0.003126 0.011557 -0.007075 -0.001719 0.009389
# 4 -0.006850 -0.041446 -0.007075 0.071098 -0.006657 0.024923
# 5 0.016380 -0.000756 -0.001719 -0.006657 0.035998 -0.012735
# 6 -0.052841 -0.037567 0.009389 0.024923 -0.012735 0.132839
#
#
# Mechanical properties :
#
#
# Convention : Reuss Voigt Hill
#
# Bulk Modulus (GPa) = 9.83029 41.92528 25.87779
# Shear Modulus (GPa) = 13.32757 32.01064 22.66910
#
# Velocity S-wave (km/s) = 2.50985 3.88974 3.27333
# Velocity P-wave (km/s) = 3.61186 6.32374 5.14952
#
# Compressibility (1/GPa) = 0.10172637
#
# Stress axis : x y z
#
# Youngs Moduli (GPa) = 25.62418 19.63122 86.52675
#
# Poissons Ratio (x) = -0.10437 0.72164
# Poissons Ratio (y) = -0.13623 -0.27046
# Poissons Ratio (z) = 0.21371 -0.06136
#
# Static dielectric constant tensor:
#      x y z
#    x 1.808470 -0.006930 -0.003400 
#    y -0.006930 1.804290 0.010560 
#    z -0.003400 0.010560 1.776680 
# 
# From -- ./inp_files/20749.got.cif
#   From: 2010.05.17/outbox.cif.g08.bks.cpg/sg2_11_cif.got.tgz:20749.got - 2010.06.03 11:33:40.
