data_PCOD9001472
_publ_section_title
;
Structure prediction by ZEFSAII (Michael W. Deem and Ramdas Pophale) SiO2 
 PCOD9001472
Probable space group: P -1
;
_chemical_formula_sum "Si O2"
_cell_formula_units_Z 12
_cell_length_a 7.069834
_cell_length_b 6.827995
_cell_length_c 14.310692
_cell_angle_alpha 95.493660
_cell_angle_beta 49.046029
_cell_angle_gamma 74.359502
_cell_volume 465.826544
_symmetry_space_group_name_H-M "P -1"
_symmetry_group_IT_number 2
_symmetry_cell_setting 'triclinic'
loop_
_space_group_symop_operation_xyz
x,y,z
-x,-y,-z
loop_
_atom_site_type_symbol
_atom_site_label
_atom_site_fract_x
_atom_site_fract_y
_atom_site_fract_z
Si Si1 0.965363 0.302178 0.434574
Si Si2 0.084641 0.830159 0.350932
Si Si3 0.190338 0.687632 0.113237
Si Si4 0.081597 0.111091 0.065810
Si Si5 0.489046 0.285787 0.318872
Si Si6 0.325350 0.201473 0.824150
O O1 0.033231 0.215746 0.517249
O O2 0.684045 0.527513 0.540326
O O3 0.242482 0.333576 0.322510
O O4 0.956332 0.091601 0.382034
O O5 0.064568 0.714075 0.258569
O O6 0.411338 0.748978 0.266437
O O7 0.981972 0.648897 0.108015
O O8 0.500000 0.500000 0.000000
O O9 0.199985 0.915777 0.092530
O O10 0.781251 0.295166 0.204827
O O11 0.297788 0.169477 0.942688
O O12 0.000000 0.000000 0.000000
O O13 0.599396 0.020948 0.272400
#
# Coordination Sequence:
#
# PCOD9001472 Si02
#       6
#     2   2   2   2   2   2
#     4   9  18  33  55  84 108 157 178 225 274 335
#     4  10  21  35  56  84 118 138 191 228 276 327
#     4  10  21  35  56  86 112 145 188 228 279 329
#     4   8  17  34  55  79 111 145 179 227 274 328
#     4   8  15  33  58  75 106 150 191 205 280 333
#     4   9  20  38  57  82 115 148 177 234 282 324
#
# _framework density 25.760663999999998
#
# number of rings (size 3 to 8) (size 9 to 14) (size 15 to 20)
#    0.000    3.333    0.000    0.000    7.000    1.333 
#    0.000   16.667    0.000    0.000    0.000    0.000 
#    0.000    0.000    0.000    0.000    0.000    0.000 
#
# Total GULP energy -66851.746472 kJ/mol
# GULP energy per Si atom -5570.978873 kJ/mol
# Density = 2.570203 g / cm^3
# Si number density = 25.760664 Si / 1000 Ang^3
#
#
#
# Elastic Constant Matrix: (Units=GPa)
#
#
# Indices 1 2 3 4 5 6 
#
# 1 74.8759 24.3865 26.1471 -5.6987 -16.6177 -12.6169
# 2 24.3865 95.0317 45.0131 17.7173 -9.9464 -8.1972
# 3 26.1471 45.0131 114.4726 9.8740 -29.8534 -19.9219
# 4 -5.6987 17.7173 9.8740 55.6070 -10.0502 -6.4897
# 5 -16.6177 -9.9464 -29.8534 -10.0502 46.6977 4.2557
# 6 -12.6169 -8.1972 -19.9219 -6.4897 4.2557 28.2728
#
#
#
# Elastic Compliance Matrix: (Units=1/GPa)
#
#
# Indices 1 2 3 4 5 6 
#
# 1 0.017564 -0.004197 -0.000107 0.004990 0.005740 0.006827
# 2 -0.004197 0.014620 -0.005460 -0.004866 -0.002718 -0.002190
# 3 -0.000107 -0.005460 0.014006 0.001447 0.007385 0.007459
# 4 0.004990 -0.004866 0.001447 0.021518 0.005757 0.005909
# 5 0.005740 -0.002718 0.007385 0.005757 0.028472 0.004013
# 6 0.006827 -0.002190 0.007459 0.005909 0.004013 0.043790
#
#
# Mechanical properties :
#
#
# Convention : Reuss Voigt Hill
#
# Bulk Modulus (GPa) = 37.50729 52.83040 45.16885
# Shear Modulus (GPa) = 29.69352 38.70440 34.19896
#
# Velocity S-wave (km/s) = 3.39878 3.88036 3.64753
# Velocity P-wave (km/s) = 5.47666 6.37409 5.94234
#
# Compressibility (1/GPa) = 0.02666148
#
# Stress axis : x y z
#
# Youngs Moduli (GPa) = 56.93507 68.39922 71.39564
#
# Poissons Ratio (x) = 0.28709 0.00762
# Poissons Ratio (y) = 0.23898 0.38985
# Poissons Ratio (z) = 0.00608 0.37349
#
# Static dielectric constant tensor:
#      x y z
#    x 2.016240 0.059840 -0.050280 
#    y 0.059840 2.235970 -0.013460 
#    z -0.050280 -0.013460 2.091720 
# 
# From -- ./inp_files/291216.got.cif
#   From: 2010.05.17/outbox.cif.g08.bks.cpg/sg2_146_cif.got.tgz:291216.got - 2010.06.03 11:33:40.
