data_PCOD9001746
_publ_section_title
;
Structure prediction by ZEFSAII (Michael W. Deem and Ramdas Pophale) SiO2 
 PCOD9001746
Probable space group: P -1
;
_chemical_formula_sum "Si O2"
_cell_formula_units_Z 16
_cell_length_a 22.732378
_cell_length_b 5.102365
_cell_length_c 9.321544
_cell_angle_alpha 57.735479
_cell_angle_beta 51.439574
_cell_angle_gamma 47.227484
_cell_volume 608.987838
_symmetry_space_group_name_H-M "P -1"
_symmetry_group_IT_number 2
_symmetry_cell_setting 'triclinic'
loop_
_space_group_symop_operation_xyz
x,y,z
-x,-y,-z
loop_
_atom_site_type_symbol
_atom_site_label
_atom_site_fract_x
_atom_site_fract_y
_atom_site_fract_z
Si Si1 0.591912 0.984553 0.018692
Si Si2 0.219373 0.979787 0.857671
Si Si3 0.286202 0.386533 0.491881
Si Si4 0.056531 0.174462 0.898606
Si Si5 0.941571 0.423530 0.502119
Si Si6 0.774714 0.361936 0.786561
Si Si7 0.457058 0.699965 0.287179
Si Si8 0.384814 0.330560 0.650668
O O1 0.528123 0.820487 0.156676
O O2 0.600986 0.003544 0.172257
O O3 0.685823 0.690158 0.895283
O O4 0.558383 0.310613 0.858009
O O5 0.317783 0.667394 0.755520
O O6 0.211385 0.326038 0.691022
O O7 0.149283 0.905744 0.912158
O O8 0.204918 0.984128 0.047458
O O9 0.241273 0.672576 0.347156
O O10 0.333010 0.412860 0.555374
O O11 0.365860 0.041147 0.388617
O O12 0.073751 0.328934 0.684127
O O13 0.000000 0.500000 0.000000
O O14 0.000000 0.000000 0.000000
O O15 0.848734 0.462598 0.669175
O O16 0.000000 0.500000 0.500000
O O17 0.000000 0.000000 0.500000
O O18 0.466652 0.372382 0.466695
#
# Coordination Sequence:
#
# PCOD9001746 Si02
#       8
#     2   2   2   2   2   2   2   2
#     4   9  19  38  61  86 127 167 209 267 323 398
#     4  10  22  41  60  88 127 169 214 269 332 402
#     4  10  21  38  61  91 124 166 219 271 324 399
#     4  12  26  45  71 102 137 178 229 289 350 415
#     4  12  26  48  73 105 140 182 233 289 350 419
#     4  10  21  43  62  91 129 173 215 272 341 401
#     4   9  19  38  59  86 126 166 211 265 325 388
#     4  10  21  35  62  89 121 169 215 265 326 389
#
# _framework density 26.273104
#
# number of rings (size 3 to 8) (size 9 to 14) (size 15 to 20)
#    0.000    1.750    1.250    2.625    1.750    2.500 
#    4.500    5.625    0.000    0.000    0.000    0.000 
#    0.000    0.000    0.000    0.000    0.000    0.000 
#
# Total GULP energy -89504.112328 kJ/mol
# GULP energy per Si atom -5594.007020 kJ/mol
# Density = 2.621331 g / cm^3
# Si number density = 26.273104 Si / 1000 Ang^3
#
#
#
# Elastic Constant Matrix: (Units=GPa)
#
#
# Indices 1 2 3 4 5 6 
#
# 1 157.0680 11.1686 89.8014 -12.9983 17.4365 2.4923
# 2 11.1686 44.9940 32.0398 -16.5671 1.3773 5.8203
# 3 89.8014 32.0398 238.3353 -18.1368 24.6012 -12.4332
# 4 -12.9983 -16.5671 -18.1368 27.2301 -10.0099 8.0426
# 5 17.4365 1.3773 24.6012 -10.0099 70.6640 0.3875
# 6 2.4923 5.8203 -12.4332 8.0426 0.3875 38.2450
#
#
#
# Elastic Compliance Matrix: (Units=1/GPa)
#
#
# Indices 1 2 3 4 5 6 
#
# 1 0.008500 0.001938 -0.003276 0.003678 -0.000459 -0.002683
# 2 0.001938 0.035597 -0.004702 0.024551 0.004010 -0.012276
# 3 -0.003276 -0.004702 0.006260 -0.001820 -0.001556 0.003362
# 4 0.003678 0.024551 -0.001820 0.060211 0.007872 -0.017309
# 5 -0.000459 0.004010 -0.001556 0.007872 0.015859 -0.002902
# 6 -0.002683 -0.012276 0.003362 -0.017309 -0.002902 0.032953
#
#
# Mechanical properties :
#
#
# Convention : Reuss Voigt Hill
#
# Bulk Modulus (GPa) = 26.12466 78.49076 52.30771
# Shear Modulus (GPa) = 27.14193 47.72032 37.43112
#
# Velocity S-wave (km/s) = 3.21763 4.26645 3.77861
# Velocity P-wave (km/s) = 4.87537 7.36274 6.24417
#
# Compressibility (1/GPa) = 0.03827802
#
# Stress axis : x y z
#
# Youngs Moduli (GPa) = 117.65208 28.09214 159.75533
#
# Poissons Ratio (x) = -0.05445 0.52332
# Poissons Ratio (y) = -0.22805 0.75112
# Poissons Ratio (z) = 0.38540 0.13208
#
# Static dielectric constant tensor:
#      x y z
#    x 2.103650 -0.014450 0.053420 
#    y -0.014450 2.132100 -0.062000 
#    z 0.053420 -0.062000 2.034760 
# 
# From -- ./inp_files/142646.got.cif
#   From: 2010.05.17/outbox.cif.g08.bks.cpg/sg2_72_cif.got.tgz:142646.got - 2010.06.03 11:33:40.
