data_PCOD9001017
_publ_section_title
;
Structure prediction by ZEFSAII (Michael W. Deem and Ramdas Pophale) SiO2 
 PCOD9001017
Probable space group: P -1
;
_chemical_formula_sum "Si O2"
_cell_formula_units_Z 16
_cell_length_a 13.191942
_cell_length_b 11.980410
_cell_length_c 9.557418
_cell_angle_alpha 66.461700
_cell_angle_beta 77.133518
_cell_angle_gamma 132.146847
_cell_volume 710.559530
_symmetry_space_group_name_H-M "P -1"
_symmetry_group_IT_number 2
_symmetry_cell_setting 'triclinic'
loop_
_space_group_symop_operation_xyz
x,y,z
-x,-y,-z
loop_
_atom_site_type_symbol
_atom_site_label
_atom_site_fract_x
_atom_site_fract_y
_atom_site_fract_z
Si Si1 0.159653 0.563173 0.976005
Si Si2 0.865519 0.124227 0.130599
Si Si3 0.473751 0.799225 0.559092
Si Si4 0.978417 0.678045 0.587607
Si Si5 0.118065 0.386392 0.670374
Si Si6 0.716816 0.630607 0.751750
Si Si7 0.713224 0.700719 0.401671
Si Si8 0.374308 0.193700 0.245253
O O1 0.371054 0.779442 0.723601
O O2 0.126697 0.519888 0.174195
O O3 0.000000 0.500000 0.000000
O O4 0.059645 0.340029 0.056511
O O5 0.681447 0.016453 0.303900
O O6 0.815106 0.932387 0.245508
O O7 0.927709 0.223414 0.905740
O O8 0.307942 0.626320 0.575916
O O9 0.526651 0.732402 0.670886
O O10 0.911641 0.598842 0.486864
O O11 0.911777 0.745065 0.628880
O O12 0.215285 0.928179 0.403044
O O13 0.156142 0.278771 0.710818
O O14 0.674423 0.621843 0.610734
O O15 0.714199 0.757716 0.765751
O O16 0.551513 0.375667 0.990271
O O17 0.500000 0.500000 0.500000
#
# Coordination Sequence:
#
# PCOD9001017 Si02
#       8
#     2   2   2   2   2   2   2   2
#     4  11  25  45  69  90 116 161 220 277 318 359
#     4  11  22  41  61  90 129 167 209 243 310 375
#     4  11  21  43  63  91 125 168 205 258 308 376
#     4  11  22  39  59  94 120 161 207 260 308 364
#     4  10  24  36  61  94 136 166 199 248 310 383
#     4  10  21  33  53  90 128 162 206 247 296 366
#     4  11  19  35  58  92 133 178 199 237 301 389
#     4  11  20  35  59  87 126 166 202 248 304 373
#
# _framework density 22.517465999999999
#
# number of rings (size 3 to 8) (size 9 to 14) (size 15 to 20)
#    0.000    1.250    5.000    0.750    1.750    1.500 
#    4.500    2.500    0.000    1.500    0.000    0.000 
#    0.000    0.000    0.000    0.000    0.000    0.000 
#
# Total GULP energy -89226.829309 kJ/mol
# GULP energy per Si atom -5576.676832 kJ/mol
# Density = 2.246621 g / cm^3
# Si number density = 22.517466 Si / 1000 Ang^3
#
#
#
# Elastic Constant Matrix: (Units=GPa)
#
#
# Indices 1 2 3 4 5 6 
#
# 1 73.9667 2.5618 36.5554 13.3788 -8.5016 8.5814
# 2 2.5618 58.9076 41.5276 7.0849 9.4114 14.7495
# 3 36.5554 41.5276 175.7984 12.3538 -27.6532 17.1652
# 4 13.3788 7.0849 12.3538 28.6187 11.7105 -1.6255
# 5 -8.5016 9.4114 -27.6532 11.7105 28.4216 6.8296
# 6 8.5814 14.7495 17.1652 -1.6255 6.8296 25.8627
#
#
#
# Elastic Compliance Matrix: (Units=1/GPa)
#
#
# Indices 1 2 3 4 5 6 
#
# 1 0.019674 0.001487 0.000605 -0.017216 0.016233 -0.013146
# 2 0.001487 0.027127 -0.009350 0.003733 -0.018029 -0.004762
# 3 0.000605 -0.009350 0.014264 -0.015709 0.026594 -0.012345
# 4 -0.017216 0.003733 -0.015709 0.075946 -0.061369 0.034989
# 5 0.016233 -0.018029 0.026594 -0.061369 0.108018 -0.045137
# 6 -0.013146 -0.004762 -0.012345 0.034989 -0.045137 0.068056
#
#
# Mechanical properties :
#
#
# Convention : Reuss Voigt Hill
#
# Bulk Modulus (GPa) = 21.48380 52.21804 36.85092
# Shear Modulus (GPa) = 14.57223 31.78245 23.17734
#
# Velocity S-wave (km/s) = 2.54668 3.76101 3.21176
# Velocity P-wave (km/s) = 4.26721 6.48850 5.49135
#
# Compressibility (1/GPa) = 0.04654671
#
# Stress axis : x y z
#
# Youngs Moduli (GPa) = 50.82812 36.86425 70.10658
#
# Poissons Ratio (x) = -0.05480 -0.04239
# Poissons Ratio (y) = -0.07556 0.65552
# Poissons Ratio (z) = -0.03074 0.34469
#
# Static dielectric constant tensor:
#      x y z
#    x 1.865900 0.004690 -0.006260 
#    y 0.004690 1.865130 -0.008100 
#    z -0.006260 -0.008100 1.861690 
# 
# From -- ./inp_files/312775.got.cif
#   From: 2010.05.17/outbox.cif.g08.bks.cpg/sg2_157_cif.got.tgz:312775.got - 2010.06.03 11:33:40.
