data_PCOD9001324
_publ_section_title
;
Structure prediction by ZEFSAII (Michael W. Deem and Ramdas Pophale) SiO2 
 PCOD9001324
Probable space group: P -1
;
_chemical_formula_sum "Si O2"
_cell_formula_units_Z 12
_cell_length_a 13.149552
_cell_length_b 5.142133
_cell_length_c 13.580703
_cell_angle_alpha 105.087626
_cell_angle_beta 42.888783
_cell_angle_gamma 117.001439
_cell_volume 552.861217
_symmetry_space_group_name_H-M "P -1"
_symmetry_group_IT_number 2
_symmetry_cell_setting 'triclinic'
loop_
_space_group_symop_operation_xyz
x,y,z
-x,-y,-z
loop_
_atom_site_type_symbol
_atom_site_label
_atom_site_fract_x
_atom_site_fract_y
_atom_site_fract_z
Si Si1 0.131800 0.619682 0.003309
Si Si2 0.500686 0.184807 0.240377
Si Si3 0.140170 0.230125 0.132951
Si Si4 0.679746 0.275598 0.823175
Si Si5 0.299031 0.583329 0.397142
Si Si6 0.018869 0.883078 0.367759
O O1 0.311856 0.646656 0.850650
O O2 0.081858 0.400675 0.110287
O O3 0.000000 0.500000 0.000000
O O4 0.155899 0.949320 0.046373
O O5 0.411164 0.402965 0.314080
O O6 0.476692 0.996838 0.135359
O O7 0.404927 0.931498 0.362863
O O8 0.309101 0.472615 0.082808
O O9 0.023467 0.096428 0.296223
O O10 0.749265 0.439562 0.686491
O O11 0.810977 0.154430 0.756688
O O12 0.137698 0.424202 0.559266
O O13 0.000000 0.000000 0.500000
#
# Coordination Sequence:
#
# PCOD9001324 Si02
#       6
#     2   2   2   2   2   2
#     4  12  28  49  66  83 124 180 233 271 298 359
#     4  10  22  40  62  94 126 172 208 261 321 376
#     4  12  25  40  69  99 123 171 214 264 319 383
#     4  10  21  36  59 106 131 163 195 249 330 397
#     4  10  21  34  64  98 135 166 187 247 326 403
#     4  12  19  38  64 104 142 162 192 247 339 409
#
# _framework density 21.705266999999999
#
# number of rings (size 3 to 8) (size 9 to 14) (size 15 to 20)
#    1.000    0.000    5.000    2.000    2.333    1.333 
#    0.000    0.000    0.000    6.000    0.000    0.000 
#    0.000    0.000    0.000    0.000    0.000    0.000 
#
# Total GULP energy -66989.242391 kJ/mol
# GULP energy per Si atom -5582.436866 kJ/mol
# Density = 2.165586 g / cm^3
# Si number density = 21.705267 Si / 1000 Ang^3
#
#
#
# Elastic Constant Matrix: (Units=GPa)
#
#
# Indices 1 2 3 4 5 6 
#
# 1 126.3780 36.8457 39.4632 -30.4295 -12.6629 -6.8268
# 2 36.8457 92.8117 30.8163 -28.6184 -4.3753 -29.7228
# 3 39.4632 30.8163 65.2479 -36.9463 1.0143 -0.0122
# 4 -30.4295 -28.6184 -36.9463 42.2115 -15.5565 -2.2256
# 5 -12.6629 -4.3753 1.0143 -15.5565 17.1283 -12.8635
# 6 -6.8268 -29.7228 -0.0122 -2.2256 -12.8635 32.0198
#
#
#
# Elastic Compliance Matrix: (Units=1/GPa)
#
#
# Indices 1 2 3 4 5 6 
#
# 1 0.008581 -0.007209 -0.006202 -0.008054 -0.009334 -0.009174
# 2 -0.007209 0.006034 -0.010132 -0.021369 -0.029589 -0.009311
# 3 -0.006202 -0.010132 0.028612 0.008030 -0.013181 -0.015454
# 4 -0.008054 -0.021369 0.008030 -0.013857 -0.059260 -0.046320
# 5 -0.009334 -0.029589 -0.013181 -0.059260 -0.049172 -0.053334
# 6 -0.009174 -0.009311 -0.015454 -0.046320 -0.053334 -0.004020
#
#
# Mechanical properties :
#
#
# Convention : Reuss Voigt Hill
#
# Bulk Modulus (GPa) = -259.15209 55.40977 -101.87116
# Shear Modulus (GPa) = 227.49219 30.09275 128.79247
#
# Velocity S-wave (km/s) = 10.24877 3.72751 7.71141
# Velocity P-wave (km/s) = 4.51602 6.64150 5.67908
#
# Compressibility (1/GPa) = -0.00385874
#
# Stress axis : x y z
#
# Youngs Moduli (GPa) = 116.53299 165.71487 34.95071
#
# Poissons Ratio (x) = 1.19456 0.21678
# Poissons Ratio (y) = 0.84003 0.35412
# Poissons Ratio (z) = 0.72279 1.67904
#
# Static dielectric constant tensor:
#      x y z
#    x 1.748750 0.002920 0.007940 
#    y 0.002920 1.873960 -0.019760 
#    z 0.007940 -0.019760 1.856100 
# 
# From -- ./inp_files/286915.got.cif
#   From: 2010.05.17/outbox.cif.g08.bks.cpg/sg2_144_cif.got.tgz:286915.got - 2010.06.03 11:33:40.
