data_PCOD9001413
_publ_section_title
;
Structure prediction by ZEFSAII (Michael W. Deem and Ramdas Pophale) SiO2 
 PCOD9001413
Probable space group: P -1
;
_chemical_formula_sum "Si O2"
_cell_formula_units_Z 14
_cell_length_a 20.913099
_cell_length_b 15.192318
_cell_length_c 5.123410
_cell_angle_alpha 105.448997
_cell_angle_beta 106.931454
_cell_angle_gamma 26.068103
_cell_volume 684.269318
_symmetry_space_group_name_H-M "P -1"
_symmetry_group_IT_number 2
_symmetry_cell_setting 'triclinic'
loop_
_space_group_symop_operation_xyz
x,y,z
-x,-y,-z
loop_
_atom_site_type_symbol
_atom_site_label
_atom_site_fract_x
_atom_site_fract_y
_atom_site_fract_z
Si Si1 0.473839 0.637761 0.034034
Si Si2 0.979089 0.855317 0.915456
Si Si3 0.418014 0.809840 0.609002
Si Si4 0.874289 0.075389 0.449941
Si Si5 0.000960 0.382916 0.214864
Si Si6 0.284705 0.583903 0.171054
Si Si7 0.165673 0.248593 0.804163
O O1 0.395773 0.787134 0.290814
O O2 0.500000 0.500000 0.000000
O O3 0.395689 0.759705 0.765959
O O4 0.635557 0.484351 0.055035
O O5 0.928285 0.939714 0.629467
O O6 0.003923 0.719272 0.890687
O O7 0.132882 0.719811 0.042147
O O8 0.864750 0.036999 0.131206
O O9 0.589744 0.626300 0.699530
O O10 0.316018 0.018890 0.716061
O O11 0.741584 0.293146 0.591017
O O12 0.000000 0.000000 0.500000
O O13 0.048363 0.349388 0.539097
O O14 0.855441 0.617341 0.153730
O O15 0.120204 0.275540 0.063208
#
# Coordination Sequence:
#
# PCOD9001413 Si02
#       7
#     2   2   2   2   2   2   2
#     4  10  22  36  53  80 115 153 186 222 274 336
#     4  11  22  37  58  87 110 153 193 234 285 332
#     4  10  22  37  58  81 114 151 182 236 283 335
#     4  10  21  35  55  81 119 153 187 223 280 338
#     4  10  22  39  64  84 113 144 193 245 283 343
#     4   9  23  35  57  79 122 145 187 229 279 334
#     4  10  21  42  60  86 112 148 188 241 296 330
#
# _framework density 20.459778
#
# number of rings (size 3 to 8) (size 9 to 14) (size 15 to 20)
#    0.857    1.143    0.000    3.857    6.000    3.429 
#    0.000    0.714    0.000    0.857    0.000    0.000 
#    0.000    0.000    0.000    0.000    0.000    0.000 
#
# Total GULP energy -78158.040662 kJ/mol
# GULP energy per Si atom -5582.717190 kJ/mol
# Density = 2.041321 g / cm^3
# Si number density = 20.459778 Si / 1000 Ang^3
#
#
#
# Elastic Constant Matrix: (Units=GPa)
#
#
# Indices 1 2 3 4 5 6 
#
# 1 54.8141 23.5901 14.8872 3.8953 -5.0604 21.7258
# 2 23.5901 120.5759 17.1316 29.1939 -1.8412 21.5360
# 3 14.8872 17.1316 114.8406 9.5633 -17.5634 12.2357
# 4 3.8953 29.1939 9.5633 39.0225 5.0280 6.0385
# 5 -5.0604 -1.8412 -17.5634 5.0280 24.1361 0.9033
# 6 21.7258 21.5360 12.2357 6.0385 0.9033 33.4473
#
#
#
# Elastic Compliance Matrix: (Units=1/GPa)
#
#
# Indices 1 2 3 4 5 6 
#
# 1 0.025966 -0.002425 -0.000674 0.001112 0.005113 -0.015397
# 2 -0.002425 0.011531 0.000087 -0.008003 0.002270 -0.004498
# 3 -0.000674 0.000087 0.010675 -0.003208 0.008420 -0.003171
# 4 0.001112 -0.008003 -0.003208 0.033568 -0.009698 -0.000194
# 5 0.005113 0.002270 0.008420 -0.009698 0.051105 -0.007492
# 6 -0.015397 -0.004498 -0.003171 -0.000194 -0.007492 0.044192
#
#
# Mechanical properties :
#
#
# Convention : Reuss Voigt Hill
#
# Bulk Modulus (GPa) = 23.72667 44.60538 34.16602
# Shear Modulus (GPa) = 25.36632 34.96263 30.16447
#
# Velocity S-wave (km/s) = 3.52492 4.13830 3.84387
# Velocity P-wave (km/s) = 5.30930 6.68453 6.03621
#
# Compressibility (1/GPa) = 0.04214667
#
# Stress axis : x y z
#
# Youngs Moduli (GPa) = 38.51176 86.72074 93.67715
#
# Poissons Ratio (x) = 0.21033 0.06318
# Poissons Ratio (y) = 0.09341 -0.00815
# Poissons Ratio (z) = 0.02597 -0.00754
#
# Static dielectric constant tensor:
#      x y z
#    x 1.726200 -0.030970 -0.009390 
#    y -0.030970 1.785170 -0.011650 
#    z -0.009390 -0.011650 1.746420 
# 
# From -- ./inp_files/119342.got.cif
#   From: 2010.05.17/outbox.cif.g08.bks.cpg/sg2_60_cif.got.tgz:119342.got - 2010.06.03 11:33:40.
