data_PCOD9001184
_publ_section_title
;
Structure prediction by ZEFSAII (Michael W. Deem and Ramdas Pophale) SiO2 
 PCOD9001184
Probable space group: P -1
;
_chemical_formula_sum "Si O2"
_cell_formula_units_Z 16
_cell_length_a 17.725892
_cell_length_b 5.487788
_cell_length_c 12.967150
_cell_angle_alpha 84.986091
_cell_angle_beta 139.928438
_cell_angle_gamma 112.997587
_cell_volume 698.207938
_symmetry_space_group_name_H-M "P -1"
_symmetry_group_IT_number 2
_symmetry_cell_setting 'triclinic'
loop_
_space_group_symop_operation_xyz
x,y,z
-x,-y,-z
loop_
_atom_site_type_symbol
_atom_site_label
_atom_site_fract_x
_atom_site_fract_y
_atom_site_fract_z
Si Si1 0.186866 0.112715 0.349635
Si Si2 0.675281 0.175305 0.243166
Si Si3 0.713513 0.276126 0.643343
Si Si4 0.165053 0.272278 0.691028
Si Si5 0.586734 0.122348 0.737912
Si Si6 0.661270 0.905934 0.020649
Si Si7 0.056040 0.820464 0.416394
Si Si8 0.459883 0.322752 0.738370
O O1 0.194550 0.385585 0.293257
O O2 0.061417 0.915072 0.300862
O O3 0.313714 0.265945 0.555940
O O4 0.221309 0.908460 0.324542
O O5 0.697150 0.474882 0.222382
O O6 0.824897 0.251110 0.439229
O O7 0.572612 0.969118 0.228455
O O8 0.642529 0.007486 0.108521
O O9 0.677118 0.214475 0.727584
O O10 0.563221 0.145700 0.437182
O O11 0.093421 0.083405 0.522952
O O12 0.201816 0.104353 0.818211
O O13 0.087200 0.396305 0.672683
O O14 0.547725 0.352901 0.728045
O O15 0.661502 0.074402 0.913744
O O16 0.542189 0.589365 0.884829
#
# Coordination Sequence:
#
# PCOD9001184 Si02
#       8
#     2   2   2   2   2   2   2   2
#     4  10  21  38  62  90 115 152 193 253 289 348
#     4  10  21  35  55  84 114 153 193 236 286 354
#     4  10  22  38  60  88 117 151 202 239 301 337
#     4  10  21  37  57  82 117 151 196 234 291 349
#     4  10  22  34  56  82 118 155 188 242 285 357
#     4  11  21  35  51  84 117 159 186 235 289 354
#     4   9  21  37  59  84 111 151 194 246 288 343
#     4  10  21  34  56  83 121 154 189 232 291 351
#
# _framework density 22.915808999999999
#
# number of rings (size 3 to 8) (size 9 to 14) (size 15 to 20)
#    0.000    2.000    1.250    1.500    7.000    4.500 
#    0.000    0.000    0.000    1.500    0.000    0.000 
#    0.000    0.000    0.000    0.000    0.000    0.000 
#
# Total GULP energy -89291.991179 kJ/mol
# GULP energy per Si atom -5580.749449 kJ/mol
# Density = 2.286365 g / cm^3
# Si number density = 22.915809 Si / 1000 Ang^3
#
#
#
# Elastic Constant Matrix: (Units=GPa)
#
#
# Indices 1 2 3 4 5 6 
#
# 1 110.9930 25.0403 14.1393 -6.8743 -21.7304 14.4288
# 2 25.0403 86.4214 -4.7272 -6.3712 -16.7667 7.6400
# 3 14.1393 -4.7272 38.7315 -14.0608 -14.7767 1.3547
# 4 -6.8743 -6.3712 -14.0608 24.6856 1.2295 -3.5842
# 5 -21.7304 -16.7667 -14.7767 1.2295 30.1762 -9.6249
# 6 14.4288 7.6400 1.3547 -3.5842 -9.6249 24.8324
#
#
#
# Elastic Compliance Matrix: (Units=1/GPa)
#
#
# Indices 1 2 3 4 5 6 
#
# 1 0.011201 -0.002129 -0.002351 0.000437 0.004459 -0.003933
# 2 -0.002129 0.015798 0.010972 0.009402 0.012918 0.002142
# 3 -0.002351 0.010972 0.051313 0.031576 0.032136 0.012205
# 4 0.000437 0.009402 0.031576 0.061777 0.022565 0.012793
# 5 0.004459 0.012918 0.032136 0.022565 0.064733 0.020028
# 6 -0.003933 0.002142 0.012205 0.012793 0.020028 0.050840
#
#
# Mechanical properties :
#
#
# Convention : Reuss Voigt Hill
#
# Bulk Modulus (GPa) = 10.95344 33.89454 22.42399
# Shear Modulus (GPa) = 18.30760 29.38505 23.84633
#
# Velocity S-wave (km/s) = 2.82956 3.58481 3.22934
# Velocity P-wave (km/s) = 3.93261 5.65310 4.86944
#
# Compressibility (1/GPa) = 0.09129553
#
# Stress axis : x y z
#
# Youngs Moduli (GPa) = 89.27894 63.29857 19.48819
#
# Poissons Ratio (x) = 0.13476 0.04582
# Poissons Ratio (y) = 0.19007 -0.21382
# Poissons Ratio (z) = 0.20991 -0.69450
#
# Static dielectric constant tensor:
#      x y z
#    x 1.897770 0.003030 0.089830 
#    y 0.003030 1.932420 0.008020 
#    z 0.089830 0.008020 1.896460 
# 
# From -- ./inp_files/66251.got.cif
#   From: 2010.05.17/outbox.cif.g08.bks.cpg/sg2_34_cif.got.tgz:66251.got - 2010.06.03 11:33:40.
