data_PCOD9001552
_publ_section_title
;
Structure prediction by ZEFSAII (Michael W. Deem and Ramdas Pophale) SiO2 
 PCOD9001552
Probable space group: P -1
;
_chemical_formula_sum "Si O2"
_cell_formula_units_Z 16
_cell_length_a 15.915226
_cell_length_b 14.547456
_cell_length_c 5.405208
_cell_angle_alpha 55.842717
_cell_angle_beta 110.283645
_cell_angle_gamma 139.745228
_cell_volume 661.290760
_symmetry_space_group_name_H-M "P -1"
_symmetry_group_IT_number 2
_symmetry_cell_setting 'triclinic'
loop_
_space_group_symop_operation_xyz
x,y,z
-x,-y,-z
loop_
_atom_site_type_symbol
_atom_site_label
_atom_site_fract_x
_atom_site_fract_y
_atom_site_fract_z
Si Si1 0.629511 0.563140 0.144492
Si Si2 0.842498 0.380097 0.995837
Si Si3 0.532633 0.898596 0.730683
Si Si4 0.900227 0.511277 0.360606
Si Si5 0.043206 0.222481 0.246397
Si Si6 0.673322 0.474100 0.814060
Si Si7 0.619172 0.017721 0.138420
Si Si8 0.886638 0.920289 0.805936
O O1 0.612820 0.492519 0.502370
O O2 0.500000 0.500000 0.000000
O O3 0.667674 0.512649 0.036204
O O4 0.742067 0.759786 0.993376
O O5 0.825662 0.444310 0.644041
O O6 0.810324 0.395330 0.212691
O O7 0.750687 0.194680 0.109075
O O8 0.000000 0.500000 0.000000
O O9 0.500000 0.000000 0.500000
O O10 0.573614 0.897708 0.498430
O O11 0.414237 0.716407 0.987282
O O12 0.638113 0.988014 0.926637
O O13 0.000000 0.500000 0.500000
O O14 0.972677 0.690583 0.091375
O O15 0.169300 0.373256 0.307940
O O16 0.088458 0.151863 0.264337
O O17 0.916312 0.069368 0.502269
O O18 0.500000 0.000000 0.000000
O O19 0.000000 0.000000 0.000000
#
# Coordination Sequence:
#
# PCOD9001552 Si02
#       8
#     2   2   2   2   2   2   2   2
#     4  11  24  45  71  98 135 171 216 284 343 405
#     4  10  22  40  59  83 127 174 218 256 317 389
#     4  10  22  38  58  94 131 164 211 272 308 375
#     4  10  23  40  63  97 132 177 217 267 329 398
#     4  10  23  38  72  99 133 173 229 282 330 403
#     4  11  23  41  69 102 125 181 226 265 342 398
#     4  10  21  35  58  85 117 170 208 264 310 353
#     4  10  21  44  67 103 130 168 229 286 338 386
#
# _framework density 24.195107
#
# number of rings (size 3 to 8) (size 9 to 14) (size 15 to 20)
#    0.000    1.750    1.250    1.875    8.750    0.000 
#    0.000    7.500    0.000    0.000    0.000    0.000 
#    0.000    0.000    0.000    0.000    0.000    0.000 
#
# Total GULP energy -89259.124360 kJ/mol
# GULP energy per Si atom -5578.695272 kJ/mol
# Density = 2.414004 g / cm^3
# Si number density = 24.195107 Si / 1000 Ang^3
#
#
#
# Elastic Constant Matrix: (Units=GPa)
#
#
# Indices 1 2 3 4 5 6 
#
# 1 16.7897 13.3677 10.7927 -3.8548 -2.5806 -1.8700
# 2 13.3677 177.0007 79.0928 -11.2041 -2.7111 5.1150
# 3 10.7927 79.0928 222.2425 -9.3695 -2.8745 -4.2640
# 4 -3.8548 -11.2041 -9.3695 64.1681 -18.9891 -9.5495
# 5 -2.5806 -2.7111 -2.8745 -18.9891 30.0815 9.6410
# 6 -1.8700 5.1150 -4.2640 -9.5495 9.6410 37.3117
#
#
#
# Elastic Compliance Matrix: (Units=1/GPa)
#
#
# Indices 1 2 3 4 5 6 
#
# 1 0.066576 -0.004000 -0.001396 0.005919 0.007931 0.003191
# 2 -0.004000 0.007092 -0.002314 0.000739 0.001026 -0.001513
# 3 -0.001396 -0.002314 0.005433 0.000508 0.000209 0.000944
# 4 0.005919 0.000739 0.000508 0.020220 0.012699 0.002147
# 5 0.007931 0.001026 0.000209 0.012699 0.044615 -0.007997
# 6 0.003191 -0.001513 0.000944 0.002147 -0.007997 0.029893
#
#
# Mechanical properties :
#
#
# Convention : Reuss Voigt Hill
#
# Bulk Modulus (GPa) = 15.70352 69.17103 42.43727
# Shear Modulus (GPa) = 23.75550 47.16423 35.45986
#
# Velocity S-wave (km/s) = 3.13682 4.41991 3.83244
# Velocity P-wave (km/s) = 4.42989 7.39584 6.09600
#
# Compressibility (1/GPa) = 0.06368000
#
# Stress axis : x y z
#
# Youngs Moduli (GPa) = 15.02041 141.00032 184.05168
#
# Poissons Ratio (x) = 0.56404 0.25696
# Poissons Ratio (y) = 0.06009 0.42596
# Poissons Ratio (z) = 0.02097 0.32633
#
# Static dielectric constant tensor:
#      x y z
#    x 1.933190 0.040710 0.040730 
#    y 0.040710 2.059340 0.029530 
#    z 0.040730 0.029530 2.021870 
# 
# From -- ./inp_files/119989.got.cif
#   From: 2010.05.17/outbox.cif.g08.bks.cpg/sg2_60_cif.got.tgz:119989.got - 2010.06.03 11:33:40.
