data_PCOD9001016
_publ_section_title
;
Structure prediction by ZEFSAII (Michael W. Deem and Ramdas Pophale) SiO2 
 PCOD9001016
Probable space group: P -1
;
_chemical_formula_sum "Si O2"
_cell_formula_units_Z 16
_cell_length_a 8.537734
_cell_length_b 12.728359
_cell_length_c 12.700229
_cell_angle_alpha 62.365358
_cell_angle_beta 38.466451
_cell_angle_gamma 49.242747
_cell_volume 647.032607
_symmetry_space_group_name_H-M "P -1"
_symmetry_group_IT_number 2
_symmetry_cell_setting 'triclinic'
loop_
_space_group_symop_operation_xyz
x,y,z
-x,-y,-z
loop_
_atom_site_type_symbol
_atom_site_label
_atom_site_fract_x
_atom_site_fract_y
_atom_site_fract_z
Si Si1 0.586290 0.598901 0.972807
Si Si2 0.621792 0.755430 0.541408
Si Si3 0.246735 0.850368 0.892400
Si Si4 0.259866 0.615481 0.715880
Si Si5 0.543640 0.109712 0.643485
Si Si6 0.768640 0.334132 0.656914
Si Si7 0.937826 0.677481 0.067543
Si Si8 0.023474 0.165772 0.406106
O O1 0.390857 0.658292 0.153598
O O2 0.500000 0.500000 0.000000
O O3 0.508350 0.733224 0.883592
O O4 0.914618 0.477145 0.890000
O O5 0.404934 0.855849 0.700257
O O6 0.468478 0.673314 0.619025
O O7 0.637644 0.837702 0.393435
O O8 0.949803 0.655121 0.461666
O O9 0.084463 0.765338 0.988846
O O10 0.000000 0.000000 0.000000
O O11 0.502905 0.453003 0.671352
O O12 0.093969 0.691677 0.661390
O O13 0.007855 0.657964 0.916870
O O14 0.384648 0.225463 0.762701
O O15 0.848615 0.104756 0.464968
O O16 0.636547 0.959912 0.709870
O O17 0.929538 0.199079 0.561634
#
# Coordination Sequence:
#
# PCOD9001016 Si02
#       8
#     2   2   2   2   2   2   2   2
#     4   9  19  37  56  84 119 157 188 234 299 351
#     4  10  21  35  59  88 116 152 192 238 297 350
#     4  10  21  33  53  89 125 144 186 250 295 342
#     4   9  20  40  58  86 119 155 191 239 297 351
#     4  10  22  41  60  81 118 162 198 232 298 353
#     4  11  21  36  64  89 116 150 200 246 287 346
#     4   9  19  38  62  77 112 163 198 228 291 361
#     4  10  23  38  57  86 118 154 199 245 286 346
#
# _framework density 24.728273999999999
#
# number of rings (size 3 to 8) (size 9 to 14) (size 15 to 20)
#    0.000    2.250    0.000    3.000    3.500    3.000 
#    0.000    3.750    0.000    0.000    0.000    0.000 
#    0.000    0.000    0.000    0.000    0.000    0.000 
#
# Total GULP energy -89340.607677 kJ/mol
# GULP energy per Si atom -5583.787980 kJ/mol
# Density = 2.467199 g / cm^3
# Si number density = 24.728274 Si / 1000 Ang^3
#
#
#
# Elastic Constant Matrix: (Units=GPa)
#
#
# Indices 1 2 3 4 5 6 
#
# 1 89.6223 40.0347 25.9762 6.6036 -2.0978 -5.6983
# 2 40.0347 132.5135 64.6773 14.0794 22.7147 -4.7164
# 3 25.9762 64.6773 100.0914 27.4209 17.6366 -16.1809
# 4 6.6036 14.0794 27.4209 37.9947 4.5756 -3.0870
# 5 -2.0978 22.7147 17.6366 4.5756 35.7853 4.3288
# 6 -5.6983 -4.7164 -16.1809 -3.0870 4.3288 37.6888
#
#
#
# Elastic Compliance Matrix: (Units=1/GPa)
#
#
# Indices 1 2 3 4 5 6 
#
# 1 0.013522 -0.004007 -0.001504 -0.000235 0.004058 0.000412
# 2 -0.004007 0.012810 -0.006981 0.001478 -0.004956 -0.001310
# 3 -0.001504 -0.006981 0.019699 -0.010200 -0.004918 0.007086
# 4 -0.000235 0.001478 -0.010200 0.033046 0.000034 -0.001527
# 5 0.004058 -0.004956 -0.004918 0.000034 0.034483 -0.006076
# 6 0.000412 -0.001310 0.007086 -0.001527 -0.006076 0.030046
#
#
# Mechanical properties :
#
#
# Convention : Reuss Voigt Hill
#
# Bulk Modulus (GPa) = 47.51330 64.84485 56.17908
# Shear Modulus (GPa) = 28.47264 35.06302 31.76783
#
# Velocity S-wave (km/s) = 3.39694 3.76963 3.58813
# Velocity P-wave (km/s) = 5.88570 6.72508 6.31934
#
# Compressibility (1/GPa) = 0.02104674
#
# Stress axis : x y z
#
# Youngs Moduli (GPa) = 73.95141 78.06179 50.76420
#
# Poissons Ratio (x) = 0.31281 0.07635
# Poissons Ratio (y) = 0.29634 0.35440
# Poissons Ratio (z) = 0.11122 0.54497
#
# Static dielectric constant tensor:
#      x y z
#    x 2.035130 0.014790 -0.083290 
#    y 0.014790 1.998940 -0.049450 
#    z -0.083290 -0.049450 1.987080 
# 
# From -- ./inp_files/320097.got.cif
#   From: 2010.05.17/outbox.cif.g08.bks.cpg/sg2_161_cif.got.tgz:320097.got - 2010.06.03 11:33:40.
