data_PCOD9001397
_publ_section_title
;
Structure prediction by ZEFSAII (Michael W. Deem and Ramdas Pophale) SiO2 
 PCOD9001397
Probable space group: P -1
;
_chemical_formula_sum "Si O2"
_cell_formula_units_Z 16
_cell_length_a 8.513160
_cell_length_b 19.179937
_cell_length_c 8.932118
_cell_angle_alpha 128.915078
_cell_angle_beta 68.245766
_cell_angle_gamma 133.499343
_cell_volume 818.211733
_symmetry_space_group_name_H-M "P -1"
_symmetry_group_IT_number 2
_symmetry_cell_setting 'triclinic'
loop_
_space_group_symop_operation_xyz
x,y,z
-x,-y,-z
loop_
_atom_site_type_symbol
_atom_site_label
_atom_site_fract_x
_atom_site_fract_y
_atom_site_fract_z
Si Si1 0.510971 0.903591 0.926251
Si Si2 0.637757 0.100029 0.710110
Si Si3 0.780777 0.755359 0.465466
Si Si4 0.674470 0.342101 0.382282
Si Si5 0.022444 0.501770 0.240854
Si Si6 0.953443 0.884175 0.301033
Si Si7 0.025351 0.010003 0.180021
Si Si8 0.986919 0.348093 0.800420
O O1 0.329930 0.768318 0.769279
O O2 0.724450 0.936079 0.815203
O O3 0.511639 0.913021 0.119174
O O4 0.500000 0.000000 0.000000
O O5 0.832155 0.105773 0.729263
O O6 0.761541 0.222970 0.751573
O O7 0.500000 0.000000 0.500000
O O8 0.570193 0.704742 0.570006
O O9 0.976767 0.887418 0.627957
O O10 0.763965 0.778440 0.327302
O O11 0.851787 0.677094 0.338414
O O12 0.789952 0.413683 0.286969
O O13 0.808778 0.423853 0.585699
O O14 0.032052 0.586712 0.236627
O O15 0.062857 0.426071 0.027380
O O16 0.898372 0.891679 0.159193
O O17 0.000000 0.000000 0.500000
O O18 0.000000 0.000000 0.000000
#
# Coordination Sequence:
#
# PCOD9001397 Si02
#       8
#     2   2   2   2   2   2   2   2
#     4  11  22  37  59  88 124 151 196 243 289 359
#     4  11  23  36  60  89 120 156 196 239 296 354
#     4   9  21  38  58  81 119 149 198 243 286 352
#     4  10  22  42  60  87 114 158 193 246 298 342
#     4  10  22  41  65  80 116 153 201 247 293 341
#     4   9  19  37  52  79 121 157 189 236 285 354
#     4  10  21  35  54  84 123 161 190 231 295 353
#     4  10  22  41  59  89 114 153 200 247 286 352
#
# _framework density 19.554841
#
# number of rings (size 3 to 8) (size 9 to 14) (size 15 to 20)
#    0.000    2.000    2.500    0.000    7.000    1.000 
#    0.000    0.000    0.000    0.000    0.000    0.000 
#    0.000    0.000    0.000    0.000    0.000    0.000 
#
# Total GULP energy -89127.265901 kJ/mol
# GULP energy per Si atom -5570.454119 kJ/mol
# Density = 1.951033 g / cm^3
# Si number density = 19.554841 Si / 1000 Ang^3
#
#
#
# Elastic Constant Matrix: (Units=GPa)
#
#
# Indices 1 2 3 4 5 6 
#
# 1 22.8407 13.5404 17.6382 6.7548 -14.6396 -11.6387
# 2 13.5404 103.6722 27.7940 5.0157 -3.4095 -17.2688
# 3 17.6382 27.7940 114.1401 8.5442 -7.5166 -12.7743
# 4 6.7548 5.0157 8.5442 35.4552 -3.7120 -3.4595
# 5 -14.6396 -3.4095 -7.5166 -3.7120 33.2224 -3.3347
# 6 -11.6387 -17.2688 -12.7743 -3.4595 -3.3347 25.5440
#
#
#
# Elastic Compliance Matrix: (Units=1/GPa)
#
#
# Indices 1 2 3 4 5 6 
#
# 1 0.113367 -0.002036 -0.007035 -0.009018 0.052405 0.052380
# 2 -0.002036 0.011393 -0.001753 -0.000175 0.000452 0.005933
# 3 -0.007035 -0.001753 0.010339 -0.000957 -0.000995 0.000521
# 4 -0.009018 -0.000175 -0.000957 0.030006 -0.000932 -0.000764
# 5 0.052405 0.000452 -0.000995 -0.000932 0.056009 0.030871
# 6 0.052380 0.005933 0.000521 -0.000764 0.030871 0.071213
#
#
# Mechanical properties :
#
#
# Convention : Reuss Voigt Hill
#
# Bulk Modulus (GPa) = 8.81422 39.84425 24.32924
# Shear Modulus (GPa) = 14.21296 30.95634 22.58465
#
# Velocity S-wave (km/s) = 2.69890 3.98308 3.40213
# Velocity P-wave (km/s) = 3.77217 6.44772 5.28216
#
# Compressibility (1/GPa) = 0.11345298
#
# Stress axis : x y z
#
# Youngs Moduli (GPa) = 8.82090 87.77115 96.71670
#
# Poissons Ratio (x) = 0.17870 0.68037
# Poissons Ratio (y) = 0.01796 0.16953
# Poissons Ratio (z) = 0.06205 0.15385
#
# Static dielectric constant tensor:
#      x y z
#    x 1.712840 0.008510 0.006140 
#    y 0.008510 1.735180 -0.036990 
#    z 0.006140 -0.036990 1.735000 
# 
# From -- ./inp_files/205494.got.cif
#   From: 2010.05.17/outbox.cif.g08.bks.cpg/sg2_103_cif.got.tgz:205494.got - 2010.06.03 11:33:40.
