data_PCOD9001162
_publ_section_title
;
Structure prediction by ZEFSAII (Michael W. Deem and Ramdas Pophale) SiO2 
 PCOD9001162
Probable space group: P -1
;
_chemical_formula_sum "Si O2"
_cell_formula_units_Z 14
_cell_length_a 9.143134
_cell_length_b 20.038150
_cell_length_c 12.675059
_cell_angle_alpha 37.001089
_cell_angle_beta 130.813888
_cell_angle_gamma 101.795902
_cell_volume 758.286432
_symmetry_space_group_name_H-M "P -1"
_symmetry_group_IT_number 2
_symmetry_cell_setting 'triclinic'
loop_
_space_group_symop_operation_xyz
x,y,z
-x,-y,-z
loop_
_atom_site_type_symbol
_atom_site_label
_atom_site_fract_x
_atom_site_fract_y
_atom_site_fract_z
Si Si1 0.360023 0.756572 0.267708
Si Si2 0.741087 0.458050 0.483049
Si Si3 0.249868 0.818178 0.365195
Si Si4 0.356376 0.157854 0.098440
Si Si5 0.728664 0.054781 0.594155
Si Si6 0.726642 0.440137 0.266970
Si Si7 0.286248 0.320227 0.661653
O O1 0.354503 0.625011 0.419699
O O2 0.431188 0.753478 0.427641
O O3 0.553565 0.733231 0.303440
O O4 0.051490 0.921628 0.899406
O O5 0.625859 0.524353 0.226867
O O6 0.684161 0.577916 0.386595
O O7 0.064218 0.321446 0.789771
O O8 0.153209 0.730240 0.433895
O O9 0.362281 0.810771 0.540217
O O10 0.000000 0.000000 0.000000
O O11 0.348701 0.029292 0.277270
O O12 0.579668 0.115864 0.335733
O O13 0.396234 0.181466 0.968037
O O14 0.971147 0.418295 0.371067
O O15 0.500000 0.500000 0.000000
#
# Coordination Sequence:
#
# PCOD9001162 Si02
#       7
#     2   2   2   2   2   2   2
#     4   9  19  35  52  80 108 141 172 219 272 317
#     4   9  19  35  54  77 106 144 176 212 269 319
#     4   9  18  35  55  72 105 148 177 212 270 317
#     4   9  18  32  55  81  99 135 189 215 255 315
#     4   9  18  34  56  75 104 141 182 219 253 322
#     4  10  21  34  55  82 106 139 190 222 254 323
#     4  11  20  33  56  78 113 137 173 223 273 308
#
# _framework density 18.462681
#
# number of rings (size 3 to 8) (size 9 to 14) (size 15 to 20)
#    0.000    2.571    0.000    4.714    4.000    0.571 
#    0.000    9.286    9.429    0.000    0.000    0.000 
#    0.000    0.000    0.000    0.000    0.000    0.000 
#
# Total GULP energy -78040.898285 kJ/mol
# GULP energy per Si atom -5574.349878 kJ/mol
# Density = 1.842066 g / cm^3
# Si number density = 18.462681 Si / 1000 Ang^3
#
#
#
# Elastic Constant Matrix: (Units=GPa)
#
#
# Indices 1 2 3 4 5 6 
#
# 1 131.4338 39.3682 18.0719 6.3511 1.6077 -20.9657
# 2 39.3682 107.8814 18.2210 8.8955 10.5431 -10.6100
# 3 18.0719 18.2210 39.5439 17.2856 -3.4267 -1.8695
# 4 6.3511 8.8955 17.2856 37.0223 5.1287 -3.4593
# 5 1.6077 10.5431 -3.4267 5.1287 12.2237 -1.8901
# 6 -20.9657 -10.6100 -1.8695 -3.4593 -1.8901 15.9616
#
#
#
# Elastic Compliance Matrix: (Units=1/GPa)
#
#
# Indices 1 2 3 4 5 6 
#
# 1 0.010736 -0.002211 -0.003941 0.001615 0.000660 0.012599
# 2 -0.002211 0.012694 -0.007027 0.002792 -0.013219 0.003750
# 3 -0.003941 -0.007027 0.041593 -0.021286 0.026167 -0.006491
# 4 0.001615 0.002792 -0.021286 0.040043 -0.024262 0.007290
# 5 0.000660 -0.013219 0.026167 -0.024262 0.111108 0.003044
# 6 0.012599 0.003750 -0.006491 0.007290 0.003044 0.082873
#
#
# Mechanical properties :
#
#
# Convention : Reuss Voigt Hill
#
# Bulk Modulus (GPa) = 25.86351 47.79795 36.83073
# Shear Modulus (GPa) = 14.78009 26.58805 20.68407
#
# Velocity S-wave (km/s) = 2.83245 3.79898 3.35075
# Velocity P-wave (km/s) = 4.97353 6.72221 5.91287
#
# Compressibility (1/GPa) = 0.03866451
#
# Stress axis : x y z
#
# Youngs Moduli (GPa) = 93.14375 78.77966 24.04261
#
# Poissons Ratio (x) = 0.17417 0.09475
# Poissons Ratio (y) = 0.20593 0.16895
# Poissons Ratio (z) = 0.36707 0.55360
#
# Static dielectric constant tensor:
#      x y z
#    x 1.620460 0.005150 -0.046740 
#    y 0.005150 1.681400 0.025500 
#    z -0.046740 0.025500 1.684270 
# 
# From -- ./inp_files/167918.got.cif
#   From: 2010.05.17/outbox.cif.g08.bks.cpg/sg2_84_cif.got.tgz:167918.got - 2010.06.03 11:33:40.
