data_PCOD9001998
_publ_section_title
;
Structure prediction by ZEFSAII (Michael W. Deem and Ramdas Pophale) SiO2 
 PCOD9001998
Probable space group: P -1
;
_chemical_formula_sum "Si O2"
_cell_formula_units_Z 14
_cell_length_a 6.804631
_cell_length_b 15.200876
_cell_length_c 17.181489
_cell_angle_alpha 155.932282
_cell_angle_beta 56.146536
_cell_angle_gamma 124.877734
_cell_volume 591.325696
_symmetry_space_group_name_H-M "P -1"
_symmetry_group_IT_number 2
_symmetry_cell_setting 'triclinic'
loop_
_space_group_symop_operation_xyz
x,y,z
-x,-y,-z
loop_
_atom_site_type_symbol
_atom_site_label
_atom_site_fract_x
_atom_site_fract_y
_atom_site_fract_z
Si Si1 0.303054 0.042052 0.789364
Si Si2 0.258422 0.919506 0.535247
Si Si3 0.039501 0.787984 0.770581
Si Si4 0.817031 0.567857 0.778620
Si Si5 0.348022 0.682746 0.829937
Si Si6 0.430367 0.178328 0.263003
Si Si7 0.259892 0.210292 0.488406
O O1 0.246849 0.073610 0.737325
O O2 0.079022 0.873977 0.743242
O O3 0.544772 0.938246 0.655861
O O4 0.330883 0.262049 0.012224
O O5 0.265434 0.679126 0.375090
O O6 0.015220 0.894338 0.517622
O O7 0.500000 0.000000 0.500000
O O8 0.303301 0.745112 0.698577
O O9 0.854511 0.598930 0.702215
O O10 0.000000 0.000000 0.000000
O O11 0.083946 0.651221 0.823818
O O12 0.546184 0.721696 0.747833
O O13 0.337829 0.460868 0.702046
O O14 0.389093 0.915184 0.051808
O O15 0.261602 0.239621 0.416942
#
# Coordination Sequence:
#
# PCOD9001998 Si02
#       7
#     2   2   2   2   2   2   2
#     4  10  21  38  61  87 115 148 184 234 290 338
#     4  11  25  42  59  81 112 154 200 239 279 328
#     4   8  16  31  53  85 118 144 177 223 280 348
#     4   9  19  38  59  85 119 149 184 231 284 343
#     4   9  17  30  53  82 116 152 178 222 282 338
#     4   9  16  29  51  79 114 150 184 219 276 344
#     4  10  21  36  56  83 110 142 193 238 276 333
#
# _framework density 23.675616000000002
#
# number of rings (size 3 to 8) (size 9 to 14) (size 15 to 20)
#    0.000    2.571    0.000    1.286    0.000    7.429 
#    0.000    0.714    0.000    0.000    0.000    0.000 
#    0.000    0.000    0.000    0.000    0.000    0.000 
#
# Total GULP energy -78265.163209 kJ/mol
# GULP energy per Si atom -5590.368801 kJ/mol
# Density = 2.362173 g / cm^3
# Si number density = 23.675616 Si / 1000 Ang^3
#
#
#
# Elastic Constant Matrix: (Units=GPa)
#
#
# Indices 1 2 3 4 5 6 
#
# 1 73.6270 21.4749 13.6569 -0.4812 -7.3154 17.6915
# 2 21.4749 121.6908 13.9326 -7.8425 9.1102 29.8713
# 3 13.6569 13.9326 106.0663 0.5183 -2.0319 12.6048
# 4 -0.4812 -7.8425 0.5183 22.0406 -2.0008 0.1544
# 5 -7.3154 9.1102 -2.0319 -2.0008 38.6603 -6.9445
# 6 17.6915 29.8713 12.6048 0.1544 -6.9445 36.0296
#
#
#
# Elastic Compliance Matrix: (Units=1/GPa)
#
#
# Indices 1 2 3 4 5 6 
#
# 1 0.015810 -0.001403 -0.001123 0.000115 0.002231 -0.005778
# 2 -0.001403 0.011420 -0.000287 0.003698 -0.004498 -0.009562
# 3 -0.001123 -0.000287 0.009931 -0.000353 -0.000127 -0.002708
# 4 0.000115 0.003698 -0.000353 0.046811 0.001015 -0.003004
# 5 0.002231 -0.004498 -0.000127 0.001015 0.028874 0.008239
# 6 -0.005778 -0.009562 -0.002708 -0.003004 0.008239 0.041068
#
#
# Mechanical properties :
#
#
# Convention : Reuss Voigt Hill
#
# Bulk Modulus (GPa) = 31.70975 44.39033 38.05004
# Shear Modulus (GPa) = 29.40272 36.16739 32.78506
#
# Velocity S-wave (km/s) = 3.52788 3.91272 3.72527
# Velocity P-wave (km/s) = 5.47879 6.26120 5.88301
#
# Compressibility (1/GPa) = 0.03153604
#
# Stress axis : x y z
#
# Youngs Moduli (GPa) = 63.25041 87.56450 100.69011
#
# Poissons Ratio (x) = 0.12284 0.11304
# Poissons Ratio (y) = 0.08873 0.02894
# Poissons Ratio (z) = 0.07101 0.02517
#
# Static dielectric constant tensor:
#      x y z
#    x 2.042370 -0.004420 0.009090 
#    y -0.004420 1.876490 0.010650 
#    z 0.009090 0.010650 1.923400 
# 
# From -- ./inp_files/398771.got.cif
#   From: 2010.05.17/outbox.cif.g08.bks.cpg/sg2_200_cif.got.tgz:398771.got - 2010.06.03 11:33:40.
