data_PCOD9001711
_publ_section_title
;
Structure prediction by ZEFSAII (Michael W. Deem and Ramdas Pophale) SiO2 
 PCOD9001711
Probable space group: P -1
;
_chemical_formula_sum "Si O2"
_cell_formula_units_Z 14
_cell_length_a 11.008378
_cell_length_b 16.504855
_cell_length_c 14.972976
_cell_angle_alpha 26.215262
_cell_angle_beta 44.364155
_cell_angle_gamma 61.900440
_cell_volume 700.898305
_symmetry_space_group_name_H-M "P -1"
_symmetry_group_IT_number 2
_symmetry_cell_setting 'triclinic'
loop_
_space_group_symop_operation_xyz
x,y,z
-x,-y,-z
loop_
_atom_site_type_symbol
_atom_site_label
_atom_site_fract_x
_atom_site_fract_y
_atom_site_fract_z
Si Si1 0.324317 0.150107 0.733871
Si Si2 0.358015 0.843309 0.148789
Si Si3 0.907280 0.649440 0.659631
Si Si4 0.969478 0.022442 0.389498
Si Si5 0.567052 0.587596 0.277765
Si Si6 0.865585 0.946883 0.256898
Si Si7 0.268038 0.851338 0.729676
O O1 0.493848 0.391593 0.440957
O O2 0.294181 0.122848 0.671213
O O3 0.098200 0.071513 0.971550
O O4 0.373310 0.987223 0.915175
O O5 0.440379 0.697907 0.216720
O O6 0.126939 0.711391 0.441405
O O7 0.500000 0.000000 0.000000
O O8 0.814057 0.729463 0.552706
O O9 0.789141 0.396212 0.999983
O O10 0.936426 0.809283 0.567347
O O11 0.790461 0.063697 0.412165
O O12 0.188147 0.233425 0.031997
O O13 0.000000 0.000000 0.500000
O O14 0.500000 0.500000 0.500000
O O15 0.862442 0.115132 0.159425
O O16 0.500000 0.000000 0.500000
#
# Coordination Sequence:
#
# PCOD9001711 Si02
#       7
#     2   2   2   2   2   2   2
#     4  10  21  35  61  92 126 155 199 261 311 370
#     4  11  19  34  61  94 120 156 200 248 321 373
#     4  10  21  42  64  85 124 161 203 262 309 371
#     4  11  26  42  61  96 131 159 207 262 317 372
#     4  12  21  37  64  93 125 163 203 255 318 370
#     4   9  21  41  58  90 123 158 206 257 310 365
#     4  11  25  43  64  82 117 174 216 247 304 375
#
# _framework density 19.974368999999999
#
# number of rings (size 3 to 8) (size 9 to 14) (size 15 to 20)
#    0.000    1.429    2.857    3.429    0.000    7.429 
#    0.000    4.286    0.000    0.000    0.000    0.000 
#    0.000    0.000    0.000    0.000    0.000    0.000 
#
# Total GULP energy -78190.198838 kJ/mol
# GULP energy per Si atom -5585.014203 kJ/mol
# Density = 1.992891 g / cm^3
# Si number density = 19.974369 Si / 1000 Ang^3
#
#
#
# Elastic Constant Matrix: (Units=GPa)
#
#
# Indices 1 2 3 4 5 6 
#
# 1 164.4795 40.4231 59.0493 -9.0331 4.9053 9.3870
# 2 40.4231 43.8801 30.3722 -18.8663 6.5308 1.1487
# 3 59.0493 30.3722 99.6291 -30.1435 1.7077 -4.6935
# 4 -9.0331 -18.8663 -30.1435 33.5558 4.1699 4.2779
# 5 4.9053 6.5308 1.7077 4.1699 13.8962 0.0504
# 6 9.3870 1.1487 -4.6935 4.2779 0.0504 39.4870
#
#
#
# Elastic Compliance Matrix: (Units=1/GPa)
#
#
# Indices 1 2 3 4 5 6 
#
# 1 0.009878 -0.009042 -0.005566 -0.007645 0.003747 -0.001923
# 2 -0.009042 0.047318 -0.000386 0.027490 -0.027240 -0.002216
# 3 -0.005566 -0.000386 0.018127 0.014895 -0.004558 0.001881
# 4 -0.007645 0.027490 0.014895 0.060823 -0.030289 -0.003763
# 5 0.003747 -0.027240 -0.004558 -0.030289 0.093081 0.002522
# 6 -0.001923 -0.002216 0.001881 -0.003763 0.002522 0.026475
#
#
# Mechanical properties :
#
#
# Convention : Reuss Voigt Hill
#
# Bulk Modulus (GPa) = 22.05794 63.07533 42.56663
# Shear Modulus (GPa) = 16.62222 29.26408 22.94315
#
# Velocity S-wave (km/s) = 2.88788 3.83179 3.39282
# Velocity P-wave (km/s) = 4.71030 7.15706 6.05848
#
# Compressibility (1/GPa) = 0.04533515
#
# Stress axis : x y z
#
# Youngs Moduli (GPa) = 101.23046 21.13371 55.16499
#
# Poissons Ratio (x) = 0.19109 0.30707
# Poissons Ratio (y) = 0.91530 0.02130
# Poissons Ratio (z) = 0.56349 0.00816
#
# Static dielectric constant tensor:
#      x y z
#    x 1.758850 -0.015680 -0.014100 
#    y -0.015680 1.685090 0.023100 
#    z -0.014100 0.023100 1.714780 
# 
# From -- ./inp_files/489819.got.cif
#   From: 2010.05.17/outbox.cif.g08.bks.cpg/sg2_245_cif.got.tgz:489819.got - 2010.06.03 11:33:40.
