data_PCOD9001260
_publ_section_title
;
Structure prediction by ZEFSAII (Michael W. Deem and Ramdas Pophale) SiO2 
 PCOD9001260
Probable space group: P -1
;
_chemical_formula_sum "Si O2"
_cell_formula_units_Z 16
_cell_length_a 12.371887
_cell_length_b 18.912631
_cell_length_c 6.357794
_cell_angle_alpha 85.972130
_cell_angle_beta 90.410923
_cell_angle_gamma 145.115558
_cell_volume 845.382809
_symmetry_space_group_name_H-M "P -1"
_symmetry_group_IT_number 2
_symmetry_cell_setting 'triclinic'
loop_
_space_group_symop_operation_xyz
x,y,z
-x,-y,-z
loop_
_atom_site_type_symbol
_atom_site_label
_atom_site_fract_x
_atom_site_fract_y
_atom_site_fract_z
Si Si1 0.278746 0.435228 0.425391
Si Si2 0.431986 0.887645 0.931179
Si Si3 0.000206 0.152088 0.895684
Si Si4 0.412114 0.305587 0.869909
Si Si5 0.278074 0.980843 0.458904
Si Si6 0.085976 0.769342 0.802747
Si Si7 0.337620 0.103400 0.816750
Si Si8 0.503958 0.445258 0.201780
O O1 0.432453 0.572088 0.299508
O O2 0.341600 0.389761 0.362691
O O3 0.309238 0.454967 0.671790
O O4 0.079311 0.343166 0.333614
O O5 0.208052 0.773981 0.913417
O O6 0.542579 0.935264 0.704350
O O7 0.505851 0.866002 0.090866
O O8 0.500000 0.000000 0.000000
O O9 0.901903 0.113043 0.679131
O O10 0.207888 0.232571 0.857154
O O11 0.994793 0.219533 0.026729
O O12 0.858544 0.021247 0.039832
O O13 0.394927 0.214433 0.834686
O O14 0.467969 0.352404 0.103585
O O15 0.235338 0.895349 0.640458
O O16 0.305796 0.065676 0.581603
O O17 0.500000 0.500000 0.000000
#
# Coordination Sequence:
#
# PCOD9001260 Si02
#       8
#     2   2   2   2   2   2   2   2
#     4  10  22  35  58  90 113 157 196 232 290 345
#     4  11  20  40  60  87 113 148 196 251 293 337
#     4  10  21  35  58  88 120 153 190 238 294 345
#     4  11  22  38  58  82 129 158 189 237 285 352
#     4  10  21  34  59  88 113 148 193 244 301 337
#     4  11  21  35  60  90 116 144 199 243 291 343
#     4  10  23  38  56  88 117 161 196 231 297 346
#     4   9  20  37  56  80 117 152 192 232 280 334
#
# _framework density 18.926337
#
# number of rings (size 3 to 8) (size 9 to 14) (size 15 to 20)
#    0.000    1.750    5.000    0.750    5.250    2.500 
#    0.000    0.625    0.000    1.500    0.000    0.000 
#    0.000    0.000    0.000    0.000    0.000    0.000 
#
# Total GULP energy -89305.789910 kJ/mol
# GULP energy per Si atom -5581.611869 kJ/mol
# Density = 1.888326 g / cm^3
# Si number density = 18.926337 Si / 1000 Ang^3
#
#
#
# Elastic Constant Matrix: (Units=GPa)
#
#
# Indices 1 2 3 4 5 6 
#
# 1 96.6236 49.5194 40.0300 21.7835 10.9688 9.5920
# 2 49.5194 89.1871 42.5466 22.3760 6.2712 3.9035
# 3 40.0300 42.5466 109.3595 31.7519 3.1762 -3.7258
# 4 21.7835 22.3760 31.7519 36.2937 7.0161 6.5916
# 5 10.9688 6.2712 3.1762 7.0161 19.9699 14.7717
# 6 9.5920 3.9035 -3.7258 6.5916 14.7717 28.7725
#
#
#
# Elastic Compliance Matrix: (Units=1/GPa)
#
#
# Indices 1 2 3 4 5 6 
#
# 1 0.016022 -0.006777 -0.002622 -0.001979 -0.003826 -0.002344
# 2 -0.006777 0.017467 -0.003123 -0.004018 -0.000249 0.000534
# 3 -0.002622 -0.003123 0.014464 -0.010087 -0.000629 0.005805
# 4 -0.001979 -0.004018 -0.010087 0.042421 -0.005945 -0.006768
# 5 -0.003826 -0.000249 -0.000629 -0.005945 0.084690 -0.040890
# 6 -0.002344 0.000534 0.005805 -0.006768 -0.040890 0.058759
#
#
# Mechanical properties :
#
#
# Convention : Reuss Voigt Hill
#
# Bulk Modulus (GPa) = 43.65168 62.15132 52.90150
# Shear Modulus (GPa) = 18.76142 27.87884 23.32013
#
# Velocity S-wave (km/s) = 3.15189 3.84216 3.51401
# Velocity P-wave (km/s) = 6.02992 7.25208 6.66906
#
# Compressibility (1/GPa) = 0.02290862
#
# Stress axis : x y z
#
# Youngs Moduli (GPa) = 62.41353 57.25010 69.13797
#
# Poissons Ratio (x) = 0.38798 0.18130
# Poissons Ratio (y) = 0.42297 0.21592
# Poissons Ratio (z) = 0.16367 0.17879
#
# Static dielectric constant tensor:
#      x y z
#    x 1.654290 0.018770 0.005040 
#    y 0.018770 1.682750 0.004820 
#    z 0.005040 0.004820 1.708680 
# 
# From -- ./inp_files/80590.got.cif
#   From: 2010.05.17/outbox.cif.g08.bks.cpg/sg2_41_cif.got.tgz:80590.got - 2010.06.03 11:33:40.
