data_PCOD9001594
_publ_section_title
;
Structure prediction by ZEFSAII (Michael W. Deem and Ramdas Pophale) SiO2 
 PCOD9001594
Probable space group: P -1
;
_chemical_formula_sum "Si O2"
_cell_formula_units_Z 14
_cell_length_a 21.186027
_cell_length_b 7.429693
_cell_length_c 6.736180
_cell_angle_alpha 41.324791
_cell_angle_beta 69.243973
_cell_angle_gamma 69.805487
_cell_volume 649.321450
_symmetry_space_group_name_H-M "P -1"
_symmetry_group_IT_number 2
_symmetry_cell_setting 'triclinic'
loop_
_space_group_symop_operation_xyz
x,y,z
-x,-y,-z
loop_
_atom_site_type_symbol
_atom_site_label
_atom_site_fract_x
_atom_site_fract_y
_atom_site_fract_z
Si Si1 0.653361 0.541960 0.210934
Si Si2 0.019362 0.162315 0.538383
Si Si3 0.509454 0.594256 0.180289
Si Si4 0.239216 0.444728 0.209985
Si Si5 0.084855 0.687259 0.115443
Si Si6 0.428599 0.130537 0.636683
Si Si7 0.315652 0.918688 0.689000
O O1 0.589864 0.614008 0.068336
O O2 0.626478 0.674696 0.333144
O O3 0.667497 0.212508 0.440277
O O4 0.723830 0.628883 0.982615
O O5 0.048887 0.450541 0.240402
O O6 0.955630 0.232416 0.701492
O O7 0.000000 0.000000 0.500000
O O8 0.075158 0.957349 0.766783
O O9 0.500000 0.500000 0.500000
O O10 0.479118 0.336906 0.323312
O O11 0.467130 0.885935 0.931445
O O12 0.162070 0.568500 0.171635
O O13 0.256884 0.172163 0.540808
O O14 0.285044 0.675533 0.040358
O O15 0.384201 0.996904 0.637142
#
# Coordination Sequence:
#
# PCOD9001594 Si02
#       7
#     2   2   2   2   2   2   2
#     4   9  23  37  58  77 116 145 194 238 293 350
#     4  10  21  40  67  96 120 157 200 238 286 347
#     4  10  21  35  59  80 105 147 195 248 299 338
#     4  10  22  41  56  84 122 154 185 234 292 340
#     4  10  21  41  63  90 131 155 193 248 285 344
#     4  11  22  38  57  80 109 148 197 247 294 335
#     4  10  23  38  55  82 116 147 195 237 284 352
#
# _framework density 21.560969
#
# number of rings (size 3 to 8) (size 9 to 14) (size 15 to 20)
#    0.857    1.143    0.000    3.857    6.000    1.143 
#    5.143    0.000    0.000    0.000    0.000    0.000 
#    0.000    0.000    0.000    0.000    0.000    0.000 
#
# Total GULP energy -78084.336054 kJ/mol
# GULP energy per Si atom -5577.452575 kJ/mol
# Density = 2.151190 g / cm^3
# Si number density = 21.560969 Si / 1000 Ang^3
#
#
#
# Elastic Constant Matrix: (Units=GPa)
#
#
# Indices 1 2 3 4 5 6 
#
# 1 66.1581 39.8995 12.7103 -12.9132 9.9256 -11.9830
# 2 39.8995 89.7967 27.7542 -23.7679 4.9529 3.9161
# 3 12.7103 27.7542 105.0538 -31.3227 6.6961 -7.6029
# 4 -12.9132 -23.7679 -31.3227 27.6331 -4.8355 3.6485
# 5 9.9256 4.9529 6.6961 -4.8355 29.4839 -20.4820
# 6 -11.9830 3.9161 -7.6029 3.6485 -20.4820 39.2297
#
#
#
# Elastic Compliance Matrix: (Units=1/GPa)
#
#
# Indices 1 2 3 4 5 6 
#
# 1 0.023042 -0.010373 0.001160 0.002038 -0.000487 0.007855
# 2 -0.010373 0.019599 -0.000862 0.011517 -0.003352 -0.008113
# 3 0.001160 -0.000862 0.014512 0.016071 0.000495 0.002017
# 4 0.002038 0.011517 0.016071 0.066082 0.003287 -0.001842
# 5 -0.000487 -0.003352 0.000495 0.003287 0.055003 0.028693
# 6 0.007855 -0.008113 0.002017 -0.001842 0.028693 0.044243
#
#
# Mechanical properties :
#
#
# Convention : Reuss Voigt Hill
#
# Bulk Modulus (GPa) = 27.02541 46.85961 36.94251
# Shear Modulus (GPa) = 19.61036 31.31232 25.46134
#
# Velocity S-wave (km/s) = 3.01911 3.81500 3.44015
# Velocity P-wave (km/s) = 4.97142 6.41766 5.74027
#
# Compressibility (1/GPa) = 0.03700221
#
# Stress axis : x y z
#
# Youngs Moduli (GPa) = 43.39911 51.02296 68.90632
#
# Poissons Ratio (x) = 0.52926 -0.07992
# Poissons Ratio (y) = 0.45018 0.05942
# Poissons Ratio (z) = -0.05033 0.04400
#
# Static dielectric constant tensor:
#      x y z
#    x 1.771800 0.044360 -0.017230 
#    y 0.044360 1.865760 0.019510 
#    z -0.017230 0.019510 1.836870 
# 
# From -- ./inp_files/351308.got.cif
#   From: 2010.05.17/outbox.cif.g08.bks.cpg/sg2_176_cif.got.tgz:351308.got - 2010.06.03 11:33:40.
