data_PCOD9001383
_publ_section_title
;
Structure prediction by ZEFSAII (Michael W. Deem and Ramdas Pophale) SiO2 
 PCOD9001383
Probable space group: P -1
;
_chemical_formula_sum "Si O2"
_cell_formula_units_Z 16
_cell_length_a 16.567075
_cell_length_b 5.569086
_cell_length_c 28.742659
_cell_angle_alpha 82.201047
_cell_angle_beta 164.153167
_cell_angle_gamma 97.325744
_cell_volume 717.401648
_symmetry_space_group_name_H-M "P -1"
_symmetry_group_IT_number 2
_symmetry_cell_setting 'triclinic'
loop_
_space_group_symop_operation_xyz
x,y,z
-x,-y,-z
loop_
_atom_site_type_symbol
_atom_site_label
_atom_site_fract_x
_atom_site_fract_y
_atom_site_fract_z
Si Si1 0.797864 0.222389 0.922240
Si Si2 0.699380 0.264678 0.472506
Si Si3 0.286757 0.968152 0.693375
Si Si4 0.325564 0.888488 0.239061
Si Si5 0.879726 0.733183 0.723983
Si Si6 0.943996 0.521563 0.860882
Si Si7 0.831140 0.265917 0.649257
Si Si8 0.101754 0.456031 0.611914
O O1 0.683126 0.285475 0.806012
O O2 0.575281 0.019148 0.821910
O O3 0.825898 0.427869 0.971391
O O4 0.125638 0.111351 0.104189
O O5 0.376710 0.362200 0.306916
O O6 0.876466 0.266144 0.618770
O O7 0.844418 0.415963 0.507727
O O8 0.632353 0.994040 0.423124
O O9 0.275633 0.699196 0.714194
O O10 0.000000 0.000000 0.500000
O O11 0.265980 0.196382 0.710203
O O12 0.144938 0.759821 0.183383
O O13 0.030799 0.645223 0.857961
O O14 0.937530 0.516956 0.724691
O O15 0.523509 0.736040 0.536173
O O16 0.952918 0.008260 0.743052
O O17 0.000000 0.500000 0.500000
#
# Coordination Sequence:
#
# PCOD9001383 Si02
#       8
#     2   2   2   2   2   2   2   2
#     4  10  22  37  53  82 115 156 196 232 286 340
#     4  10  22  34  56  88 115 154 190 232 295 338
#     4  10  22  38  57  78 106 152 190 241 274 322
#     4  10  21  35  54  81 120 155 191 231 281 354
#     4   9  19  33  52  82 114 148 187 224 290 337
#     4  10  22  33  58  82 118 157 186 235 281 358
#     4   9  19  32  54  80 117 147 180 237 280 347
#     4  10  22  36  56  81 111 150 189 234 275 330
#
# _framework density 22.302710000000001
#
# number of rings (size 3 to 8) (size 9 to 14) (size 15 to 20)
#    0.000    2.250    0.000    1.875   17.500    0.000 
#    0.000    0.000    0.000    0.000    0.000    5.250 
#    0.000    0.000    0.000    0.000    0.000    0.000 
#
# Total GULP energy -89189.908360 kJ/mol
# GULP energy per Si atom -5574.369272 kJ/mol
# Density = 2.225195 g / cm^3
# Si number density = 22.302710 Si / 1000 Ang^3
#
#
#
# Elastic Constant Matrix: (Units=GPa)
#
#
# Indices 1 2 3 4 5 6 
#
# 1 131.2287 58.7737 32.6450 4.4231 -17.7915 10.0219
# 2 58.7737 162.3671 25.6471 11.5611 -14.1734 1.7070
# 3 32.6450 25.6471 25.5923 10.4444 1.9161 -1.6437
# 4 4.4231 11.5611 10.4444 27.1651 4.8679 5.8035
# 5 -17.7915 -14.1734 1.9161 4.8679 22.7543 3.5750
# 6 10.0219 1.7070 -1.6437 5.8035 3.5750 25.3282
#
#
#
# Elastic Compliance Matrix: (Units=1/GPa)
#
#
# Indices 1 2 3 4 5 6 
#
# 1 0.017435 -0.001273 -0.026014 0.007605 0.015353 -0.012410
# 2 -0.001273 0.008195 -0.006386 -0.001564 0.005111 -0.000826
# 3 -0.026014 -0.006386 0.095034 -0.030157 -0.030280 0.028075
# 4 0.007605 -0.001564 -0.030157 0.051531 -0.000914 -0.016539
# 5 0.015353 0.005111 -0.030280 -0.000914 0.064598 -0.017293
# 6 -0.012410 -0.000826 0.028075 -0.016539 -0.017293 0.052500
#
#
# Mechanical properties :
#
#
# Convention : Reuss Voigt Hill
#
# Bulk Modulus (GPa) = 18.75533 61.47997 40.11765
# Shear Modulus (GPa) = 13.35431 28.52434 20.93933
#
# Velocity S-wave (km/s) = 2.44964 3.58014 3.06742
# Velocity P-wave (km/s) = 4.05323 6.68699 5.52922
#
# Compressibility (1/GPa) = 0.05331819
#
# Stress axis : x y z
#
# Youngs Moduli (GPa) = 57.35731 122.03233 10.52254
#
# Poissons Ratio (x) = 0.15531 0.27373
# Poissons Ratio (y) = 0.07300 0.06720
# Poissons Ratio (z) = 1.49209 0.77929
#
# Static dielectric constant tensor:
#      x y z
#    x 1.888980 -0.043970 0.005860 
#    y -0.043970 1.978470 0.009360 
#    z 0.005860 0.009360 1.832040 
# 
# From -- ./inp_files/84050.got.cif
#   From: 2010.05.17/outbox.cif.g08.bks.cpg/sg2_43_cif.got.tgz:84050.got - 2010.06.03 11:33:40.
