data_PCOD9001056
_publ_section_title
;
Structure prediction by ZEFSAII (Michael W. Deem and Ramdas Pophale) SiO2 
 PCOD9001056
Probable space group: P -1
;
_chemical_formula_sum "Si O2"
_cell_formula_units_Z 14
_cell_length_a 22.822473
_cell_length_b 5.030696
_cell_length_c 8.002582
_cell_angle_alpha 97.374697
_cell_angle_beta 53.530170
_cell_angle_gamma 122.285465
_cell_volume 599.980657
_symmetry_space_group_name_H-M "P -1"
_symmetry_group_IT_number 2
_symmetry_cell_setting 'triclinic'
loop_
_space_group_symop_operation_xyz
x,y,z
-x,-y,-z
loop_
_atom_site_type_symbol
_atom_site_label
_atom_site_fract_x
_atom_site_fract_y
_atom_site_fract_z
Si Si1 0.892143 0.586039 0.233500
Si Si2 0.950653 0.630433 0.498052
Si Si3 0.293151 0.009875 0.424661
Si Si4 0.842883 0.951139 0.151542
Si Si5 0.332662 0.285923 0.000833
Si Si6 0.515912 0.758456 0.854863
Si Si7 0.230005 0.575553 0.057542
O O1 0.948930 0.622249 0.299775
O O2 0.905029 0.907416 0.165468
O O3 0.789417 0.369019 0.456740
O O4 0.887655 0.337384 0.084794
O O5 0.849262 0.441313 0.713930
O O6 0.000000 0.500000 0.500000
O O7 0.000000 0.000000 0.500000
O O8 0.250904 0.166307 0.612331
O O9 0.312446 0.148619 0.214758
O O10 0.381946 0.068508 0.354895
O O11 0.295454 0.958806 0.927619
O O12 0.818410 0.704285 0.023711
O O13 0.283847 0.462773 0.059701
O O14 0.438571 0.557159 0.833486
O O15 0.500000 0.500000 0.000000
O O16 0.500000 0.000000 0.000000
#
# Coordination Sequence:
#
# PCOD9001056 Si02
#       7
#     2   2   2   2   2   2   2
#     4  10  21  41  63  85 120 162 197 237 304 359
#     4  12  25  42  66  94 116 149 200 256 302 358
#     4   9  21  37  64  85 122 157 209 238 294 351
#     4  10  22  38  64  86 120 170 197 231 299 369
#     4  11  21  37  64  89 123 161 203 253 291 345
#     4  10  21  33  57  95 120 154 209 253 286 336
#     4  12  23  42  61  91 123 159 199 246 306 358
#
# _framework density 23.334084000000001
#
# number of rings (size 3 to 8) (size 9 to 14) (size 15 to 20)
#    0.857    0.571    1.429    5.143    4.000    0.000 
#    0.000    5.714    0.000    0.000    0.000    0.000 
#    0.000    0.000    0.000    0.000    0.000    0.000 
#
# Total GULP energy -78206.036537 kJ/mol
# GULP energy per Si atom -5586.145467 kJ/mol
# Density = 2.328097 g / cm^3
# Si number density = 23.334084 Si / 1000 Ang^3
#
#
#
# Elastic Constant Matrix: (Units=GPa)
#
#
# Indices 1 2 3 4 5 6 
#
# 1 169.9651 46.0023 24.9259 4.7729 -35.4427 -5.0324
# 2 46.0023 114.7369 6.5693 21.1751 -16.4054 -2.1382
# 3 24.9259 6.5693 67.8615 12.4908 -17.1372 8.1679
# 4 4.7729 21.1751 12.4908 32.0310 1.3224 -7.3316
# 5 -35.4427 -16.4054 -17.1372 1.3224 32.5101 3.2834
# 6 -5.0324 -2.1382 8.1679 -7.3316 3.2834 52.1320
#
#
#
# Elastic Compliance Matrix: (Units=1/GPa)
#
#
# Indices 1 2 3 4 5 6 
#
# 1 0.008138 -0.002289 -0.001161 0.000580 0.007030 0.000512
# 2 -0.002289 0.011995 0.003114 -0.009479 0.005778 -0.001914
# 3 -0.001161 0.003114 0.020840 -0.011825 0.012347 -0.005690
# 4 0.000580 -0.009479 -0.011825 0.044520 -0.013064 0.008604
# 5 0.007030 0.005778 0.012347 -0.013064 0.048980 -0.005941
# 6 0.000512 -0.001914 -0.005690 0.008604 -0.005941 0.021629
#
#
# Mechanical properties :
#
#
# Convention : Reuss Voigt Hill
#
# Bulk Modulus (GPa) = 24.81276 56.39538 40.60407
# Shear Modulus (GPa) = 29.37605 41.67234 35.52420
#
# Velocity S-wave (km/s) = 3.55199 4.23058 3.90605
# Velocity P-wave (km/s) = 5.24204 6.93432 6.14670
#
# Compressibility (1/GPa) = 0.04030184
#
# Stress axis : x y z
#
# Youngs Moduli (GPa) = 122.87862 83.36865 47.98424
#
# Poissons Ratio (x) = 0.19081 0.05570
# Poissons Ratio (y) = 0.28124 -0.14941
# Poissons Ratio (z) = 0.14263 -0.25959
#
# Static dielectric constant tensor:
#      x y z
#    x 1.877190 0.061100 0.028050 
#    y 0.061100 1.918200 -0.033760 
#    z 0.028050 -0.033760 1.931410 
# 
# From -- ./inp_files/340648.got.cif
#   From: 2010.05.17/outbox.cif.g08.bks.cpg/sg2_171_cif.got.tgz:340648.got - 2010.06.03 11:33:40.
