data_PCOD9001046
_publ_section_title
;
Structure prediction by ZEFSAII (Michael W. Deem and Ramdas Pophale) SiO2 
 PCOD9001046
Probable space group: P -1
;
_chemical_formula_sum "Si O2"
_cell_formula_units_Z 14
_cell_length_a 10.627271
_cell_length_b 11.037925
_cell_length_c 15.074152
_cell_angle_alpha 81.745776
_cell_angle_beta 23.744078
_cell_angle_gamma 95.329437
_cell_volume 582.390412
_symmetry_space_group_name_H-M "P -1"
_symmetry_group_IT_number 2
_symmetry_cell_setting 'triclinic'
loop_
_space_group_symop_operation_xyz
x,y,z
-x,-y,-z
loop_
_atom_site_type_symbol
_atom_site_label
_atom_site_fract_x
_atom_site_fract_y
_atom_site_fract_z
Si Si1 0.536782 0.328787 0.115908
Si Si2 0.134996 0.363137 0.863449
Si Si3 0.083599 0.577556 0.620412
Si Si4 0.234987 0.921629 0.762336
Si Si5 0.244135 0.355935 0.481394
Si Si6 0.461740 0.885064 0.277104
Si Si7 0.574220 0.096816 0.028905
O O1 0.400789 0.193800 0.149187
O O2 0.895179 0.343730 0.934646
O O3 0.739346 0.487606 0.920043
O O4 0.275632 0.305609 0.369714
O O5 0.945001 0.549875 0.409603
O O6 0.349741 0.523143 0.753186
O O7 0.860937 0.234502 0.123148
O O8 0.498740 0.353380 0.611236
O O9 0.125817 0.713998 0.527858
O O10 0.500000 0.000000 0.500000
O O11 0.425162 0.032961 0.710368
O O12 0.825154 0.887867 0.010031
O O13 0.013821 0.224165 0.713196
O O14 0.442316 0.989089 0.208551
O O15 0.500000 0.000000 0.000000
#
# Coordination Sequence:
#
# PCOD9001046 Si02
#       7
#     2   2   2   2   2   2   2
#     4  11  19  37  60  85 120 154 193 242 300 346
#     4   9  18  34  53  91 118 150 184 233 299 369
#     4   8  20  33  55  85 115 147 185 234 298 362
#     4  10  21  33  56  93 128 151 183 238 311 363
#     4   9  22  36  57  86 115 152 199 240 292 357
#     4  10  21  38  58  85 122 156 192 241 298 345
#     4  11  25  42  60  83 116 163 212 244 277 341
#
# _framework density 24.038858999999999
#
# number of rings (size 3 to 8) (size 9 to 14) (size 15 to 20)
#    0.857    1.429    1.429    0.857    4.000    0.571 
#    0.000    2.857    0.000    1.714    0.000    0.000 
#    0.000    0.000    0.000    0.000    0.000    0.000 
#
# Total GULP energy -78165.503759 kJ/mol
# GULP energy per Si atom -5583.250268 kJ/mol
# Density = 2.398415 g / cm^3
# Si number density = 24.038859 Si / 1000 Ang^3
#
#
#
# Elastic Constant Matrix: (Units=GPa)
#
#
# Indices 1 2 3 4 5 6 
#
# 1 38.0882 15.5829 23.9085 -9.5903 13.7497 -6.8917
# 2 15.5829 92.4203 50.9618 -20.4483 12.2966 7.3105
# 3 23.9085 50.9618 197.7381 -26.3968 40.7367 -0.8143
# 4 -9.5903 -20.4483 -26.3968 48.5556 -0.7923 9.0109
# 5 13.7497 12.2966 40.7367 -0.7923 30.5780 -3.8470
# 6 -6.8917 7.3105 -0.8143 9.0109 -3.8470 28.8405
#
#
#
# Elastic Compliance Matrix: (Units=1/GPa)
#
#
# Indices 1 2 3 4 5 6 
#
# 1 0.034654 -0.003731 0.000056 0.003931 -0.013271 0.006230
# 2 -0.003731 0.014661 -0.002232 0.005422 -0.001938 -0.006623
# 3 0.000056 -0.002232 0.008207 0.003682 -0.010180 -0.001697
# 4 0.003931 0.005422 0.003682 0.027385 -0.009420 -0.010144
# 5 -0.013271 -0.001938 -0.010180 -0.009420 0.053665 0.007134
# 6 0.006230 -0.006623 -0.001697 -0.010144 0.007134 0.041914
#
#
# Mechanical properties :
#
#
# Convention : Reuss Voigt Hill
#
# Bulk Modulus (GPa) = 21.87760 56.57254 39.22507
# Shear Modulus (GPa) = 24.09215 37.44772 30.76993
#
# Velocity S-wave (km/s) = 3.16922 3.95118 3.58160
# Velocity P-wave (km/s) = 4.74474 6.66338 5.78417
#
# Compressibility (1/GPa) = 0.04570885
#
# Stress axis : x y z
#
# Youngs Moduli (GPa) = 28.85663 68.20778 121.84277
#
# Poissons Ratio (x) = 0.25449 -0.00683
# Poissons Ratio (y) = 0.10767 0.27192
# Poissons Ratio (z) = -0.00162 0.15222
#
# Static dielectric constant tensor:
#      x y z
#    x 1.967150 -0.051000 -0.087220 
#    y -0.051000 1.963010 0.012710 
#    z -0.087220 0.012710 1.915140 
# 
# From -- ./inp_files/395561.got.cif
#   From: 2010.05.17/outbox.cif.g08.bks.cpg/sg2_198_cif.got.tgz:395561.got - 2010.06.03 11:33:40.
