data_PCOD9001716
_publ_section_title
;
Structure prediction by ZEFSAII (Michael W. Deem and Ramdas Pophale) SiO2 
 PCOD9001716
Probable space group: P -1
;
_chemical_formula_sum "Si O2"
_cell_formula_units_Z 14
_cell_length_a 18.185260
_cell_length_b 11.078367
_cell_length_c 5.356071
_cell_angle_alpha 44.033571
_cell_angle_beta 48.847905
_cell_angle_gamma 53.697646
_cell_volume 549.965433
_symmetry_space_group_name_H-M "P -1"
_symmetry_group_IT_number 2
_symmetry_cell_setting 'triclinic'
loop_
_space_group_symop_operation_xyz
x,y,z
-x,-y,-z
loop_
_atom_site_type_symbol
_atom_site_label
_atom_site_fract_x
_atom_site_fract_y
_atom_site_fract_z
Si Si1 0.531895 0.694988 0.119888
Si Si2 0.868646 0.068069 0.467359
Si Si3 0.184395 0.405451 0.791604
Si Si4 0.265949 0.232141 0.339355
Si Si5 0.384528 0.500322 0.183070
Si Si6 0.669495 0.124158 0.535312
Si Si7 0.942204 0.224273 0.568018
O O1 0.500000 0.500000 0.500000
O O2 0.440087 0.857583 0.128318
O O3 0.629855 0.702928 0.046117
O O4 0.582218 0.690323 0.745454
O O5 0.754058 0.087157 0.614009
O O6 0.887229 0.138700 0.595237
O O7 0.909063 0.175359 0.991226
O O8 0.941247 0.870887 0.584552
O O9 0.219084 0.303059 0.605004
O O10 0.274404 0.502227 0.527087
O O11 0.090807 0.565930 0.709848
O O12 0.184426 0.294416 0.209904
O O13 0.301190 0.021080 0.529939
O O14 0.500000 0.500000 0.000000
O O15 0.347546 0.679616 0.834166
#
# Coordination Sequence:
#
# PCOD9001716 Si02
#       7
#     2   2   2   2   2   2   2
#     4   9  20  36  58  87 121 162 210 246 298 363
#     4  10  22  38  65  98 117 160 209 266 312 360
#     4  11  22  41  62  87 126 168 207 251 309 370
#     4  11  25  40  60  95 130 168 202 252 317 373
#     4  10  21  35  61  94 119 166 215 256 303 372
#     4  11  22  40  61  93 130 165 207 262 316 368
#     4  10  21  40  65  93 125 154 214 264 307 360
#
# _framework density 25.456143999999998
#
# number of rings (size 3 to 8) (size 9 to 14) (size 15 to 20)
#    0.000    1.714    1.429    3.000    6.000    2.286 
#    0.000    5.000    0.000    0.000    0.000    0.000 
#    0.000    0.000    0.000    0.000    0.000    0.000 
#
# Total GULP energy -77947.815397 kJ/mol
# GULP energy per Si atom -5567.701100 kJ/mol
# Density = 2.539820 g / cm^3
# Si number density = 25.456144 Si / 1000 Ang^3
#
#
#
# Elastic Constant Matrix: (Units=GPa)
#
#
# Indices 1 2 3 4 5 6 
#
# 1 153.7204 43.6603 34.4167 -4.7791 13.0790 -23.3318
# 2 43.6603 147.2216 27.7536 -16.8010 15.4314 -29.0449
# 3 34.4167 27.7536 52.5499 0.0673 11.0102 -13.9057
# 4 -4.7791 -16.8010 0.0673 17.5219 -5.5852 10.6311
# 5 13.0790 15.4314 11.0102 -5.5852 35.4626 -4.4927
# 6 -23.3318 -29.0449 -13.9057 10.6311 -4.4927 38.3418
#
#
#
# Elastic Compliance Matrix: (Units=1/GPa)
#
#
# Indices 1 2 3 4 5 6 
#
# 1 0.008173 -0.001138 -0.003748 -0.000962 -0.001141 0.002885
# 2 -0.001138 0.009173 -0.002951 0.006052 -0.001277 0.003359
# 3 -0.003748 -0.002951 0.026235 -0.010241 -0.006191 0.007113
# 4 -0.000962 0.006052 -0.010241 0.078294 0.010676 -0.020173
# 5 -0.001141 -0.001277 -0.006191 0.010676 0.032390 -0.003072
# 6 0.002885 0.003359 0.007113 -0.020173 -0.003072 0.038194
#
#
# Mechanical properties :
#
#
# Convention : Reuss Voigt Hill
#
# Bulk Modulus (GPa) = 35.83236 62.79477 49.31356
# Shear Modulus (GPa) = 22.99538 34.77603 28.88570
#
# Velocity S-wave (km/s) = 3.00881 3.70011 3.37222
# Velocity P-wave (km/s) = 5.11637 6.55559 5.88018
#
# Compressibility (1/GPa) = 0.02790774
#
# Stress axis : x y z
#
# Youngs Moduli (GPa) = 122.35783 109.01037 38.11705
#
# Poissons Ratio (x) = 0.12408 0.14285
# Poissons Ratio (y) = 0.13927 0.11248
# Poissons Ratio (z) = 0.45856 0.32167
#
# Static dielectric constant tensor:
#      x y z
#    x 2.137370 0.101090 -0.063120 
#    y 0.101090 1.968560 0.066470 
#    z -0.063120 0.066470 2.172100 
# 
# From -- ./inp_files/48403.got.cif
#   From: 2010.05.17/outbox.cif.g08.bks.cpg/sg2_25_cif.got.tgz:48403.got - 2010.06.03 11:33:40.
