data_PCOD9001044
_publ_section_title
;
Structure prediction by ZEFSAII (Michael W. Deem and Ramdas Pophale) SiO2 
 PCOD9001044
Probable space group: P -1
;
_chemical_formula_sum "Si O2"
_cell_formula_units_Z 12
_cell_length_a 9.449814
_cell_length_b 10.483013
_cell_length_c 7.561185
_cell_angle_alpha 117.259938
_cell_angle_beta 58.457008
_cell_angle_gamma 138.523607
_cell_volume 419.885594
_symmetry_space_group_name_H-M "P -1"
_symmetry_group_IT_number 2
_symmetry_cell_setting 'triclinic'
loop_
_space_group_symop_operation_xyz
x,y,z
-x,-y,-z
loop_
_atom_site_type_symbol
_atom_site_label
_atom_site_fract_x
_atom_site_fract_y
_atom_site_fract_z
Si Si1 0.625051 0.634424 0.214810
Si Si2 0.091652 0.943029 0.082349
Si Si3 0.029980 0.650999 0.208162
Si Si4 0.249740 0.599724 0.453261
Si Si5 0.505363 0.015246 0.268130
Si Si6 0.580017 0.742520 0.703703
O O1 0.400287 0.571983 0.234065
O O2 0.631436 0.718359 0.456831
O O3 0.578277 0.445614 0.188265
O O4 0.845648 0.812995 0.076198
O O5 0.028168 0.786848 0.172222
O O6 0.188178 0.125654 0.253467
O O7 0.294587 0.983440 0.875192
O O8 0.820870 0.520527 0.394184
O O9 0.262517 0.800014 0.263174
O O10 0.000000 0.500000 0.000000
O O11 0.407628 0.829082 0.532340
O O12 0.000000 0.500000 0.500000
O O13 0.497711 0.136310 0.194749
#
# Coordination Sequence:
#
# PCOD9001044 Si02
#       6
#     2   2   2   2   2   2
#     4  10  21  33  56  86 123 159 193 246 307 354
#     4  11  20  32  61  97 122 145 195 261 305 349
#     4  11  21  36  66  95 116 155 200 250 299 353
#     4  11  25  44  61  84 124 168 208 243 296 365
#     4  10  22  36  63  94 123 156 201 249 300 360
#     4   9  18  33  52  89 124 150 192 246 306 357
#
# _framework density 28.579212999999999
#
# number of rings (size 3 to 8) (size 9 to 14) (size 15 to 20)
#    0.000    1.667    1.667    5.500    4.667    3.333 
#    0.000    0.833    0.000    2.000    0.000    0.000 
#    0.000    0.000    0.000    0.000    0.000    0.000 
#
# Total GULP energy -67128.944466 kJ/mol
# GULP energy per Si atom -5594.078705 kJ/mol
# Density = 2.851417 g / cm^3
# Si number density = 28.579213 Si / 1000 Ang^3
#
#
#
# Elastic Constant Matrix: (Units=GPa)
#
#
# Indices 1 2 3 4 5 6 
#
# 1 79.5437 3.7491 20.7871 11.6983 -16.4431 27.6284
# 2 3.7491 237.8456 38.3302 -3.4867 -16.4859 25.5278
# 3 20.7871 38.3302 68.4494 -4.7147 -7.9389 6.3268
# 4 11.6983 -3.4867 -4.7147 53.5294 10.1051 -7.6078
# 5 -16.4431 -16.4859 -7.9389 10.1051 54.6779 -4.9740
# 6 27.6284 25.5278 6.3268 -7.6078 -4.9740 50.3276
#
#
#
# Elastic Compliance Matrix: (Units=1/GPa)
#
#
# Indices 1 2 3 4 5 6 
#
# 1 0.020947 0.002357 -0.006332 -0.007967 0.006429 -0.012468
# 2 0.002357 0.005157 -0.003166 -0.001285 0.001720 -0.003536
# 3 -0.006332 -0.003166 0.018172 0.003342 -0.000542 0.003249
# 4 -0.007967 -0.001285 0.003342 0.022796 -0.005831 0.007475
# 5 0.006429 0.001720 -0.000542 -0.005831 0.021458 -0.003094
# 6 -0.012468 -0.003536 0.003249 0.007475 -0.003094 0.028924
#
#
# Mechanical properties :
#
#
# Convention : Reuss Voigt Hill
#
# Bulk Modulus (GPa) = 33.33941 56.84129 45.09035
# Shear Modulus (GPa) = 35.27728 53.23846 44.25787
#
# Velocity S-wave (km/s) = 3.51717 4.32074 3.93950
# Velocity P-wave (km/s) = 5.30895 6.69507 6.04189
#
# Compressibility (1/GPa) = 0.02999453
#
# Stress axis : x y z
#
# Youngs Moduli (GPa) = 47.74064 193.89563 55.02921
#
# Poissons Ratio (x) = -0.45705 0.34844
# Poissons Ratio (y) = -0.11253 0.17423
# Poissons Ratio (z) = 0.30229 0.61389
#
# Static dielectric constant tensor:
#      x y z
#    x 2.686680 0.218970 0.031500 
#    y 0.218970 2.302230 0.033440 
#    z 0.031500 0.033440 2.199780 
# 
# From -- ./inp_files/430472.got.cif
#   From: 2010.05.17/outbox.cif.g08.bks.cpg/sg2_216_cif.got.tgz:430472.got - 2010.06.03 11:33:40.
