data_PCOD9001189
_publ_section_title
;
Structure prediction by ZEFSAII (Michael W. Deem and Ramdas Pophale) SiO2 
 PCOD9001189
Probable space group: P -1
;
_chemical_formula_sum "Si O2"
_cell_formula_units_Z 16
_cell_length_a 24.454385
_cell_length_b 12.202500
_cell_length_c 5.044355
_cell_angle_alpha 61.283332
_cell_angle_beta 118.936852
_cell_angle_gamma 143.469382
_cell_volume 771.903461
_symmetry_space_group_name_H-M "P -1"
_symmetry_group_IT_number 2
_symmetry_cell_setting 'triclinic'
loop_
_space_group_symop_operation_xyz
x,y,z
-x,-y,-z
loop_
_atom_site_type_symbol
_atom_site_label
_atom_site_fract_x
_atom_site_fract_y
_atom_site_fract_z
Si Si1 0.735931 0.079389 0.620628
Si Si2 0.903104 0.334600 0.111745
Si Si3 0.184303 0.002188 0.441454
Si Si4 0.438639 0.043342 0.618260
Si Si5 0.866769 0.924965 0.254980
Si Si6 0.813957 0.428516 0.103392
Si Si7 0.051633 0.170204 0.129950
Si Si8 0.615371 0.192653 0.730321
O O1 0.740851 0.988852 0.495062
O O2 0.629411 0.941777 0.619175
O O3 0.770126 0.269072 0.398412
O O4 0.817414 0.164248 0.917712
O O5 0.904781 0.226347 0.462006
O O6 0.867997 0.412154 0.060018
O O7 0.000000 0.500000 0.000000
O O8 0.182523 0.075535 0.622721
O O9 0.183005 0.107319 0.092799
O O10 0.404155 0.883319 0.522776
O O11 0.549369 0.211860 0.624511
O O12 0.420604 0.969286 0.961372
O O13 0.882230 0.809561 0.539540
O O14 0.973829 0.118350 0.196040
O O15 0.887994 0.641937 0.111119
O O16 0.725319 0.363922 0.836586
O O17 0.000000 0.000000 0.000000
#
# Coordination Sequence:
#
# PCOD9001189 Si02
#       8
#     2   2   2   2   2   2   2   2
#     4  10  21  34  56  87 116 148 179 223 280 349
#     4  11  22  33  53  81 119 151 180 229 274 338
#     4  11  22  38  56  77 111 146 190 225 278 336
#     4   9  17  32  54  80 116 144 178 210 285 340
#     4  11  23  40  57  76 106 151 197 237 273 315
#     4  10  22  35  55  86 114 148 190 229 286 332
#     4  11  24  40  59  77 109 152 200 246 273 319
#     4   9  17  33  53  80 113 148 172 227 271 345
#
# _framework density 20.727979000000001
#
# number of rings (size 3 to 8) (size 9 to 14) (size 15 to 20)
#    0.000    1.750    3.750    0.750    1.750    3.000 
#    0.000    0.000    0.000    0.000    0.000    1.750 
#    0.000    0.250    0.000    0.000    0.000    0.000 
#
# Total GULP energy -89069.238562 kJ/mol
# GULP energy per Si atom -5566.827410 kJ/mol
# Density = 2.068080 g / cm^3
# Si number density = 20.727979 Si / 1000 Ang^3
#
#
#
# Elastic Constant Matrix: (Units=GPa)
#
#
# Indices 1 2 3 4 5 6 
#
# 1 86.7761 1.3563 14.4671 16.8365 -12.1376 22.7938
# 2 1.3563 23.3619 4.9882 11.3307 -2.9409 5.0110
# 3 14.4671 4.9882 87.8208 11.0332 -6.3772 2.1266
# 4 16.8365 11.3307 11.0332 15.3570 2.1294 -2.4588
# 5 -12.1376 -2.9409 -6.3772 2.1294 23.3991 13.8723
# 6 22.7938 5.0110 2.1266 -2.4588 13.8723 15.9435
#
#
#
# Elastic Compliance Matrix: (Units=1/GPa)
#
#
# Indices 1 2 3 4 5 6 
#
# 1 0.000769 -0.014943 -0.003319 0.018331 -0.016779 0.021467
# 2 -0.014943 0.029641 -0.002951 0.006470 -0.027649 0.037496
# 3 -0.003319 -0.002951 0.012049 -0.001711 -0.001873 0.005431
# 4 0.018331 0.006470 -0.001711 0.025038 0.045222 -0.063499
# 5 -0.016779 -0.027649 -0.001873 0.045222 0.004701 0.035811
# 6 0.021467 0.037496 0.005431 -0.063499 0.035811 -0.021429
#
#
# Mechanical properties :
#
#
# Convention : Reuss Voigt Hill
#
# Bulk Modulus (GPa) = 30527.44743 26.62023 15277.03383
# Shear Modulus (GPa) = 53.64518 22.74972 38.19745
#
# Velocity S-wave (km/s) = 5.09281 3.31650 4.29744
# Velocity P-wave (km/s) = 121.63144 5.24749 86.08642
#
# Compressibility (1/GPa) = 0.00003276
#
# Stress axis : x y z
#
# Youngs Moduli (GPa) = 1301.09005 33.73699 82.99655
#
# Poissons Ratio (x) = 0.50414 0.27547
# Poissons Ratio (y) = 19.44243 0.24489
# Poissons Ratio (z) = 4.31839 0.09954
#
# Static dielectric constant tensor:
#      x y z
#    x 1.819670 0.024090 0.026260 
#    y 0.024090 1.761390 0.040030 
#    z 0.026260 0.040030 1.874420 
# 
# From -- ./inp_files/123402.got.cif
#   From: 2010.05.17/outbox.cif.g08.bks.cpg/sg2_62_cif.got.tgz:123402.got - 2010.06.03 11:33:40.
