data_PCOD9001879
_publ_section_title
;
Structure prediction by ZEFSAII (Michael W. Deem and Ramdas Pophale) SiO2 
 PCOD9001879
Probable space group: P -1
;
_chemical_formula_sum "Si O2"
_cell_formula_units_Z 14
_cell_length_a 7.439916
_cell_length_b 7.687321
_cell_length_c 14.261311
_cell_angle_alpha 129.503133
_cell_angle_beta 111.476407
_cell_angle_gamma 98.908625
_cell_volume 492.907020
_symmetry_space_group_name_H-M "P -1"
_symmetry_group_IT_number 2
_symmetry_cell_setting 'triclinic'
loop_
_space_group_symop_operation_xyz
x,y,z
-x,-y,-z
loop_
_atom_site_type_symbol
_atom_site_label
_atom_site_fract_x
_atom_site_fract_y
_atom_site_fract_z
Si Si1 0.734653 0.952240 0.217787
Si Si2 0.918298 0.928143 0.068542
Si Si3 0.762495 0.340447 0.717960
Si Si4 0.769014 0.430367 0.060638
Si Si5 0.594655 0.423565 0.213680
Si Si6 0.390045 0.331608 0.327580
Si Si7 0.739958 0.011945 0.439294
O O1 0.847802 0.079574 0.183573
O O2 0.784522 0.710668 0.147124
O O3 0.823551 0.118699 0.387504
O O4 0.458413 0.786612 0.110792
O O5 0.657820 0.671301 0.912053
O O6 0.168838 0.034827 0.198591
O O7 0.000000 0.000000 0.000000
O O8 0.695498 0.500239 0.689110
O O9 0.533951 0.109976 0.645591
O O10 0.980692 0.519831 0.888359
O O11 0.841614 0.197564 0.611747
O O12 0.699241 0.337204 0.123176
O O13 0.554163 0.320125 0.276749
O O14 0.740661 0.743595 0.358797
O O15 0.500000 0.500000 0.500000
#
# Coordination Sequence:
#
# PCOD9001879 Si02
#       7
#     2   2   2   2   2   2   2
#     4   9  18  34  57  84 107 138 182 220 268 324
#     4   9  18  35  58  79 105 144 182 216 261 322
#     4  10  21  36  53  80 114 144 176 222 276 313
#     4   9  18  34  57  82 107 136 178 232 273 312
#     4   8  17  36  57  78 106 138 177 225 278 315
#     4  10  21  37  55  76 107 149 186 215 260 328
#     4   9  19  35  54  82 113 139 175 227 273 315
#
# _framework density 28.402922
#
# number of rings (size 3 to 8) (size 9 to 14) (size 15 to 20)
#    0.000    2.857    0.000    0.857    0.000    7.429 
#    0.000   11.429    0.000    0.000    0.000    0.000 
#    0.000    0.000    0.000    0.000    0.000    0.000 
#
# Total GULP energy -78147.856316 kJ/mol
# GULP energy per Si atom -5581.989737 kJ/mol
# Density = 2.833828 g / cm^3
# Si number density = 28.402922 Si / 1000 Ang^3
#
#
#
# Elastic Constant Matrix: (Units=GPa)
#
#
# Indices 1 2 3 4 5 6 
#
# 1 96.6020 22.8152 8.7749 -21.8859 18.6152 29.0886
# 2 22.8152 95.3608 23.1153 -15.2054 -3.0312 2.4732
# 3 8.7749 23.1153 166.4336 -24.2884 -6.0897 19.2103
# 4 -21.8859 -15.2054 -24.2884 40.3270 8.7576 -4.7212
# 5 18.6152 -3.0312 -6.0897 8.7576 61.4366 -15.9336
# 6 29.0886 2.4732 19.2103 -4.7212 -15.9336 49.5943
#
#
#
# Elastic Compliance Matrix: (Units=1/GPa)
#
#
# Indices 1 2 3 4 5 6 
#
# 1 0.020806 -0.003623 0.002568 0.012249 -0.012053 -0.015724
# 2 -0.003623 0.011952 -0.001508 0.001523 0.002080 0.002926
# 3 0.002568 -0.001508 0.007264 0.005120 -0.002004 -0.004401
# 4 0.012249 0.001523 0.005120 0.036347 -0.010702 -0.009222
# 5 -0.012053 0.002080 -0.002004 -0.010702 0.025202 0.014820
# 6 -0.015724 0.002926 -0.004401 -0.009222 0.014820 0.034828
#
#
# Mechanical properties :
#
#
# Convention : Reuss Voigt Hill
#
# Bulk Modulus (GPa) = 28.65661 51.97857 40.31759
# Shear Modulus (GPa) = 32.64597 50.51763 41.58180
#
# Velocity S-wave (km/s) = 3.39394 4.22193 3.83037
# Velocity P-wave (km/s) = 5.04675 6.48894 5.81275
#
# Compressibility (1/GPa) = 0.03489596
#
# Stress axis : x y z
#
# Youngs Moduli (GPa) = 48.06223 83.66897 137.65891
#
# Poissons Ratio (x) = 0.30309 -0.35345
# Poissons Ratio (y) = 0.17411 0.20764
# Poissons Ratio (z) = -0.12340 0.12620
#
# Static dielectric constant tensor:
#      x y z
#    x 2.324110 -0.065490 -0.032540 
#    y -0.065490 2.409080 0.015720 
#    z -0.032540 0.015720 2.176090 
# 
# From -- ./inp_files/376208.got.cif
#   From: 2010.05.17/outbox.cif.g08.bks.cpg/sg2_189_cif.got.tgz:376208.got - 2010.06.03 11:33:40.
