data_PCOD9001259
_publ_section_title
;
Structure prediction by ZEFSAII (Michael W. Deem and Ramdas Pophale) SiO2 
 PCOD9001259
Probable space group: P -1
;
_chemical_formula_sum "Si O2"
_cell_formula_units_Z 16
_cell_length_a 7.933596
_cell_length_b 17.796158
_cell_length_c 8.748747
_cell_angle_alpha 118.307803
_cell_angle_beta 92.808024
_cell_angle_gamma 41.143642
_cell_volume 605.900893
_symmetry_space_group_name_H-M "P -1"
_symmetry_group_IT_number 2
_symmetry_cell_setting 'triclinic'
loop_
_space_group_symop_operation_xyz
x,y,z
-x,-y,-z
loop_
_atom_site_type_symbol
_atom_site_label
_atom_site_fract_x
_atom_site_fract_y
_atom_site_fract_z
Si Si1 0.837013 0.788317 0.199502
Si Si2 0.749235 0.055379 0.942597
Si Si3 0.100697 0.825798 0.451991
Si Si4 0.992297 0.593341 0.244166
Si Si5 0.242057 0.492282 0.750260
Si Si6 0.369904 0.753717 0.089692
Si Si7 0.807114 0.900403 0.030781
Si Si8 0.149902 0.620756 0.582601
O O1 0.911221 0.833353 0.361901
O O2 0.769021 0.735975 0.254140
O O3 0.119081 0.626523 0.965751
O O4 0.655226 0.907697 0.166233
O O5 0.925663 0.941824 0.695264
O O6 0.624607 0.045855 0.062134
O O7 0.536115 0.211370 0.992603
O O8 0.000000 0.000000 0.000000
O O9 0.397695 0.657872 0.373612
O O10 0.230375 0.831071 0.325358
O O11 0.035647 0.636173 0.431322
O O12 0.863983 0.554436 0.237914
O O13 0.339973 0.428743 0.048944
O O14 0.118735 0.555590 0.635972
O O15 0.088732 0.826482 0.060799
O O16 0.963620 0.777577 0.790803
O O17 0.500000 0.500000 0.500000
#
# Coordination Sequence:
#
# PCOD9001259 Si02
#       8
#     2   2   2   2   2   2   2   2
#     4  10  21  36  61  88 119 155 196 251 294 357
#     4  10  21  38  58  90 115 154 206 259 285 333
#     4  11  21  37  62  91 114 157 208 248 293 348
#     4  12  22  36  56  95 128 155 185 240 322 358
#     4  11  23  35  57  95 129 151 186 246 313 364
#     4  10  21  34  59  87 124 155 196 250 292 355
#     4   9  19  35  57  85 110 154 206 246 285 334
#     4  11  20  35  59  87 120 159 195 243 290 355
#
# _framework density 26.406957999999999
#
# number of rings (size 3 to 8) (size 9 to 14) (size 15 to 20)
#    0.000    1.500    2.500    3.750    3.500    0.000 
#    0.000    0.000    0.000    3.750   16.250    0.000 
#    0.000    0.000    0.000    0.000    0.000    0.000 
#
# Total GULP energy -89503.925836 kJ/mol
# GULP energy per Si atom -5593.995365 kJ/mol
# Density = 2.634685 g / cm^3
# Si number density = 26.406958 Si / 1000 Ang^3
#
#
#
# Elastic Constant Matrix: (Units=GPa)
#
#
# Indices 1 2 3 4 5 6 
#
# 1 91.8381 54.6878 36.4888 -13.1494 -9.4930 16.4841
# 2 54.6878 162.6572 26.0732 -51.5502 2.9929 37.6892
# 3 36.4888 26.0732 118.2017 -26.5744 9.7236 -7.2780
# 4 -13.1494 -51.5502 -26.5744 33.2263 -1.7667 -6.0731
# 5 -9.4930 2.9929 9.7236 -1.7667 28.1815 -11.7605
# 6 16.4841 37.6892 -7.2780 -6.0731 -11.7605 66.5567
#
#
#
# Elastic Compliance Matrix: (Units=1/GPa)
#
#
# Indices 1 2 3 4 5 6 
#
# 1 0.018175 -0.008947 -0.006991 -0.011754 0.008871 0.000296
# 2 -0.008947 0.019118 0.005208 0.028618 -0.007895 -0.006824
# 3 -0.006991 0.005208 0.013623 0.015983 -0.006353 0.000608
# 4 -0.011754 0.028618 0.015983 0.081024 -0.009897 -0.005902
# 5 0.008871 -0.007895 -0.006353 -0.009897 0.044442 0.008528
# 6 0.000296 -0.006824 0.000608 -0.005902 0.008528 0.019851
#
#
# Mechanical properties :
#
#
# Convention : Reuss Voigt Hill
#
# Bulk Modulus (GPa) = 33.94984 67.46629 50.70807
# Shear Modulus (GPa) = 21.97703 42.62271 32.29987
#
# Velocity S-wave (km/s) = 2.88799 4.02191 3.50116
# Velocity P-wave (km/s) = 4.89949 6.86817 5.96560
#
# Compressibility (1/GPa) = 0.02945522
#
# Stress axis : x y z
#
# Youngs Moduli (GPa) = 55.01968 52.30809 73.40651
#
# Poissons Ratio (x) = 0.46801 0.51321
# Poissons Ratio (y) = 0.49227 -0.38233
# Poissons Ratio (z) = 0.38466 -0.27244
#
# Static dielectric constant tensor:
#      x y z
#    x 2.184770 0.103160 -0.022110 
#    y 0.103160 2.072570 -0.017470 
#    z -0.022110 -0.017470 2.014050 
# 
# From -- ./inp_files/218341.got.cif
#   From: 2010.05.17/outbox.cif.g08.bks.cpg/sg2_110_cif.got.tgz:218341.got - 2010.06.03 11:33:40.
