data_PCOD9001845
_publ_section_title
;
Structure prediction by ZEFSAII (Michael W. Deem and Ramdas Pophale) SiO2 
 PCOD9001845
Probable space group: P -1
;
_chemical_formula_sum "Si O2"
_cell_formula_units_Z 16
_cell_length_a 21.098628
_cell_length_b 18.300627
_cell_length_c 11.807985
_cell_angle_alpha 138.331586
_cell_angle_beta 149.182667
_cell_angle_gamma 18.535526
_cell_volume 676.246425
_symmetry_space_group_name_H-M "P -1"
_symmetry_group_IT_number 2
_symmetry_cell_setting 'triclinic'
loop_
_space_group_symop_operation_xyz
x,y,z
-x,-y,-z
loop_
_atom_site_type_symbol
_atom_site_label
_atom_site_fract_x
_atom_site_fract_y
_atom_site_fract_z
Si Si1 0.294719 0.820133 0.631480
Si Si2 0.638018 0.494331 0.144018
Si Si3 0.706148 0.426909 0.614463
Si Si4 0.549786 0.955816 0.892394
Si Si5 0.863476 0.848439 0.649616
Si Si6 0.676130 0.680300 0.189763
Si Si7 0.092333 0.655266 0.390643
Si Si8 0.730750 0.015302 0.894768
O O1 0.433956 0.670476 0.553577
O O2 0.233444 0.751115 0.513566
O O3 0.079125 0.091111 0.585661
O O4 0.518764 0.699186 0.917835
O O5 0.375522 0.773670 0.015086
O O6 0.893650 0.278132 0.194092
O O7 0.779749 0.454004 0.415031
O O8 0.500000 0.500000 0.000000
O O9 0.685868 0.504428 0.554350
O O10 0.981248 0.243251 0.896420
O O11 0.410835 0.960407 0.626477
O O12 0.375447 0.194342 0.844417
O O13 0.500000 0.000000 0.000000
O O14 0.877721 0.728255 0.115769
O O15 0.021118 0.607445 0.643883
O O16 0.773653 0.963541 0.767715
O O17 0.513911 0.849424 0.250833
#
# Coordination Sequence:
#
# PCOD9001845 Si02
#       8
#     2   2   2   2   2   2   2   2
#     4  10  21  35  67  97 124 165 207 262 319 372
#     4  11  26  42  66  94 135 172 205 261 324 379
#     4  11  21  37  65  98 126 160 215 261 312 384
#     4  11  22  44  68  91 123 172 213 259 324 375
#     4  11  24  43  66  93 128 169 216 263 310 380
#     4  10  22  41  66  94 125 167 211 266 317 372
#     4  11  23  42  63  93 130 166 210 260 320 378
#     4  11  23  41  64  97 128 167 218 255 319 378
#
# _framework density 23.660015999999999
#
# number of rings (size 3 to 8) (size 9 to 14) (size 15 to 20)
#    0.000    1.250    5.000    1.500    3.500    2.000 
#    0.000    3.125    0.000    0.000    0.000    0.000 
#    0.000    0.000    0.000    0.000    0.000    0.000 
#
# Total GULP energy -89345.871574 kJ/mol
# GULP energy per Si atom -5584.116973 kJ/mol
# Density = 2.360616 g / cm^3
# Si number density = 23.660016 Si / 1000 Ang^3
#
#
#
# Elastic Constant Matrix: (Units=GPa)
#
#
# Indices 1 2 3 4 5 6 
#
# 1 160.3120 27.0981 13.3614 16.8545 -3.4372 -16.8901
# 2 27.0981 58.4030 1.2096 8.1092 7.8183 -3.1133
# 3 13.3614 1.2096 72.2154 6.6600 -9.0151 -9.2406
# 4 16.8545 8.1092 6.6600 19.0591 -2.6079 -12.7400
# 5 -3.4372 7.8183 -9.0151 -2.6079 34.4737 3.6932
# 6 -16.8901 -3.1133 -9.2406 -12.7400 3.6932 33.7707
#
#
#
# Elastic Compliance Matrix: (Units=1/GPa)
#
#
# Indices 1 2 3 4 5 6 
#
# 1 0.007379 -0.002889 -0.000651 -0.003813 0.000747 0.001726
# 2 -0.002889 0.020186 0.000027 -0.008150 -0.005253 -0.002077
# 3 -0.000651 0.000027 0.014937 -0.002572 0.003381 0.002424
# 4 -0.003813 -0.008150 -0.002572 0.077840 0.003945 0.025571
# 5 0.000747 -0.005253 0.003381 0.003945 0.031579 -0.001151
# 6 0.001726 -0.002077 0.002424 0.025571 -0.001151 0.040719
#
#
# Mechanical properties :
#
#
# Convention : Reuss Voigt Hill
#
# Bulk Modulus (GPa) = 28.18849 41.58539 34.88694
# Shear Modulus (GPa) = 23.64143 34.07812 28.85978
#
# Velocity S-wave (km/s) = 3.16446 3.79928 3.49631
# Velocity P-wave (km/s) = 5.02908 6.07128 5.57459
#
# Compressibility (1/GPa) = 0.03547548
#
# Stress axis : x y z
#
# Youngs Moduli (GPa) = 135.51654 49.53807 66.94823
#
# Poissons Ratio (x) = 0.14311 0.04359
# Poissons Ratio (y) = 0.39150 -0.00178
# Poissons Ratio (z) = 0.08824 -0.00131
#
# Static dielectric constant tensor:
#      x y z
#    x 1.916820 -0.013330 0.055190 
#    y -0.013330 1.909890 -0.012800 
#    z 0.055190 -0.012800 1.959720 
# 
# From -- ./inp_files/472445.got.cif
#   From: 2010.05.17/outbox.cif.g08.bks.cpg/sg2_237_cif.got.tgz:472445.got - 2010.06.03 11:33:40.
