data_PCOD9001553
_publ_section_title
;
Structure prediction by ZEFSAII (Michael W. Deem and Ramdas Pophale) SiO2 
 PCOD9001553
Probable space group: P -1
;
_chemical_formula_sum "Si O2"
_cell_formula_units_Z 14
_cell_length_a 7.965127
_cell_length_b 16.951633
_cell_length_c 5.343889
_cell_angle_alpha 63.069677
_cell_angle_beta 61.790468
_cell_angle_gamma 77.283952
_cell_volume 566.872228
_symmetry_space_group_name_H-M "P -1"
_symmetry_group_IT_number 2
_symmetry_cell_setting 'triclinic'
loop_
_space_group_symop_operation_xyz
x,y,z
-x,-y,-z
loop_
_atom_site_type_symbol
_atom_site_label
_atom_site_fract_x
_atom_site_fract_y
_atom_site_fract_z
Si Si1 0.033833 0.855525 0.262651
Si Si2 0.504439 0.351633 0.745884
Si Si3 0.692343 0.579042 0.720487
Si Si4 0.298747 0.179848 0.054097
Si Si5 0.173250 0.013899 0.165632
Si Si6 0.011934 0.295147 0.806820
Si Si7 0.849824 0.425965 0.125032
O O1 0.111901 0.774324 0.159351
O O2 0.871793 0.822030 0.617120
O O3 0.199165 0.914577 0.187903
O O4 0.916127 0.925141 0.075644
O O5 0.381051 0.400422 0.538460
O O6 0.711117 0.390105 0.488223
O O7 0.428649 0.377451 0.033995
O O8 0.468202 0.246267 0.902112
O O9 0.898868 0.625175 0.523766
O O10 0.724406 0.478704 0.927964
O O11 0.327043 0.077469 0.099140
O O12 0.194644 0.233398 0.828254
O O13 0.000000 0.000000 0.500000
O O14 0.931168 0.340344 0.046779
O O15 0.000000 0.500000 0.000000
#
# Coordination Sequence:
#
# PCOD9001553 Si02
#       7
#     2   2   2   2   2   2   2
#     4   9  15  30  54  85 119 151 195 249 301 357
#     4  11  24  43  65  88 124 169 216 261 312 373
#     4  11  23  44  64  88 119 168 219 264 308 372
#     4   9  17  34  55  85 119 159 202 246 300 367
#     4   8  15  26  53  89 117 147 194 250 289 359
#     4  10  21  35  58  85 122 156 202 259 313 365
#     4  12  26  42  61  90 124 165 214 269 321 369
#
# _framework density 24.696919999999999
#
# number of rings (size 3 to 8) (size 9 to 14) (size 15 to 20)
#    0.000    2.000    1.429    3.000    0.000    2.286 
#    0.000    0.000    0.000    0.857    0.000   34.000 
#    0.000    0.000    0.000    0.000    0.000    0.429 
#
# Total GULP energy -78142.607609 kJ/mol
# GULP energy per Si atom -5581.614829 kJ/mol
# Density = 2.464071 g / cm^3
# Si number density = 24.696920 Si / 1000 Ang^3
#
#
#
# Elastic Constant Matrix: (Units=GPa)
#
#
# Indices 1 2 3 4 5 6 
#
# 1 83.9115 33.6128 20.4838 -7.2877 -19.1934 29.9184
# 2 33.6128 134.7828 3.7514 3.5563 -16.9364 37.8801
# 3 20.4838 3.7514 108.9652 -12.4097 -6.1054 5.3113
# 4 -7.2877 3.5563 -12.4097 39.5059 4.7585 -0.6750
# 5 -19.1934 -16.9364 -6.1054 4.7585 37.3909 -9.3198
# 6 29.9184 37.8801 5.3113 -0.6750 -9.3198 31.5342
#
#
#
# Elastic Compliance Matrix: (Units=1/GPa)
#
#
# Indices 1 2 3 4 5 6 
#
# 1 0.019960 0.000712 -0.002387 0.001900 0.005520 -0.017718
# 2 0.000712 0.011438 0.000117 -0.001375 0.002305 -0.013783
# 3 -0.002387 0.000117 0.009908 0.002641 0.000256 0.000588
# 4 0.001900 -0.001375 0.002641 0.026946 -0.002861 -0.000865
# 5 0.005520 0.002305 0.000256 -0.002861 0.031313 0.001144
# 6 -0.017718 -0.013783 0.000588 -0.000865 0.001144 0.065299
#
#
# Mechanical properties :
#
#
# Convention : Reuss Voigt Hill
#
# Bulk Modulus (GPa) = 26.18536 49.26170 37.72353
# Shear Modulus (GPa) = 27.66829 39.67365 33.67097
#
# Velocity S-wave (km/s) = 3.35074 4.01237 3.69639
# Velocity P-wave (km/s) = 5.05921 6.43857 5.79012
#
# Compressibility (1/GPa) = 0.03818928
#
# Stress axis : x y z
#
# Youngs Moduli (GPa) = 50.10021 87.42641 100.92417
#
# Poissons Ratio (x) = -0.06223 0.24094
# Poissons Ratio (y) = -0.03566 -0.01179
# Poissons Ratio (z) = 0.11960 -0.01021
#
# Static dielectric constant tensor:
#      x y z
#    x 2.089900 0.055630 0.071600 
#    y 0.055630 2.049940 -0.030670 
#    z 0.071600 -0.030670 2.071310 
# 
# From -- ./inp_files/46537.got.cif
#   From: 2010.05.17/outbox.cif.g08.bks.cpg/sg2_24_cif.got.tgz:46537.got - 2010.06.03 11:33:40.
