data_PCOD9001751
_publ_section_title
;
Structure prediction by ZEFSAII (Michael W. Deem and Ramdas Pophale) SiO2 
 PCOD9001751
Probable space group: P -1
;
_chemical_formula_sum "Si O2"
_cell_formula_units_Z 16
_cell_length_a 10.808015
_cell_length_b 19.631814
_cell_length_c 9.281300
_cell_angle_alpha 136.418723
_cell_angle_beta 120.616416
_cell_angle_gamma 28.570009
_cell_volume 599.229232
_symmetry_space_group_name_H-M "P -1"
_symmetry_group_IT_number 2
_symmetry_cell_setting 'triclinic'
loop_
_space_group_symop_operation_xyz
x,y,z
-x,-y,-z
loop_
_atom_site_type_symbol
_atom_site_label
_atom_site_fract_x
_atom_site_fract_y
_atom_site_fract_z
Si Si1 0.493380 0.693916 0.709801
Si Si2 0.785705 0.701991 0.887036
Si Si3 0.337027 0.893152 0.421632
Si Si4 0.907966 0.351568 0.204538
Si Si5 0.476566 0.585624 0.976949
Si Si6 0.373292 0.086884 0.400503
Si Si7 0.713522 0.024920 0.160997
Si Si8 0.893326 0.248411 0.476671
O O1 0.709348 0.644281 0.838738
O O2 0.692477 0.530683 0.454519
O O3 0.311099 0.705382 0.661547
O O4 0.251095 0.910801 0.839689
O O5 0.064601 0.595417 0.840016
O O6 0.633274 0.766938 0.743892
O O7 0.606135 0.890139 0.149021
O O8 0.214787 0.981335 0.645096
O O9 0.113614 0.059955 0.422811
O O10 0.602706 0.810925 0.455635
O O11 0.575037 0.270100 0.805116
O O12 0.810932 0.293633 0.061519
O O13 0.219339 0.128471 0.073005
O O14 0.713057 0.420027 0.746288
O O15 0.500000 0.500000 0.000000
O O16 0.070818 0.214114 0.424211
O O17 0.500000 0.000000 0.500000
#
# Coordination Sequence:
#
# PCOD9001751 Si02
#       8
#     2   2   2   2   2   2   2   2
#     4   9  22  36  62  93 119 159 197 259 309 354
#     4  10  22  40  58  92 121 161 202 251 310 360
#     4  11  21  40  62  92 127 164 198 256 309 356
#     4  11  19  37  59  89 127 151 191 256 310 363
#     4  11  24  36  64  98 124 155 202 261 313 358
#     4  10  23  41  65  84 121 173 209 243 297 371
#     4  10  21  35  62  90 122 153 200 250 317 358
#     4  10  22  42  61  90 126 166 212 244 296 368
#
# _framework density 26.700968
#
# number of rings (size 3 to 8) (size 9 to 14) (size 15 to 20)
#    0.750    1.000    1.250    3.750    1.750    2.500 
#    0.000    0.000    5.500    1.500    0.000    0.000 
#    0.000    0.000    0.000    0.000    0.000    0.000 
#
# Total GULP energy -89089.581014 kJ/mol
# GULP energy per Si atom -5568.098813 kJ/mol
# Density = 2.664020 g / cm^3
# Si number density = 26.700968 Si / 1000 Ang^3
#
#
#
# Elastic Constant Matrix: (Units=GPa)
#
#
# Indices 1 2 3 4 5 6 
#
# 1 181.2615 59.6915 107.1792 27.2148 45.9299 -35.9619
# 2 59.6915 107.5031 78.0446 53.5523 24.1658 18.2005
# 3 107.1792 78.0446 171.8466 51.6052 47.5203 4.4728
# 4 27.2148 53.5523 51.6052 61.7123 14.4518 15.8039
# 5 45.9299 24.1658 47.5203 14.4518 68.0198 9.3537
# 6 -35.9619 18.2005 4.4728 15.8039 9.3537 72.9613
#
#
#
# Elastic Compliance Matrix: (Units=1/GPa)
#
#
# Indices 1 2 3 4 5 6 
#
# 1 0.012515 -0.004183 -0.005313 0.001657 -0.004674 0.007778
# 2 -0.004183 0.020734 -0.003182 -0.012576 0.000964 -0.004438
# 3 -0.005313 -0.003182 0.012854 -0.004603 -0.003117 -0.001216
# 4 0.001657 -0.012576 -0.004603 0.030786 0.000365 -0.002479
# 5 -0.004674 0.000964 -0.003117 0.000365 0.020308 -0.005036
# 6 0.007778 -0.004438 -0.001216 -0.002479 -0.005036 0.019904
#
#
# Mechanical properties :
#
#
# Convention : Reuss Voigt Hill
#
# Bulk Modulus (GPa) = 48.20024 105.60465 76.90244
# Shear Modulus (GPa) = 33.47358 54.91840 44.19599
#
# Velocity S-wave (km/s) = 3.54453 4.54011 4.07285
# Velocity P-wave (km/s) = 5.90276 8.19269 7.14013
#
# Compressibility (1/GPa) = 0.02074679
#
# Stress axis : x y z
#
# Youngs Moduli (GPa) = 79.90548 48.22907 77.79921
#
# Poissons Ratio (x) = 0.20175 0.41334
# Poissons Ratio (y) = 0.33426 0.24755
# Poissons Ratio (z) = 0.42453 0.15346
#
# Static dielectric constant tensor:
#      x y z
#    x 2.369800 -0.129990 -0.016260 
#    y -0.129990 1.086170 -0.769240 
#    z -0.016260 -0.769240 1.616690 
# 
# From -- ./inp_files/439416.got.cif
#   From: 2010.05.17/outbox.cif.g08.bks.cpg/sg2_220_cif.got.tgz:439416.got - 2010.06.03 11:33:40.
