data_PCOD9001217
_publ_section_title
;
Structure prediction by ZEFSAII (Michael W. Deem and Ramdas Pophale) SiO2 
 PCOD9001217
Probable space group: P -1
;
_chemical_formula_sum "Si O2"
_cell_formula_units_Z 12
_cell_length_a 8.708103
_cell_length_b 15.700226
_cell_length_c 13.126343
_cell_angle_alpha 35.413806
_cell_angle_beta 56.749593
_cell_angle_gamma 30.977127
_cell_volume 462.166072
_symmetry_space_group_name_H-M "P -1"
_symmetry_group_IT_number 2
_symmetry_cell_setting 'triclinic'
loop_
_space_group_symop_operation_xyz
x,y,z
-x,-y,-z
loop_
_atom_site_type_symbol
_atom_site_label
_atom_site_fract_x
_atom_site_fract_y
_atom_site_fract_z
Si Si1 0.328162 0.788982 0.963840
Si Si2 0.532658 0.839409 0.259326
Si Si3 0.217249 0.538533 0.063273
Si Si4 0.365097 0.155525 0.292954
Si Si5 0.410947 0.853123 0.075852
Si Si6 0.645070 0.148943 0.484361
O O1 0.329152 0.957345 0.760600
O O2 0.517749 0.678262 0.111609
O O3 0.523883 0.578058 0.004531
O O4 0.961687 0.965421 0.941383
O O5 0.645229 0.934077 0.134217
O O6 0.577612 0.705421 0.471823
O O7 0.634386 0.703916 0.244601
O O8 0.116102 0.139178 0.113300
O O9 0.103625 0.462663 0.120670
O O10 0.743021 0.910927 0.666830
O O11 0.500000 0.000000 0.500000
O O12 0.409315 0.356663 0.272751
O O13 0.000000 0.000000 0.500000
#
# Coordination Sequence:
#
# PCOD9001217 Si02
#       6
#     2   2   2   2   2   2
#     4   9  18  37  60  84 116 159 195 232 290 352
#     4  11  22  39  60  90 121 150 193 244 292 344
#     4   9  21  40  64  86 113 151 204 245 276 337
#     4   8  17  35  59  86 112 148 195 248 278 333
#     4  10  21  34  57  88 122 157 185 233 306 351
#     4  11  21  35  60  91 117 148 195 249 291 330
#
# _framework density 25.964691999999999
#
# number of rings (size 3 to 8) (size 9 to 14) (size 15 to 20)
#    1.000    1.333    1.667    1.000    0.000    5.333 
#    0.000    5.000    0.000    6.000    0.000    0.000 
#    0.000    0.000    0.000    0.000    0.000    0.000 
#
# Total GULP energy -67023.503741 kJ/mol
# GULP energy per Si atom -5585.291978 kJ/mol
# Density = 2.590560 g / cm^3
# Si number density = 25.964692 Si / 1000 Ang^3
#
#
#
# Elastic Constant Matrix: (Units=GPa)
#
#
# Indices 1 2 3 4 5 6 
#
# 1 144.5038 25.8817 53.7097 32.6792 -13.7921 -2.3771
# 2 25.8817 97.6507 46.7949 38.8014 17.3462 10.1542
# 3 53.7097 46.7949 103.7935 24.0628 0.7823 11.2915
# 4 32.6792 38.8014 24.0628 52.2588 -0.3721 5.2456
# 5 -13.7921 17.3462 0.7823 -0.3721 46.3101 22.6169
# 6 -2.3771 10.1542 11.2915 5.2456 22.6169 60.0560
#
#
#
# Elastic Compliance Matrix: (Units=1/GPa)
#
#
# Indices 1 2 3 4 5 6 
#
# 1 0.009706 0.001009 -0.004445 -0.004818 0.002244 0.000625
# 2 0.001009 0.019038 -0.006475 -0.012044 -0.007810 0.002032
# 3 -0.004445 -0.006475 0.014906 0.001022 0.002232 -0.002814
# 4 -0.004818 -0.012044 0.001022 0.030936 0.004681 -0.002811
# 5 0.002244 -0.007810 0.002232 0.004681 0.030516 -0.010911
# 6 0.000625 0.002032 -0.002814 -0.002811 -0.010911 0.021216
#
#
# Mechanical properties :
#
#
# Convention : Reuss Voigt Hill
#
# Bulk Modulus (GPa) = 41.96902 66.52452 54.24677
# Shear Modulus (GPa) = 32.44987 46.36243 39.40615
#
# Velocity S-wave (km/s) = 3.53904 4.23021 3.89997
# Velocity P-wave (km/s) = 5.73574 7.03821 6.42009
#
# Compressibility (1/GPa) = 0.02382710
#
# Stress axis : x y z
#
# Youngs Moduli (GPa) = 103.03090 52.52648 67.08589
#
# Poissons Ratio (x) = -0.05298 0.29820
# Poissons Ratio (y) = -0.10391 0.43438
# Poissons Ratio (z) = 0.45798 0.34011
#
# Static dielectric constant tensor:
#      x y z
#    x 2.160390 0.013350 -0.003650 
#    y 0.013350 2.141350 0.095930 
#    z -0.003650 0.095930 2.030190 
# 
# From -- ./inp_files/393581.got.cif
#   From: 2010.05.17/outbox.cif.g08.bks.cpg/sg2_197_cif.got.tgz:393581.got - 2010.06.03 11:33:40.
