data_PCOD9001772
_publ_section_title
;
Structure prediction by ZEFSAII (Michael W. Deem and Ramdas Pophale) SiO2 
 PCOD9001772
Probable space group: P -1
;
_chemical_formula_sum "Si O2"
_cell_formula_units_Z 16
_cell_length_a 8.159616
_cell_length_b 9.354948
_cell_length_c 17.810846
_cell_angle_alpha 125.541847
_cell_angle_beta 49.844809
_cell_angle_gamma 95.740966
_cell_volume 758.474925
_symmetry_space_group_name_H-M "P -1"
_symmetry_group_IT_number 2
_symmetry_cell_setting 'triclinic'
loop_
_space_group_symop_operation_xyz
x,y,z
-x,-y,-z
loop_
_atom_site_type_symbol
_atom_site_label
_atom_site_fract_x
_atom_site_fract_y
_atom_site_fract_z
Si Si1 0.422244 0.382960 0.593222
Si Si2 0.081795 0.193958 0.588797
Si Si3 0.396276 0.426229 0.935000
Si Si4 0.117038 0.314271 0.460774
Si Si5 0.344136 0.779947 0.678943
Si Si6 0.781000 0.085997 0.761964
Si Si7 0.477370 0.759845 0.317751
Si Si8 0.942972 0.817985 0.168007
O O1 0.244259 0.283253 0.606768
O O2 0.291618 0.614195 0.684294
O O3 0.621870 0.278273 0.437811
O O4 0.525233 0.339352 0.632871
O O5 0.986562 0.319501 0.579662
O O6 0.901563 0.184910 0.700426
O O7 0.248618 0.970903 0.445187
O O8 0.495747 0.203569 0.868400
O O9 0.488280 0.378729 0.806453
O O10 0.500000 0.500000 0.000000
O O11 0.127503 0.586219 0.046898
O O12 0.387591 0.268038 0.389132
O O13 0.000000 0.500000 0.500000
O O14 0.130372 0.133127 0.354721
O O15 0.168048 0.009976 0.809874
O O16 0.890064 0.103378 0.813398
O O17 0.700528 0.816611 0.269927
#
# Coordination Sequence:
#
# PCOD9001772 Si02
#       8
#     2   2   2   2   2   2   2   2
#     4  10  21  35  62  96 127 153 198 256 308 368
#     4  11  21  36  61  94 125 149 201 253 311 367
#     4  10  24  40  59  89 123 162 212 259 300 346
#     4  11  24  34  55  93 129 161 183 239 320 375
#     4  10  22  40  58  91 133 160 200 244 312 377
#     4  11  22  39  60  91 126 156 202 251 311 365
#     4  12  20  38  64  94 114 164 209 256 303 356
#     4  11  21  39  66  84 119 167 211 258 287 359
#
# _framework density 21.094961999999999
#
# number of rings (size 3 to 8) (size 9 to 14) (size 15 to 20)
#    0.000    1.250    5.000    1.875    7.000    0.000 
#    0.000    0.625    0.000    2.250    0.000    0.000 
#    0.000    0.000    0.000    0.000    0.000    0.000 
#
# Total GULP energy -89077.016341 kJ/mol
# GULP energy per Si atom -5567.313521 kJ/mol
# Density = 2.104695 g / cm^3
# Si number density = 21.094962 Si / 1000 Ang^3
#
#
#
# Elastic Constant Matrix: (Units=GPa)
#
#
# Indices 1 2 3 4 5 6 
#
# 1 101.4117 36.8860 38.1108 7.5243 3.3608 -22.8225
# 2 36.8860 125.0411 29.6105 18.6417 -6.8932 -24.3422
# 3 38.1108 29.6105 40.4085 11.2534 -9.9498 -9.3137
# 4 7.5243 18.6417 11.2534 18.3999 -15.7790 -2.0941
# 5 3.3608 -6.8932 -9.9498 -15.7790 37.4391 5.3546
# 6 -22.8225 -24.3422 -9.3137 -2.0941 5.3546 38.9165
#
#
#
# Elastic Compliance Matrix: (Units=1/GPa)
#
#
# Indices 1 2 3 4 5 6 
#
# 1 0.018519 0.000229 -0.016799 -0.004415 -0.009089 0.007996
# 2 0.000229 0.012124 -0.005302 -0.013316 -0.005743 0.006522
# 3 -0.016799 -0.005302 0.048778 -0.009378 0.010026 -0.003379
# 4 -0.004415 -0.013316 -0.009378 0.112121 0.044604 -0.013267
# 5 -0.009089 -0.005743 0.010026 0.044604 0.049496 -0.010933
# 6 0.007996 0.006522 -0.003379 -0.013267 -0.010933 0.034447
#
#
# Mechanical properties :
#
#
# Convention : Reuss Voigt Hill
#
# Bulk Modulus (GPa) = 28.03007 52.89730 40.46369
# Shear Modulus (GPa) = 15.10018 29.76804 22.43411
#
# Velocity S-wave (km/s) = 2.67838 3.76060 3.26464
# Velocity P-wave (km/s) = 4.78345 6.63222 5.78220
#
# Compressibility (1/GPa) = 0.03567597
#
# Stress axis : x y z
#
# Youngs Moduli (GPa) = 53.99841 82.48233 20.50089
#
# Poissons Ratio (x) = -0.01889 0.34440
# Poissons Ratio (y) = -0.01237 0.10870
# Poissons Ratio (z) = 0.90714 0.43735
#
# Static dielectric constant tensor:
#      x y z
#    x 1.874120 0.004600 -0.013770 
#    y 0.004600 1.764540 0.017930 
#    z -0.013770 0.017930 1.828120 
# 
# From -- ./inp_files/460842.got.cif
#   From: 2010.05.17/outbox.cif.g08.bks.cpg/sg2_231_cif.got.tgz:460842.got - 2010.06.03 11:33:40.
