data_PCOD9001946
_publ_section_title
;
Structure prediction by ZEFSAII (Michael W. Deem and Ramdas Pophale) SiO2 
 PCOD9001946
Probable space group: P -1
;
_chemical_formula_sum "Si O2"
_cell_formula_units_Z 16
_cell_length_a 13.020751
_cell_length_b 8.393136
_cell_length_c 22.921915
_cell_angle_alpha 35.158609
_cell_angle_beta 147.560927
_cell_angle_gamma 126.411421
_cell_volume 735.100797
_symmetry_space_group_name_H-M "P -1"
_symmetry_group_IT_number 2
_symmetry_cell_setting 'triclinic'
loop_
_space_group_symop_operation_xyz
x,y,z
-x,-y,-z
loop_
_atom_site_type_symbol
_atom_site_label
_atom_site_fract_x
_atom_site_fract_y
_atom_site_fract_z
Si Si1 0.625967 0.442219 0.950563
Si Si2 0.992036 0.083739 0.088143
Si Si3 0.306587 0.662477 0.820759
Si Si4 0.322136 0.323776 0.217990
Si Si5 0.925038 0.852437 0.250875
Si Si6 0.760302 0.018671 0.550748
Si Si7 0.014509 0.820092 0.499908
Si Si8 0.049217 0.419652 0.852573
O O1 0.403738 0.574340 0.830663
O O2 0.617548 0.524546 0.854829
O O3 0.784401 0.576945 0.019462
O O4 0.727030 0.094174 0.110076
O O5 0.208603 0.109856 0.201031
O O6 0.928832 0.947394 0.157253
O O7 0.980506 0.881403 0.089409
O O8 0.844765 0.412265 0.909130
O O9 0.137292 0.533747 0.802599
O O10 0.214201 0.007480 0.683549
O O11 0.500000 0.500000 0.000000
O O12 0.521931 0.159882 0.397672
O O13 0.115853 0.897424 0.362646
O O14 0.942744 0.518862 0.368103
O O15 0.840028 0.124193 0.497029
O O16 0.841699 0.668324 0.692856
O O17 0.000000 0.000000 0.500000
#
# Coordination Sequence:
#
# PCOD9001946 Si02
#       8
#     2   2   2   2   2   2   2   2
#     4   9  19  36  57  81 110 142 180 221 269 324
#     4  10  22  39  55  75 108 145 184 227 272 315
#     4   9  18  33  54  81 111 137 169 213 263 321
#     4  10  22  38  55  78 106 142 186 229 268 316
#     4  10  21  37  56  79 111 146 178 219 268 321
#     4  10  21  36  55  81 109 140 180 221 267 322
#     4  11  21  35  56  83 114 142 173 217 270 324
#     4   9  19  36  56  80 110 142 174 221 275 323
#
# _framework density 21.765720999999999
#
# number of rings (size 3 to 8) (size 9 to 14) (size 15 to 20)
#    0.000    2.250    0.000    3.375    0.000    4.500 
#    0.000    3.125    0.000    0.000    0.000    0.000 
#    0.000    0.000    0.000    0.000    0.000    0.000 
#
# Total GULP energy -89313.206537 kJ/mol
# GULP energy per Si atom -5582.075409 kJ/mol
# Density = 2.171618 g / cm^3
# Si number density = 21.765721 Si / 1000 Ang^3
#
#
#
# Elastic Constant Matrix: (Units=GPa)
#
#
# Indices 1 2 3 4 5 6 
#
# 1 47.2779 0.6341 14.5972 -3.3976 -9.5679 -6.4228
# 2 0.6341 102.4080 61.5429 -17.0761 15.5453 -19.7346
# 3 14.5972 61.5429 127.6733 2.6590 24.1235 1.3795
# 4 -3.3976 -17.0761 2.6590 32.0783 1.2704 -0.3379
# 5 -9.5679 15.5453 24.1235 1.2704 28.5678 6.7873
# 6 -6.4228 -19.7346 1.3795 -0.3379 6.7873 22.9655
#
#
#
# Elastic Compliance Matrix: (Units=1/GPa)
#
#
# Indices 1 2 3 4 5 6 
#
# 1 0.027763 0.006901 -0.008622 0.007061 0.009796 0.011421
# 2 0.006901 0.027369 -0.012873 0.017048 -0.009421 0.029257
# 3 -0.008622 -0.012873 0.016568 -0.009017 -0.006457 -0.012693
# 4 0.007061 0.017048 -0.009017 0.042180 -0.005807 0.019503
# 5 0.009796 -0.009421 -0.006457 -0.005807 0.054124 -0.021049
# 6 0.011421 0.029257 -0.012693 0.019503 -0.021049 0.079149
#
#
# Mechanical properties :
#
#
# Convention : Reuss Voigt Hill
#
# Bulk Modulus (GPa) = 23.52302 47.87864 35.70083
# Shear Modulus (GPa) = 17.21106 30.09465 23.65286
#
# Velocity S-wave (km/s) = 2.81506 3.72245 3.30009
# Velocity P-wave (km/s) = 4.62568 6.36557 5.56406
#
# Compressibility (1/GPa) = 0.04251155
#
# Stress axis : x y z
#
# Youngs Moduli (GPa) = 36.01967 36.53778 60.35563
#
# Poissons Ratio (x) = -0.25214 0.52039
# Poissons Ratio (y) = -0.24856 0.77695
# Poissons Ratio (z) = 0.31056 0.47035
#
# Static dielectric constant tensor:
#      x y z
#    x 1.877180 -0.038300 -0.036810 
#    y -0.038300 1.796220 0.027220 
#    z -0.036810 0.027220 1.845500 
# 
# From -- ./inp_files/185742.got.cif
#   From: 2010.05.17/outbox.cif.g08.bks.cpg/sg2_93_cif.got.tgz:185742.got - 2010.06.03 11:33:40.
