data_PCOD9001508
_publ_section_title
;
Structure prediction by ZEFSAII (Michael W. Deem and Ramdas Pophale) SiO2 
 PCOD9001508
Probable space group: P -1
;
_chemical_formula_sum "Si O2"
_cell_formula_units_Z 14
_cell_length_a 8.141230
_cell_length_b 15.919815
_cell_length_c 7.384098
_cell_angle_alpha 77.379655
_cell_angle_beta 49.097986
_cell_angle_gamma 71.220464
_cell_volume 684.804485
_symmetry_space_group_name_H-M "P -1"
_symmetry_group_IT_number 2
_symmetry_cell_setting 'triclinic'
loop_
_space_group_symop_operation_xyz
x,y,z
-x,-y,-z
loop_
_atom_site_type_symbol
_atom_site_label
_atom_site_fract_x
_atom_site_fract_y
_atom_site_fract_z
Si Si1 0.101812 0.371571 0.347214
Si Si2 0.744544 0.556023 0.127845
Si Si3 0.204629 0.914759 0.440577
Si Si4 0.147245 0.899904 0.913922
Si Si5 0.551762 0.959450 0.682767
Si Si6 0.349038 0.469035 0.397614
Si Si7 0.001055 0.810140 0.375384
O O1 0.272919 0.406317 0.337017
O O2 0.862494 0.444689 0.482508
O O3 0.047815 0.282884 0.500135
O O4 0.219707 0.367407 0.067754
O O5 0.579586 0.499491 0.185470
O O6 0.639195 0.577653 0.392038
O O7 0.000000 0.500000 0.000000
O O8 0.182815 0.887445 0.679493
O O9 0.187074 0.834920 0.360697
O O10 0.419852 0.957561 0.256689
O O11 0.000000 0.000000 0.500000
O O12 0.363492 0.907115 0.869894
O O13 0.050359 0.827104 0.122020
O O14 0.000000 0.000000 0.000000
O O15 0.781171 0.886163 0.544776
O O16 0.500000 0.000000 0.500000
#
# Coordination Sequence:
#
# PCOD9001508 Si02
#       7
#     2   2   2   2   2   2   2
#     4  10  21  35  57  84 115 145 180 231 274 321
#     4   9  18  36  61  81 107 146 178 223 275 329
#     4   9  18  35  53  76 102 135 187 226 264 332
#     4  11  19  35  58  74 105 150 181 225 277 317
#     4   9  18  35  54  75 102 143 187 221 268 329
#     4   9  19  38  60  84 109 146 189 214 274 343
#     4  11  22  36  52  84 112 140 185 230 271 318
#
# _framework density 20.443791000000001
#
# number of rings (size 3 to 8) (size 9 to 14) (size 15 to 20)
#    0.000    2.286    4.286    0.429    0.000    2.857 
#    0.000    8.571    0.000    0.000    0.000    0.000 
#    0.000    0.000    0.000    0.000    0.000    0.000 
#
# Total GULP energy -77966.753348 kJ/mol
# GULP energy per Si atom -5569.053811 kJ/mol
# Density = 2.039726 g / cm^3
# Si number density = 20.443791 Si / 1000 Ang^3
#
#
#
# Elastic Constant Matrix: (Units=GPa)
#
#
# Indices 1 2 3 4 5 6 
#
# 1 107.8584 21.3050 39.9238 -13.8057 -8.0119 11.1430
# 2 21.3050 43.3986 36.1051 -28.7805 11.4511 6.8346
# 3 39.9238 36.1051 147.4942 -45.1546 10.9699 5.6068
# 4 -13.8057 -28.7805 -45.1546 32.5006 -6.2548 -0.6502
# 5 -8.0119 11.4511 10.9699 -6.2548 37.0844 -0.2506
# 6 11.1430 6.8346 5.6068 -0.6502 -0.2506 6.6349
#
#
#
# Elastic Compliance Matrix: (Units=1/GPa)
#
#
# Indices 1 2 3 4 5 6 
#
# 1 0.012723 -0.002619 -0.002434 0.000183 0.004197 -0.016437
# 2 -0.002619 0.100999 0.011348 0.098392 -0.019192 -0.100314
# 3 -0.002434 0.011348 0.013947 0.027351 -0.003656 -0.016845
# 4 0.000183 0.098392 0.027351 0.151131 -0.013689 -0.110480
# 5 0.004197 -0.019192 -0.003656 -0.013689 0.032677 0.015703
# 6 -0.016437 -0.100314 -0.016845 -0.110480 0.015703 0.285657
#
#
# Mechanical properties :
#
#
# Convention : Reuss Voigt Hill
#
# Bulk Modulus (GPa) = 7.12967 54.82434 30.97701
# Shear Modulus (GPa) = 7.92021 28.67180 18.29600
#
# Velocity S-wave (km/s) = 1.97042 3.74902 2.99480
# Velocity P-wave (km/s) = 2.94478 6.75393 5.20996
#
# Compressibility (1/GPa) = 0.14025891
#
# Stress axis : x y z
#
# Youngs Moduli (GPa) = 78.59817 9.90113 71.70178
#
# Poissons Ratio (x) = 0.02593 0.17455
# Poissons Ratio (y) = 0.20581 -0.81369
# Poissons Ratio (z) = 0.19133 -0.11236
#
# Static dielectric constant tensor:
#      x y z
#    x 1.844730 -0.007890 -0.054980 
#    y -0.007890 1.693950 0.018670 
#    z -0.054980 0.018670 1.823500 
# 
# From -- ./inp_files/195484.got.cif
#   From: 2010.05.17/outbox.cif.g08.bks.cpg/sg2_98_cif.got.tgz:195484.got - 2010.06.03 11:33:40.
