data_PCOD9001043
_publ_section_title
;
Structure prediction by ZEFSAII (Michael W. Deem and Ramdas Pophale) SiO2 
 PCOD9001043
Probable space group: P -1
;
_chemical_formula_sum "Si O2"
_cell_formula_units_Z 14
_cell_length_a 5.527240
_cell_length_b 12.449951
_cell_length_c 9.836351
_cell_angle_alpha 86.198986
_cell_angle_beta 73.682131
_cell_angle_gamma 63.642835
_cell_volume 580.734159
_symmetry_space_group_name_H-M "P -1"
_symmetry_group_IT_number 2
_symmetry_cell_setting 'triclinic'
loop_
_space_group_symop_operation_xyz
x,y,z
-x,-y,-z
loop_
_atom_site_type_symbol
_atom_site_label
_atom_site_fract_x
_atom_site_fract_y
_atom_site_fract_z
Si Si1 0.178042 0.368023 0.407877
Si Si2 0.236949 0.188509 0.649088
Si Si3 0.126570 0.065377 0.116100
Si Si4 0.633678 0.211618 0.809408
Si Si5 0.335665 0.442799 0.943073
Si Si6 0.361180 0.558693 0.660248
Si Si7 0.612332 0.038405 0.198519
O O1 0.244230 0.254076 0.503393
O O2 0.467790 0.370279 0.323072
O O3 0.000000 0.500000 0.500000
O O4 0.968590 0.370280 0.323071
O O5 0.407777 0.230092 0.725275
O O6 0.371928 0.044278 0.667599
O O7 0.906765 0.230091 0.725273
O O8 0.246080 0.926309 0.155221
O O9 0.301072 0.110498 0.181923
O O10 0.795998 0.110498 0.181925
O O11 0.221417 0.056236 0.944689
O O12 0.474901 0.300279 0.949644
O O13 0.400789 0.461508 0.775408
O O14 0.500000 0.500000 0.000000
O O15 0.000000 0.500000 0.000000
O O16 0.500000 0.500000 0.500000
#
# Coordination Sequence:
#
# PCOD9001043 Si02
#       7
#     2   2   2   2   2   2   2
#     4  10  17  27  44  66  90 119 156 189 226 275
#     4  10  17  27  46  70  96 124 159 197 240 289
#     4   8  14  24  39  58  87 123 154 183 232 293
#     4  10  18  30  45  64  93 131 162 191 241 293
#     4  12  24  37  51  72 101 130 166 206 241 280
#     4  10  20  34  51  68  92 125 161 197 239 284
#     4   8  14  23  37  62  91 118 148 191 236 280
#
# _framework density 24.107417999999999
#
# number of rings (size 3 to 8) (size 9 to 14) (size 15 to 20)
#    0.000    2.286    0.000    6.000    0.000    0.000 
#    0.000    0.000    0.000    0.000    0.000    0.000 
#    0.000    6.857    0.000    0.000    0.000    0.000 
#
# Total GULP energy -78151.827080 kJ/mol
# GULP energy per Si atom -5582.273363 kJ/mol
# Density = 2.405255 g / cm^3
# Si number density = 24.107418 Si / 1000 Ang^3
#
#
#
# Elastic Constant Matrix: (Units=GPa)
#
#
# Indices 1 2 3 4 5 6 
#
# 1 267.5675 25.0675 15.9925 -4.0809 0.2272 7.8441
# 2 25.0675 61.6952 26.1744 0.8214 -1.0934 -1.2067
# 3 15.9925 26.1744 66.2001 -24.8897 0.7746 -0.2981
# 4 -4.0809 0.8214 -24.8897 38.0288 -0.2904 -0.5045
# 5 0.2272 -1.0934 0.7746 -0.2904 29.9555 -16.2340
# 6 7.8441 -1.2067 -0.2981 -0.5045 -16.2340 0.2753
#
#
#
# Elastic Compliance Matrix: (Units=1/GPa)
#
#
# Indices 1 2 3 4 5 6 
#
# 1 0.003769 -0.001307 -0.000282 0.000313 0.001978 0.003771
# 2 -0.001307 0.021452 -0.011177 -0.008003 -0.001862 -0.005289
# 3 -0.000282 -0.011177 0.026111 0.017313 -0.000304 0.001124
# 4 0.000313 -0.008003 0.017313 0.037819 -0.000759 -0.000707
# 5 0.001978 -0.001862 -0.000304 -0.000759 0.000084 -0.061293
# 6 0.003771 -0.005289 0.001124 -0.000707 -0.061293 -0.112624
#
#
# Mechanical properties :
#
#
# Convention : Reuss Voigt Hill
#
# Bulk Modulus (GPa) = 38.76031 58.88130 48.82080
# Shear Modulus (GPa) = 465.41344 35.53382 250.47363
#
# Velocity S-wave (km/s) = 13.90961 3.84341 10.20414
# Velocity P-wave (km/s) = 16.55545 6.64630 12.61460
#
# Compressibility (1/GPa) = 0.02579959
#
# Stress axis : x y z
#
# Youngs Moduli (GPa) = 265.30573 46.61610 38.29780
#
# Poissons Ratio (x) = 0.06093 0.01081
# Poissons Ratio (y) = 0.34679 0.42806
# Poissons Ratio (z) = 0.07486 0.52103
#
# Static dielectric constant tensor:
#      x y z
#    x 1.944500 0.000160 -0.000600 
#    y 0.000160 1.941720 0.012680 
#    z -0.000600 0.012680 1.907820 
# 
# From -- ./inp_files/27101.got.cif
#   From: 2010.05.17/outbox.cif.g08.bks.cpg/sg2_14_cif.got.tgz:27101.got - 2010.06.03 11:33:40.
