data_PCOD9001784
_publ_section_title
;
Structure prediction by ZEFSAII (Michael W. Deem and Ramdas Pophale) SiO2 
 PCOD9001784
Probable space group: P -1
;
_chemical_formula_sum "Si O2"
_cell_formula_units_Z 14
_cell_length_a 5.960767
_cell_length_b 9.575925
_cell_length_c 13.790666
_cell_angle_alpha 70.013533
_cell_angle_beta 124.597570
_cell_angle_gamma 87.884869
_cell_volume 581.162956
_symmetry_space_group_name_H-M "P -1"
_symmetry_group_IT_number 2
_symmetry_cell_setting 'triclinic'
loop_
_space_group_symop_operation_xyz
x,y,z
-x,-y,-z
loop_
_atom_site_type_symbol
_atom_site_label
_atom_site_fract_x
_atom_site_fract_y
_atom_site_fract_z
Si Si1 0.091213 0.126650 0.932506
Si Si2 0.398492 0.348847 0.509516
Si Si3 0.658725 0.946640 0.182477
Si Si4 0.499970 0.649508 0.252682
Si Si5 0.551970 0.308456 0.268325
Si Si6 0.155594 0.915613 0.435099
Si Si7 0.940577 0.734010 0.720400
O O1 0.123213 0.059486 0.848479
O O2 0.843699 0.287130 0.834031
O O3 0.399444 0.101099 0.062112
O O4 0.000000 0.000000 0.000000
O O5 0.500000 0.500000 0.500000
O O6 0.337915 0.339520 0.609839
O O7 0.654882 0.205746 0.567141
O O8 0.155430 0.359699 0.368347
O O9 0.574391 0.787547 0.179234
O O10 0.822830 0.939142 0.324380
O O11 0.561256 0.475693 0.271667
O O12 0.747265 0.170039 0.418400
O O13 0.228951 0.297997 0.217179
O O14 0.719002 0.297165 0.208340
O O15 0.192496 0.083829 0.383136
#
# Coordination Sequence:
#
# PCOD9001784 Si02
#       7
#     2   2   2   2   2   2   2
#     4   9  20  39  55  91 117 154 203 267 316 366
#     4  11  20  36  60  93 130 162 206 252 307 367
#     4  10  21  35  63  88 119 160 206 258 317 369
#     4  11  21  34  63  92 127 155 210 268 309 359
#     4  11  24  39  63  92 132 168 205 254 309 368
#     4  11  22  39  62  91 130 169 205 249 309 382
#     4  11  25  41  58  90 138 173 206 244 307 381
#
# _framework density 24.089627
#
# number of rings (size 3 to 8) (size 9 to 14) (size 15 to 20)
#    0.000    1.429    4.286    3.000    4.000    2.286 
#    0.000    0.000    0.000    1.714    0.000    0.000 
#    0.000    0.000    0.000    0.000    0.000    0.000 
#
# Total GULP energy -78008.359332 kJ/mol
# GULP energy per Si atom -5572.025667 kJ/mol
# Density = 2.403480 g / cm^3
# Si number density = 24.089627 Si / 1000 Ang^3
#
#
#
# Elastic Constant Matrix: (Units=GPa)
#
#
# Indices 1 2 3 4 5 6 
#
# 1 123.0498 20.4361 16.3588 1.3263 0.8793 -6.3742
# 2 20.4361 134.2815 -2.1285 -8.9391 0.7290 12.3841
# 3 16.3588 -2.1285 37.6168 -1.4250 8.4312 3.7761
# 4 1.3263 -8.9391 -1.4250 11.8499 5.0809 2.8504
# 5 0.8793 0.7290 8.4312 5.0809 27.4429 -8.5872
# 6 -6.3742 12.3841 3.7761 2.8504 -8.5872 36.7670
#
#
#
# Elastic Compliance Matrix: (Units=1/GPa)
#
#
# Indices 1 2 3 4 5 6 
#
# 1 0.009606 -0.002441 -0.005979 -0.006565 0.004250 0.004603
# 2 -0.002441 0.009230 0.003829 0.011455 -0.005362 -0.006066
# 3 -0.005979 0.003829 0.035200 0.018127 -0.017671 -0.011474
# 4 -0.006565 0.011455 0.018127 0.116633 -0.034774 -0.024022
# 5 0.004250 -0.005362 -0.017671 -0.034774 0.054503 0.019783
# 6 0.004603 -0.006066 -0.011474 -0.024022 0.019783 0.037701
#
#
# Mechanical properties :
#
#
# Convention : Reuss Voigt Hill
#
# Bulk Modulus (GPa) = 22.29513 40.47566 31.38539
# Shear Modulus (GPa) = 17.42116 32.56408 24.99262
#
# Velocity S-wave (km/s) = 2.69212 3.68066 3.22450
# Velocity P-wave (km/s) = 4.35184 5.90775 5.18845
#
# Compressibility (1/GPa) = 0.04485284
#
# Stress axis : x y z
#
# Youngs Moduli (GPa) = 104.10184 108.33786 28.40933
#
# Poissons Ratio (x) = 0.26449 0.16986
# Poissons Ratio (y) = 0.25415 -0.10877
# Poissons Ratio (z) = 0.62242 -0.41479
#
# Static dielectric constant tensor:
#      x y z
#    x 2.122910 0.021890 0.060440 
#    y 0.021890 1.905740 0.016500 
#    z 0.060440 0.016500 2.038440 
# 
# From -- ./inp_files/66116.got.cif
#   From: 2010.05.17/outbox.cif.g08.bks.cpg/sg2_34_cif.got.tgz:66116.got - 2010.06.03 11:33:40.
