data_PCOD9001633
_publ_section_title
;
Structure prediction by ZEFSAII (Michael W. Deem and Ramdas Pophale) SiO2 
 PCOD9001633
Probable space group: P -1
;
_chemical_formula_sum "Si O2"
_cell_formula_units_Z 12
_cell_length_a 7.346907
_cell_length_b 9.987721
_cell_length_c 9.150415
_cell_angle_alpha 116.496409
_cell_angle_beta 85.154651
_cell_angle_gamma 61.223841
_cell_volume 486.882989
_symmetry_space_group_name_H-M "P -1"
_symmetry_group_IT_number 2
_symmetry_cell_setting 'triclinic'
loop_
_space_group_symop_operation_xyz
x,y,z
-x,-y,-z
loop_
_atom_site_type_symbol
_atom_site_label
_atom_site_fract_x
_atom_site_fract_y
_atom_site_fract_z
Si Si1 0.519874 0.885251 0.251052
Si Si2 0.393420 0.268819 0.437341
Si Si3 0.039960 0.653897 0.185457
Si Si4 0.257569 0.258407 0.119982
Si Si5 0.343935 0.695601 0.363516
Si Si6 0.806842 0.390089 0.175840
O O1 0.418671 0.786727 0.285107
O O2 0.778263 0.777470 0.230291
O O3 0.397671 0.096012 0.404278
O O4 0.538171 0.876778 0.068769
O O5 0.328478 0.288577 0.284613
O O6 0.632392 0.232506 0.446972
O O7 0.228747 0.449717 0.632786
O O8 0.131709 0.451197 0.133846
O O9 0.115565 0.735184 0.342990
O O10 0.163805 0.624891 0.008889
O O11 0.060634 0.224905 0.127481
O O12 0.540609 0.473761 0.245110
#
# Coordination Sequence:
#
# PCOD9001633 Si02
#       6
#     2   2   2   2   2   2
#     4  11  21  38  58  80 109 147 182 219 268 325
#     4  10  22  34  56  83 115 141 174 225 282 316
#     4  11  20  37  61  80 105 143 191 221 257 325
#     4  11  19  36  59  82 108 145 179 225 272 317
#     4  10  21  35  60  80 108 142 187 220 266 315
#     4   9  19  36  57  82 105 144 186 221 261 321
#
# _framework density 24.646578999999999
#
# number of rings (size 3 to 8) (size 9 to 14) (size 15 to 20)
#    1.000    0.667    3.333    3.000    0.000    1.333 
#    0.000    0.000    3.667    3.000    0.000    0.000 
#    0.000    0.000    0.000    0.000    0.000    0.000 
#
# Total GULP energy -66822.896392 kJ/mol
# GULP energy per Si atom -5568.574699 kJ/mol
# Density = 2.459048 g / cm^3
# Si number density = 24.646579 Si / 1000 Ang^3
#
#
#
# Elastic Constant Matrix: (Units=GPa)
#
#
# Indices 1 2 3 4 5 6 
#
# 1 90.3833 12.3161 7.0877 -9.0568 24.1759 -11.3713
# 2 12.3161 41.7057 14.5741 -10.6232 -0.8423 -10.8954
# 3 7.0877 14.5741 123.0611 -28.9506 14.0403 -24.0909
# 4 -9.0568 -10.6232 -28.9506 36.8644 -16.5806 11.0112
# 5 24.1759 -0.8423 14.0403 -16.5806 31.9508 -6.2598
# 6 -11.3713 -10.8954 -24.0909 11.0112 -6.2598 12.0199
#
#
#
# Elastic Compliance Matrix: (Units=1/GPa)
#
#
# Indices 1 2 3 4 5 6 
#
# 1 0.016382 -0.003240 0.002878 -0.005610 -0.013429 0.016475
# 2 -0.003240 0.035014 0.003101 0.006839 0.012438 0.035101
# 3 0.002878 0.003101 0.014607 0.003445 -0.000585 0.031350
# 4 -0.005610 0.006839 0.003445 0.048037 0.023103 -0.024177
# 5 -0.013429 0.012438 -0.000585 0.023103 0.054988 0.004870
# 6 0.016475 0.035101 0.031350 -0.024177 0.004870 0.218115
#
#
# Mechanical properties :
#
#
# Convention : Reuss Voigt Hill
#
# Bulk Modulus (GPa) = 13.98948 35.90065 24.94506
# Shear Modulus (GPa) = 12.33069 30.91186 21.62128
#
# Velocity S-wave (km/s) = 2.23917 3.54532 2.96506
# Velocity P-wave (km/s) = 3.51760 5.59972 4.67602
#
# Compressibility (1/GPa) = 0.07148227
#
# Stress axis : x y z
#
# Youngs Moduli (GPa) = 61.04080 28.56020 68.45843
#
# Poissons Ratio (x) = 0.09253 -0.19700
# Poissons Ratio (y) = 0.19776 -0.21231
# Poissons Ratio (z) = -0.17566 -0.08858
#
# Static dielectric constant tensor:
#      x y z
#    x 2.102100 -0.003340 -0.004790 
#    y -0.003340 2.050360 0.004550 
#    z -0.004790 0.004550 1.976690 
# 
# From -- ./inp_files/182623.got.cif
#   From: 2010.05.17/outbox.cif.g08.bks.cpg/sg2_92_cif.got.tgz:182623.got - 2010.06.03 11:33:40.
