data_PCOD9001284
_publ_section_title
;
Structure prediction by ZEFSAII (Michael W. Deem and Ramdas Pophale) SiO2 
 PCOD9001284
Probable space group: P -1
;
_chemical_formula_sum "Si O2"
_cell_formula_units_Z 14
_cell_length_a 8.909290
_cell_length_b 8.673798
_cell_length_c 9.004521
_cell_angle_alpha 104.825384
_cell_angle_beta 96.324834
_cell_angle_gamma 70.424778
_cell_volume 633.573720
_symmetry_space_group_name_H-M "P -1"
_symmetry_group_IT_number 2
_symmetry_cell_setting 'triclinic'
loop_
_space_group_symop_operation_xyz
x,y,z
-x,-y,-z
loop_
_atom_site_type_symbol
_atom_site_label
_atom_site_fract_x
_atom_site_fract_y
_atom_site_fract_z
Si Si1 0.602147 0.911137 0.348373
Si Si2 0.254012 0.973622 0.870769
Si Si3 0.875087 0.667167 0.961808
Si Si4 0.088722 0.119214 0.461111
Si Si5 0.901215 0.317135 0.258788
Si Si6 0.683916 0.476090 0.013840
Si Si7 0.690398 0.136513 0.820324
O O1 0.620614 0.035474 0.248912
O O2 0.781770 0.835494 0.410352
O O3 0.490698 0.808107 0.248024
O O4 0.500000 0.000000 0.500000
O O5 0.154643 0.847306 0.805812
O O6 0.140994 0.165507 0.908295
O O7 0.319332 0.939318 0.036427
O O8 0.714302 0.623172 0.956851
O O9 0.939228 0.690179 0.814225
O O10 0.000000 0.500000 0.000000
O O11 0.959111 0.290695 0.428589
O O12 0.193752 0.000781 0.310775
O O13 0.000000 0.000000 0.500000
O O14 0.764562 0.454187 0.181943
O O15 0.753560 0.294376 0.894254
O O16 0.500000 0.500000 0.000000
#
# Coordination Sequence:
#
# PCOD9001284 Si02
#       7
#     2   2   2   2   2   2   2
#     4  10  22  36  56  94 121 153 195 253 309 349
#     4  11  19  36  66  91 117 150 213 257 292 351
#     4  10  21  34  60  93 123 152 194 257 306 348
#     4  11  21  38  61  94 124 157 195 259 301 356
#     4  10  21  37  61  93 118 154 207 247 302 351
#     4  10  22  39  60  91 127 157 197 258 304 353
#     4  10  22  38  64  91 116 158 211 251 296 350
#
# _framework density 22.096874
#
# number of rings (size 3 to 8) (size 9 to 14) (size 15 to 20)
#    0.000    1.714    2.857    1.714    4.000    1.143 
#    0.000    0.000    0.000   15.429    0.000    0.000 
#    0.000    0.000    0.000    0.000    0.000    0.000 
#
# Total GULP energy -78007.255343 kJ/mol
# GULP energy per Si atom -5571.946810 kJ/mol
# Density = 2.204658 g / cm^3
# Si number density = 22.096874 Si / 1000 Ang^3
#
#
#
# Elastic Constant Matrix: (Units=GPa)
#
#
# Indices 1 2 3 4 5 6 
#
# 1 130.9000 12.4475 34.5231 -22.7864 6.0329 8.8339
# 2 12.4475 62.3460 10.6428 -11.7962 -12.1432 6.4471
# 3 34.5231 10.6428 99.0559 -25.9024 0.3994 -5.5822
# 4 -22.7864 -11.7962 -25.9024 28.2169 5.0427 -4.4507
# 5 6.0329 -12.1432 0.3994 5.0427 48.0587 -14.2911
# 6 8.8339 6.4471 -5.5822 -4.4507 -14.2911 32.5753
#
#
#
# Elastic Compliance Matrix: (Units=1/GPa)
#
#
# Indices 1 2 3 4 5 6 
#
# 1 0.009564 -0.000744 -0.001958 0.005619 -0.002945 -0.003306
# 2 -0.000744 0.018191 -0.000196 0.005999 0.003778 -0.000955
# 3 -0.001958 -0.000196 0.014234 0.012115 0.000223 0.004762
# 4 0.005619 0.005999 0.012115 0.055073 -0.003473 0.005366
# 5 -0.002945 0.003778 0.000223 -0.003473 0.025738 0.010906
# 6 -0.003306 -0.000955 0.004762 0.005366 0.010906 0.038117
#
#
# Mechanical properties :
#
#
# Convention : Reuss Voigt Hill
#
# Bulk Modulus (GPa) = 27.62913 45.28097 36.45505
# Shear Modulus (GPa) = 27.96776 37.41609 32.69193
#
# Velocity S-wave (km/s) = 3.56151 4.11941 3.85058
# Velocity P-wave (km/s) = 5.42616 6.56982 6.02519
#
# Compressibility (1/GPa) = 0.03619368
#
# Stress axis : x y z
#
# Youngs Moduli (GPa) = 104.56285 54.97226 70.25338
#
# Poissons Ratio (x) = 0.04088 0.13757
# Poissons Ratio (y) = 0.07775 0.01375
# Poissons Ratio (z) = 0.20476 0.01076
#
# Static dielectric constant tensor:
#      x y z
#    x 1.902230 -0.027490 0.016130 
#    y -0.027490 1.859310 -0.008310 
#    z 0.016130 -0.008310 1.860340 
# 
# From -- ./inp_files/154592.got.cif
#   From: 2010.05.17/outbox.cif.g08.bks.cpg/sg2_78_cif.got.tgz:154592.got - 2010.06.03 11:33:40.
