data_PCOD9001547
_publ_section_title
;
Structure prediction by ZEFSAII (Michael W. Deem and Ramdas Pophale) SiO2 
 PCOD9001547
Probable space group: P -1
;
_chemical_formula_sum "Si O2"
_cell_formula_units_Z 16
_cell_length_a 8.367919
_cell_length_b 20.511813
_cell_length_c 9.004969
_cell_angle_alpha 35.762237
_cell_angle_beta 112.732916
_cell_angle_gamma 129.123759
_cell_volume 673.344552
_symmetry_space_group_name_H-M "P -1"
_symmetry_group_IT_number 2
_symmetry_cell_setting 'triclinic'
loop_
_space_group_symop_operation_xyz
x,y,z
-x,-y,-z
loop_
_atom_site_type_symbol
_atom_site_label
_atom_site_fract_x
_atom_site_fract_y
_atom_site_fract_z
Si Si1 0.250658 0.429864 0.077856
Si Si2 0.922695 0.063531 0.029339
Si Si3 0.810532 0.390481 0.461715
Si Si4 0.604215 0.158518 0.219089
Si Si5 0.355653 0.177835 0.849105
Si Si6 0.331002 0.677953 0.773728
Si Si7 0.961397 0.254363 0.926855
Si Si8 0.823467 0.814836 0.633371
O O1 0.154783 0.469012 0.837105
O O2 0.249261 0.517368 0.051277
O O3 0.500000 0.500000 0.000000
O O4 0.152498 0.270869 0.327213
O O5 0.865496 0.145776 0.958092
O O6 0.744102 0.956004 0.045741
O O7 0.948070 0.968576 0.330305
O O8 0.145257 0.170837 0.824318
O O9 0.575492 0.302324 0.619687
O O10 0.780628 0.321829 0.416164
O O11 0.989652 0.388686 0.617619
O O12 0.692564 0.254056 0.218999
O O13 0.783658 0.204864 0.077456
O O14 0.500000 0.000000 0.500000
O O15 0.431641 0.168541 0.055329
O O16 0.581443 0.764491 0.662427
O O17 0.125105 0.233359 0.107744
#
# Coordination Sequence:
#
# PCOD9001547 Si02
#       8
#     2   2   2   2   2   2   2   2
#     4   8  17  35  67  82 109 156 200 236 282 347
#     4  11  21  36  57  89 120 155 190 236 300 346
#     4   9  20  39  59  88 114 154 192 237 297 339
#     4  11  22  34  55  85 120 156 191 234 293 352
#     4  10  21  35  58  81 119 152 195 236 281 359
#     4   9  19  38  60  82 114 153 201 228 285 354
#     4  11  24  34  58  88 126 147 189 248 295 340
#     4  11  19  38  62  87 112 157 198 240 286 346
#
# _framework density 23.761980000000001
#
# number of rings (size 3 to 8) (size 9 to 14) (size 15 to 20)
#    0.750    1.250    1.250    2.625    1.750    1.500 
#    0.000    0.625    0.000   33.000    0.000    0.000 
#    0.000    0.000    0.000    0.000    0.000    0.000 
#
# Total GULP energy -89201.725016 kJ/mol
# GULP energy per Si atom -5575.107814 kJ/mol
# Density = 2.370790 g / cm^3
# Si number density = 23.761980 Si / 1000 Ang^3
#
#
#
# Elastic Constant Matrix: (Units=GPa)
#
#
# Indices 1 2 3 4 5 6 
#
# 1 72.1250 41.0938 29.0519 -2.5617 -11.6247 -17.6636
# 2 41.0938 78.8589 23.3627 1.4111 1.0164 -33.2855
# 3 29.0519 23.3627 97.6244 6.3993 17.1168 -8.1497
# 4 -2.5617 1.4111 6.3993 45.3994 2.0635 12.1500
# 5 -11.6247 1.0164 17.1168 2.0635 30.7983 0.7820
# 6 -17.6636 -33.2855 -8.1497 12.1500 0.7820 54.5538
#
#
#
# Elastic Compliance Matrix: (Units=1/GPa)
#
#
# Indices 1 2 3 4 5 6 
#
# 1 0.025795 -0.011703 -0.007577 0.002420 0.014189 -0.000663
# 2 -0.011703 0.023945 -0.000066 -0.004331 -0.005182 0.011849
# 3 -0.007577 -0.000066 0.014573 -0.002068 -0.010826 0.000299
# 4 0.002420 -0.004331 -0.002068 0.024605 0.000751 -0.007659
# 5 0.014189 -0.005182 -0.010826 0.000751 0.043987 -0.000983
# 6 -0.000663 0.011849 0.000299 -0.007659 -0.000983 0.027110
#
#
# Mechanical properties :
#
#
# Convention : Reuss Voigt Hill
#
# Bulk Modulus (GPa) = 39.03214 48.40277 43.71745
# Shear Modulus (GPa) = 24.12564 36.49029 30.30796
#
# Velocity S-wave (km/s) = 3.18984 3.92300 3.57526
# Velocity P-wave (km/s) = 5.47985 6.39797 5.95662
#
# Compressibility (1/GPa) = 0.02561991
#
# Stress axis : x y z
#
# Youngs Moduli (GPa) = 38.76647 41.76264 68.62135
#
# Poissons Ratio (x) = 0.48876 0.51997
# Poissons Ratio (y) = 0.45369 0.00453
# Poissons Ratio (z) = 0.29375 0.00275
#
# Static dielectric constant tensor:
#      x y z
#    x 1.943920 0.045160 0.084880 
#    y 0.045160 1.983130 0.061980 
#    z 0.084880 0.061980 2.001360 
# 
# From -- ./inp_files/221707.got.cif
#   From: 2010.05.17/outbox.cif.g08.bks.cpg/sg2_111_cif.got.tgz:221707.got - 2010.06.03 11:33:40.
