data_PCOD9001788
_publ_section_title
;
Structure prediction by ZEFSAII (Michael W. Deem and Ramdas Pophale) SiO2 
 PCOD9001788
Probable space group: P -1
;
_chemical_formula_sum "Si O2"
_cell_formula_units_Z 16
_cell_length_a 11.860862
_cell_length_b 14.236632
_cell_length_c 5.705372
_cell_angle_alpha 91.076329
_cell_angle_beta 49.739198
_cell_angle_gamma 74.792469
_cell_volume 685.849028
_symmetry_space_group_name_H-M "P -1"
_symmetry_group_IT_number 2
_symmetry_cell_setting 'triclinic'
loop_
_space_group_symop_operation_xyz
x,y,z
-x,-y,-z
loop_
_atom_site_type_symbol
_atom_site_label
_atom_site_fract_x
_atom_site_fract_y
_atom_site_fract_z
Si Si1 0.371369 0.638178 0.771127
Si Si2 0.442019 0.438106 0.891891
Si Si3 0.856138 0.600667 0.766534
Si Si4 0.201327 0.192190 0.366528
Si Si5 0.501254 0.909546 0.329381
Si Si6 0.649595 0.712004 0.437990
Si Si7 0.119208 0.827484 0.256377
Si Si8 0.165868 0.913591 0.709040
O O1 0.368315 0.526798 0.803365
O O2 0.410614 0.643747 0.442192
O O3 0.512975 0.669203 0.695913
O O4 0.213467 0.708691 0.109083
O O5 0.500000 0.500000 0.000000
O O6 0.302075 0.401541 0.150505
O O7 0.874344 0.705525 0.681042
O O8 0.000000 0.500000 0.500000
O O9 0.790479 0.620626 0.121115
O O10 0.263742 0.234201 0.508530
O O11 0.063758 0.147274 0.561177
O O12 0.358074 0.111210 0.045061
O O13 0.557780 0.802043 0.384054
O O14 0.326925 0.935249 0.460148
O O15 0.500000 0.000000 0.500000
O O16 0.139172 0.866567 0.491575
O O17 0.195154 0.858768 0.924346
O O18 0.000000 0.000000 0.000000
#
# Coordination Sequence:
#
# PCOD9001788 Si02
#       8
#     2   2   2   2   2   2   2   2
#     4  10  21  40  61  99 130 184 230 287 348 412
#     4  10  21  35  63  92 135 175 235 282 344 415
#     4  10  22  39  60  95 134 178 228 288 345 411
#     4  11  25  42  69 100 139 184 233 289 350 420
#     4  11  25  45  72 100 137 185 231 288 352 420
#     4  10  22  42  64  95 136 177 234 281 350 418
#     4  12  27  45  75 102 144 186 234 290 353 418
#     4  12  28  50  73 106 142 182 238 295 355 422
#
# _framework density 23.328748999999998
#
# number of rings (size 3 to 8) (size 9 to 14) (size 15 to 20)
#    0.000    1.250    1.250    3.375    7.000    2.000 
#    0.000    0.000    0.000    0.000    0.000    0.000 
#    0.000    0.000    0.000    0.000    0.000    0.000 
#
# Total GULP energy -89181.935291 kJ/mol
# GULP energy per Si atom -5573.870956 kJ/mol
# Density = 2.327565 g / cm^3
# Si number density = 23.328749 Si / 1000 Ang^3
#
#
#
# Elastic Constant Matrix: (Units=GPa)
#
#
# Indices 1 2 3 4 5 6 
#
# 1 128.8936 2.6114 84.1218 13.2422 0.6784 37.5918
# 2 2.6114 57.7150 36.0301 12.6271 -0.2501 10.3545
# 3 84.1218 36.0301 181.9565 45.0028 -20.6749 19.2585
# 4 13.2422 12.6271 45.0028 54.4649 8.0565 1.3647
# 5 0.6784 -0.2501 -20.6749 8.0565 46.1337 4.5906
# 6 37.5918 10.3545 19.2585 1.3647 4.5906 35.5990
#
#
#
# Elastic Compliance Matrix: (Units=1/GPa)
#
#
# Indices 1 2 3 4 5 6 
#
# 1 0.017735 0.007024 -0.008803 0.002168 -0.002983 -0.015707
# 2 0.007024 0.023262 -0.006712 -0.001034 -0.001781 -0.010283
# 3 -0.008803 -0.006712 0.013510 -0.008633 0.007324 0.003325
# 4 0.002168 -0.001034 -0.008633 0.026438 -0.008803 0.002804
# 5 -0.002983 -0.001781 0.007324 -0.008803 0.026871 -0.003422
# 6 -0.015707 -0.010283 0.003325 0.002804 -0.003422 0.046203
#
#
# Mechanical properties :
#
#
# Convention : Reuss Voigt Hill
#
# Bulk Modulus (GPa) = 26.64874 68.23242 47.44058
# Shear Modulus (GPa) = 27.24666 43.62629 35.43648
#
# Velocity S-wave (km/s) = 3.42123 4.32912 3.90167
# Velocity P-wave (km/s) = 5.20138 7.36886 6.37787
#
# Compressibility (1/GPa) = 0.03752522
#
# Stress axis : x y z
#
# Youngs Moduli (GPa) = 56.38565 42.98871 74.01883
#
# Poissons Ratio (x) = -0.30193 0.65157
# Poissons Ratio (y) = -0.39603 0.49679
# Poissons Ratio (z) = 0.49635 0.28853
#
# Static dielectric constant tensor:
#      x y z
#    x 1.929480 -0.117680 0.039110 
#    y -0.117680 1.968460 -0.058640 
#    z 0.039110 -0.058640 1.879710 
# 
# From -- ./inp_files/78069.got.cif
#   From: 2010.05.17/outbox.cif.g08.bks.cpg/sg2_40_cif.got.tgz:78069.got - 2010.06.03 11:33:40.
