data_PCOD9001700
_publ_section_title
;
Structure prediction by ZEFSAII (Michael W. Deem and Ramdas Pophale) SiO2 
 PCOD9001700
Probable space group: P -1
;
_chemical_formula_sum "Si O2"
_cell_formula_units_Z 16
_cell_length_a 20.284842
_cell_length_b 9.174453
_cell_length_c 5.230089
_cell_angle_alpha 102.475122
_cell_angle_beta 117.360595
_cell_angle_gamma 53.500596
_cell_volume 692.650806
_symmetry_space_group_name_H-M "P -1"
_symmetry_group_IT_number 2
_symmetry_cell_setting 'triclinic'
loop_
_space_group_symop_operation_xyz
x,y,z
-x,-y,-z
loop_
_atom_site_type_symbol
_atom_site_label
_atom_site_fract_x
_atom_site_fract_y
_atom_site_fract_z
Si Si1 0.422620 0.933051 0.107670
Si Si2 0.216577 0.484505 0.384140
Si Si3 0.607640 0.395121 0.705946
Si Si4 0.281556 0.750771 0.643378
Si Si5 0.005381 0.674889 0.075002
Si Si6 0.237381 0.267475 0.829665
Si Si7 0.473697 0.222348 0.264176
Si Si8 0.894744 0.844625 0.444472
O O1 0.453035 0.844007 0.404933
O O2 0.445052 0.083946 0.180612
O O3 0.482561 0.793603 0.938199
O O4 0.316524 0.054896 0.922225
O O5 0.256702 0.603490 0.524249
O O6 0.252889 0.339897 0.624799
O O7 0.108031 0.609648 0.266097
O O8 0.236083 0.377320 0.112557
O O9 0.500000 0.500000 0.500000
O O10 0.669401 0.262193 0.538991
O O11 0.609982 0.573353 0.764758
O O12 0.647822 0.307704 0.019726
O O13 0.188482 0.946048 0.594763
O O14 0.944123 0.803061 0.246886
O O15 0.964545 0.779581 0.776025
O O16 0.000000 0.500000 0.000000
O O17 0.145759 0.277108 0.658187
#
# Coordination Sequence:
#
# PCOD9001700 Si02
#       8
#     2   2   2   2   2   2   2   2
#     4  10  21  35  61  89 128 157 223 273 329 382
#     4  12  25  43  74  98 141 183 225 286 338 417
#     4  12  27  46  71  93 140 186 227 275 341 416
#     4  12  28  48  68 106 138 179 234 281 348 403
#     4  12  23  46  70 108 135 180 230 275 349 407
#     4  12  23  40  68 101 131 187 223 284 340 402
#     4  10  21  38  58  91 120 170 212 279 325 388
#     4  12  26  43  72 102 141 176 229 288 331 415
#
# _framework density 23.099661999999999
#
# number of rings (size 3 to 8) (size 9 to 14) (size 15 to 20)
#    0.000    0.500    2.500    6.000    3.500    3.000 
#    0.000    0.000    0.000    0.000    0.000    0.000 
#    0.000    0.000    0.000    0.000    0.000    0.000 
#
# Total GULP energy -89659.964815 kJ/mol
# GULP energy per Si atom -5603.747801 kJ/mol
# Density = 2.304709 g / cm^3
# Si number density = 23.099662 Si / 1000 Ang^3
#
#
#
# Elastic Constant Matrix: (Units=GPa)
#
#
# Indices 1 2 3 4 5 6 
#
# 1 60.6836 2.7977 20.5030 8.0360 3.0330 -9.0924
# 2 2.7977 117.4789 30.8498 7.6413 -12.3486 -15.0151
# 3 20.5030 30.8498 126.8659 -7.0312 -14.5710 -3.9113
# 4 8.0360 7.6413 -7.0312 39.4951 -6.0002 -5.0532
# 5 3.0330 -12.3486 -14.5710 -6.0002 42.4459 3.5611
# 6 -9.0924 -15.0151 -3.9113 -5.0532 3.5611 45.3708
#
#
#
# Elastic Compliance Matrix: (Units=1/GPa)
#
#
# Indices 1 2 3 4 5 6 
#
# 1 0.019078 0.000971 -0.003866 -0.004819 -0.003386 0.003540
# 2 0.000971 0.009761 -0.002383 -0.001922 0.001438 0.002892
# 3 -0.003866 -0.002383 0.009650 0.003407 0.003430 -0.000621
# 4 -0.004819 -0.001922 0.003407 0.028197 0.004819 0.001454
# 5 -0.003386 0.001438 0.003430 0.004819 0.026198 -0.001427
# 6 0.003540 0.002892 -0.000621 0.001454 -0.001427 0.023928
#
#
# Mechanical properties :
#
#
# Convention : Reuss Voigt Hill
#
# Bulk Modulus (GPa) = 35.79954 45.92550 40.86252
# Shear Modulus (GPa) = 36.58228 42.18756 39.38492
#
# Velocity S-wave (km/s) = 3.98385 4.27819 4.13364
# Velocity P-wave (km/s) = 6.05747 6.65797 6.36481
#
# Compressibility (1/GPa) = 0.02793332
#
# Stress axis : x y z
#
# Youngs Moduli (GPa) = 52.41534 102.45354 103.62556
#
# Poissons Ratio (x) = -0.09948 0.40065
# Poissons Ratio (y) = -0.05089 0.24689
# Poissons Ratio (z) = 0.20265 0.24410
#
# Static dielectric constant tensor:
#      x y z
#    x 1.890430 0.038420 0.058620 
#    y 0.038420 1.843320 0.034530 
#    z 0.058620 0.034530 1.851810 
# 
# From -- ./inp_files/123818.got.cif
#   From: 2010.05.17/outbox.cif.g08.bks.cpg/sg2_62_cif.got.tgz:123818.got - 2010.06.03 11:33:40.
