data_PCOD9001165
_publ_section_title
;
Structure prediction by ZEFSAII (Michael W. Deem and Ramdas Pophale) SiO2 
 PCOD9001165
Probable space group: P -1
;
_chemical_formula_sum "Si O2"
_cell_formula_units_Z 16
_cell_length_a 10.886780
_cell_length_b 19.288082
_cell_length_c 12.812051
_cell_angle_alpha 47.712387
_cell_angle_beta 23.420140
_cell_angle_gamma 50.440019
_cell_volume 789.330348
_symmetry_space_group_name_H-M "P -1"
_symmetry_group_IT_number 2
_symmetry_cell_setting 'triclinic'
loop_
_space_group_symop_operation_xyz
x,y,z
-x,-y,-z
loop_
_atom_site_type_symbol
_atom_site_label
_atom_site_fract_x
_atom_site_fract_y
_atom_site_fract_z
Si Si1 0.243300 0.576164 0.048708
Si Si2 0.269886 0.546058 0.336041
Si Si3 0.930294 0.710703 0.987255
Si Si4 0.232857 0.288617 0.481041
Si Si5 0.671109 0.556562 0.220384
Si Si6 0.100905 0.095312 0.691860
Si Si7 0.446071 0.196563 0.627223
Si Si8 0.462996 0.999833 0.705537
O O1 0.974633 0.532594 0.369070
O O2 0.070474 0.623281 0.035775
O O3 0.485693 0.494137 0.899945
O O4 0.457434 0.657744 0.838175
O O5 0.464629 0.559134 0.275406
O O6 0.064465 0.639809 0.373340
O O7 0.726974 0.661283 0.110617
O O8 0.748074 0.778945 0.142553
O O9 0.221172 0.761072 0.664664
O O10 0.191882 0.201328 0.525419
O O11 0.277714 0.248596 0.605017
O O12 0.500000 0.500000 0.500000
O O13 0.000000 0.500000 0.000000
O O14 0.279360 0.042717 0.703441
O O15 0.222166 0.046397 0.540832
O O16 0.743871 0.078317 0.005597
O O17 0.484488 0.087227 0.677723
#
# Coordination Sequence:
#
# PCOD9001165 Si02
#       8
#     2   2   2   2   2   2   2   2
#     4  11  22  36  53  77 112 144 184 218 268 314
#     4  12  23  38  54  78 106 154 182 222 267 313
#     4  11  20  35  55  79 105 141 184 225 268 298
#     4  10  23  35  54  82 115 142 182 218 268 326
#     4  12  22  39  58  75 106 143 191 231 261 306
#     4   9  18  31  50  75 107 141 170 211 259 329
#     4  10  21  34  55  83 110 137 174 226 266 330
#     4   9  17  32  51  75 105 138 172 207 273 316
#
# _framework density 20.270347999999998
#
# number of rings (size 3 to 8) (size 9 to 14) (size 15 to 20)
#    0.000    1.500    2.500    3.750    0.000   10.000 
#    0.000    0.000    0.000    0.000    0.000    5.250 
#    0.000    0.000    0.000    0.000    0.000    0.000 
#
# Total GULP energy -89443.125201 kJ/mol
# GULP energy per Si atom -5590.195325 kJ/mol
# Density = 2.022421 g / cm^3
# Si number density = 20.270348 Si / 1000 Ang^3
#
#
#
# Elastic Constant Matrix: (Units=GPa)
#
#
# Indices 1 2 3 4 5 6 
#
# 1 66.7776 33.6578 31.4765 -2.6757 -16.7312 18.2753
# 2 33.6578 105.0209 31.5393 -4.2701 -6.9220 24.5479
# 3 31.4765 31.5393 96.4733 11.4657 2.4186 5.7614
# 4 -2.6757 -4.2701 11.4657 30.5804 8.0985 3.4575
# 5 -16.7312 -6.9220 2.4186 8.0985 24.6180 -4.2964
# 6 18.2753 24.5479 5.7614 3.4575 -4.2964 19.9572
#
#
#
# Elastic Compliance Matrix: (Units=1/GPa)
#
#
# Indices 1 2 3 4 5 6 
#
# 1 0.029308 -0.000638 -0.008986 0.004047 0.015663 -0.020788
# 2 -0.000638 0.015608 -0.004493 0.006136 -0.000862 -0.018565
# 3 -0.008986 -0.004493 0.015137 -0.006855 -0.004943 0.009509
# 4 0.004047 0.006136 -0.006855 0.041799 -0.011932 -0.019084
# 5 0.015663 -0.000862 -0.004943 -0.011932 0.055823 0.002230
# 6 -0.020788 -0.018565 0.009509 -0.019084 0.002230 0.093020
#
#
# Mechanical properties :
#
#
# Convention : Reuss Voigt Hill
#
# Bulk Modulus (GPa) = 31.42847 51.29099 41.35973
# Shear Modulus (GPa) = 17.26899 26.47100 21.86999
#
# Velocity S-wave (km/s) = 2.92196 3.61764 3.28825
# Velocity P-wave (km/s) = 5.18865 6.54279 5.90467
#
# Compressibility (1/GPa) = 0.03181829
#
# Stress axis : x y z
#
# Youngs Moduli (GPa) = 34.12042 64.06979 66.06283
#
# Poissons Ratio (x) = 0.04090 0.59363
# Poissons Ratio (y) = 0.02178 0.29683
# Poissons Ratio (z) = 0.30660 0.28788
#
# Static dielectric constant tensor:
#      x y z
#    x 1.733290 0.000850 0.007060 
#    y 0.000850 1.725290 0.002560 
#    z 0.007060 0.002560 1.709870 
# 
# From -- ./inp_files/523258.got.cif
#   From: 2010.05.17/outbox.cif.g08.bks.cpg/sg2_262_cif.got.tgz:523258.got - 2010.06.03 11:33:40.
