data_PCOD9001663
_publ_section_title
;
Structure prediction by ZEFSAII (Michael W. Deem and Ramdas Pophale) SiO2 
 PCOD9001663
Probable space group: P -1
;
_chemical_formula_sum "Si O2"
_cell_formula_units_Z 14
_cell_length_a 10.383292
_cell_length_b 14.037638
_cell_length_c 13.168121
_cell_angle_alpha 158.572685
_cell_angle_beta 55.633212
_cell_angle_gamma 125.930941
_cell_volume 566.679550
_symmetry_space_group_name_H-M "P -1"
_symmetry_group_IT_number 2
_symmetry_cell_setting 'triclinic'
loop_
_space_group_symop_operation_xyz
x,y,z
-x,-y,-z
loop_
_atom_site_type_symbol
_atom_site_label
_atom_site_fract_x
_atom_site_fract_y
_atom_site_fract_z
Si Si1 0.897525 0.912789 0.356044
Si Si2 0.381767 0.616249 0.444987
Si Si3 0.186799 0.048242 0.945348
Si Si4 0.588132 0.017179 0.371805
Si Si5 0.279968 0.665447 0.087665
Si Si6 0.185364 0.743739 0.974174
Si Si7 0.360166 0.310772 0.434906
O O1 0.016207 0.830325 0.138702
O O2 0.812225 0.160586 0.624683
O O3 0.771110 0.641523 0.164946
O O4 0.000000 0.000000 0.500000
O O5 0.272532 0.825064 0.734413
O O6 0.403772 0.692546 0.392230
O O7 0.553878 0.672688 0.476690
O O8 0.276932 0.329364 0.227033
O O9 0.240327 0.040720 0.794504
O O10 0.000000 0.000000 0.000000
O O11 0.500000 0.000000 0.500000
O O12 0.463891 0.803918 0.149230
O O13 0.225003 0.710121 0.042383
O O14 0.306488 0.998791 0.127860
O O15 0.212889 0.462412 0.641783
O O16 0.500000 0.500000 0.500000
#
# Coordination Sequence:
#
# PCOD9001663 Si02
#       7
#     2   2   2   2   2   2   2
#     4  10  21  35  60  91 122 167 202 247 314 390
#     4  10  22  42  67  92 124 168 216 265 326 383
#     4  10  22  42  69  94 125 169 215 268 328 384
#     4  10  24  41  68  97 127 168 218 272 325 382
#     4  11  20  37  61  91 124 160 210 250 316 387
#     4  11  20  38  59  86 125 165 205 253 314 373
#     4  12  23  38  62  91 122 165 217 259 304 380
#
# _framework density 24.705321999999999
#
# number of rings (size 3 to 8) (size 9 to 14) (size 15 to 20)
#    0.857    0.571    1.429    6.857    2.000    0.571 
#    0.000    4.286    0.000    0.000    0.000    0.000 
#    0.000    0.000    0.000    0.000    0.000    0.000 
#
# Total GULP energy -78168.854890 kJ/mol
# GULP energy per Si atom -5583.489635 kJ/mol
# Density = 2.464909 g / cm^3
# Si number density = 24.705322 Si / 1000 Ang^3
#
#
#
# Elastic Constant Matrix: (Units=GPa)
#
#
# Indices 1 2 3 4 5 6 
#
# 1 50.3390 15.7489 22.2476 -12.5188 -15.4559 23.5344
# 2 15.7489 97.9582 19.9202 -16.2677 -10.8393 16.5571
# 3 22.2476 19.9202 156.5521 20.0660 -25.5684 14.3455
# 4 -12.5188 -16.2677 20.0660 44.5039 11.8513 -1.7317
# 5 -15.4559 -10.8393 -25.5684 11.8513 31.3498 -7.8883
# 6 23.5344 16.5571 14.3455 -1.7317 -7.8883 41.8423
#
#
#
# Elastic Compliance Matrix: (Units=1/GPa)
#
#
# Indices 1 2 3 4 5 6 
#
# 1 0.032676 0.000180 -0.003261 0.008421 0.006357 -0.015785
# 2 0.000180 0.012097 -0.001915 0.005258 -0.000303 -0.004071
# 3 -0.003261 -0.001915 0.009521 -0.008219 0.008763 0.000640
# 4 0.008421 0.005258 -0.008219 0.034263 -0.015050 -0.005418
# 5 0.006357 -0.000303 0.008763 -0.015050 0.048272 0.002017
# 6 -0.015785 -0.004071 0.000640 -0.005418 0.002017 0.034325
#
#
# Mechanical properties :
#
#
# Convention : Reuss Voigt Hill
#
# Bulk Modulus (GPa) = 22.57323 46.74251 34.65787
# Shear Modulus (GPa) = 25.52149 40.00140 32.76145
#
# Velocity S-wave (km/s) = 3.21758 4.02822 3.64550
# Velocity P-wave (km/s) = 4.79172 6.37154 5.63724
#
# Compressibility (1/GPa) = 0.04430025
#
# Stress axis : x y z
#
# Youngs Moduli (GPa) = 30.60347 82.66712 105.03324
#
# Poissons Ratio (x) = -0.01484 0.34252
# Poissons Ratio (y) = -0.00550 0.20116
# Poissons Ratio (z) = 0.09980 0.15832
#
# Static dielectric constant tensor:
#      x y z
#    x 2.032420 -0.038870 -0.025230 
#    y -0.038870 2.019160 -0.080370 
#    z -0.025230 -0.080370 2.008880 
# 
# From -- ./inp_files/522019.got.cif
#   From: 2010.05.17/outbox.cif.g08.bks.cpg/sg2_262_cif.got.tgz:522019.got - 2010.06.03 11:33:40.
