data_PCOD9001640
_publ_section_title
;
Structure prediction by ZEFSAII (Michael W. Deem and Ramdas Pophale) SiO2 
 PCOD9001640
Probable space group: P -1
;
_chemical_formula_sum "Si O2"
_cell_formula_units_Z 16
_cell_length_a 12.501918
_cell_length_b 21.847388
_cell_length_c 9.287302
_cell_angle_alpha 29.128444
_cell_angle_beta 58.613194
_cell_angle_gamma 46.619247
_cell_volume 874.686304
_symmetry_space_group_name_H-M "P -1"
_symmetry_group_IT_number 2
_symmetry_cell_setting 'triclinic'
loop_
_space_group_symop_operation_xyz
x,y,z
-x,-y,-z
loop_
_atom_site_type_symbol
_atom_site_label
_atom_site_fract_x
_atom_site_fract_y
_atom_site_fract_z
Si Si1 0.413316 0.168193 0.148722
Si Si2 0.633132 0.161216 0.224753
Si Si3 0.143076 0.003416 0.854871
Si Si4 0.428491 0.771814 0.316040
Si Si5 0.098263 0.314139 0.179424
Si Si6 0.223840 0.429492 0.099060
Si Si7 0.495841 0.867243 0.352567
Si Si8 0.477340 0.482441 0.721339
O O1 0.485359 0.230282 0.081407
O O2 0.236659 0.241958 0.120288
O O3 0.500000 0.000000 0.500000
O O4 0.463613 0.186723 0.921171
O O5 0.775244 0.068006 0.210759
O O6 0.606976 0.078011 0.543469
O O7 0.613641 0.307985 0.010110
O O8 0.102486 0.173332 0.535768
O O9 0.267412 0.896746 0.104731
O O10 0.000000 0.000000 0.000000
O O11 0.435768 0.796850 0.426975
O O12 0.475831 0.607970 0.562198
O O13 0.156927 0.384521 0.107874
O O14 0.930012 0.437819 0.989277
O O15 0.338814 0.274841 0.422088
O O16 0.323031 0.493026 0.845711
O O17 0.500000 0.000000 0.000000
O O18 0.500000 0.500000 0.500000
#
# Coordination Sequence:
#
# PCOD9001640 Si02
#       8
#     2   2   2   2   2   2   2   2
#     4  11  17  34  58  87 110 152 206 246 284 344
#     4  10  21  35  60  87 117 154 200 246 292 348
#     4  11  22  37  60  91 116 156 203 255 299 348
#     4  11  22  34  64  89 115 160 200 245 301 356
#     4  11  19  35  59  83 123 147 204 248 303 344
#     4  10  23  35  55  91 117 159 189 258 304 345
#     4  11  22  40  62  87 122 157 204 243 298 369
#     4  11  18  36  57  87 120 144 204 252 290 354
#
# _framework density 18.292273999999999
#
# number of rings (size 3 to 8) (size 9 to 14) (size 15 to 20)
#    0.000    1.250    7.500    2.250    0.000    2.000 
#    0.000    1.250    0.000    0.000    0.000    0.000 
#    0.000    0.000    0.000    0.000    0.000    0.000 
#
# Total GULP energy -89103.023786 kJ/mol
# GULP energy per Si atom -5568.938987 kJ/mol
# Density = 1.825064 g / cm^3
# Si number density = 18.292274 Si / 1000 Ang^3
#
#
#
# Elastic Constant Matrix: (Units=GPa)
#
#
# Indices 1 2 3 4 5 6 
#
# 1 66.9978 50.9491 29.8885 5.2704 -7.3435 -11.6883
# 2 50.9491 103.9214 31.8159 10.8978 0.8907 -21.1598
# 3 29.8885 31.8159 87.9147 3.8304 -9.7706 -10.0318
# 4 5.2704 10.8978 3.8304 36.4239 0.8336 -2.3037
# 5 -7.3435 0.8907 -9.7706 0.8336 33.7046 -0.5428
# 6 -11.6883 -21.1598 -10.0318 -2.3037 -0.5428 46.1821
#
#
#
# Elastic Compliance Matrix: (Units=1/GPa)
#
#
# Indices 1 2 3 4 5 6 
#
# 1 0.026109 -0.011474 -0.004133 0.000012 0.004802 0.000510
# 2 -0.011474 0.017079 -0.002043 -0.002886 -0.003403 0.004294
# 3 -0.004133 -0.002043 0.014015 -0.000270 0.003240 0.001087
# 4 0.000012 -0.002886 -0.000270 0.028362 -0.000700 0.000029
# 5 0.004802 -0.003403 0.003240 -0.000700 0.031774 0.000699
# 6 0.000510 0.004294 0.001087 0.000029 0.000699 0.023996
#
#
# Mechanical properties :
#
#
# Convention : Reuss Voigt Hill
#
# Bulk Modulus (GPa) = 45.65151 53.79344 49.72248
# Shear Modulus (GPa) = 27.18351 33.00748 30.09550
#
# Velocity S-wave (km/s) = 3.85913 4.25249 4.06058
# Velocity P-wave (km/s) = 6.69837 7.32005 7.01610
#
# Compressibility (1/GPa) = 0.02190508
#
# Stress axis : x y z
#
# Youngs Moduli (GPa) = 38.30063 58.55058 71.35277
#
# Poissons Ratio (x) = 0.67179 0.29488
# Poissons Ratio (y) = 0.43945 0.14575
# Poissons Ratio (z) = 0.15829 0.11960
#
# Static dielectric constant tensor:
#      x y z
#    x 1.682390 -0.016550 -0.080310 
#    y -0.016550 1.749440 0.012000 
#    z -0.080310 0.012000 1.721710 
# 
# From -- ./inp_files/282628.got.cif
#   From: 2010.05.17/outbox.cif.g08.bks.cpg/sg2_142_cif.got.tgz:282628.got - 2010.06.03 11:33:40.
