data_PCOD9001099
_publ_section_title
;
Structure prediction by ZEFSAII (Michael W. Deem and Ramdas Pophale) SiO2 
 PCOD9001099
Probable space group: P -1
;
_chemical_formula_sum "Si O2"
_cell_formula_units_Z 14
_cell_length_a 17.672977
_cell_length_b 10.381516
_cell_length_c 7.665593
_cell_angle_alpha 83.995580
_cell_angle_beta 61.700482
_cell_angle_gamma 138.209523
_cell_volume 515.711443
_symmetry_space_group_name_H-M "P -1"
_symmetry_group_IT_number 2
_symmetry_cell_setting 'triclinic'
loop_
_space_group_symop_operation_xyz
x,y,z
-x,-y,-z
loop_
_atom_site_type_symbol
_atom_site_label
_atom_site_fract_x
_atom_site_fract_y
_atom_site_fract_z
Si Si1 0.271338 0.229343 0.237432
Si Si2 0.161456 0.116933 0.734623
Si Si3 0.634780 0.110561 0.089487
Si Si4 0.352151 0.583594 0.251615
Si Si5 0.981913 0.403789 0.247399
Si Si6 0.944009 0.194527 0.793437
Si Si7 0.344600 0.936674 0.551064
O O1 0.120356 0.002557 0.602241
O O2 0.292379 0.414964 0.172581
O O3 0.500000 0.500000 0.000000
O O4 0.189502 0.040801 0.189147
O O5 0.345672 0.462304 0.425509
O O6 0.177516 0.030570 0.873922
O O7 0.000000 0.000000 0.000000
O O8 0.561121 0.941013 0.019673
O O9 0.505147 0.063154 0.266097
O O10 0.579381 0.947873 0.347194
O O11 0.876336 0.470249 0.778827
O O12 0.166036 0.427405 0.511380
O O13 0.749280 0.084909 0.474881
O O14 0.128223 0.572395 0.895938
O O15 0.024331 0.609823 0.240646
#
# Coordination Sequence:
#
# PCOD9001099 Si02
#       7
#     2   2   2   2   2   2   2
#     4  10  21  34  48  76 108 136 178 215 250 314
#     4   8  20  34  49  74 107 137 176 208 255 316
#     4   9  14  28  44  67 106 128 160 228 251 297
#     4   9  18  31  48  73 105 136 172 207 262 305
#     4   9  16  26  46  74  98 132 171 210 259 312
#     4  11  18  33  55  71 108 140 171 209 261 310
#     4   8  16  26  42  70 103 124 169 219 258 296
#
# _framework density 27.146963
#
# number of rings (size 3 to 8) (size 9 to 14) (size 15 to 20)
#    1.714    1.143    1.429    1.286    0.000    0.571 
#    0.000    0.000    0.000    0.000    0.000    4.000 
#    8.571    9.714    0.000    0.000    0.000    0.000 
#
# Total GULP energy -77971.316398 kJ/mol
# GULP energy per Si atom -5569.379743 kJ/mol
# Density = 2.708518 g / cm^3
# Si number density = 27.146963 Si / 1000 Ang^3
#
#
#
# Elastic Constant Matrix: (Units=GPa)
#
#
# Indices 1 2 3 4 5 6 
#
# 1 91.0564 40.6395 54.1906 -13.0865 -11.0415 5.9613
# 2 40.6395 196.6061 49.7787 5.0360 9.4273 20.0857
# 3 54.1906 49.7787 93.8161 18.7262 -23.8859 5.2116
# 4 -13.0865 5.0360 18.7262 44.7804 8.3621 3.5719
# 5 -11.0415 9.4273 -23.8859 8.3621 46.9807 -1.9692
# 6 5.9613 20.0857 5.2116 3.5719 -1.9692 34.1056
#
#
#
# Elastic Compliance Matrix: (Units=1/GPa)
#
#
# Indices 1 2 3 4 5 6 
#
# 1 0.023704 0.000057 -0.018525 0.016229 -0.006892 -0.003444
# 2 0.000057 0.006940 -0.005200 0.002585 -0.004644 -0.003841
# 3 -0.018525 -0.005200 0.032729 -0.022146 0.017466 0.004627
# 4 0.016229 0.002585 -0.022146 0.039363 -0.015221 -0.005976
# 5 -0.006892 -0.004644 0.017466 -0.015221 0.032385 0.004735
# 6 -0.003444 -0.003841 0.004627 -0.005976 0.004735 0.032377
#
#
# Mechanical properties :
#
#
# Convention : Reuss Voigt Hill
#
# Bulk Modulus (GPa) = 62.35743 74.52181 68.43962
# Shear Modulus (GPa) = 22.70863 40.96466 31.83665
#
# Velocity S-wave (km/s) = 2.89538 3.88879 3.42826
# Velocity P-wave (km/s) = 5.84789 6.90467 6.39814
#
# Compressibility (1/GPa) = 0.01603658
#
# Stress axis : x y z
#
# Youngs Moduli (GPa) = 42.18757 144.09003 30.55359
#
# Poissons Ratio (x) = -0.00826 0.56601
# Poissons Ratio (y) = -0.00242 0.15889
# Poissons Ratio (z) = 0.78153 0.74934
#
# Static dielectric constant tensor:
#      x y z
#    x 2.375550 0.019160 0.078080 
#    y 0.019160 2.194460 0.047760 
#    z 0.078080 0.047760 2.142090 
# 
# From -- ./inp_files/220972.got.cif
#   From: 2010.05.17/outbox.cif.g08.bks.cpg/sg2_111_cif.got.tgz:220972.got - 2010.06.03 11:33:40.
