data_PCOD9001465
_publ_section_title
;
Structure prediction by ZEFSAII (Michael W. Deem and Ramdas Pophale) SiO2 
 PCOD9001465
Probable space group: P -1
;
_chemical_formula_sum "Si O2"
_cell_formula_units_Z 12
_cell_length_a 17.048402
_cell_length_b 21.244811
_cell_length_c 5.345416
_cell_angle_alpha 92.734604
_cell_angle_beta 98.049271
_cell_angle_gamma 15.824974
_cell_volume 494.876126
_symmetry_space_group_name_H-M "P -1"
_symmetry_group_IT_number 2
_symmetry_cell_setting 'triclinic'
loop_
_space_group_symop_operation_xyz
x,y,z
-x,-y,-z
loop_
_atom_site_type_symbol
_atom_site_label
_atom_site_fract_x
_atom_site_fract_y
_atom_site_fract_z
Si Si1 0.446333 0.694697 0.156350
Si Si2 0.447927 0.482981 0.159553
Si Si3 0.344431 0.225208 0.493095
Si Si4 0.907983 0.143549 0.685921
Si Si5 0.237260 0.445508 0.458670
Si Si6 0.826491 0.761932 0.842905
O O1 0.263145 0.776788 0.204105
O O2 0.550910 0.656888 0.423428
O O3 0.682269 0.476823 0.037670
O O4 0.242158 0.890245 0.905356
O O5 0.787634 0.212982 0.376492
O O6 0.229533 0.680115 0.309821
O O7 0.500000 0.500000 0.000000
O O8 0.427377 0.234127 0.479906
O O9 0.319858 0.195958 0.242209
O O10 0.000000 0.500000 0.500000
O O11 0.571071 0.012317 0.736282
O O12 0.045094 0.595801 0.662822
O O13 0.016253 0.620655 0.155103
#
# Coordination Sequence:
#
# PCOD9001465 Si02
#       6
#     2   2   2   2   2   2
#     4  10  21  35  56  83 116 157 201 252 300 352
#     4   9  18  35  55  81 106 152 200 249 301 358
#     4   9  21  43  69  95 124 166 208 248 310 381
#     4   9  19  37  58  78 113 159 206 245 297 360
#     4  11  24  40  61  97 130 163 206 260 312 366
#     4  10  23  42  66  92 129 166 203 254 311 374
#
# _framework density 24.248491000000001
#
# number of rings (size 3 to 8) (size 9 to 14) (size 15 to 20)
#    0.000    2.333    0.000    1.000    2.333   10.000 
#    6.000    0.000    0.000    0.000    0.000    0.000 
#    0.000    0.000    0.000    0.000    0.000    0.000 
#
# Total GULP energy -66915.821598 kJ/mol
# GULP energy per Si atom -5576.318466 kJ/mol
# Density = 2.419330 g / cm^3
# Si number density = 24.248491 Si / 1000 Ang^3
#
#
#
# Elastic Constant Matrix: (Units=GPa)
#
#
# Indices 1 2 3 4 5 6 
#
# 1 77.1011 42.4474 54.6824 -1.5835 27.4903 42.6241
# 2 42.4474 92.7557 46.6673 -10.3655 0.2209 45.3650
# 3 54.6824 46.6673 216.9687 0.2549 14.4582 41.8824
# 4 -1.5835 -10.3655 0.2549 21.8983 4.7585 -10.8541
# 5 27.4903 0.2209 14.4582 4.7585 43.6714 13.6489
# 6 42.6241 45.3650 41.8824 -10.8541 13.6489 44.2023
#
#
#
# Elastic Compliance Matrix: (Units=1/GPa)
#
#
# Indices 1 2 3 4 5 6 
#
# 1 0.035672 -0.002075 -0.002116 -0.010400 -0.011460 -0.029279
# 2 -0.002075 0.024743 -0.000181 -0.004275 0.010285 -0.027448
# 3 -0.002116 -0.000181 0.005968 -0.002722 0.001034 -0.004416
# 4 -0.010400 -0.004275 -0.002722 0.062906 -0.010542 0.035698
# 5 -0.011460 0.010285 0.001034 -0.010542 0.035226 -0.013951
# 6 -0.029279 -0.027448 -0.004416 0.035698 -0.013951 0.096284
#
#
# Mechanical properties :
#
#
# Convention : Reuss Voigt Hill
#
# Bulk Modulus (GPa) = 17.34947 74.93552 46.14249
# Shear Modulus (GPa) = 17.31559 38.15630 27.73594
#
# Velocity S-wave (km/s) = 2.67514 3.97111 3.38571
# Velocity P-wave (km/s) = 4.08806 7.21086 5.86126
#
# Compressibility (1/GPa) = 0.05763866
#
# Stress axis : x y z
#
# Youngs Moduli (GPa) = 28.03323 40.41466 167.56119
#
# Poissons Ratio (x) = 0.08386 0.35463
# Poissons Ratio (y) = 0.05817 0.03034
# Poissons Ratio (z) = 0.05933 0.00732
#
# Static dielectric constant tensor:
#      x y z
#    x 2.086900 -0.042940 0.033260 
#    y -0.042940 2.101770 0.022930 
#    z 0.033260 0.022930 1.958330 
# 
# From -- ./inp_files/33065.got.cif
#   From: 2010.05.17/outbox.cif.g08.bks.cpg/sg2_17_cif.got.tgz:33065.got - 2010.06.03 11:33:40.
