data_PCOD9001749
_publ_section_title
;
Structure prediction by ZEFSAII (Michael W. Deem and Ramdas Pophale) SiO2 
 PCOD9001749
Probable space group: P -1
;
_chemical_formula_sum "Si O2"
_cell_formula_units_Z 15
_cell_length_a 12.539513
_cell_length_b 22.405227
_cell_length_c 8.885341
_cell_angle_alpha 140.353328
_cell_angle_beta 50.047925
_cell_angle_gamma 154.246171
_cell_volume 680.096777
_symmetry_space_group_name_H-M "P -1"
_symmetry_group_IT_number 2
_symmetry_cell_setting 'triclinic'
loop_
_space_group_symop_operation_xyz
x,y,z
-x,-y,-z
loop_
_atom_site_type_symbol
_atom_site_label
_atom_site_fract_x
_atom_site_fract_y
_atom_site_fract_z
Si Si1 0.348682 0.260332 0.967968
Si Si2 0.756710 0.300677 0.155609
Si Si3 0.612029 0.384502 0.272458
Si Si4 0.293670 0.571254 0.288703
Si Si5 0.801082 0.027662 0.741873
Si Si6 0.876206 0.892991 0.630554
Si Si7 0.136701 0.340708 0.214551
Si Si8 0.500000 0.000000 0.000000
O O1 0.467179 0.288651 0.761183
O O2 0.548237 0.372722 0.137409
O O3 0.249056 0.307540 0.109804
O O4 0.114113 0.063597 0.838983
O O5 0.661638 0.303041 0.100485
O O6 0.734294 0.367227 0.436720
O O7 0.047395 0.438118 0.152062
O O8 0.606109 0.127516 0.010478
O O9 0.358931 0.267565 0.369670
O O10 0.836555 0.569739 0.502292
O O11 0.285213 0.469222 0.190438
O O12 0.014221 0.123386 0.614400
O O13 0.804371 0.943726 0.692038
O O14 0.548151 0.927686 0.713855
O O15 0.866114 0.161674 0.039396
#
# Coordination Sequence:
#
# PCOD9001749 Si02
#       8
#     2   2   2   2   2   2   2   1
#     4  11  23  38  60  86 121 163 192 244 300 367
#     4  10  22  36  61  86 117 155 197 253 293 351
#     4  11  23  39  58  87 125 157 195 242 308 358
#     4  10  21  39  58  86 117 154 202 247 296 346
#     4  10  21  35  62  90 116 151 200 256 294 341
#     4  10  22  38  58  89 119 155 198 249 302 347
#     4  10  22  36  59  91 113 150 199 250 293 344
#     4  12  18  36  60  94 112 148 202 250 298 340
#
# _framework density 22.055686000000001
#
# number of rings (size 3 to 8) (size 9 to 14) (size 15 to 20)
#    0.000    1.600    2.667    2.000   11.200    0.533 
#    0.000    0.000    0.000    3.200    0.000    0.000 
#    0.000    0.000    0.000    0.000    0.000    0.000 
#
# Total GULP energy -83525.214456 kJ/mol
# GULP energy per Si atom -5568.347630 kJ/mol
# Density = 2.200549 g / cm^3
# Si number density = 22.055686 Si / 1000 Ang^3
#
#
#
# Elastic Constant Matrix: (Units=GPa)
#
#
# Indices 1 2 3 4 5 6 
#
# 1 93.2560 -2.2520 19.7710 -4.4244 -11.5937 -2.2288
# 2 -2.2520 47.0586 0.8853 10.6933 3.2068 0.4115
# 3 19.7710 0.8853 61.7572 9.3882 -9.9935 -6.1785
# 4 -4.4244 10.6933 9.3882 24.5718 0.1891 0.2250
# 5 -11.5937 3.2068 -9.9935 0.1891 38.1059 2.2809
# 6 -2.2288 0.4115 -6.1785 0.2250 2.2809 22.6340
#
#
#
# Elastic Compliance Matrix: (Units=1/GPa)
#
#
# Indices 1 2 3 4 5 6 
#
# 1 0.012078 -0.000405 -0.004044 0.003878 0.002642 -0.000212
# 2 -0.000405 0.023797 0.001166 -0.010862 -0.001774 0.000132
# 3 -0.004044 0.001166 0.019888 -0.008906 0.003648 0.004730
# 4 0.003878 -0.010862 -0.008906 0.049549 -0.000349 -0.002309
# 5 0.002642 -0.001774 0.003648 -0.000349 0.028247 -0.001555
# 6 -0.000212 0.000132 0.004730 -0.002309 -0.001555 0.045629
#
#
# Mechanical properties :
#
#
# Convention : Reuss Voigt Hill
#
# Bulk Modulus (GPa) = 20.32693 26.54227 23.43460
# Shear Modulus (GPa) = 24.73374 29.30684 27.02029
#
# Velocity S-wave (km/s) = 3.35240 3.64918 3.50393
# Velocity P-wave (km/s) = 4.92148 5.46037 5.19791
#
# Compressibility (1/GPa) = 0.04919583
#
# Stress axis : x y z
#
# Youngs Moduli (GPa) = 82.79439 42.02259 50.28200
#
# Poissons Ratio (x) = 0.01703 0.20335
# Poissons Ratio (y) = 0.03355 -0.05863
# Poissons Ratio (z) = 0.33483 -0.04900
#
# Static dielectric constant tensor:
#      x y z
#    x 1.475970 -0.221960 0.045650 
#    y -0.221960 1.638780 0.086590 
#    z 0.045650 0.086590 1.875290 
# 
# From -- ./inp_files/212477.got.cif
#   From: 2010.05.17/outbox.cif.g08.bks.cpg/sg2_107_cif.got.tgz:212477.got - 2010.06.03 11:33:40.
