data_PCOD9001721
_publ_section_title
;
Structure prediction by ZEFSAII (Michael W. Deem and Ramdas Pophale) SiO2 
 PCOD9001721
Probable space group: P -1
;
_chemical_formula_sum "Si O2"
_cell_formula_units_Z 14
_cell_length_a 27.051489
_cell_length_b 15.226595
_cell_length_c 9.262558
_cell_angle_alpha 130.214541
_cell_angle_beta 38.802905
_cell_angle_gamma 162.232901
_cell_volume 629.869934
_symmetry_space_group_name_H-M "P -1"
_symmetry_group_IT_number 2
_symmetry_cell_setting 'triclinic'
loop_
_space_group_symop_operation_xyz
x,y,z
-x,-y,-z
loop_
_atom_site_type_symbol
_atom_site_label
_atom_site_fract_x
_atom_site_fract_y
_atom_site_fract_z
Si Si1 0.559317 0.216042 0.933330
Si Si2 0.712574 0.867007 0.861612
Si Si3 0.391197 0.797812 0.677980
Si Si4 0.193366 0.843968 0.556819
Si Si5 0.886240 0.718435 0.459996
Si Si6 0.761570 0.129154 0.211007
Si Si7 0.977279 0.649784 0.586364
O O1 0.695189 0.456062 0.743509
O O2 0.747712 0.404007 0.800694
O O3 0.375339 0.879361 0.916201
O O4 0.420637 0.115072 0.241256
O O5 0.816178 0.016874 0.625957
O O6 0.500000 0.500000 0.000000
O O7 0.927449 0.117600 0.732223
O O8 0.649911 0.908289 0.099857
O O9 0.203791 0.455003 0.672760
O O10 0.500000 0.000000 0.500000
O O11 0.594776 0.002378 0.499736
O O12 0.222208 0.924334 0.739577
O O13 0.067928 0.769122 0.669519
O O14 0.059046 0.537416 0.557458
O O15 0.000000 0.000000 0.500000
O O16 0.000000 0.500000 0.000000
#
# Coordination Sequence:
#
# PCOD9001721 Si02
#       7
#     2   2   2   2   2   2   2
#     4  10  21  41  63  96 133 161 218 261 322 385
#     4  11  24  42  67  90 129 169 214 270 316 391
#     4  10  21  35  61  94 125 162 209 268 313 369
#     4  11  23  37  68  94 133 170 206 272 326 373
#     4  10  22  40  65  94 124 172 214 261 321 382
#     4  12  22  41  62  98 129 162 223 263 320 384
#     4  10  22  39  62  99 125 168 209 264 323 376
#
# _framework density 22.226811999999999
#
# number of rings (size 3 to 8) (size 9 to 14) (size 15 to 20)
#    0.000    1.429    2.857    3.000    6.000    2.286 
#    0.000    0.714    3.143    2.571    0.000    0.000 
#    0.000    0.000    0.000    0.000    0.000    0.000 
#
# Total GULP energy -78133.615592 kJ/mol
# GULP energy per Si atom -5580.972542 kJ/mol
# Density = 2.217622 g / cm^3
# Si number density = 22.226812 Si / 1000 Ang^3
#
#
#
# Elastic Constant Matrix: (Units=GPa)
#
#
# Indices 1 2 3 4 5 6 
#
# 1 145.3678 28.1625 37.3844 -11.5101 18.8726 18.2083
# 2 28.1625 98.5406 35.4169 -19.7483 11.3372 -8.7061
# 3 37.3844 35.4169 114.3960 -20.8569 17.6921 0.6485
# 4 -11.5101 -19.7483 -20.8569 32.1754 -5.7585 3.8880
# 5 18.8726 11.3372 17.6921 -5.7585 28.5207 3.1334
# 6 18.2083 -8.7061 0.6485 3.8880 3.1334 31.8516
#
#
#
# Elastic Compliance Matrix: (Units=1/GPa)
#
#
# Indices 1 2 3 4 5 6 
#
# 1 0.008821 -0.001828 -0.001579 0.001055 -0.003335 -0.005311
# 2 -0.001828 0.013102 -0.002245 0.005051 -0.002054 0.004257
# 3 -0.001579 -0.002245 0.011470 0.004754 -0.004206 -0.000111
# 4 0.001055 0.005051 0.004754 0.038625 0.002615 -0.004292
# 5 -0.003335 -0.002054 -0.004206 0.002615 0.041550 -0.002976
# 6 -0.005311 0.004257 -0.000111 -0.004292 -0.002976 0.036414
#
#
# Mechanical properties :
#
#
# Convention : Reuss Voigt Hill
#
# Bulk Modulus (GPa) = 45.26683 62.24798 53.75740
# Shear Modulus (GPa) = 29.64765 35.66558 32.65661
#
# Velocity S-wave (km/s) = 3.65618 4.01012 3.83723
# Velocity P-wave (km/s) = 6.18333 7.03619 6.62350
#
# Compressibility (1/GPa) = 0.02209123
#
# Stress axis : x y z
#
# Youngs Moduli (GPa) = 113.36804 76.32517 87.18221
#
# Poissons Ratio (x) = 0.13950 0.13762
# Poissons Ratio (y) = 0.20720 0.19569
# Poissons Ratio (z) = 0.17896 0.17132
#
# Static dielectric constant tensor:
#      x y z
#    x 1.700330 -0.003860 0.021840 
#    y -0.003860 1.800370 0.069840 
#    z 0.021840 0.069840 1.792680 
# 
# From -- ./inp_files/294906.got.cif
#   From: 2010.05.17/outbox.cif.g08.bks.cpg/sg2_148_cif.got.tgz:294906.got - 2010.06.03 11:33:40.
