data_PCOD9001690
_publ_section_title
;
Structure prediction by ZEFSAII (Michael W. Deem and Ramdas Pophale) SiO2 
 PCOD9001690
Probable space group: P -1
;
_chemical_formula_sum "Si O2"
_cell_formula_units_Z 14
_cell_length_a 9.692082
_cell_length_b 7.746135
_cell_length_c 22.302905
_cell_angle_alpha 44.125626
_cell_angle_beta 27.357505
_cell_angle_gamma 48.552416
_cell_volume 534.166093
_symmetry_space_group_name_H-M "P -1"
_symmetry_group_IT_number 2
_symmetry_cell_setting 'triclinic'
loop_
_space_group_symop_operation_xyz
x,y,z
-x,-y,-z
loop_
_atom_site_type_symbol
_atom_site_label
_atom_site_fract_x
_atom_site_fract_y
_atom_site_fract_z
Si Si1 0.129905 0.285098 0.573824
Si Si2 0.718401 0.604279 0.838489
Si Si3 0.340546 0.723814 0.542870
Si Si4 0.523271 0.886791 0.164982
Si Si5 0.184044 0.215900 0.429999
Si Si6 0.781754 0.384237 0.160631
Si Si7 0.799651 0.074518 0.895563
O O1 0.392489 0.188532 0.540703
O O2 0.229854 0.258027 0.473424
O O3 0.797306 0.174661 0.727607
O O4 0.081031 0.580237 0.532068
O O5 0.789472 0.373220 0.822944
O O6 0.062245 0.656164 0.708982
O O7 0.566318 0.882782 0.813292
O O8 0.500000 0.500000 0.000000
O O9 0.500000 0.500000 0.500000
O O10 0.190555 0.921260 0.502878
O O11 0.681276 0.613714 0.187070
O O12 0.754176 0.000484 0.001057
O O13 0.482286 0.306254 0.262763
O O14 0.946688 0.120340 0.181136
O O15 0.000000 0.500000 0.000000
O O16 0.500000 0.000000 0.000000
#
# Coordination Sequence:
#
# PCOD9001690 Si02
#       7
#     2   2   2   2   2   2   2
#     4  10  22  40  65  97 124 171 222 260 328 392
#     4  10  22  40  61  91 131 167 214 275 321 387
#     4  12  25  39  67  98 135 174 218 273 333 394
#     4   9  19  38  62  84 124 165 205 269 313 392
#     4  10  21  39  67  91 129 170 218 271 320 393
#     4   9  19  37  60  93 127 166 213 266 332 385
#     4  10  21  35  61  88 121 165 213 261 326 388
#
# _framework density 26.209078000000002
#
# number of rings (size 3 to 8) (size 9 to 14) (size 15 to 20)
#    0.000    2.000    1.429    1.286    4.000    1.714 
#    0.000    0.714    6.286    0.000    0.000    0.000 
#    0.000    0.000    0.000    0.000    0.000    0.000 
#
# Total GULP energy -78031.990888 kJ/mol
# GULP energy per Si atom -5573.713635 kJ/mol
# Density = 2.614943 g / cm^3
# Si number density = 26.209078 Si / 1000 Ang^3
#
#
#
# Elastic Constant Matrix: (Units=GPa)
#
#
# Indices 1 2 3 4 5 6 
#
# 1 43.5405 40.8276 12.7547 2.3972 0.7217 -0.6115
# 2 40.8276 314.7751 25.1673 24.3811 -10.0978 20.2659
# 3 12.7547 25.1673 136.4505 8.0308 20.3887 -7.2672
# 4 2.3972 24.3811 8.0308 41.4103 -5.6287 -6.0070
# 5 0.7217 -10.0978 20.3887 -5.6287 20.8379 -2.5990
# 6 -0.6115 20.2659 -7.2672 -6.0070 -2.5990 35.6206
#
#
#
# Elastic Compliance Matrix: (Units=1/GPa)
#
#
# Indices 1 2 3 4 5 6 
#
# 1 0.026818 -0.003593 -0.001736 0.001188 -0.000360 0.002324
# 2 -0.003593 0.004112 -0.000720 -0.002223 0.001874 -0.002786
# 3 -0.001736 -0.000720 0.009313 -0.002465 -0.009924 0.001140
# 4 0.001188 -0.002223 -0.002465 0.028082 0.009655 0.006222
# 5 -0.000360 0.001874 -0.009924 0.009655 0.061606 0.003026
# 6 0.002324 -0.002786 0.001140 0.006222 0.003026 0.031201
#
#
# Mechanical properties :
#
#
# Convention : Reuss Voigt Hill
#
# Bulk Modulus (GPa) = 35.53181 72.47391 54.00286
# Shear Modulus (GPa) = 27.38056 47.30818 37.34437
#
# Velocity S-wave (km/s) = 3.23568 4.25317 3.77883
# Velocity P-wave (km/s) = 5.24843 7.19941 6.29990
#
# Compressibility (1/GPa) = 0.02814380
#
# Stress axis : x y z
#
# Youngs Moduli (GPa) = 37.28848 243.18350 107.38240
#
# Poissons Ratio (x) = 0.87370 0.18647
# Poissons Ratio (y) = 0.13397 0.07733
# Poissons Ratio (z) = 0.06475 0.17513
#
# Static dielectric constant tensor:
#      x y z
#    x 2.073670 -0.436610 -0.164600 
#    y -0.436610 6.284500 1.779820 
#    z -0.164600 1.779820 2.928250 
# 
# From -- ./inp_files/243496.got.cif
#   From: 2010.05.17/outbox.cif.g08.bks.cpg/sg2_122_cif.got.tgz:243496.got - 2010.06.03 11:33:40.
