data_PCOD9001035
_publ_section_title
;
Structure prediction by ZEFSAII (Michael W. Deem and Ramdas Pophale) SiO2 
 PCOD9001035
Probable space group: P -1
;
_chemical_formula_sum "Si O2"
_cell_formula_units_Z 14
_cell_length_a 13.394249
_cell_length_b 9.742076
_cell_length_c 14.834785
_cell_angle_alpha 30.610525
_cell_angle_beta 134.199432
_cell_angle_gamma 132.712924
_cell_volume 690.202619
_symmetry_space_group_name_H-M "P -1"
_symmetry_group_IT_number 2
_symmetry_cell_setting 'triclinic'
loop_
_space_group_symop_operation_xyz
x,y,z
-x,-y,-z
loop_
_atom_site_type_symbol
_atom_site_label
_atom_site_fract_x
_atom_site_fract_y
_atom_site_fract_z
Si Si1 0.370649 0.019725 0.343250
Si Si2 0.875292 0.987761 0.065082
Si Si3 0.559149 0.805943 0.903770
Si Si4 0.702242 0.376453 0.046733
Si Si5 0.920770 0.212258 0.157442
Si Si6 0.922537 0.394492 0.603364
Si Si7 0.007522 0.408737 0.280998
O O1 0.417516 0.004083 0.277388
O O2 0.327518 0.318007 0.159695
O O3 0.500000 0.000000 0.500000
O O4 0.236509 0.774426 0.417370
O O5 0.986099 0.827404 0.181939
O O6 0.904439 0.005594 0.180820
O O7 0.713099 0.841055 0.026091
O O8 0.908286 0.296553 0.871657
O O9 0.500000 0.500000 0.000000
O O10 0.435994 0.826841 0.885130
O O11 0.766049 0.254600 0.068455
O O12 0.838597 0.409747 0.180595
O O13 0.005364 0.199898 0.312524
O O14 0.000000 0.500000 0.000000
O O15 0.000000 0.500000 0.500000
O O16 0.931122 0.606170 0.572324
#
# Coordination Sequence:
#
# PCOD9001035 Si02
#       7
#     2   2   2   2   2   2   2
#     4  11  22  34  51  81 116 146 174 222 283 320
#     4  11  19  37  61  82 105 144 192 221 278 318
#     4  10  21  33  55  82 111 144 181 231 266 320
#     4   9  19  36  57  79 109 140 181 229 267 321
#     4   8  17  33  62  84 102 138 187 234 266 317
#     4  12  23  33  55  86 112 142 183 232 268 325
#     4   9  18  37  58  80 107 139 189 228 269 314
#
# _framework density 20.283897
#
# number of rings (size 3 to 8) (size 9 to 14) (size 15 to 20)
#    0.857    1.143    2.857    2.143    6.000    0.571 
#    0.000    0.714    0.000    2.571    0.000    0.000 
#    0.000    0.000    0.000    0.000    0.000    0.000 
#
# Total GULP energy -77980.847310 kJ/mol
# GULP energy per Si atom -5570.060522 kJ/mol
# Density = 2.023773 g / cm^3
# Si number density = 20.283897 Si / 1000 Ang^3
#
#
#
# Elastic Constant Matrix: (Units=GPa)
#
#
# Indices 1 2 3 4 5 6 
#
# 1 107.8768 44.7616 10.1547 -0.5641 -24.9735 11.0077
# 2 44.7616 142.6372 30.9097 20.8270 -10.7742 14.7272
# 3 10.1547 30.9097 49.6355 12.9579 -31.3427 1.7308
# 4 -0.5641 20.8270 12.9579 32.2937 -2.6586 -1.1391
# 5 -24.9735 -10.7742 -31.3427 -2.6586 37.8030 4.8976
# 6 11.0077 14.7272 1.7308 -1.1391 4.8976 53.8637
#
#
#
# Elastic Compliance Matrix: (Units=1/GPa)
#
#
# Indices 1 2 3 4 5 6 
#
# 1 0.015463 -0.005840 0.013129 0.000277 0.019947 -0.003793
# 2 -0.005840 0.011086 -0.011088 -0.003654 -0.010065 -0.000643
# 3 0.013129 -0.011088 0.067037 -0.014763 0.061049 -0.007669
# 4 0.000277 -0.003654 -0.014763 0.038474 -0.010809 0.003213
# 5 0.019947 -0.010065 0.061049 -0.010809 0.088111 -0.011526
# 6 -0.003793 -0.000643 -0.007669 0.003213 -0.011526 0.020879
#
#
# Mechanical properties :
#
#
# Convention : Reuss Voigt Hill
#
# Bulk Modulus (GPa) = 11.62952 52.42240 32.02596
# Shear Modulus (GPa) = 18.03024 39.08031 28.55527
#
# Velocity S-wave (km/s) = 2.98467 4.39414 3.75611
# Velocity P-wave (km/s) = 4.19803 7.18645 5.88509
#
# Compressibility (1/GPa) = 0.08598805
#
# Stress axis : x y z
#
# Youngs Moduli (GPa) = 64.66933 90.20508 14.91703
#
# Poissons Ratio (x) = 0.52677 -0.19584
# Poissons Ratio (y) = 0.37765 0.16540
# Poissons Ratio (z) = -0.84902 1.00022
#
# Static dielectric constant tensor:
#      x y z
#    x 1.758900 -0.053420 -0.005850 
#    y -0.053420 1.729400 -0.033530 
#    z -0.005850 -0.033530 1.784930 
# 
# From -- ./inp_files/530898.got.cif
#   From: 2010.05.17/outbox.cif.g08.bks.cpg/sg2_266_cif.got.tgz:530898.got - 2010.06.03 11:33:40.
