data_PCOD9001216
_publ_section_title
;
Structure prediction by ZEFSAII (Michael W. Deem and Ramdas Pophale) SiO2 
 PCOD9001216
Probable space group: P -1
;
_chemical_formula_sum "Si O2"
_cell_formula_units_Z 14
_cell_length_a 12.346302
_cell_length_b 9.612046
_cell_length_c 20.444387
_cell_angle_alpha 142.823620
_cell_angle_beta 31.562792
_cell_angle_gamma 126.056953
_cell_volume 735.442540
_symmetry_space_group_name_H-M "P -1"
_symmetry_group_IT_number 2
_symmetry_cell_setting 'triclinic'
loop_
_space_group_symop_operation_xyz
x,y,z
-x,-y,-z
loop_
_atom_site_type_symbol
_atom_site_label
_atom_site_fract_x
_atom_site_fract_y
_atom_site_fract_z
Si Si1 0.696531 0.476133 0.978340
Si Si2 0.296473 0.306637 0.085305
Si Si3 0.416382 0.680912 0.381415
Si Si4 0.548980 0.848376 0.850446
Si Si5 0.966592 0.951963 0.675350
Si Si6 0.828342 0.708725 0.126711
Si Si7 0.924336 0.160928 0.280219
O O1 0.717266 0.611067 0.951351
O O2 0.864729 0.208759 0.791525
O O3 0.455690 0.440123 0.088759
O O4 0.754636 0.610051 0.061078
O O5 0.062234 0.328744 0.244714
O O6 0.418529 0.025351 0.928477
O O7 0.501070 0.402342 0.214328
O O8 0.616723 0.786044 0.310797
O O9 0.304210 0.699163 0.517160
O O10 0.218385 0.818329 0.487206
O O11 0.804474 0.795309 0.684520
O O12 0.500000 0.000000 0.000000
O O13 0.953104 0.979868 0.771593
O O14 0.904315 0.945716 0.163870
O O15 0.000000 0.500000 0.000000
#
# Coordination Sequence:
#
# PCOD9001216 Si02
#       7
#     2   2   2   2   2   2   2
#     4  10  22  38  61  86 122 153 194 239 288 344
#     4  10  21  39  59  89 118 154 193 242 289 338
#     4  10  21  34  57  88 117 146 197 243 288 340
#     4  11  17  32  60  87 112 146 198 239 280 337
#     4   9  19  33  56  88 110 151 185 242 286 332
#     4  12  21  36  60  87 115 156 197 241 284 347
#     4  10  21  35  57  86 116 150 193 237 290 337
#
# _framework density 19.036158
#
# number of rings (size 3 to 8) (size 9 to 14) (size 15 to 20)
#    0.857    0.857    2.857    3.429    0.000    0.571 
#    0.000    1.429    0.000   10.286    0.000    0.000 
#    0.000    0.000    0.000    0.000    0.000    0.000 
#
# Total GULP energy -77991.171929 kJ/mol
# GULP energy per Si atom -5570.797995 kJ/mol
# Density = 1.899283 g / cm^3
# Si number density = 19.036158 Si / 1000 Ang^3
#
#
#
# Elastic Constant Matrix: (Units=GPa)
#
#
# Indices 1 2 3 4 5 6 
#
# 1 94.2190 43.2502 18.4150 -0.1564 5.1468 -7.0009
# 2 43.2502 101.5088 29.6555 -5.9802 1.3339 -9.6253
# 3 18.4150 29.6555 62.5294 -16.8552 -4.2975 -0.7852
# 4 -0.1564 -5.9802 -16.8552 29.4511 12.7647 -0.7655
# 5 5.1468 1.3339 -4.2975 12.7647 18.8036 1.6097
# 6 -7.0009 -9.6253 -0.7852 -0.7655 1.6097 30.0434
#
#
#
# Elastic Compliance Matrix: (Units=1/GPa)
#
#
# Indices 1 2 3 4 5 6 
#
# 1 0.013645 -0.005055 -0.001973 -0.000450 -0.003667 0.001694
# 2 -0.005055 0.013812 -0.004943 0.000660 -0.001449 0.003212
# 3 -0.001973 -0.004943 0.022173 0.012795 -0.002642 -0.000996
# 4 -0.000450 0.000660 0.012795 0.057172 -0.036139 0.003834
# 5 -0.003667 -0.001449 -0.002642 -0.036139 0.078775 -0.006529
# 6 0.001694 0.003212 -0.000996 0.003834 -0.006529 0.035130
#
#
# Mechanical properties :
#
#
# Convention : Reuss Voigt Hill
#
# Bulk Modulus (GPa) = 38.92980 48.98873 43.95927
# Shear Modulus (GPa) = 19.74629 26.78870 23.26750
#
# Velocity S-wave (km/s) = 3.22422 3.75541 3.49990
# Velocity P-wave (km/s) = 5.86137 6.67791 6.28292
#
# Compressibility (1/GPa) = 0.02568726
#
# Stress axis : x y z
#
# Youngs Moduli (GPa) = 73.28638 72.40155 45.10062
#
# Poissons Ratio (x) = 0.36600 0.08899
# Poissons Ratio (y) = 0.37047 0.22293
# Poissons Ratio (z) = 0.14460 0.35788
#
# Static dielectric constant tensor:
#      x y z
#    x 1.669830 0.043300 -0.010760 
#    y 0.043300 1.669690 -0.044160 
#    z -0.010760 -0.044160 1.723780 
# 
# From -- ./inp_files/593790.got.cif
#   From: 2010.05.17/outbox.cif.g08.bks.cpg/sg2_297_cif.got.tgz:593790.got - 2010.06.03 11:33:40.
