data_PCOD9001652
_publ_section_title
;
Structure prediction by ZEFSAII (Michael W. Deem and Ramdas Pophale) SiO2 
 PCOD9001652
Probable space group: P -1
;
_chemical_formula_sum "Si O2"
_cell_formula_units_Z 16
_cell_length_a 16.943026
_cell_length_b 16.195008
_cell_length_c 16.123340
_cell_angle_alpha 35.364727
_cell_angle_beta 145.749336
_cell_angle_gamma 163.072665
_cell_volume 716.681830
_symmetry_space_group_name_H-M "P -1"
_symmetry_group_IT_number 2
_symmetry_cell_setting 'triclinic'
loop_
_space_group_symop_operation_xyz
x,y,z
-x,-y,-z
loop_
_atom_site_type_symbol
_atom_site_label
_atom_site_fract_x
_atom_site_fract_y
_atom_site_fract_z
Si Si1 0.411557 0.962490 0.546107
Si Si2 0.931669 0.448599 0.168049
Si Si3 0.405638 0.284978 0.537573
Si Si4 0.588789 0.135631 0.876886
Si Si5 0.320765 0.471389 0.903830
Si Si6 0.875176 0.692146 0.483262
Si Si7 0.207571 0.929370 0.119304
Si Si8 0.187235 0.459624 0.613584
O O1 0.600595 0.028895 0.711304
O O2 0.530132 0.226498 0.438184
O O3 0.500000 0.000000 0.500000
O O4 0.080717 0.669451 0.515048
O O5 0.092227 0.588907 0.103984
O O6 0.036703 0.396899 0.349188
O O7 0.020435 0.676379 0.098795
O O8 0.600618 0.128740 0.132996
O O9 0.500000 0.500000 0.500000
O O10 0.493407 0.215043 0.716578
O O11 0.574807 0.443994 0.468155
O O12 0.083465 0.977463 0.482774
O O13 0.500000 0.000000 0.000000
O O14 0.245902 0.484379 0.740869
O O15 0.019551 0.197917 0.911566
O O16 0.540723 0.734627 0.945070
O O17 0.500000 0.500000 0.000000
O O18 0.890255 0.728657 0.367483
#
# Coordination Sequence:
#
# PCOD9001652 Si02
#       8
#     2   2   2   2   2   2   2   2
#     4  12  21  34  60  95 116 145 195 262 318 337
#     4  10  21  36  61  92 119 146 197 260 314 354
#     4  10  21  39  60  87 120 159 195 243 310 378
#     4  10  21  39  61  89 122 156 195 250 311 372
#     4  12  26  42  57  80 127 179 207 236 292 370
#     4  10  21  35  60  90 121 147 194 258 310 358
#     4  12  23  39  63  88 120 155 206 259 305 355
#     4  12  22  37  59  89 123 152 199 256 307 352
#
# _framework density 22.325109999999999
#
# number of rings (size 3 to 8) (size 9 to 14) (size 15 to 20)
#    0.000    1.000    3.750    3.750    3.500    0.000 
#    0.000    3.750    0.000    0.000    0.000    0.000 
#    0.000    0.000    0.000    0.000    0.000    0.000 
#
# Total GULP energy -89194.464239 kJ/mol
# GULP energy per Si atom -5574.654015 kJ/mol
# Density = 2.227430 g / cm^3
# Si number density = 22.325110 Si / 1000 Ang^3
#
#
#
# Elastic Constant Matrix: (Units=GPa)
#
#
# Indices 1 2 3 4 5 6 
#
# 1 89.6958 21.6030 19.1555 -0.4296 -4.7837 -15.8686
# 2 21.6030 115.7512 14.3977 -4.3146 4.8584 3.6915
# 3 19.1555 14.3977 16.1629 4.8512 1.0910 8.4867
# 4 -0.4296 -4.3146 4.8512 14.9121 3.9761 3.8214
# 5 -4.7837 4.8584 1.0910 3.9761 18.2889 -2.3985
# 6 -15.8686 3.6915 8.4867 3.8214 -2.3985 50.0761
#
#
#
# Elastic Compliance Matrix: (Units=1/GPa)
#
#
# Indices 1 2 3 4 5 6 
#
# 1 0.020951 -0.000239 -0.033420 0.006197 0.007793 0.012221
# 2 -0.000239 0.010523 -0.011284 0.007649 -0.003809 0.000295
# 3 -0.033420 -0.011284 0.140261 -0.039351 -0.009620 -0.030987
# 4 0.006197 0.007649 -0.039351 0.086563 -0.016796 0.000659
# 5 0.007793 -0.003809 -0.009620 -0.016796 0.063093 0.008684
# 6 0.012221 0.000295 -0.030987 0.000659 0.008684 0.029438
#
#
# Mechanical properties :
#
#
# Convention : Reuss Voigt Hill
#
# Bulk Modulus (GPa) = 12.21765 36.88025 24.54895
# Shear Modulus (GPa) = 10.68382 27.75232 19.21807
#
# Velocity S-wave (km/s) = 2.18997 3.52959 2.93717
# Velocity P-wave (km/s) = 3.44661 5.75900 4.74580
#
# Compressibility (1/GPa) = 0.08184877
#
# Stress axis : x y z
#
# Youngs Moduli (GPa) = 47.73042 95.03031 7.12956
#
# Poissons Ratio (x) = 0.02271 0.23827
# Poissons Ratio (y) = 0.01141 0.08045
# Poissons Ratio (z) = 1.59516 1.07231
#
# Static dielectric constant tensor:
#      x y z
#    x 1.875380 -0.091970 0.002250 
#    y -0.091970 1.789380 -0.091800 
#    z 0.002250 -0.091800 1.790740 
# 
# From -- ./inp_files/534266.got.cif
#   From: 2010.05.17/outbox.cif.g08.bks.cpg/sg2_268_cif.got.tgz:534266.got - 2010.06.03 11:33:40.
