data_PCOD9001867
_publ_section_title
;
Structure prediction by ZEFSAII (Michael W. Deem and Ramdas Pophale) SiO2 
 PCOD9001867
Probable space group: P -1
;
_chemical_formula_sum "Si O2"
_cell_formula_units_Z 12
_cell_length_a 6.950319
_cell_length_b 12.233785
_cell_length_c 15.445049
_cell_angle_alpha 37.438420
_cell_angle_beta 111.305000
_cell_angle_gamma 117.354185
_cell_volume 709.077703
_symmetry_space_group_name_H-M "P -1"
_symmetry_group_IT_number 2
_symmetry_cell_setting 'triclinic'
loop_
_space_group_symop_operation_xyz
x,y,z
-x,-y,-z
loop_
_atom_site_type_symbol
_atom_site_label
_atom_site_fract_x
_atom_site_fract_y
_atom_site_fract_z
Si Si1 0.258511 0.040625 0.837551
Si Si2 0.715002 0.961764 0.529120
Si Si3 0.901028 0.615452 0.343462
Si Si4 0.406761 0.404293 0.358404
Si Si5 0.158342 0.047036 0.629952
Si Si6 0.251326 0.749021 0.165611
O O1 0.144635 0.202191 0.735608
O O2 0.195133 0.964053 0.779034
O O3 0.518248 0.134776 0.827233
O O4 0.195354 0.883233 0.000411
O O5 0.668070 0.738214 0.644669
O O6 0.783751 0.044473 0.391557
O O7 0.500000 0.000000 0.500000
O O8 0.911612 0.040869 0.577072
O O9 0.664768 0.487100 0.353947
O O10 0.000000 0.500000 0.500000
O O11 0.066655 0.681161 0.249856
O O12 0.314428 0.262848 0.513124
O O13 0.300212 0.570953 0.240381
#
# Coordination Sequence:
#
# PCOD9001867 Si02
#       6
#     2   2   2   2   2   2
#     4  10  21  36  53  79 109 148 169 206 270 313
#     4   9  20  34  56  79 101 134 177 230 263 296
#     4  11  21  31  56  83 108 136 178 215 257 314
#     4   9  20  34  53  81 102 138 174 220 266 297
#     4   9  19  35  56  78 103 133 184 217 261 304
#     4  10  21  36  52  77 118 139 170 212 258 325
#
# _framework density 16.923390999999999
#
# number of rings (size 3 to 8) (size 9 to 14) (size 15 to 20)
#    1.000    1.333    0.000    2.500    4.667    2.667 
#    0.000    0.833    0.000    2.000    0.000    0.000 
#    0.000    0.000    0.000    0.000    0.000    0.000 
#
# Total GULP energy -66826.774357 kJ/mol
# GULP energy per Si atom -5568.897863 kJ/mol
# Density = 1.688487 g / cm^3
# Si number density = 16.923391 Si / 1000 Ang^3
#
#
#
# Elastic Constant Matrix: (Units=GPa)
#
#
# Indices 1 2 3 4 5 6 
#
# 1 121.6357 28.9587 53.2029 10.6653 -12.0688 10.9187
# 2 28.9587 56.8181 36.6272 15.8830 -6.0422 5.8392
# 3 53.2029 36.6272 115.2978 20.7584 -1.6050 8.2421
# 4 10.6653 15.8830 20.7584 22.8238 4.1636 0.3679
# 5 -12.0688 -6.0422 -1.6050 4.1636 22.8322 -8.0123
# 6 10.9187 5.8392 8.2421 0.3679 -8.0123 10.5178
#
#
#
# Elastic Compliance Matrix: (Units=1/GPa)
#
#
# Indices 1 2 3 4 5 6 
#
# 1 0.011335 -0.002092 -0.004050 -0.000754 0.003674 -0.004607
# 2 -0.002092 0.026853 -0.004574 -0.014833 0.007308 -0.003067
# 3 -0.004050 -0.004574 0.013574 -0.006550 -0.003396 -0.006252
# 4 -0.000754 -0.014833 -0.006550 0.063489 -0.016618 -0.000730
# 5 0.003674 0.007308 -0.003396 -0.016618 0.066662 0.046153
# 6 -0.004607 -0.003067 -0.006252 -0.000730 0.046153 0.141645
#
#
# Mechanical properties :
#
#
# Convention : Reuss Voigt Hill
#
# Bulk Modulus (GPa) = 32.96886 59.03657 46.00271
# Shear Modulus (GPa) = 14.08060 22.89896 18.48978
#
# Velocity S-wave (km/s) = 2.88760 3.68243 3.30897
# Velocity P-wave (km/s) = 5.53545 7.28291 6.46846
#
# Compressibility (1/GPa) = 0.03033166
#
# Stress axis : x y z
#
# Youngs Moduli (GPa) = 88.22468 37.23910 73.67176
#
# Poissons Ratio (x) = 0.07789 0.29834
# Poissons Ratio (y) = 0.18453 0.33697
# Poissons Ratio (z) = 0.35728 0.17033
#
# Static dielectric constant tensor:
#      x y z
#    x 1.563340 -0.003220 -0.013160 
#    y -0.003220 1.587590 -0.008480 
#    z -0.013160 -0.008480 1.563680 
# 
# From -- ./inp_files/31658.got.cif
#   From: 2010.05.17/outbox.cif.g08.bks.cpg/sg2_16_cif.got.tgz:31658.got - 2010.06.03 11:33:40.
