data_PCOD9001940
_publ_section_title
;
Structure prediction by ZEFSAII (Michael W. Deem and Ramdas Pophale) SiO2 
 PCOD9001940
Probable space group: P -1
;
_chemical_formula_sum "Si O2"
_cell_formula_units_Z 16
_cell_length_a 11.381438
_cell_length_b 15.108642
_cell_length_c 15.658089
_cell_angle_alpha 26.645047
_cell_angle_beta 109.179604
_cell_angle_gamma 125.875586
_cell_volume 825.170413
_symmetry_space_group_name_H-M "P -1"
_symmetry_group_IT_number 2
_symmetry_cell_setting 'triclinic'
loop_
_space_group_symop_operation_xyz
x,y,z
-x,-y,-z
loop_
_atom_site_type_symbol
_atom_site_label
_atom_site_fract_x
_atom_site_fract_y
_atom_site_fract_z
Si Si1 0.192997 0.222065 0.447101
Si Si2 0.440535 0.532723 0.697567
Si Si3 0.442097 0.619276 0.825381
Si Si4 0.111724 0.923278 0.174583
Si Si5 0.201692 0.595336 0.553869
Si Si6 0.921147 0.926295 0.784848
Si Si7 0.982132 0.322337 0.225052
Si Si8 0.221079 0.813210 0.543369
O O1 0.392666 0.395334 0.359265
O O2 0.145211 0.382560 0.254257
O O3 0.130013 0.983360 0.572942
O O4 0.082670 0.066852 0.640994
O O5 0.467920 0.600013 0.747892
O O6 0.381139 0.674528 0.518801
O O7 0.272810 0.213168 0.924189
O O8 0.575002 0.932551 0.616308
O O9 0.500000 0.500000 0.000000
O O10 0.236511 0.400971 0.978829
O O11 0.186978 0.795922 0.336088
O O12 0.955635 0.700520 0.267275
O O13 0.045131 0.983950 0.185710
O O14 0.181205 0.609764 0.637489
O O15 0.845981 0.050458 0.624913
O O16 0.879047 0.315560 0.281549
O O17 0.000000 0.500000 0.000000
#
# Coordination Sequence:
#
# PCOD9001940 Si02
#       8
#     2   2   2   2   2   2   2   2
#     4  10  21  38  54  83 120 151 187 230 283 344
#     4  11  21  36  57  86 115 149 190 235 286 337
#     4   9  17  32  54  83 114 144 191 226 280 334
#     4   9  20  40  62  84 106 149 195 244 285 327
#     4  10  21  37  60  85 114 143 196 243 285 332
#     4   8  17  34  60  80 112 152 184 233 286 334
#     4  10  21  36  55  79 119 160 188 223 281 343
#     4   9  17  35  54  86 111 149 191 235 273 340
#
# _framework density 19.389935000000001
#
# number of rings (size 3 to 8) (size 9 to 14) (size 15 to 20)
#    0.000    2.500    1.250    1.125    1.750    3.500 
#    2.250    0.625    0.000   12.000    0.000    0.000 
#    0.000    0.000    0.000    0.000    0.000    0.000 
#
# Total GULP energy -89176.218867 kJ/mol
# GULP energy per Si atom -5573.513679 kJ/mol
# Density = 1.934580 g / cm^3
# Si number density = 19.389935 Si / 1000 Ang^3
#
#
#
# Elastic Constant Matrix: (Units=GPa)
#
#
# Indices 1 2 3 4 5 6 
#
# 1 132.9134 59.7715 53.0913 6.2210 -9.1127 12.7193
# 2 59.7715 92.7220 55.2066 -4.6964 2.1093 2.1221
# 3 53.0913 55.2066 25.2302 18.6318 -17.8348 15.2855
# 4 6.2210 -4.6964 18.6318 18.2748 1.9927 6.7489
# 5 -9.1127 2.1093 -17.8348 1.9927 29.9453 6.0133
# 6 12.7193 2.1221 15.2855 6.7489 6.0133 26.3434
#
#
#
# Elastic Compliance Matrix: (Units=1/GPa)
#
#
# Indices 1 2 3 4 5 6 
#
# 1 0.012258 -0.007233 -0.001404 -0.003362 0.004572 -0.004704
# 2 -0.007233 0.007029 0.013322 -0.008509 0.006635 -0.004139
# 3 -0.001404 0.013322 -0.018748 0.021574 -0.015681 0.008536
# 4 -0.003362 -0.008509 0.021574 0.038760 0.014557 -0.023462
# 5 0.004572 0.006635 -0.015681 0.014557 0.024610 -0.002990
# 6 -0.004704 -0.004139 0.008536 -0.023462 -0.002990 0.042305
#
#
# Mechanical properties :
#
#
# Convention : Reuss Voigt Hill
#
# Bulk Modulus (GPa) = 100.92209 65.22271 83.07240
# Shear Modulus (GPa) = 49.92691 20.43243 35.17967
#
# Velocity S-wave (km/s) = 5.07984 3.24970 4.26411
# Velocity P-wave (km/s) = 9.30420 6.91311 8.19632
#
# Compressibility (1/GPa) = 0.00990863
#
# Stress axis : x y z
#
# Youngs Moduli (GPa) = 81.58024 142.27776 -53.33808
#
# Poissons Ratio (x) = 1.02906 -0.07486
# Poissons Ratio (y) = 0.59005 0.71055
# Poissons Ratio (z) = 0.11450 -1.89537
#
# Static dielectric constant tensor:
#      x y z
#    x 1.699240 0.023190 0.027260 
#    y 0.023190 1.690590 0.028430 
#    z 0.027260 0.028430 1.705980 
# 
# From -- ./inp_files/522163.got.cif
#   From: 2010.05.17/outbox.cif.g08.bks.cpg/sg2_262_cif.got.tgz:522163.got - 2010.06.03 11:33:40.
