data_PCOD9001082
_publ_section_title
;
Structure prediction by ZEFSAII (Michael W. Deem and Ramdas Pophale) SiO2 
 PCOD9001082
Probable space group: P -1
;
_chemical_formula_sum "Si O2"
_cell_formula_units_Z 16
_cell_length_a 9.668596
_cell_length_b 8.492785
_cell_length_c 9.465316
_cell_angle_alpha 79.526533
_cell_angle_beta 95.421755
_cell_angle_gamma 63.916244
_cell_volume 672.920913
_symmetry_space_group_name_H-M "P -1"
_symmetry_group_IT_number 2
_symmetry_cell_setting 'triclinic'
loop_
_space_group_symop_operation_xyz
x,y,z
-x,-y,-z
loop_
_atom_site_type_symbol
_atom_site_label
_atom_site_fract_x
_atom_site_fract_y
_atom_site_fract_z
Si Si1 0.446881 0.365781 0.370453
Si Si2 0.100507 0.115670 0.540177
Si Si3 0.914272 0.710015 0.991245
Si Si4 0.253583 0.203637 0.773970
Si Si5 0.562956 0.917518 0.808283
Si Si6 0.836798 0.490568 0.460474
Si Si7 0.368925 0.749553 0.311922
Si Si8 0.952433 0.961901 0.747245
O O1 0.457948 0.209661 0.291469
O O2 0.286429 0.436980 0.436070
O O3 0.440049 0.551099 0.279049
O O4 0.585960 0.293475 0.511266
O O5 0.225017 0.162852 0.617128
O O6 0.136830 0.076512 0.386684
O O7 0.919556 0.274071 0.493704
O O8 0.089979 0.976963 0.674483
O O9 0.731005 0.790835 0.914724
O O10 0.990563 0.812229 0.893426
O O11 0.895125 0.752603 0.148655
O O12 0.000000 0.500000 0.000000
O O13 0.243693 0.399941 0.709366
O O14 0.401192 0.017861 0.865199
O O15 0.570797 0.102977 0.738384
O O16 0.000000 0.500000 0.500000
O O17 0.185092 0.851399 0.238456
#
# Coordination Sequence:
#
# PCOD9001082 Si02
#       8
#     2   2   2   2   2   2   2   2
#     4  11  21  37  62  99 129 165 209 269 330 376
#     4  10  21  37  64  95 130 161 215 267 323 376
#     4  11  26  42  64  90 127 174 219 261 328 389
#     4  11  23  41  63  93 129 174 214 262 319 389
#     4  11  24  41  67  88 131 173 218 263 323 381
#     4  10  21  33  61  96 129 160 211 267 319 378
#     4  10  21  36  61  98 128 163 209 268 319 383
#     4  10  21  39  62  93 127 168 211 268 322 381
#
# _framework density 23.77694
#
# number of rings (size 3 to 8) (size 9 to 14) (size 15 to 20)
#    0.000    1.500    2.500    2.250   10.500    0.500 
#    0.000    1.250    0.000    4.500    0.000    0.000 
#    0.000    0.000    0.000    0.000    0.000    0.000 
#
# Total GULP energy -89115.707757 kJ/mol
# GULP energy per Si atom -5569.731735 kJ/mol
# Density = 2.372282 g / cm^3
# Si number density = 23.776940 Si / 1000 Ang^3
#
#
#
# Elastic Constant Matrix: (Units=GPa)
#
#
# Indices 1 2 3 4 5 6 
#
# 1 68.0678 33.7033 0.8095 2.0970 -3.8684 -1.2652
# 2 33.7033 144.6016 35.9128 -17.1706 -11.1040 -9.9014
# 3 0.8095 35.9128 48.4484 -1.4116 -11.1094 0.4869
# 4 2.0970 -17.1706 -1.4116 36.5949 -2.2315 3.4859
# 5 -3.8684 -11.1040 -11.1094 -2.2315 40.5392 -4.2193
# 6 -1.2652 -9.9014 0.4869 3.4859 -4.2193 45.9791
#
#
#
# Elastic Compliance Matrix: (Units=1/GPa)
#
#
# Indices 1 2 3 4 5 6 
#
# 1 0.017446 -0.005348 0.003817 -0.003264 0.001028 -0.000370
# 2 -0.005348 0.010847 -0.007632 0.004966 0.000848 0.001971
# 3 0.003817 -0.007632 0.027452 -0.002293 0.005551 -0.001146
# 4 -0.003264 0.004966 -0.002293 0.029978 0.001957 -0.001089
# 5 0.001028 0.000848 0.005551 0.001957 0.026884 0.002471
# 6 -0.000370 0.001971 -0.001146 -0.001089 0.002471 0.022485
#
#
# Mechanical properties :
#
#
# Convention : Reuss Voigt Hill
#
# Bulk Modulus (GPa) = 26.72447 44.66323 35.69385
# Shear Modulus (GPa) = 30.14037 37.33547 33.73792
#
# Velocity S-wave (km/s) = 3.56424 3.96692 3.77096
# Velocity P-wave (km/s) = 5.31060 6.30928 5.83136
#
# Compressibility (1/GPa) = 0.03741889
#
# Stress axis : x y z
#
# Youngs Moduli (GPa) = 57.31931 92.18888 36.42773
#
# Poissons Ratio (x) = 0.49306 -0.13906
# Poissons Ratio (y) = 0.30656 0.27802
# Poissons Ratio (z) = -0.21881 0.70359
#
# Static dielectric constant tensor:
#      x y z
#    x 2.037270 0.075360 0.015040 
#    y 0.075360 2.115240 -0.065400 
#    z 0.015040 -0.065400 1.952070 
# 
# From -- ./inp_files/238448.got.cif
#   From: 2010.05.17/outbox.cif.g08.bks.cpg/sg2_120_cif.got.tgz:238448.got - 2010.06.03 11:33:40.
