data_PCOD9001398
_publ_section_title
;
Structure prediction by ZEFSAII (Michael W. Deem and Ramdas Pophale) SiO2 
 PCOD9001398
Probable space group: P -1
;
_chemical_formula_sum "Si O2"
_cell_formula_units_Z 14
_cell_length_a 7.973385
_cell_length_b 16.005510
_cell_length_c 8.562919
_cell_angle_alpha 64.101887
_cell_angle_beta 98.182201
_cell_angle_gamma 138.724703
_cell_volume 615.834546
_symmetry_space_group_name_H-M "P -1"
_symmetry_group_IT_number 2
_symmetry_cell_setting 'triclinic'
loop_
_space_group_symop_operation_xyz
x,y,z
-x,-y,-z
loop_
_atom_site_type_symbol
_atom_site_label
_atom_site_fract_x
_atom_site_fract_y
_atom_site_fract_z
Si Si1 0.957884 0.787055 0.915951
Si Si2 0.977924 0.261098 0.710750
Si Si3 0.240888 0.534160 0.360728
Si Si4 0.783357 0.826820 0.129727
Si Si5 0.788855 0.545398 0.912731
Si Si6 0.529071 0.932902 0.426224
Si Si7 0.732668 0.349003 0.259451
O O1 0.078424 0.774800 0.083585
O O2 0.784629 0.788793 0.983787
O O3 0.794991 0.649338 0.897746
O O4 0.196390 0.934677 0.734213
O O5 0.719589 0.164679 0.647469
O O6 0.183138 0.432264 0.565777
O O7 0.103459 0.213488 0.725770
O O8 0.483368 0.710876 0.252780
O O9 0.953321 0.455720 0.339972
O O10 0.309885 0.502829 0.238906
O O11 0.000000 0.000000 0.000000
O O12 0.670842 0.420176 0.117285
O O13 0.097760 0.640133 0.853374
O O14 0.503908 0.818247 0.583870
O O15 0.500000 0.000000 0.500000
#
# Coordination Sequence:
#
# PCOD9001398 Si02
#       7
#     2   2   2   2   2   2   2
#     4  10  21  35  54  85 114 139 186 223 279 320
#     4   9  21  35  55  82 107 146 185 221 277 320
#     4   9  17  38  59  76 106 154 183 216 272 329
#     4  10  23  37  54  77 116 148 184 225 275 318
#     4   9  17  36  57  86 104 140 187 226 269 320
#     4  11  18  36  58  82 115 143 176 228 278 330
#     4   8  18  32  59  84 106 140 185 217 279 312
#
# _framework density 22.733377000000001
#
# number of rings (size 3 to 8) (size 9 to 14) (size 15 to 20)
#    1.714    0.857    1.429    0.857    0.000    2.857 
#    2.571    1.429    0.000    4.286    0.000    0.000 
#    0.000    0.000    0.000    0.000    0.000    0.000 
#
# Total GULP energy -78024.052168 kJ/mol
# GULP energy per Si atom -5573.146583 kJ/mol
# Density = 2.268163 g / cm^3
# Si number density = 22.733377 Si / 1000 Ang^3
#
#
#
# Elastic Constant Matrix: (Units=GPa)
#
#
# Indices 1 2 3 4 5 6 
#
# 1 51.2253 23.0833 25.2677 -21.6339 3.5811 -5.7093
# 2 23.0833 94.8246 49.7766 -43.4171 -0.5595 -7.4111
# 3 25.2677 49.7766 154.7002 -59.8633 15.6262 -4.5910
# 4 -21.6339 -43.4171 -59.8633 52.8741 -5.5179 2.0221
# 5 3.5811 -0.5595 15.6262 -5.5179 24.4446 -0.4544
# 6 -5.7093 -7.4111 -4.5910 2.0221 -0.4544 23.3360
#
#
#
# Elastic Compliance Matrix: (Units=1/GPa)
#
#
# Indices 1 2 3 4 5 6 
#
# 1 0.024426 -0.001896 0.000108 0.008199 -0.001754 0.004651
# 2 -0.001896 0.017819 -0.000449 0.013625 0.004123 0.004006
# 3 0.000108 -0.000449 0.012055 0.012780 -0.004828 0.001054
# 4 0.008199 0.013625 0.012780 0.047937 0.001850 0.004730
# 5 -0.001754 0.004123 -0.004828 0.001850 0.044776 0.000642
# 6 0.004651 0.004006 0.001054 0.004730 0.000642 0.045072
#
#
# Mechanical properties :
#
#
# Convention : Reuss Voigt Hill
#
# Bulk Modulus (GPa) = 20.06915 55.22283 37.64599
# Shear Modulus (GPa) = 23.45570 33.63911 28.54740
#
# Velocity S-wave (km/s) = 3.21561 3.85089 3.54750
# Velocity P-wave (km/s) = 4.75753 6.64204 5.77714
#
# Compressibility (1/GPa) = 0.04982772
#
# Stress axis : x y z
#
# Youngs Moduli (GPa) = 40.93968 56.12091 82.95039
#
# Poissons Ratio (x) = 0.10638 -0.00899
# Poissons Ratio (y) = 0.07761 0.03725
# Poissons Ratio (z) = -0.00444 0.02520
#
# Static dielectric constant tensor:
#      x y z
#    x 1.867750 0.022600 -0.040200 
#    y 0.022600 1.897710 0.008800 
#    z -0.040200 0.008800 1.854000 
# 
# From -- ./inp_files/212496.got.cif
#   From: 2010.05.17/outbox.cif.g08.bks.cpg/sg2_107_cif.got.tgz:212496.got - 2010.06.03 11:33:40.
