data_PCOD9001919
_publ_section_title
;
Structure prediction by ZEFSAII (Michael W. Deem and Ramdas Pophale) SiO2 
 PCOD9001919
Probable space group: P -1
;
_chemical_formula_sum "Si O2"
_cell_formula_units_Z 16
_cell_length_a 5.807029
_cell_length_b 23.859489
_cell_length_c 5.345533
_cell_angle_alpha 57.122120
_cell_angle_beta 83.534290
_cell_angle_gamma 97.443363
_cell_volume 601.703081
_symmetry_space_group_name_H-M "P -1"
_symmetry_group_IT_number 2
_symmetry_cell_setting 'triclinic'
loop_
_space_group_symop_operation_xyz
x,y,z
-x,-y,-z
loop_
_atom_site_type_symbol
_atom_site_label
_atom_site_fract_x
_atom_site_fract_y
_atom_site_fract_z
Si Si1 0.978521 0.273259 0.617810
Si Si2 0.180923 0.978947 0.834130
Si Si3 0.833273 0.889151 0.696964
Si Si4 0.780736 0.146345 0.644722
Si Si5 0.463903 0.766165 0.868553
Si Si6 0.598665 0.643295 0.304055
Si Si7 0.723017 0.518447 0.739955
Si Si8 0.852073 0.396991 0.177732
O O1 0.212939 0.311568 0.637507
O O2 0.950383 0.199467 0.680172
O O3 0.917391 0.325008 0.288215
O O4 0.777765 0.260964 0.885759
O O5 0.996288 0.929584 0.794810
O O6 0.300974 0.052291 0.526505
O O7 0.335011 0.928180 0.045854
O O8 0.000000 0.000000 0.000000
O O9 0.638466 0.818529 0.905842
O O10 0.034131 0.869749 0.540786
O O11 0.592029 0.186840 0.462752
O O12 0.562728 0.698203 0.966534
O O13 0.677652 0.572282 0.405710
O O14 0.365543 0.620046 0.559628
O O15 0.932269 0.560486 0.786766
O O16 0.500000 0.500000 0.000000
O O17 0.791985 0.446216 0.847737
#
# Coordination Sequence:
#
# PCOD9001919 Si02
#       8
#     2   2   2   2   2   2   2   2
#     4  10  21  36  54  81 114 147 187 233 280 331
#     4   9  20  40  62  82 109 145 183 228 279 332
#     4  10  22  41  60  81 111 145 184 229 279 335
#     4  11  22  37  57  82 113 146 184 230 280 334
#     4  11  22  35  56  84 112 146 188 230 277 335
#     4   9  17  31  51  77 112 148 186 232 278 328
#     4   8  13  25  47  78 112 145 186 233 276 323
#     4   8  15  27  49  80 108 145 192 229 273 331
#
# _framework density 26.591187999999999
#
# number of rings (size 3 to 8) (size 9 to 14) (size 15 to 20)
#    0.000    2.500    0.000    2.250    0.000    4.500 
#    0.000    8.750    0.000    0.750    0.000   86.625 
#    0.000    0.000    0.000    0.000    0.000    0.000 
#
# Total GULP energy -89467.324086 kJ/mol
# GULP energy per Si atom -5591.707755 kJ/mol
# Density = 2.653067 g / cm^3
# Si number density = 26.591188 Si / 1000 Ang^3
#
#
#
# Elastic Constant Matrix: (Units=GPa)
#
#
# Indices 1 2 3 4 5 6 
#
# 1 94.0216 13.2905 38.8600 -20.2418 -2.5826 4.7279
# 2 13.2905 97.2238 41.2836 -32.4966 6.9814 -17.9394
# 3 38.8600 41.2836 115.5352 -60.8132 38.8330 -26.9507
# 4 -20.2418 -32.4966 -60.8132 68.0605 -23.8249 14.1727
# 5 -2.5826 6.9814 38.8330 -23.8249 59.5304 -25.3225
# 6 4.7279 -17.9394 -26.9507 14.1727 -25.3225 35.3336
#
#
#
# Elastic Compliance Matrix: (Units=1/GPa)
#
#
# Indices 1 2 3 4 5 6 
#
# 1 0.013754 -0.000140 -0.006625 0.000146 0.002885 -0.004955
# 2 -0.000140 0.013772 -0.002497 0.004552 0.004639 0.006605
# 3 -0.006625 -0.002497 0.022542 0.013289 -0.006468 0.006847
# 4 0.000146 0.004552 0.013289 0.029485 0.004114 0.003549
# 5 0.002885 0.004639 -0.006468 0.004114 0.029177 0.016295
# 6 -0.004955 0.006605 0.006847 0.003549 0.016295 0.047795
#
#
# Mechanical properties :
#
#
# Convention : Reuss Voigt Hill
#
# Bulk Modulus (GPa) = 31.70057 54.84985 43.27521
# Shear Modulus (GPa) = 26.94540 46.80802 36.87671
#
# Velocity S-wave (km/s) = 3.18672 4.20012 3.72802
# Velocity P-wave (km/s) = 5.04853 6.64780 5.90258
#
# Compressibility (1/GPa) = 0.03154517
#
# Stress axis : x y z
#
# Youngs Moduli (GPa) = 72.70838 72.61207 44.36228
#
# Poissons Ratio (x) = 0.01014 0.29389
# Poissons Ratio (y) = 0.01016 0.11075
# Poissons Ratio (z) = 0.48167 0.18128
#
# Static dielectric constant tensor:
#      x y z
#    x 2.103520 -0.052900 0.142810 
#    y -0.052900 2.113650 -0.132840 
#    z 0.142810 -0.132840 2.281630 
# 
# From -- ./inp_files/10594.got.cif
#   From: 2010.05.17/outbox.cif.g08.bks.cpg/sg2_6_cif.got.tgz:10594.got - 2010.06.03 11:33:40.
