data_PCOD9001245
_publ_section_title
;
Structure prediction by ZEFSAII (Michael W. Deem and Ramdas Pophale) SiO2 
 PCOD9001245
Probable space group: P -1
;
_chemical_formula_sum "Si O2"
_cell_formula_units_Z 14
_cell_length_a 7.988298
_cell_length_b 12.074411
_cell_length_c 10.310306
_cell_angle_alpha 51.199583
_cell_angle_beta 134.475299
_cell_angle_gamma 109.416677
_cell_volume 542.770574
_symmetry_space_group_name_H-M "P -1"
_symmetry_group_IT_number 2
_symmetry_cell_setting 'triclinic'
loop_
_space_group_symop_operation_xyz
x,y,z
-x,-y,-z
loop_
_atom_site_type_symbol
_atom_site_label
_atom_site_fract_x
_atom_site_fract_y
_atom_site_fract_z
Si Si1 0.358484 0.705218 0.798990
Si Si2 0.616113 0.341951 0.582998
Si Si3 0.719737 0.526428 0.290828
Si Si4 0.763710 0.978081 0.208246
Si Si5 0.202258 0.900681 0.352904
Si Si6 0.852390 0.741166 0.624403
Si Si7 0.980579 0.788011 0.922382
O O1 0.343164 0.591721 0.758316
O O2 0.337451 0.853200 0.596878
O O3 0.122495 0.687713 0.764302
O O4 0.590554 0.671216 0.041484
O O5 0.592581 0.486485 0.380655
O O6 0.695937 0.200177 0.636272
O O7 0.356162 0.327823 0.502565
O O8 0.841580 0.324253 0.813801
O O9 0.000000 0.500000 0.500000
O O10 0.793429 0.904936 0.417635
O O11 0.937211 0.879506 0.270417
O O12 0.852610 0.128395 0.137144
O O13 0.500000 0.000000 0.000000
O O14 0.165783 0.072677 0.183237
O O15 0.830970 0.723773 0.780230
#
# Coordination Sequence:
#
# PCOD9001245 Si02
#       7
#     2   2   2   2   2   2   2
#     4   9  21  41  63  86 112 153 198 243 289 338
#     4  11  22  38  58  88 121 154 193 248 293 332
#     4  10  23  45  65  81 110 153 204 245 294 350
#     4   9  17  35  56  80 123 161 190 229 272 345
#     4   8  19  36  57  86 120 158 193 228 287 343
#     4  11  21  37  59  91 123 151 192 239 289 349
#     4  10  21  34  58  91 125 154 192 223 292 355
#
# _framework density 25.793585
#
# number of rings (size 3 to 8) (size 9 to 14) (size 15 to 20)
#    0.857    1.429    1.429    0.857    0.000    5.714 
#    2.571    4.286    0.000    0.000    0.000    0.000 
#    0.000    0.000    0.000    0.000    0.000    0.000 
#
# Total GULP energy -78179.923202 kJ/mol
# GULP energy per Si atom -5584.280229 kJ/mol
# Density = 2.573488 g / cm^3
# Si number density = 25.793585 Si / 1000 Ang^3
#
#
#
# Elastic Constant Matrix: (Units=GPa)
#
#
# Indices 1 2 3 4 5 6 
#
# 1 58.9029 23.3933 22.6169 11.2399 15.7809 -3.2863
# 2 23.3933 52.4300 22.7066 12.7154 2.8383 -20.7097
# 3 22.6169 22.7066 202.5891 21.3855 -1.2206 2.4360
# 4 11.2399 12.7154 21.3855 31.5260 10.7199 2.0415
# 5 15.7809 2.8383 -1.2206 10.7199 39.3308 6.2947
# 6 -3.2863 -20.7097 2.4360 2.0415 6.2947 41.4943
#
#
#
# Elastic Compliance Matrix: (Units=1/GPa)
#
#
# Indices 1 2 3 4 5 6 
#
# 1 0.023827 -0.010121 -0.001515 -0.000384 -0.008489 -0.001769
# 2 -0.010121 0.033014 -0.001670 -0.010241 0.001858 0.015995
# 3 -0.001515 -0.001670 0.005661 -0.003217 0.002010 -0.001433
# 4 -0.000384 -0.010241 -0.003217 0.041835 -0.009723 -0.005536
# 5 -0.008489 0.001858 0.002010 -0.009723 0.032091 -0.004253
# 6 -0.001769 0.015995 -0.001433 -0.005536 -0.004253 0.032945
#
#
# Mechanical properties :
#
#
# Convention : Reuss Voigt Hill
#
# Bulk Modulus (GPa) = 27.86328 50.15062 39.00695
# Shear Modulus (GPa) = 24.04445 38.81722 31.43083
#
# Velocity S-wave (km/s) = 3.05649 3.88354 3.49456
# Velocity P-wave (km/s) = 4.82514 6.29241 5.60698
#
# Compressibility (1/GPa) = 0.03588953
#
# Stress axis : x y z
#
# Youngs Moduli (GPa) = 41.96855 30.29055 176.63403
#
# Poissons Ratio (x) = 0.30657 0.26760
# Poissons Ratio (y) = 0.42477 0.29504
# Poissons Ratio (z) = 0.06358 0.05060
#
# Static dielectric constant tensor:
#      x y z
#    x 2.074950 -0.075270 -0.005410 
#    y -0.075270 2.109860 -0.015030 
#    z -0.005410 -0.015030 2.065380 
# 
# From -- ./inp_files/398675.got.cif
#   From: 2010.05.17/outbox.cif.g08.bks.cpg/sg2_200_cif.got.tgz:398675.got - 2010.06.03 11:33:40.
