data_PCOD9001743
_publ_section_title
;
Structure prediction by ZEFSAII (Michael W. Deem and Ramdas Pophale) SiO2 
 PCOD9001743
Probable space group: P -1
;
_chemical_formula_sum "Si O2"
_cell_formula_units_Z 16
_cell_length_a 10.931468
_cell_length_b 7.797216
_cell_length_c 12.207244
_cell_angle_alpha 116.349700
_cell_angle_beta 123.384281
_cell_angle_gamma 45.617477
_cell_volume 617.881957
_symmetry_space_group_name_H-M "P -1"
_symmetry_group_IT_number 2
_symmetry_cell_setting 'triclinic'
loop_
_space_group_symop_operation_xyz
x,y,z
-x,-y,-z
loop_
_atom_site_type_symbol
_atom_site_label
_atom_site_fract_x
_atom_site_fract_y
_atom_site_fract_z
Si Si1 0.932476 0.976084 0.273947
Si Si2 0.056533 0.661567 0.466702
Si Si3 0.471909 0.750583 0.790280
Si Si4 0.481759 0.365978 0.557416
Si Si5 0.343323 0.092569 0.610949
Si Si6 0.054462 0.248616 0.998709
Si Si7 0.285443 0.500759 0.977222
Si Si8 0.433722 0.811483 0.150472
O O1 0.006714 0.787469 0.357267
O O2 0.004890 0.855127 0.156190
O O3 0.715069 0.109454 0.192666
O O4 0.947583 0.173336 0.392227
O O5 0.273547 0.444192 0.492473
O O6 0.872159 0.686465 0.413696
O O7 0.513501 0.501392 0.702600
O O8 0.420731 0.916479 0.706705
O O9 0.632635 0.681559 0.931444
O O10 0.500000 0.500000 0.500000
O O11 0.627007 0.085453 0.520343
O O12 0.488645 0.150290 0.691802
O O13 0.931937 0.318084 0.067067
O O14 0.000000 0.500000 0.000000
O O15 0.264631 0.059884 0.084872
O O16 0.360384 0.655399 0.068600
O O17 0.379150 0.339897 0.871977
#
# Coordination Sequence:
#
# PCOD9001743 Si02
#       8
#     2   2   2   2   2   2   2   2
#     4   9  18  35  57  90 126 147 194 251 308 364
#     4   9  19  33  56  90 126 156 185 246 321 356
#     4   9  18  36  61  90 118 153 202 254 301 360
#     4   9  18  31  57  92 125 152 192 255 315 359
#     4  10  21  35  62  88 124 153 205 258 298 369
#     4  12  26  38  68  98 120 154 211 269 309 364
#     4  11  25  43  65  81 127 174 205 254 308 374
#     4  11  26  46  57  89 126 171 211 246 314 369
#
# _framework density 25.894909999999999
#
# number of rings (size 3 to 8) (size 9 to 14) (size 15 to 20)
#    0.000    2.000    1.250    3.375   10.500    1.000 
#    0.000    0.625    0.000    1.500    0.000    0.000 
#    0.000    0.000    0.000    0.000    0.000    0.000 
#
# Total GULP energy -89388.165444 kJ/mol
# GULP energy per Si atom -5586.760340 kJ/mol
# Density = 2.583597 g / cm^3
# Si number density = 25.894910 Si / 1000 Ang^3
#
#
#
# Elastic Constant Matrix: (Units=GPa)
#
#
# Indices 1 2 3 4 5 6 
#
# 1 97.2128 36.4263 18.3009 7.1407 6.8224 -30.9764
# 2 36.4263 115.6721 44.9507 -3.5882 -0.1598 -13.5969
# 3 18.3009 44.9507 50.2390 -11.2401 10.9815 -7.3406
# 4 7.1407 -3.5882 -11.2401 31.6202 -5.2523 2.6755
# 5 6.8224 -0.1598 10.9815 -5.2523 31.4060 0.8023
# 6 -30.9764 -13.5969 -7.3406 2.6755 0.8023 43.8377
#
#
#
# Elastic Compliance Matrix: (Units=1/GPa)
#
#
# Indices 1 2 3 4 5 6 
#
# 1 0.015907 -0.003279 -0.001825 -0.006177 -0.004132 0.010370
# 2 -0.003279 0.014964 -0.013700 -0.001550 0.005319 0.000028
# 3 -0.001825 -0.013700 0.037620 0.010358 -0.011104 0.000332
# 4 -0.006177 -0.001550 0.010358 0.037680 0.004154 -0.005487
# 5 -0.004132 0.005319 -0.011104 0.004154 0.037447 -0.004068
# 6 0.010370 0.000028 0.000332 -0.005487 -0.004068 0.030613
#
#
# Mechanical properties :
#
#
# Convention : Reuss Voigt Hill
#
# Bulk Modulus (GPa) = 32.37793 51.38663 41.88228
# Shear Modulus (GPa) = 22.50912 32.26918 27.38915
#
# Velocity S-wave (km/s) = 2.95150 3.53393 3.25576
# Velocity P-wave (km/s) = 4.91385 6.04474 5.50839
#
# Compressibility (1/GPa) = 0.03088524
#
# Stress axis : x y z
#
# Youngs Moduli (GPa) = 62.86636 66.82731 26.58135
#
# Poissons Ratio (x) = 0.21909 0.04850
# Poissons Ratio (y) = 0.20611 0.36416
# Poissons Ratio (z) = 0.11470 0.91553
#
# Static dielectric constant tensor:
#      x y z
#    x 2.174360 0.083990 -0.020310 
#    y 0.083990 2.060540 -0.021910 
#    z -0.020310 -0.021910 1.970290 
# 
# From -- ./inp_files/455711.got.cif
#   From: 2010.05.17/outbox.cif.g08.bks.cpg/sg2_228_cif.got.tgz:455711.got - 2010.06.03 11:33:40.
