data_PCOD9001629
_publ_section_title
;
Structure prediction by ZEFSAII (Michael W. Deem and Ramdas Pophale) SiO2 
 PCOD9001629
Probable space group: P -1
;
_chemical_formula_sum "Si O2"
_cell_formula_units_Z 16
_cell_length_a 19.616032
_cell_length_b 13.639027
_cell_length_c 9.120986
_cell_angle_alpha 62.032971
_cell_angle_beta 114.115313
_cell_angle_gamma 163.183093
_cell_volume 615.736990
_symmetry_space_group_name_H-M "P -1"
_symmetry_group_IT_number 2
_symmetry_cell_setting 'triclinic'
loop_
_space_group_symop_operation_xyz
x,y,z
-x,-y,-z
loop_
_atom_site_type_symbol
_atom_site_label
_atom_site_fract_x
_atom_site_fract_y
_atom_site_fract_z
Si Si1 0.766360 0.068300 0.332011
Si Si2 0.035712 0.781126 0.856720
Si Si3 0.560769 0.991194 0.915721
Si Si4 0.776045 0.174510 0.704571
Si Si5 0.717221 0.775596 0.613365
Si Si6 0.265701 0.444724 0.282814
Si Si7 0.321813 0.779663 0.629654
Si Si8 0.830197 0.002192 0.847480
O O1 0.780874 0.037152 0.201499
O O2 0.964569 0.441014 0.265303
O O3 0.856351 0.088041 0.488914
O O4 0.506155 0.746665 0.368873
O O5 0.803301 0.372289 0.940652
O O6 0.938277 0.755945 0.707977
O O7 0.133630 0.962330 0.971444
O O8 0.610267 0.987738 0.818208
O O9 0.465435 0.970722 0.773100
O O10 0.381988 0.671917 0.085193
O O11 0.766795 0.230088 0.507672
O O12 0.723499 0.974546 0.766587
O O13 0.500000 0.500000 0.500000
O O14 0.829537 0.813810 0.654288
O O15 0.677817 0.717911 0.795581
O O16 0.098621 0.385574 0.748100
O O17 0.500000 0.000000 0.500000
#
# Coordination Sequence:
#
# PCOD9001629 Si02
#       8
#     2   2   2   2   2   2   2   2
#     4  10  22  43  64  95 129 162 213 264 318 380
#     4  11  24  39  68  98 126 162 212 265 323 382
#     4  10  21  40  59  98 133 156 205 265 324 381
#     4  10  21  37  66  94 126 165 201 272 326 363
#     4  10  25  44  64  88 127 174 220 260 307 378
#     4  11  22  40  64  87 129 174 205 260 315 369
#     4  10  21  35  59  96 131 159 201 264 320 380
#     4  12  22  40  65  96 125 165 219 255 315 386
#
# _framework density 25.985119999999998
#
# number of rings (size 3 to 8) (size 9 to 14) (size 15 to 20)
#    0.000    1.500    2.500    2.250    1.750    4.000 
#    0.000    5.625    5.500    0.000    0.000    0.000 
#    0.000    0.000    0.000    0.000    0.000    0.000 
#
# Total GULP energy -89244.516546 kJ/mol
# GULP energy per Si atom -5577.782284 kJ/mol
# Density = 2.592598 g / cm^3
# Si number density = 25.985120 Si / 1000 Ang^3
#
#
#
# Elastic Constant Matrix: (Units=GPa)
#
#
# Indices 1 2 3 4 5 6 
#
# 1 138.3963 9.8608 25.6589 7.6048 -1.7801 6.0767
# 2 9.8608 46.8366 36.3714 18.0612 -15.2516 1.6034
# 3 25.6589 36.3714 130.0248 15.5702 -2.3859 -10.0078
# 4 7.6048 18.0612 15.5702 43.9408 1.0504 -5.3835
# 5 -1.7801 -15.2516 -2.3859 1.0504 62.4903 6.9153
# 6 6.0767 1.6034 -10.0078 -5.3835 6.9153 28.8002
#
#
#
# Elastic Compliance Matrix: (Units=1/GPa)
#
#
# Indices 1 2 3 4 5 6 
#
# 1 0.007697 0.000445 -0.001684 -0.001251 0.000573 -0.002605
# 2 0.000445 0.037713 -0.009620 -0.013708 0.010249 -0.010560
# 3 -0.001684 -0.009620 0.010960 0.001102 -0.002608 0.005532
# 4 -0.001251 -0.013708 0.001102 0.029314 -0.004720 0.008023
# 5 0.000573 0.010249 -0.002608 -0.004720 0.019287 -0.007111
# 6 -0.002605 -0.010560 0.005532 0.008023 -0.007111 0.040989
#
#
# Mechanical properties :
#
#
# Convention : Reuss Voigt Hill
#
# Bulk Modulus (GPa) = 28.85807 51.00443 39.93125
# Shear Modulus (GPa) = 27.89745 43.27069 35.58407
#
# Velocity S-wave (km/s) = 3.28013 4.08513 3.70456
# Velocity P-wave (km/s) = 5.04731 6.47472 5.80505
#
# Compressibility (1/GPa) = 0.03465235
#
# Stress axis : x y z
#
# Youngs Moduli (GPa) = 129.92828 26.51606 91.24019
#
# Poissons Ratio (x) = -0.01181 0.15361
# Poissons Ratio (y) = -0.05786 0.87777
# Poissons Ratio (z) = 0.21874 0.25509
#
# Static dielectric constant tensor:
#      x y z
#    x 2.128270 -0.004030 0.014830 
#    y -0.004030 2.148960 -0.011370 
#    z 0.014830 -0.011370 2.108340 
# 
# From -- ./inp_files/347550.got.cif
#   From: 2010.05.17/outbox.cif.g08.bks.cpg/sg2_174_cif.got.tgz:347550.got - 2010.06.03 11:33:40.
