data_PCOD9001625
_publ_section_title
;
Structure prediction by ZEFSAII (Michael W. Deem and Ramdas Pophale) SiO2 
 PCOD9001625
Probable space group: P -1
;
_chemical_formula_sum "Si O2"
_cell_formula_units_Z 16
_cell_length_a 10.042816
_cell_length_b 12.063708
_cell_length_c 11.695998
_cell_angle_alpha 47.794553
_cell_angle_beta 101.003621
_cell_angle_gamma 127.102131
_cell_volume 780.090990
_symmetry_space_group_name_H-M "P -1"
_symmetry_group_IT_number 2
_symmetry_cell_setting 'triclinic'
loop_
_space_group_symop_operation_xyz
x,y,z
-x,-y,-z
loop_
_atom_site_type_symbol
_atom_site_label
_atom_site_fract_x
_atom_site_fract_y
_atom_site_fract_z
Si Si1 0.746667 0.103826 0.443659
Si Si2 0.721075 0.686068 0.087047
Si Si3 0.184405 0.714121 0.916160
Si Si4 0.985384 0.850785 0.836622
Si Si5 0.876299 0.752437 0.517640
Si Si6 0.657584 0.545347 0.417883
Si Si7 0.331326 0.508515 0.125657
Si Si8 0.598919 0.288599 0.393172
O O1 0.734930 0.165892 0.271997
O O2 0.689967 0.194335 0.457806
O O3 0.943524 0.188150 0.443100
O O4 0.598150 0.867683 0.584414
O O5 0.714479 0.693788 0.218462
O O6 0.537189 0.622372 0.053486
O O7 0.707723 0.495573 0.201468
O O8 0.896024 0.860205 0.927002
O O9 0.121979 0.813357 0.909096
O O10 0.301509 0.665715 0.021427
O O11 0.000000 0.500000 0.000000
O O12 0.815199 0.664108 0.866490
O O13 0.085926 0.046930 0.641386
O O14 0.819712 0.638928 0.466906
O O15 0.720241 0.608652 0.682510
O O16 0.500000 0.500000 0.500000
O O17 0.595228 0.350121 0.478094
#
# Coordination Sequence:
#
# PCOD9001625 Si02
#       8
#     2   2   2   2   2   2   2   2
#     4  11  21  39  66  97 130 160 222 271 316 374
#     4  10  22  40  62  87 134 167 212 259 330 376
#     4  10  21  35  59  94 132 155 204 273 332 357
#     4  11  23  36  63  98 127 162 216 277 315 368
#     4  12  23  37  68  96 126 170 223 256 315 396
#     4  10  23  41  63  89 131 179 208 257 324 390
#     4  11  21  37  64  93 128 167 216 264 326 379
#     4   9  22  39  63  93 128 169 206 269 320 373
#
# _framework density 20.510428000000001
#
# number of rings (size 3 to 8) (size 9 to 14) (size 15 to 20)
#    0.750    0.750    3.750    3.000    3.500    3.000 
#    0.000    0.000    0.000    3.000    0.000    0.000 
#    0.000    0.000    0.000    0.000    0.000    0.000 
#
# Total GULP energy -89279.947647 kJ/mol
# GULP energy per Si atom -5579.996728 kJ/mol
# Density = 2.046375 g / cm^3
# Si number density = 20.510428 Si / 1000 Ang^3
#
#
#
# Elastic Constant Matrix: (Units=GPa)
#
#
# Indices 1 2 3 4 5 6 
#
# 1 94.2768 27.6955 30.7853 -3.1867 -3.6418 -19.9130
# 2 27.6955 63.5798 10.8094 5.9792 -0.8692 -7.8656
# 3 30.7853 10.8094 94.1320 5.9707 -4.0682 -7.4899
# 4 -3.1867 5.9792 5.9707 23.4938 -7.3205 -3.6709
# 5 -3.6418 -0.8692 -4.0682 -7.3205 27.1103 3.4345
# 6 -19.9130 -7.8656 -7.4899 -3.6709 3.4345 22.0860
#
#
#
# Elastic Compliance Matrix: (Units=1/GPa)
#
#
# Indices 1 2 3 4 5 6 
#
# 1 0.016560 -0.005623 -0.004162 0.007239 0.001799 0.012440
# 2 -0.005623 0.018825 0.000052 -0.006007 -0.001886 0.000947
# 3 -0.004162 0.000052 0.012202 -0.003615 0.000329 -0.000248
# 4 0.007239 -0.006007 -0.003615 0.051539 0.012923 0.009718
# 5 0.001799 -0.001886 0.000329 0.012923 0.041008 -0.003167
# 6 0.012440 0.000947 -0.000248 0.009718 -0.003167 0.058855
#
#
# Mechanical properties :
#
#
# Convention : Reuss Voigt Hill
#
# Bulk Modulus (GPa) = 35.55968 43.39656 39.47812
# Shear Modulus (GPa) = 21.94644 26.71791 24.33218
#
# Velocity S-wave (km/s) = 3.27466 3.61314 3.44805
# Velocity P-wave (km/s) = 5.62786 6.21374 5.92804
#
# Compressibility (1/GPa) = 0.02812174
#
# Stress axis : x y z
#
# Youngs Moduli (GPa) = 60.38794 53.12052 81.95215
#
# Poissons Ratio (x) = 0.29870 0.34105
# Poissons Ratio (y) = 0.33957 -0.00427
# Poissons Ratio (z) = 0.25131 -0.00277
#
# Static dielectric constant tensor:
#      x y z
#    x 1.734620 -0.023710 -0.023170 
#    y -0.023710 1.746920 0.002900 
#    z -0.023170 0.002900 1.810700 
# 
# From -- ./inp_files/389113.got.cif
#   From: 2010.05.17/outbox.cif.g08.bks.cpg/sg2_195_cif.got.tgz:389113.got - 2010.06.03 11:33:40.
