data_PCOD9001535
_publ_section_title
;
Structure prediction by ZEFSAII (Michael W. Deem and Ramdas Pophale) SiO2 
 PCOD9001535
Probable space group: P -1
;
_chemical_formula_sum "Si O2"
_cell_formula_units_Z 16
_cell_length_a 9.000063
_cell_length_b 11.829478
_cell_length_c 9.797823
_cell_angle_alpha 72.509967
_cell_angle_beta 109.859236
_cell_angle_gamma 52.503308
_cell_volume 570.817543
_symmetry_space_group_name_H-M "P -1"
_symmetry_group_IT_number 2
_symmetry_cell_setting 'triclinic'
loop_
_space_group_symop_operation_xyz
x,y,z
-x,-y,-z
loop_
_atom_site_type_symbol
_atom_site_label
_atom_site_fract_x
_atom_site_fract_y
_atom_site_fract_z
Si Si1 0.868913 0.207699 0.748625
Si Si2 0.969442 0.330359 0.091393
Si Si3 0.495972 0.928487 0.669064
Si Si4 0.586775 0.092121 0.069225
Si Si5 0.437742 0.658845 0.843396
Si Si6 0.935772 0.498139 0.298838
Si Si7 0.897670 0.990735 0.617945
Si Si8 0.340354 0.428042 0.559698
O O1 0.868251 0.126911 0.642820
O O2 0.647642 0.266697 0.743283
O O3 0.750161 0.406515 0.615969
O O4 0.180145 0.045360 0.917896
O O5 0.955398 0.405773 0.204928
O O6 0.207314 0.254822 0.125085
O O7 0.500000 0.500000 0.000000
O O8 0.686323 0.513612 0.875336
O O9 0.366188 0.023761 0.743773
O O10 0.358179 0.893145 0.584352
O O11 0.500000 0.000000 0.500000
O O12 0.576422 0.227827 0.089953
O O13 0.291322 0.265234 0.859080
O O14 0.138661 0.827514 0.650242
O O15 0.953246 0.852563 0.797468
O O16 0.822327 0.480082 0.385979
O O17 0.219197 0.384609 0.461123
#
# Coordination Sequence:
#
# PCOD9001535 Si02
#       8
#     2   2   2   2   2   2   2   2
#     4  10  22  41  67  93 126 162 220 263 312 376
#     4   9  18  35  61  88 127 158 200 255 314 377
#     4  10  21  35  57  93 128 165 202 251 321 382
#     4  10  22  39  62  92 128 166 208 264 317 375
#     4   8  16  32  52  82 122 157 194 239 309 371
#     4  10  22  42  67  92 128 168 213 259 318 372
#     4   9  18  35  59  92 119 160 200 253 316 376
#     4  10  23  43  67  92 121 174 216 264 309 369
#
# _framework density 28.029972000000001
#
# number of rings (size 3 to 8) (size 9 to 14) (size 15 to 20)
#    0.000    2.500    0.000    0.750    3.500    5.000 
#    6.750    1.250   38.500    0.000    0.000    0.000 
#    0.000    0.000    0.000    0.000    0.000    0.000 
#
# Total GULP energy -89273.634535 kJ/mol
# GULP energy per Si atom -5579.602158 kJ/mol
# Density = 2.796617 g / cm^3
# Si number density = 28.029972 Si / 1000 Ang^3
#
#
#
# Elastic Constant Matrix: (Units=GPa)
#
#
# Indices 1 2 3 4 5 6 
#
# 1 136.5551 41.8910 33.0164 -3.1751 19.6719 -21.3020
# 2 41.8910 91.0229 22.8306 -5.1490 3.9212 -3.8209
# 3 33.0164 22.8306 92.6869 -35.6275 6.5925 -17.4881
# 4 -3.1751 -5.1490 -35.6275 42.1374 -12.2544 17.5250
# 5 19.6719 3.9212 6.5925 -12.2544 48.4125 -10.0319
# 6 -21.3020 -3.8209 -17.4881 17.5250 -10.0319 44.9894
#
#
#
# Elastic Compliance Matrix: (Units=1/GPa)
#
#
# Indices 1 2 3 4 5 6 
#
# 1 0.010664 -0.003867 -0.004075 -0.006237 -0.004079 0.004657
# 2 -0.003867 0.013216 -0.002060 0.000383 0.000561 -0.001533
# 3 -0.004075 -0.002060 0.018748 0.016465 0.003337 -0.000487
# 4 -0.006237 0.000383 0.016465 0.044861 0.009139 -0.011958
# 5 -0.004079 0.000561 0.003337 0.009139 0.024395 0.001293
# 6 0.004657 -0.001533 -0.000487 -0.011958 0.001293 0.029059
#
#
# Mechanical properties :
#
#
# Convention : Reuss Voigt Hill
#
# Bulk Modulus (GPa) = 44.20154 57.30456 50.75305
# Shear Modulus (GPa) = 29.67582 41.94298 35.80940
#
# Velocity S-wave (km/s) = 3.25732 3.87248 3.57815
# Velocity P-wave (km/s) = 5.47270 6.36264 5.93438
#
# Compressibility (1/GPa) = 0.02262365
#
# Stress axis : x y z
#
# Youngs Moduli (GPa) = 93.77694 75.66678 53.33959
#
# Poissons Ratio (x) = 0.29262 0.21734
# Poissons Ratio (y) = 0.36266 0.10987
# Poissons Ratio (z) = 0.38211 0.15586
#
# Static dielectric constant tensor:
#      x y z
#    x 2.347830 -0.060460 -0.016710 
#    y -0.060460 2.071210 -0.055410 
#    z -0.016710 -0.055410 2.463130 
# 
# From -- ./inp_files/398964.got.cif
#   From: 2010.05.17/outbox.cif.g08.bks.cpg/sg2_200_cif.got.tgz:398964.got - 2010.06.03 11:33:40.
