data_PCOD9001950
_publ_section_title
;
Structure prediction by ZEFSAII (Michael W. Deem and Ramdas Pophale) SiO2 
 PCOD9001950
Probable space group: P -1
;
_chemical_formula_sum "Si O2"
_cell_formula_units_Z 14
_cell_length_a 15.392105
_cell_length_b 10.311292
_cell_length_c 8.316875
_cell_angle_alpha 122.684058
_cell_angle_beta 128.920904
_cell_angle_gamma 34.116121
_cell_volume 575.401905
_symmetry_space_group_name_H-M "P -1"
_symmetry_group_IT_number 2
_symmetry_cell_setting 'triclinic'
loop_
_space_group_symop_operation_xyz
x,y,z
-x,-y,-z
loop_
_atom_site_type_symbol
_atom_site_label
_atom_site_fract_x
_atom_site_fract_y
_atom_site_fract_z
Si Si1 0.011803 0.120562 0.724895
Si Si2 0.829876 0.753285 0.124735
Si Si3 0.552253 0.217156 0.266799
Si Si4 0.694476 0.034692 0.859434
Si Si5 0.514656 0.403974 0.688103
Si Si6 0.027575 0.341437 0.293665
Si Si7 0.788430 0.365115 0.939406
O O1 0.022002 0.273642 0.746181
O O2 0.000000 0.000000 0.500000
O O3 0.870276 0.255917 0.786594
O O4 0.185176 0.959227 0.918017
O O5 0.925465 0.504596 0.125353
O O6 0.703817 0.945810 0.242433
O O7 0.714060 0.882271 0.916198
O O8 0.508947 0.308032 0.457792
O O9 0.599384 0.328989 0.302136
O O10 0.375109 0.353804 0.072859
O O11 0.786288 0.877978 0.700837
O O12 0.519006 0.292228 0.775663
O O13 0.696348 0.301283 0.832752
O O14 0.000000 0.500000 0.500000
O O15 0.928340 0.284352 0.170238
#
# Coordination Sequence:
#
# PCOD9001950 Si02
#       7
#     2   2   2   2   2   2   2
#     4   9  19  32  55  84 111 141 181 233 281 318
#     4  10  21  36  55  81 113 147 182 223 286 322
#     4   9  19  35  60  82 110 148 179 231 279 332
#     4   9  21  34  56  81 110 147 179 236 273 322
#     4   9  18  36  58  82 115 138 190 222 285 323
#     4  11  22  37  59  78 112 152 192 222 270 329
#     4   9  20  35  56  87 108 148 185 229 268 331
#
# _framework density 24.330819000000002
#
# number of rings (size 3 to 8) (size 9 to 14) (size 15 to 20)
#    1.714    0.857    0.000    2.143    0.000    4.571 
#    0.000    0.000    0.000    1.714    0.000    0.000 
#    0.000    0.000    0.000    0.000    0.000    0.000 
#
# Total GULP energy -77974.925033 kJ/mol
# GULP energy per Si atom -5569.637502 kJ/mol
# Density = 2.427544 g / cm^3
# Si number density = 24.330819 Si / 1000 Ang^3
#
#
#
# Elastic Constant Matrix: (Units=GPa)
#
#
# Indices 1 2 3 4 5 6 
#
# 1 25.1140 -2.2535 7.1253 1.4111 -7.6323 0.4314
# 2 -2.2535 82.0232 -4.9067 -1.9579 -11.2123 15.5963
# 3 7.1253 -4.9067 98.9965 20.9320 -8.0372 -8.7520
# 4 1.4111 -1.9579 20.9320 33.5936 2.2185 -14.4699
# 5 -7.6323 -11.2123 -8.0372 2.2185 14.3992 -0.1806
# 6 0.4314 15.5963 -8.7520 -14.4699 -0.1806 35.0184
#
#
#
# Elastic Compliance Matrix: (Units=1/GPa)
#
#
# Indices 1 2 3 4 5 6 
#
# 1 0.051132 0.007092 0.000310 -0.006913 0.033783 -0.006393
# 2 0.007092 0.016744 0.002302 -0.006039 0.018896 -0.009367
# 3 0.000310 0.002302 0.012872 -0.009282 0.010552 -0.001593
# 4 -0.006913 -0.006039 -0.009282 0.044984 -0.020241 0.018938
# 5 0.033783 0.018896 0.010552 -0.020241 0.110902 -0.013986
# 6 -0.006393 -0.009367 -0.001593 0.018938 -0.013986 0.040162
#
#
# Mechanical properties :
#
#
# Convention : Reuss Voigt Hill
#
# Bulk Modulus (GPa) = 9.98433 22.89601 16.44017
# Shear Modulus (GPa) = 17.19562 30.34679 23.77121
#
# Velocity S-wave (km/s) = 2.66135 3.53548 3.12909
# Velocity P-wave (km/s) = 3.68187 5.10851 4.45270
#
# Compressibility (1/GPa) = 0.10015693
#
# Stress axis : x y z
#
# Youngs Moduli (GPa) = 19.55735 59.72216 77.69018
#
# Poissons Ratio (x) = -0.42354 -0.02412
# Poissons Ratio (y) = -0.13870 -0.17887
# Poissons Ratio (z) = -0.00607 -0.13750
#
# Static dielectric constant tensor:
#      x y z
#    x 2.041340 0.061110 -0.005490 
#    y 0.061110 1.989290 -0.027980 
#    z -0.005490 -0.027980 1.947860 
# 
# From -- ./inp_files/332482.got.cif
#   From: 2010.05.17/outbox.cif.g08.bks.cpg/sg2_167_cif.got.tgz:332482.got - 2010.06.03 11:33:40.
