data_PCOD9001892
_publ_section_title
;
Structure prediction by ZEFSAII (Michael W. Deem and Ramdas Pophale) SiO2 
 PCOD9001892
Probable space group: P -1
;
_chemical_formula_sum "Si O2"
_cell_formula_units_Z 14
_cell_length_a 5.849396
_cell_length_b 5.599810
_cell_length_c 26.254930
_cell_angle_alpha 56.343884
_cell_angle_beta 121.288728
_cell_angle_gamma 123.158163
_cell_volume 569.695396
_symmetry_space_group_name_H-M "P -1"
_symmetry_group_IT_number 2
_symmetry_cell_setting 'triclinic'
loop_
_space_group_symop_operation_xyz
x,y,z
-x,-y,-z
loop_
_atom_site_type_symbol
_atom_site_label
_atom_site_fract_x
_atom_site_fract_y
_atom_site_fract_z
Si Si1 0.151734 0.960995 0.257988
Si Si2 0.362342 0.526128 0.703465
Si Si3 0.924884 0.041525 0.543365
Si Si4 0.280758 0.880017 0.169010
Si Si5 0.302929 0.691270 0.981619
Si Si6 0.587360 0.449389 0.414790
Si Si7 0.184731 0.653339 0.861897
O O1 0.474308 0.145957 0.290598
O O2 0.985783 0.199396 0.212712
O O3 0.152380 0.871928 0.210423
O O4 0.970657 0.663867 0.303567
O O5 0.508101 0.310842 0.775393
O O6 0.413939 0.571116 0.643883
O O7 0.742175 0.260483 0.488768
O O8 0.214162 0.208554 0.587751
O O9 0.733616 0.720398 0.583452
O O10 0.000000 0.000000 0.500000
O O11 0.021008 0.704755 0.121299
O O12 0.488716 0.222259 0.135564
O O13 0.198893 0.783251 0.904996
O O14 0.500000 0.500000 0.000000
O O15 0.000000 0.500000 0.000000
O O16 0.500000 0.000000 0.000000
#
# Coordination Sequence:
#
# PCOD9001892 Si02
#       7
#     2   2   2   2   2   2   2
#     4  10  21  36  59  82 116 151 197 240 310 370
#     4  10  21  36  53  87 109 148 189 245 298 364
#     4  10  21  36  54  78 103 152 185 231 297 355
#     4  10  21  38  60  86 117 157 202 248 316 374
#     4  12  28  47  73 108 144 187 242 294 355 419
#     4  10  21  36  54  77 115 137 191 242 285 361
#     4  10  23  39  62  87 124 163 206 261 316 384
#
# _framework density 24.574535999999998
#
# number of rings (size 3 to 8) (size 9 to 14) (size 15 to 20)
#    0.000    1.714    0.000    3.429    4.000    2.286 
#    0.000    0.000    0.000    0.000    0.000    0.000 
#    0.000    0.000    0.000    0.000    0.000    0.000 
#
# Total GULP energy -78060.215050 kJ/mol
# GULP energy per Si atom -5575.729646 kJ/mol
# Density = 2.451860 g / cm^3
# Si number density = 24.574536 Si / 1000 Ang^3
#
#
#
# Elastic Constant Matrix: (Units=GPa)
#
#
# Indices 1 2 3 4 5 6 
#
# 1 568.8640 281.7390 290.8424 349.3550 2.9468 323.1793
# 2 281.7390 265.2640 154.0050 208.8610 13.3669 179.5980
# 3 290.8424 154.0050 241.0934 214.1885 7.3318 173.6138
# 4 349.3550 208.8610 214.1885 318.0037 2.4182 212.7179
# 5 2.9468 13.3669 7.3318 2.4182 53.6065 -2.4297
# 6 323.1793 179.5980 173.6138 212.7179 -2.4297 227.2066
#
#
#
# Elastic Compliance Matrix: (Units=1/GPa)
#
#
# Indices 1 2 3 4 5 6 
#
# 1 0.012011 -0.001116 -0.003278 -0.002909 -0.000300 -0.010976
# 2 -0.001116 0.009559 0.000611 -0.003005 -0.002436 -0.003648
# 3 -0.003278 0.000611 0.012665 -0.004360 -0.001573 -0.001432
# 4 -0.002909 -0.003005 -0.004360 0.012449 0.000862 -0.001801
# 5 -0.000300 -0.002436 -0.001573 0.000862 0.019588 0.002956
# 6 -0.010976 -0.003648 -0.001432 -0.001801 0.002956 0.025710
#
#
# Mechanical properties :
#
#
# Convention : Reuss Voigt Hill
#
# Bulk Modulus (GPa) = 37.49789 280.93271 159.21530
# Shear Modulus (GPa) = 46.10856 143.00568 94.55712
#
# Velocity S-wave (km/s) = 4.33630 7.63669 6.20977
# Velocity P-wave (km/s) = 6.35321 13.86814 10.78630
#
# Compressibility (1/GPa) = 0.02666817
#
# Stress axis : x y z
#
# Youngs Moduli (GPa) = 83.25837 104.60905 78.95701
#
# Poissons Ratio (x) = 0.11675 0.25885
# Poissons Ratio (y) = 0.09292 -0.04824
# Poissons Ratio (z) = 0.27296 -0.06391
#
# Static dielectric constant tensor:
#      x y z
#    x 1.842560 0.044230 -0.114180 
#    y 0.044230 2.023550 0.002170 
#    z -0.114180 0.002170 1.645370 
# 
# From -- ./inp_files/9369.got.cif
#   From: 2010.05.17/outbox.cif.g08.bks.cpg/sg2_5_cif.got.tgz:9369.got - 2010.06.03 11:33:40.
