data_PCOD9001855
_publ_section_title
;
Structure prediction by ZEFSAII (Michael W. Deem and Ramdas Pophale) SiO2 
 PCOD9001855
Probable space group: P -1
;
_chemical_formula_sum "Si O2"
_cell_formula_units_Z 16
_cell_length_a 10.952030
_cell_length_b 8.928030
_cell_length_c 19.155689
_cell_angle_alpha 62.179949
_cell_angle_beta 38.139361
_cell_angle_gamma 94.408969
_cell_volume 595.997933
_symmetry_space_group_name_H-M "P -1"
_symmetry_group_IT_number 2
_symmetry_cell_setting 'triclinic'
loop_
_space_group_symop_operation_xyz
x,y,z
-x,-y,-z
loop_
_atom_site_type_symbol
_atom_site_label
_atom_site_fract_x
_atom_site_fract_y
_atom_site_fract_z
Si Si1 0.625890 0.228099 0.650059
Si Si2 0.397351 0.495808 0.808193
Si Si3 0.373617 0.106546 0.942117
Si Si4 0.224899 0.576404 0.668791
Si Si5 0.188116 0.629363 0.976174
Si Si6 0.166080 0.090500 0.304040
Si Si7 0.695226 0.657246 0.495359
Si Si8 0.122118 0.441714 0.281064
O O1 0.610219 0.242458 0.737330
O O2 0.685864 0.448549 0.536119
O O3 0.902831 0.290930 0.483391
O O4 0.281746 0.889487 0.861225
O O5 0.275544 0.235449 0.951923
O O6 0.223291 0.532324 0.915429
O O7 0.408558 0.479966 0.723493
O O8 0.806316 0.808499 0.567704
O O9 0.565617 0.228891 0.902880
O O10 0.062197 0.764401 0.146240
O O11 0.139904 0.663430 0.633512
O O12 0.572586 0.711120 0.483429
O O13 0.141299 0.602867 0.776119
O O14 0.497739 0.775540 0.854709
O O15 0.233083 0.336449 0.227766
O O16 0.044703 0.952786 0.310984
#
# Coordination Sequence:
#
# PCOD9001855 Si02
#       8
#     2   2   2   2   2   2   2   2
#     4  10  21  35  71  87 115 155 212 251 294 348
#     4   9  18  37  66  90 118 147 211 255 292 341
#     4  10  21  38  62  92 118 153 199 260 296 347
#     4  11  27  40  56  90 137 161 191 238 319 368
#     4  11  20  38  66  96 114 159 203 255 304 349
#     4  10  21  38  66  91 119 151 210 257 287 350
#     4   9  23  41  57  95 121 162 196 257 293 361
#     4  12  22  40  63  91 123 160 203 251 294 362
#
# _framework density 26.845728000000001
#
# number of rings (size 3 to 8) (size 9 to 14) (size 15 to 20)
#    0.750    1.000    2.500    1.875    3.500    6.500 
#    0.000    1.250    0.000    0.000    0.000    0.000 
#    0.000    0.000    0.000    0.000    0.000    0.000 
#
# Total GULP energy -89454.926550 kJ/mol
# GULP energy per Si atom -5590.932909 kJ/mol
# Density = 2.678463 g / cm^3
# Si number density = 26.845728 Si / 1000 Ang^3
#
#
#
# Elastic Constant Matrix: (Units=GPa)
#
#
# Indices 1 2 3 4 5 6 
#
# 1 71.6931 21.6074 6.6552 0.1600 -8.4530 -8.4688
# 2 21.6074 141.8639 19.7836 17.2930 10.6123 -6.0279
# 3 6.6552 19.7836 63.0848 15.7201 2.8932 7.8613
# 4 0.1600 17.2930 15.7201 33.9891 3.1479 -5.3352
# 5 -8.4530 10.6123 2.8932 3.1479 30.3779 8.5056
# 6 -8.4688 -6.0279 7.8613 -5.3352 8.5056 46.9738
#
#
#
# Elastic Compliance Matrix: (Units=1/GPa)
#
#
# Indices 1 2 3 4 5 6 
#
# 1 0.015715 -0.002641 -0.001820 0.002024 0.004647 0.002187
# 2 -0.002641 0.008348 -0.001574 -0.003000 -0.003514 0.001154
# 3 -0.001820 -0.001574 0.019353 -0.008952 0.000493 -0.004875
# 4 0.002024 -0.003000 -0.008952 0.036324 -0.003022 0.006151
# 5 0.004647 -0.003514 0.000493 -0.003022 0.037624 -0.006852
# 6 0.002187 0.001154 -0.004875 0.006151 -0.006852 0.024586
#
#
# Mechanical properties :
#
#
# Convention : Reuss Voigt Hill
#
# Bulk Modulus (GPa) = 31.90233 41.41492 36.65863
# Shear Modulus (GPa) = 30.40072 37.50787 33.95430
#
# Velocity S-wave (km/s) = 3.36880 3.74192 3.56025
# Velocity P-wave (km/s) = 5.20011 5.84207 5.53041
#
# Compressibility (1/GPa) = 0.03134567
#
# Stress axis : x y z
#
# Youngs Moduli (GPa) = 63.63336 119.78218 51.67129
#
# Poissons Ratio (x) = 0.31637 0.09403
# Poissons Ratio (y) = 0.16807 0.08136
# Poissons Ratio (z) = 0.11580 0.18860
#
# Static dielectric constant tensor:
#      x y z
#    x 2.234300 -0.002730 -0.002370 
#    y -0.002730 2.030770 0.011910 
#    z -0.002370 0.011910 2.152790 
# 
# From -- ./inp_files/381358.got.cif
#   From: 2010.05.17/outbox.cif.g08.bks.cpg/sg2_191_cif.got.tgz:381358.got - 2010.06.03 11:33:40.
