data_PCOD9001702
_publ_section_title
;
Structure prediction by ZEFSAII (Michael W. Deem and Ramdas Pophale) SiO2 
 PCOD9001702
Probable space group: P -1
;
_chemical_formula_sum "Si O2"
_cell_formula_units_Z 16
_cell_length_a 22.412882
_cell_length_b 9.432721
_cell_length_c 14.844125
_cell_angle_alpha 57.310828
_cell_angle_beta 161.261254
_cell_angle_gamma 124.270682
_cell_volume 832.869069
_symmetry_space_group_name_H-M "P -1"
_symmetry_group_IT_number 2
_symmetry_cell_setting 'triclinic'
loop_
_space_group_symop_operation_xyz
x,y,z
-x,-y,-z
loop_
_atom_site_type_symbol
_atom_site_label
_atom_site_fract_x
_atom_site_fract_y
_atom_site_fract_z
Si Si1 0.000034 0.286047 0.921245
Si Si2 0.053044 0.965116 0.899632
Si Si3 0.289322 0.898346 0.574228
Si Si4 0.535503 0.638580 0.082940
Si Si5 0.089660 0.345920 0.295003
Si Si6 0.552172 0.822757 0.603913
Si Si7 0.549803 0.533792 0.335665
Si Si8 0.574049 0.761895 0.455331
O O1 0.858236 0.228042 0.655947
O O2 0.983318 0.479462 0.854712
O O3 0.216418 0.277231 0.214416
O O4 0.933928 0.140783 0.952991
O O5 0.060669 0.824161 0.881979
O O6 0.848011 0.018572 0.585141
O O7 0.219398 0.128856 0.079907
O O8 0.434390 0.795693 0.861978
O O9 0.397898 0.052754 0.615104
O O10 0.500000 0.500000 0.000000
O O11 0.762135 0.684142 0.406108
O O12 0.463168 0.564582 0.103785
O O13 0.229691 0.381192 0.395624
O O14 0.471073 0.665804 0.606271
O O15 0.488528 0.769233 0.429396
O O16 0.500000 0.000000 0.500000
O O17 0.481491 0.624777 0.294428
#
# Coordination Sequence:
#
# PCOD9001702 Si02
#       8
#     2   2   2   2   2   2   2   2
#     4  11  17  33  60  89 117 147 199 248 297 342
#     4  11  21  36  59  91 115 153 198 248 301 348
#     4  11  18  36  64  88 116 152 205 248 286 349
#     4  10  21  37  63  91 117 156 204 247 289 342
#     4  10  21  35  61  90 116 154 200 248 284 347
#     4  12  25  38  58  88 129 160 188 244 314 362
#     4  10  23  40  56  93 122 155 198 240 299 359
#     4  11  22  37  61  90 121 155 198 248 303 353
#
# _framework density 19.210702999999999
#
# number of rings (size 3 to 8) (size 9 to 14) (size 15 to 20)
#    0.750    0.500    6.250    2.250    3.500    2.000 
#    0.000    0.625    0.000    0.750    0.000    0.000 
#    0.000    0.000    0.000    0.000    0.000    0.000 
#
# Total GULP energy -89239.431301 kJ/mol
# GULP energy per Si atom -5577.464456 kJ/mol
# Density = 1.916698 g / cm^3
# Si number density = 19.210703 Si / 1000 Ang^3
#
#
#
# Elastic Constant Matrix: (Units=GPa)
#
#
# Indices 1 2 3 4 5 6 
#
# 1 53.4222 26.3648 26.6878 -9.5524 -16.2149 -10.9208
# 2 26.3648 99.1953 30.1220 -15.2421 -15.9024 -14.9288
# 3 26.6878 30.1220 82.0047 -25.3517 -17.6572 0.3188
# 4 -9.5524 -15.2421 -25.3517 42.7518 -2.1259 -2.7148
# 5 -16.2149 -15.9024 -17.6572 -2.1259 22.3629 4.0915
# 6 -10.9208 -14.9288 0.3188 -2.7148 4.0915 28.4338
#
#
#
# Elastic Compliance Matrix: (Units=1/GPa)
#
#
# Indices 1 2 3 4 5 6 
#
# 1 0.028874 -0.002062 -0.003937 0.004669 0.015287 0.008297
# 2 -0.002062 0.013663 -0.001822 0.004007 0.006082 0.005909
# 3 -0.003937 -0.001822 0.020574 0.011128 0.013816 -0.003625
# 4 0.004669 0.004007 0.011128 0.033611 0.017397 0.004478
# 5 0.015287 0.006082 0.013816 0.017397 0.072668 0.000114
# 6 0.008297 0.005909 -0.003625 0.004478 0.000114 0.041911
#
#
# Mechanical properties :
#
#
# Convention : Reuss Voigt Hill
#
# Bulk Modulus (GPa) = 21.06622 44.55239 32.80930
# Shear Modulus (GPa) = 20.59608 28.80622 24.70115
#
# Velocity S-wave (km/s) = 3.27787 3.87652 3.58970
# Velocity P-wave (km/s) = 5.03146 6.57863 5.85636
#
# Compressibility (1/GPa) = 0.04746937
#
# Stress axis : x y z
#
# Youngs Moduli (GPa) = 34.63295 73.19277 48.60532
#
# Poissons Ratio (x) = 0.15092 0.19134
# Poissons Ratio (y) = 0.07141 0.08856
# Poissons Ratio (z) = 0.13634 0.13336
#
# Static dielectric constant tensor:
#      x y z
#    x 1.712490 -0.042660 0.009070 
#    y -0.042660 1.673960 0.026840 
#    z 0.009070 0.026840 1.683590 
# 
# From -- ./inp_files/348256.got.cif
#   From: 2010.05.17/outbox.cif.g08.bks.cpg/sg2_175_cif.got.tgz:348256.got - 2010.06.03 11:33:40.
