data_PCOD9001765
_publ_section_title
;
Structure prediction by ZEFSAII (Michael W. Deem and Ramdas Pophale) SiO2 
 PCOD9001765
Probable space group: P -1
;
_chemical_formula_sum "Si O2"
_cell_formula_units_Z 14
_cell_length_a 11.436592
_cell_length_b 8.107792
_cell_length_c 10.936794
_cell_angle_alpha 42.789637
_cell_angle_beta 114.261686
_cell_angle_gamma 127.651561
_cell_volume 544.111531
_symmetry_space_group_name_H-M "P -1"
_symmetry_group_IT_number 2
_symmetry_cell_setting 'triclinic'
loop_
_space_group_symop_operation_xyz
x,y,z
-x,-y,-z
loop_
_atom_site_type_symbol
_atom_site_label
_atom_site_fract_x
_atom_site_fract_y
_atom_site_fract_z
Si Si1 0.724465 0.633381 0.546608
Si Si2 0.458884 0.934386 0.318379
Si Si3 0.018219 0.508178 0.300868
Si Si4 0.174606 0.338051 0.164948
Si Si5 0.147570 0.829970 0.827744
Si Si6 0.725076 0.345243 0.362661
Si Si7 0.250811 0.155537 0.045489
O O1 0.580391 0.331622 0.637073
O O2 0.761831 0.732332 0.649161
O O3 0.862723 0.592558 0.587581
O O4 0.735465 0.867603 0.332958
O O5 0.360874 0.788227 0.477446
O O6 0.623097 0.132261 0.328525
O O7 0.393290 0.115694 0.131940
O O8 0.926274 0.369404 0.213662
O O9 0.890023 0.395764 0.407658
O O10 0.109250 0.843684 0.147919
O O11 0.238614 0.286116 0.097789
O O12 0.995203 0.168567 0.177864
O O13 0.210523 0.660831 0.020766
O O14 0.740370 0.641134 0.169489
#
# Coordination Sequence:
#
# PCOD9001765 Si02
#       7
#     2   2   2   2   2   2   2
#     4  10  23  41  60  93 125 162 199 249 305 369
#     4  10  26  42  64  87 123 171 205 246 305 365
#     4  10  21  38  66  95 119 156 207 254 306 354
#     4  10  21  35  62  94 126 152 201 251 317 354
#     4  10  21  37  57  93 131 156 192 256 306 363
#     4  11  23  43  63  91 125 158 210 255 302 358
#     4  11  23  39  69  95 119 157 206 264 302 358
#
# _framework density 25.730018000000001
#
# number of rings (size 3 to 8) (size 9 to 14) (size 15 to 20)
#    0.000    1.714    1.429    2.571    6.000    4.571 
#    0.000    1.429    0.000    0.000    0.000    0.000 
#    0.000    0.000    0.000    0.000    0.000    0.000 
#
# Total GULP energy -78499.116239 kJ/mol
# GULP energy per Si atom -5607.079731 kJ/mol
# Density = 2.567146 g / cm^3
# Si number density = 25.730018 Si / 1000 Ang^3
#
#
#
# Elastic Constant Matrix: (Units=GPa)
#
#
# Indices 1 2 3 4 5 6 
#
# 1 86.4439 26.7671 24.4511 -3.7678 1.6772 14.1334
# 2 26.7671 91.7028 12.3714 -2.7810 2.6569 17.5354
# 3 24.4511 12.3714 111.6396 -19.6717 3.2170 0.9358
# 4 -3.7678 -2.7810 -19.6717 28.6121 -4.7750 -5.8589
# 5 1.6772 2.6569 3.2170 -4.7750 24.5145 -6.3137
# 6 14.1334 17.5354 0.9358 -5.8589 -6.3137 35.8215
#
#
#
# Elastic Compliance Matrix: (Units=1/GPa)
#
#
# Indices 1 2 3 4 5 6 
#
# 1 0.013997 -0.002790 -0.002970 -0.001730 -0.001808 -0.004681
# 2 -0.002790 0.013039 -0.000960 -0.001482 -0.002935 -0.006017
# 3 -0.002970 -0.000960 0.011046 0.007879 0.001124 0.002840
# 4 -0.001730 -0.001482 0.007879 0.043822 0.010409 0.010204
# 5 -0.001808 -0.002935 0.001124 0.010409 0.046196 0.011965
# 6 -0.004681 -0.006017 0.002840 0.010204 0.011965 0.036412
#
#
# Mechanical properties :
#
#
# Convention : Reuss Voigt Hill
#
# Bulk Modulus (GPa) = 40.57946 46.32950 43.45448
# Shear Modulus (GPa) = 26.85758 32.86941 29.86350
#
# Velocity S-wave (km/s) = 3.23433 3.57805 3.41052
# Velocity P-wave (km/s) = 5.45466 5.92580 5.69510
#
# Compressibility (1/GPa) = 0.02464301
#
# Stress axis : x y z
#
# Youngs Moduli (GPa) = 71.44311 76.69135 90.52653
#
# Poissons Ratio (x) = 0.21396 0.26886
# Poissons Ratio (y) = 0.19932 0.08691
# Poissons Ratio (z) = 0.21218 0.07363
#
# Static dielectric constant tensor:
#      x y z
#    x 2.039730 -0.029190 0.015800 
#    y -0.029190 2.036420 0.013160 
#    z 0.015800 0.013160 2.024100 
# 
# From -- ./inp_files/239312.got.cif
#   From: 2010.05.17/outbox.cif.g08.bks.cpg/sg2_120_cif.got.tgz:239312.got - 2010.06.03 11:33:40.
