data_PCOD9001271
_publ_section_title
;
Structure prediction by ZEFSAII (Michael W. Deem and Ramdas Pophale) SiO2 
 PCOD9001271
Probable space group: P -1
;
_chemical_formula_sum "Si O2"
_cell_formula_units_Z 12
_cell_length_a 9.938793
_cell_length_b 6.775412
_cell_length_c 11.508001
_cell_angle_alpha 102.289103
_cell_angle_beta 45.750292
_cell_angle_gamma 74.213775
_cell_volume 433.531914
_symmetry_space_group_name_H-M "P -1"
_symmetry_group_IT_number 2
_symmetry_cell_setting 'triclinic'
loop_
_space_group_symop_operation_xyz
x,y,z
-x,-y,-z
loop_
_atom_site_type_symbol
_atom_site_label
_atom_site_fract_x
_atom_site_fract_y
_atom_site_fract_z
Si Si1 0.604304 0.324535 0.146236
Si Si2 0.776452 0.264587 0.407599
Si Si3 0.965394 0.846599 0.403110
Si Si4 0.272836 0.443899 0.724551
Si Si5 0.575334 0.918516 0.226080
Si Si6 0.600955 0.713870 0.945764
O O1 0.346805 0.555610 0.383241
O O2 0.547157 0.294276 0.499187
O O3 0.567310 0.323829 0.031725
O O4 0.647719 0.079887 0.146759
O O5 0.231667 0.629606 0.876629
O O6 0.862356 0.381687 0.282567
O O7 0.961164 0.982672 0.304147
O O8 0.145383 0.545274 0.269447
O O9 0.705003 0.915408 0.565089
O O10 0.000000 0.000000 0.500000
O O11 0.279727 0.233383 0.765188
O O12 0.601049 0.733467 0.086420
O O13 0.500000 0.000000 0.000000
#
# Coordination Sequence:
#
# PCOD9001271 Si02
#       6
#     2   2   2   2   2   2
#     4   9  17  33  54  80 111 143 181 229 268 323
#     4   8  16  33  53  81 111 136 187 234 259 323
#     4  11  20  37  58  81 113 148 184 228 275 329
#     4   8  16  33  53  82 109 141 186 229 264 328
#     4  10  21  34  60  81 109 152 181 219 288 325
#     4  10  21  36  54  85 117 138 185 235 271 328
#
# _framework density 27.67962
#
# number of rings (size 3 to 8) (size 9 to 14) (size 15 to 20)
#    1.000    1.667    1.667    0.000    0.000    6.000 
#    0.000    0.833    0.000    4.000    0.000    0.000 
#    0.000    0.000    0.000    0.000    0.000    0.000 
#
# Total GULP energy -66968.088131 kJ/mol
# GULP energy per Si atom -5580.674011 kJ/mol
# Density = 2.761662 g / cm^3
# Si number density = 27.679620 Si / 1000 Ang^3
#
#
#
# Elastic Constant Matrix: (Units=GPa)
#
#
# Indices 1 2 3 4 5 6 
#
# 1 69.2509 38.9312 42.7980 14.3348 -10.2306 0.0033
# 2 38.9312 164.3376 27.0259 16.3626 -1.5864 -19.6706
# 3 42.7980 27.0259 120.5536 35.9535 -7.4728 -13.2611
# 4 14.3348 16.3626 35.9535 46.9022 -8.2192 13.5749
# 5 -10.2306 -1.5864 -7.4728 -8.2192 51.9346 7.2642
# 6 0.0033 -19.6706 -13.2611 13.5749 7.2642 34.2998
#
#
#
# Elastic Compliance Matrix: (Units=1/GPa)
#
#
# Indices 1 2 3 4 5 6 
#
# 1 0.023158 -0.005773 -0.009699 0.006461 0.005522 -0.010789
# 2 -0.005773 0.008746 0.002987 -0.006816 -0.002844 0.009471
# 3 -0.009699 0.002987 0.017675 -0.017057 -0.004241 0.016196
# 4 0.006461 -0.006816 -0.017057 0.045429 0.010083 -0.030619
# 5 0.005522 -0.002844 -0.004241 0.010083 0.022936 -0.012119
# 6 -0.010789 0.009471 0.016196 -0.030619 -0.012119 0.055534
#
#
# Mechanical properties :
#
#
# Convention : Reuss Voigt Hill
#
# Bulk Modulus (GPa) = 40.63324 63.51694 52.07509
# Shear Modulus (GPa) = 24.19544 42.98644 33.59094
#
# Velocity S-wave (km/s) = 2.95977 3.94509 3.48740
# Velocity P-wave (km/s) = 5.13732 6.61427 5.92202
#
# Compressibility (1/GPa) = 0.02461039
#
# Stress axis : x y z
#
# Youngs Moduli (GPa) = 43.18118 114.33523 56.57868
#
# Poissons Ratio (x) = 0.66000 0.54875
# Poissons Ratio (y) = 0.24926 -0.16900
# Poissons Ratio (z) = 0.41881 -0.34152
#
# Static dielectric constant tensor:
#      x y z
#    x 2.174460 -0.006570 -0.008630 
#    y -0.006570 2.225360 0.006470 
#    z -0.008630 0.006470 2.236190 
# 
# From -- ./inp_files/390583.got.cif
#   From: 2010.05.17/outbox.cif.g08.bks.cpg/sg2_196_cif.got.tgz:390583.got - 2010.06.03 11:33:40.
