data_PCOD9001374
_publ_section_title
;
Structure prediction by ZEFSAII (Michael W. Deem and Ramdas Pophale) SiO2 
 PCOD9001374
Probable space group: P -1
;
_chemical_formula_sum "Si O2"
_cell_formula_units_Z 12
_cell_length_a 22.072898
_cell_length_b 12.380730
_cell_length_c 5.161533
_cell_angle_alpha 65.969277
_cell_angle_beta 107.662625
_cell_angle_gamma 152.026192
_cell_volume 599.062698
_symmetry_space_group_name_H-M "P -1"
_symmetry_group_IT_number 2
_symmetry_cell_setting 'triclinic'
loop_
_space_group_symop_operation_xyz
x,y,z
-x,-y,-z
loop_
_atom_site_type_symbol
_atom_site_label
_atom_site_fract_x
_atom_site_fract_y
_atom_site_fract_z
Si Si1 0.344560 0.229592 0.533883
Si Si2 0.428199 0.139482 0.491825
Si Si3 0.851197 0.730726 0.114505
Si Si4 0.686013 0.676317 0.106404
Si Si5 0.373163 0.689840 0.085964
Si Si6 0.321979 0.740756 0.475382
O O1 0.500000 0.500000 0.500000
O O2 0.334237 0.077374 0.579893
O O3 0.288279 0.186320 0.770871
O O4 0.297797 0.235782 0.233738
O O5 0.535796 0.386388 0.221636
O O6 0.521021 0.224526 0.738808
O O7 0.349082 0.916258 0.436885
O O8 0.766105 0.595603 0.871287
O O9 0.779194 0.714112 0.206671
O O10 0.819419 0.548721 0.366911
O O11 0.000000 0.000000 0.000000
O O12 0.351472 0.758091 0.199961
O O13 0.402506 0.788480 0.740340
#
# Coordination Sequence:
#
# PCOD9001374 Si02
#       6
#     2   2   2   2   2   2
#     4  10  22  34  54  84 114 152 177 220 280 338
#     4  11  19  38  59  85 125 139 182 229 284 352
#     4  10  23  40  59  80 113 149 193 235 273 324
#     4  11  22  36  54  86 111 149 186 223 277 331
#     4  10  21  35  53  90 112 146 181 224 289 330
#     4  10  23  34  57  87 115 147 178 231 292 323
#
# _framework density 20.031293000000002
#
# number of rings (size 3 to 8) (size 9 to 14) (size 15 to 20)
#    1.000    0.667    1.667    5.000    0.000    6.000 
#    0.000    0.000    0.000    2.000    0.000    0.000 
#    0.000    0.000    0.000    0.000    0.000    0.000 
#
# Total GULP energy -66919.239146 kJ/mol
# GULP energy per Si atom -5576.603262 kJ/mol
# Density = 1.998570 g / cm^3
# Si number density = 20.031293 Si / 1000 Ang^3
#
#
#
# Elastic Constant Matrix: (Units=GPa)
#
#
# Indices 1 2 3 4 5 6 
#
# 1 107.3560 58.0796 10.7156 12.7142 -22.7483 -37.6869
# 2 58.0796 98.4485 12.9722 -3.5851 -12.0836 -10.3515
# 3 10.7156 12.9722 87.9239 18.2002 -7.9012 -5.0898
# 4 12.7142 -3.5851 18.2002 17.9627 -8.9201 -6.6698
# 5 -22.7483 -12.0836 -7.9012 -8.9201 27.2499 4.4872
# 6 -37.6869 -10.3515 -5.0898 -6.6698 4.4872 30.6566
#
#
#
# Elastic Compliance Matrix: (Units=1/GPa)
#
#
# Indices 1 2 3 4 5 6 
#
# 1 0.031358 -0.014812 0.003607 -0.011835 0.011868 0.029834
# 2 -0.014812 0.019435 -0.004919 0.016904 0.001851 -0.009057
# 3 0.003607 -0.004919 0.015669 -0.019542 -0.001239 0.001304
# 4 -0.011835 0.016904 -0.019542 0.101623 0.024147 0.006489
# 5 0.011868 0.001851 -0.001239 0.024147 0.052910 0.012518
# 6 0.029834 -0.009057 0.001304 0.006489 0.012518 0.066033
#
#
# Mechanical properties :
#
#
# Convention : Reuss Voigt Hill
#
# Bulk Modulus (GPa) = 29.22852 50.80704 40.01778
# Shear Modulus (GPa) = 15.12036 29.30458 22.21247
#
# Velocity S-wave (km/s) = 2.75041 3.82899 3.33361
# Velocity P-wave (km/s) = 4.97086 6.70575 5.90240
#
# Compressibility (1/GPa) = 0.03421316
#
# Stress axis : x y z
#
# Youngs Moduli (GPa) = 31.89001 51.45441 63.82030
#
# Poissons Ratio (x) = 0.76215 -0.23021
# Poissons Ratio (y) = 0.47236 0.31394
# Poissons Ratio (z) = -0.11503 0.25311
#
# Static dielectric constant tensor:
#      x y z
#    x 1.747170 -0.053900 0.002130 
#    y -0.053900 1.771910 -0.036750 
#    z 0.002130 -0.036750 1.768200 
# 
# From -- ./inp_files/123441.got.cif
#   From: 2010.05.17/outbox.cif.g08.bks.cpg/sg2_62_cif.got.tgz:123441.got - 2010.06.03 11:33:40.
