data_PCOD9001173
_publ_section_title
;
Structure prediction by ZEFSAII (Michael W. Deem and Ramdas Pophale) SiO2 
 PCOD9001173
Probable space group: P -1
;
_chemical_formula_sum "Si O2"
_cell_formula_units_Z 16
_cell_length_a 10.392358
_cell_length_b 17.136307
_cell_length_c 18.887038
_cell_angle_alpha 21.908659
_cell_angle_beta 147.448609
_cell_angle_gamma 136.022612
_cell_volume 641.806615
_symmetry_space_group_name_H-M "P -1"
_symmetry_group_IT_number 2
_symmetry_cell_setting 'triclinic'
loop_
_space_group_symop_operation_xyz
x,y,z
-x,-y,-z
loop_
_atom_site_type_symbol
_atom_site_label
_atom_site_fract_x
_atom_site_fract_y
_atom_site_fract_z
Si Si1 0.080907 0.930991 0.258623
Si Si2 0.735352 0.116463 0.240189
Si Si3 0.712973 0.696272 0.534557
Si Si4 0.731884 0.333367 0.306820
Si Si5 0.407600 0.979891 0.600616
Si Si6 0.906751 0.411166 0.736461
Si Si7 0.179158 0.750636 0.308484
Si Si8 0.223777 0.452983 0.063015
O O1 0.056827 0.820497 0.413815
O O2 0.334036 0.000838 0.325902
O O3 0.135675 0.751955 0.371493
O O4 0.890295 0.168410 0.952362
O O5 0.710637 0.948645 0.310648
O O6 0.549498 0.096465 0.234115
O O7 0.722559 0.365359 0.012945
O O8 0.000000 0.000000 0.500000
O O9 0.718603 0.580439 0.559475
O O10 0.469386 0.710315 0.456677
O O11 0.965207 0.560882 0.809104
O O12 0.463701 0.399543 0.166357
O O13 0.833541 0.536741 0.168402
O O14 0.704853 0.186926 0.351654
O O15 0.229254 0.230201 0.293350
O O16 0.891381 0.410473 0.644541
O O17 0.000000 0.000000 0.000000
#
# Coordination Sequence:
#
# PCOD9001173 Si02
#       8
#     2   2   2   2   2   2   2   2
#     4  10  21  41  63  91 126 162 206 257 303 377
#     4  10  21  34  55  86 130 157 197 242 306 369
#     4  11  21  40  62  94 124 163 212 254 308 370
#     4  11  22  36  64 100 126 161 204 246 321 376
#     4  11  20  37  59  92 131 159 197 250 311 378
#     4  11  23  40  68  87 126 169 208 259 301 359
#     4  10  23  42  67  88 118 172 213 258 307 357
#     4  10  22  36  61  94 126 164 193 253 317 372
#
# _framework density 24.929627
#
# number of rings (size 3 to 8) (size 9 to 14) (size 15 to 20)
#    0.000    1.500    1.250    5.625    1.750    4.000 
#    0.000    1.250    0.000    6.000    0.000    0.000 
#    0.000    0.000    0.000    0.000    0.000    0.000 
#
# Total GULP energy -89388.451352 kJ/mol
# GULP energy per Si atom -5586.778209 kJ/mol
# Density = 2.487289 g / cm^3
# Si number density = 24.929627 Si / 1000 Ang^3
#
#
#
# Elastic Constant Matrix: (Units=GPa)
#
#
# Indices 1 2 3 4 5 6 
#
# 1 84.5250 24.7893 32.5301 -12.5520 16.3382 -23.8680
# 2 24.7893 143.1837 40.4163 -32.4000 7.2153 -50.6668
# 3 32.5301 40.4163 92.0339 -19.9377 5.8631 -4.3062
# 4 -12.5520 -32.4000 -19.9377 41.2873 -2.8966 19.6446
# 5 16.3382 7.2153 5.8631 -2.8966 37.2713 -1.0127
# 6 -23.8680 -50.6668 -4.3062 19.6446 -1.0127 47.6442
#
#
#
# Elastic Compliance Matrix: (Units=1/GPa)
#
#
# Indices 1 2 3 4 5 6 
#
# 1 0.018401 0.003316 -0.007307 -0.001896 -0.007361 0.012709
# 2 0.003316 0.014063 -0.006112 0.001603 -0.002673 0.015346
# 3 -0.007307 -0.006112 0.016928 0.006692 0.001935 -0.011349
# 4 -0.001896 0.001603 0.006692 0.034329 0.001789 -0.012756
# 5 -0.007361 -0.002673 0.001935 0.001789 0.030234 -0.006450
# 6 0.012709 0.015346 -0.011349 -0.012756 -0.006450 0.047773
#
#
# Mechanical properties :
#
#
# Convention : Reuss Voigt Hill
#
# Bulk Modulus (GPa) = 34.26410 57.24601 45.75505
# Shear Modulus (GPa) = 26.08758 40.04100 33.06429
#
# Velocity S-wave (km/s) = 3.23840 4.01204 3.64580
# Velocity P-wave (km/s) = 5.26850 6.66895 6.00966
#
# Compressibility (1/GPa) = 0.02918507
#
# Stress axis : x y z
#
# Youngs Moduli (GPa) = 54.34601 71.10800 59.07378
#
# Poissons Ratio (x) = -0.23581 0.43167
# Poissons Ratio (y) = -0.18022 0.36107
# Poissons Ratio (z) = 0.39712 0.43463
#
# Static dielectric constant tensor:
#      x y z
#    x 2.115680 0.000240 0.042800 
#    y 0.000240 1.975430 0.019980 
#    z 0.042800 0.019980 2.065740 
# 
# From -- ./inp_files/595970.got.cif
#   From: 2010.05.17/outbox.cif.g08.bks.cpg/sg2_298_cif.got.tgz:595970.got - 2010.06.03 11:33:40.
