data_PCOD9001183
_publ_section_title
;
Structure prediction by ZEFSAII (Michael W. Deem and Ramdas Pophale) SiO2 
 PCOD9001183
Probable space group: P -1
;
_chemical_formula_sum "Si O2"
_cell_formula_units_Z 16
_cell_length_a 9.826866
_cell_length_b 5.428710
_cell_length_c 17.106877
_cell_angle_alpha 110.644581
_cell_angle_beta 57.556829
_cell_angle_gamma 85.051485
_cell_volume 675.469136
_symmetry_space_group_name_H-M "P -1"
_symmetry_group_IT_number 2
_symmetry_cell_setting 'triclinic'
loop_
_space_group_symop_operation_xyz
x,y,z
-x,-y,-z
loop_
_atom_site_type_symbol
_atom_site_label
_atom_site_fract_x
_atom_site_fract_y
_atom_site_fract_z
Si Si1 0.217500 0.325399 0.326211
Si Si2 0.083440 0.005191 0.783271
Si Si3 0.069292 0.472413 0.222404
Si Si4 0.196892 0.211648 0.997312
Si Si5 0.157511 0.680266 0.964035
Si Si6 0.582267 0.132359 0.555548
Si Si7 0.064660 0.838331 0.541281
Si Si8 0.475696 0.802779 0.688208
O O1 0.159375 0.525085 0.442988
O O2 0.420025 0.193012 0.263609
O O3 0.162366 0.475750 0.276528
O O4 0.096903 0.138817 0.352722
O O5 0.029868 0.231853 0.755457
O O6 0.950263 0.152868 0.909852
O O7 0.054667 0.710090 0.744702
O O8 0.273335 0.953610 0.750857
O O9 0.205644 0.302276 0.093883
O O10 0.264877 0.380384 0.932150
O O11 0.256282 0.880701 0.928613
O O12 0.988701 0.320328 0.052817
O O13 0.780625 0.071931 0.466106
O O14 0.502559 0.471701 0.626389
O O15 0.500000 0.000000 0.500000
O O16 0.562334 0.965853 0.620290
O O17 0.000000 0.000000 0.500000
#
# Coordination Sequence:
#
# PCOD9001183 Si02
#       8
#     2   2   2   2   2   2   2   2
#     4  10  23  38  56  78 107 144 180 224 272 328
#     4  10  21  35  53  84 110 140 178 222 270 316
#     4  10  21  34  56  83 107 139 184 226 262 310
#     4   8  14  27  47  76 104 135 173 215 258 305
#     4   8  14  27  48  72 108 138 167 212 263 311
#     4  11  24  39  58  80 104 138 181 234 274 317
#     4  10  21  39  57  73 103 142 186 218 275 327
#     4  11  23  40  55  79 112 142 177 218 282 332
#
# _framework density 23.687242000000001
#
# number of rings (size 3 to 8) (size 9 to 14) (size 15 to 20)
#    0.000    2.250    1.250    1.125    3.500    1.000 
#    0.000    0.000    0.000    0.750    0.000    0.000 
#    0.000   23.250    0.000    0.000    0.000    3.375 
#
# Total GULP energy -89281.669279 kJ/mol
# GULP energy per Si atom -5580.104330 kJ/mol
# Density = 2.363333 g / cm^3
# Si number density = 23.687242 Si / 1000 Ang^3
#
#
#
# Elastic Constant Matrix: (Units=GPa)
#
#
# Indices 1 2 3 4 5 6 
#
# 1 168.8518 55.1416 43.0676 -10.5737 6.9482 -6.4855
# 2 55.1416 195.4941 31.1989 -25.4773 -2.3726 3.6626
# 3 43.0676 31.1989 52.2158 -13.0337 9.0730 -4.8733
# 4 -10.5737 -25.4773 -13.0337 29.4946 -3.7375 8.7373
# 5 6.9482 -2.3726 9.0730 -3.7375 34.5799 -2.0600
# 6 -6.4855 3.6626 -4.8733 8.7373 -2.0600 40.5498
#
#
#
# Elastic Compliance Matrix: (Units=1/GPa)
#
#
# Indices 1 2 3 4 5 6 
#
# 1 0.007847 -0.001487 -0.005786 -0.001347 -0.000248 0.000972
# 2 -0.001487 0.006566 -0.001903 0.005126 0.001679 -0.002079
# 3 -0.005786 -0.001903 0.028008 0.007774 -0.005437 0.000661
# 4 -0.001347 0.005126 0.007774 0.044356 0.002831 -0.009158
# 5 -0.000248 0.001679 -0.005437 0.002831 0.030823 0.000111
# 6 0.000972 -0.002079 0.000661 -0.009158 0.000111 0.027062
#
#
# Mechanical properties :
#
#
# Convention : Reuss Voigt Hill
#
# Bulk Modulus (GPa) = 41.54840 75.04199 58.29519
# Shear Modulus (GPa) = 29.23359 40.06846 34.65102
#
# Velocity S-wave (km/s) = 3.51686 4.11732 3.82888
# Velocity P-wave (km/s) = 5.83691 7.37240 6.64913
#
# Compressibility (1/GPa) = 0.02406832
#
# Stress axis : x y z
#
# Youngs Moduli (GPa) = 127.43918 152.30853 35.70447
#
# Poissons Ratio (x) = 0.22643 0.20660
# Poissons Ratio (y) = 0.18946 0.06794
# Poissons Ratio (z) = 0.73740 0.28983
#
# Static dielectric constant tensor:
#      x y z
#    x 1.902070 0.033210 0.024730 
#    y 0.033210 2.029410 0.034920 
#    z 0.024730 0.034920 1.964660 
# 
# From -- ./inp_files/47087.got.cif
#   From: 2010.05.17/outbox.cif.g08.bks.cpg/sg2_24_cif.got.tgz:47087.got - 2010.06.03 11:33:40.
