data_PCOD9001123
_publ_section_title
;
Structure prediction by ZEFSAII (Michael W. Deem and Ramdas Pophale) SiO2 
 PCOD9001123
Probable space group: P -1
;
_chemical_formula_sum "Si O2"
_cell_formula_units_Z 16
_cell_length_a 5.913686
_cell_length_b 22.985172
_cell_length_c 5.828911
_cell_angle_alpha 96.813872
_cell_angle_beta 90.430275
_cell_angle_gamma 122.368543
_cell_volume 662.085815
_symmetry_space_group_name_H-M "P -1"
_symmetry_group_IT_number 2
_symmetry_cell_setting 'triclinic'
loop_
_space_group_symop_operation_xyz
x,y,z
-x,-y,-z
loop_
_atom_site_type_symbol
_atom_site_label
_atom_site_fract_x
_atom_site_fract_y
_atom_site_fract_z
Si Si1 0.709678 0.390536 0.369846
Si Si2 0.294040 0.767391 0.390369
Si Si3 0.985335 0.643658 0.022067
Si Si4 0.145797 0.269579 0.250206
Si Si5 0.157764 0.858873 0.109036
Si Si6 0.344685 0.015818 0.699781
Si Si7 0.150728 0.108018 0.499206
Si Si8 0.858261 0.519882 0.200330
O O1 0.439401 0.317240 0.380940
O O2 0.653302 0.447790 0.291754
O O3 0.905158 0.430714 0.599095
O O4 0.878327 0.375296 0.184741
O O5 0.226126 0.700030 0.214554
O O6 0.252011 0.814759 0.232138
O O7 0.584610 0.818726 0.527986
O O8 0.070868 0.740942 0.570812
O O9 0.780698 0.571813 0.118844
O O10 0.855003 0.683606 0.935883
O O11 0.034440 0.192985 0.113943
O O12 0.435037 0.932278 0.088206
O O13 0.992973 0.875087 0.294012
O O14 0.248403 0.061192 0.592279
O O15 0.500000 0.000000 0.500000
O O16 0.071798 0.941763 0.715060
O O17 0.000000 0.500000 0.000000
#
# Coordination Sequence:
#
# PCOD9001123 Si02
#       8
#     2   2   2   2   2   2   2   2
#     4  10  21  39  60  84 114 150 190 237 290 345
#     4  10  21  34  52  83 115 147 191 235 282 340
#     4  10  21  39  59  82 114 151 191 239 288 341
#     4  11  23  36  57  86 115 149 192 238 286 344
#     4   9  19  35  54  81 113 148 190 234 282 337
#     4   8  15  30  57  85 109 146 194 233 276 333
#     4   9  16  32  57  79 111 155 187 229 285 331
#     4   9  20  39  61  84 113 148 191 238 287 345
#
# _framework density 24.166052000000001
#
# number of rings (size 3 to 8) (size 9 to 14) (size 15 to 20)
#    0.000    2.500    0.000    1.500    0.000    6.500 
#    0.000    9.375    0.000   25.500    0.000    0.000 
#    0.000    0.000    0.000    0.000    0.000    0.000 
#
# Total GULP energy -89394.409462 kJ/mol
# GULP energy per Si atom -5587.150591 kJ/mol
# Density = 2.411105 g / cm^3
# Si number density = 24.166052 Si / 1000 Ang^3
#
#
#
# Elastic Constant Matrix: (Units=GPa)
#
#
# Indices 1 2 3 4 5 6 
#
# 1 44.3128 38.3488 18.2233 23.2427 10.9331 11.6251
# 2 38.3488 173.5569 51.5091 34.9990 13.4542 9.6018
# 3 18.2233 51.5091 89.9326 45.6359 8.5338 13.2350
# 4 23.2427 34.9990 45.6359 49.3138 1.3021 12.4859
# 5 10.9331 13.4542 8.5338 1.3021 28.3262 7.4720
# 6 11.6251 9.6018 13.2350 12.4859 7.4720 54.7378
#
#
#
# Elastic Compliance Matrix: (Units=1/GPa)
#
#
# Indices 1 2 3 4 5 6 
#
# 1 0.038669 -0.005481 0.006921 -0.019724 -0.012793 -0.002679
# 2 -0.005481 0.008047 -0.003499 -0.000051 -0.000841 0.000725
# 3 0.006921 -0.003499 0.023944 -0.022618 -0.007045 -0.000525
# 4 -0.019724 -0.000051 -0.022618 0.051156 0.013099 -0.003790
# 5 -0.012793 -0.000841 -0.007045 0.013099 0.043303 -0.004331
# 6 -0.002679 0.000725 -0.000525 -0.003790 -0.004331 0.020293
#
#
# Mechanical properties :
#
#
# Convention : Reuss Voigt Hill
#
# Bulk Modulus (GPa) = 15.02831 58.21830 36.62331
# Shear Modulus (GPa) = 23.61712 39.79030 31.70371
#
# Velocity S-wave (km/s) = 3.12955 4.06216 3.62596
# Velocity P-wave (km/s) = 4.39215 6.79299 5.71995
#
# Compressibility (1/GPa) = 0.06654109
#
# Stress axis : x y z
#
# Youngs Moduli (GPa) = 25.86080 124.27503 41.76336
#
# Poissons Ratio (x) = 0.68110 -0.28903
# Poissons Ratio (y) = 0.14173 0.14614
# Poissons Ratio (z) = -0.17897 0.43488
#
# Static dielectric constant tensor:
#      x y z
#    x 1.916300 -0.003160 0.081750 
#    y -0.003160 1.969150 -0.016830 
#    z 0.081750 -0.016830 1.910360 
# 
# From -- ./inp_files/13453.got.cif
#   From: 2010.05.17/outbox.cif.g08.bks.cpg/sg2_7_cif.got.tgz:13453.got - 2010.06.03 11:33:40.
