data_PCOD9001003
_publ_section_title
;
Structure prediction by ZEFSAII (Michael W. Deem and Ramdas Pophale) SiO2 
 PCOD9001003
Probable space group: P -1
;
_chemical_formula_sum "Si O2"
_cell_formula_units_Z 16
_cell_length_a 24.137408
_cell_length_b 8.283349
_cell_length_c 6.180365
_cell_angle_alpha 69.543236
_cell_angle_beta 113.914172
_cell_angle_gamma 147.518134
_cell_volume 606.567727
_symmetry_space_group_name_H-M "P -1"
_symmetry_group_IT_number 2
_symmetry_cell_setting 'triclinic'
loop_
_space_group_symop_operation_xyz
x,y,z
-x,-y,-z
loop_
_atom_site_type_symbol
_atom_site_label
_atom_site_fract_x
_atom_site_fract_y
_atom_site_fract_z
Si Si1 0.919977 0.817251 0.256751
Si Si2 0.830099 0.106856 0.833939
Si Si3 0.656824 0.459537 0.631411
Si Si4 0.573766 0.016086 0.029125
Si Si5 0.981908 0.233134 0.787569
Si Si6 0.333078 0.028306 0.495382
Si Si7 0.486463 0.615171 0.708151
Si Si8 0.191459 0.170585 0.676693
O O1 0.915101 0.615314 0.234798
O O2 0.823515 0.699809 0.255286
O O3 0.960950 0.047790 0.032791
O O4 0.000000 0.000000 0.500000
O O5 0.739446 0.768138 0.753467
O O6 0.941303 0.317059 0.795989
O O7 0.783484 0.185924 0.664667
O O8 0.827066 0.044905 0.109548
O O9 0.541668 0.275127 0.518220
O O10 0.701332 0.565705 0.410127
O O11 0.646600 0.257527 0.835703
O O12 0.639681 0.085527 0.292745
O O13 0.504872 0.708560 0.940833
O O14 0.500000 0.000000 0.000000
O O15 0.897591 0.027337 0.556639
O O16 0.379745 0.264816 0.642744
O O17 0.411525 0.227414 0.320867
#
# Coordination Sequence:
#
# PCOD9001003 Si02
#       8
#     2   2   2   2   2   2   2   2
#     4   8  13  24  44  72 107 139 164 212 259 312
#     4   9  19  33  50  75 105 140 175 223 268 318
#     4  10  21  33  52  75 101 137 180 224 274 323
#     4  12  24  37  57  77 105 141 184 237 279 324
#     4   8  14  26  45  74 105 135 175 206 264 313
#     4  10  22  38  55  79 103 139 188 225 278 327
#     4  10  22  38  55  75 102 140 183 229 278 330
#     4   9  17  28  47  71 106 139 172 215 267 312
#
# _framework density 26.377929999999999
#
# number of rings (size 3 to 8) (size 9 to 14) (size 15 to 20)
#    0.000    2.500    1.250    0.750    1.750    3.000 
#    0.000    0.000    0.000    0.000    0.000    0.875 
#    0.000   91.000    0.000   15.125    0.000    1.750 
#
# Total GULP energy -89288.573537 kJ/mol
# GULP energy per Si atom -5580.535846 kJ/mol
# Density = 2.631789 g / cm^3
# Si number density = 26.377930 Si / 1000 Ang^3
#
#
#
# Elastic Constant Matrix: (Units=GPa)
#
#
# Indices 1 2 3 4 5 6 
#
# 1 157.5587 6.2529 61.3170 -10.3433 1.6768 -3.7148
# 2 6.2529 49.0062 21.4544 8.9454 -7.2470 -1.1655
# 3 61.3170 21.4544 184.1745 -10.3995 15.7969 3.6400
# 4 -10.3433 8.9454 -10.3995 35.3523 -4.0272 -12.9480
# 5 1.6768 -7.2470 15.7969 -4.0272 49.1530 -4.5379
# 6 -3.7148 -1.1655 3.6400 -12.9480 -4.5379 18.5851
#
#
#
# Elastic Compliance Matrix: (Units=1/GPa)
#
#
# Indices 1 2 3 4 5 6 
#
# 1 0.007662 -0.000195 -0.002535 0.003403 0.001236 0.004689
# 2 -0.000195 0.023791 -0.003410 -0.007424 0.003806 -0.002122
# 3 -0.002535 -0.003410 0.007011 0.001150 -0.002757 -0.001966
# 4 0.003403 -0.007424 0.001150 0.043625 0.004910 0.031582
# 5 0.001236 0.003806 -0.002757 0.004910 0.023083 0.010082
# 6 0.004689 -0.002122 -0.001966 0.031582 0.010082 0.079460
#
#
# Mechanical properties :
#
#
# Convention : Reuss Voigt Hill
#
# Bulk Modulus (GPa) = 38.19107 63.19868 50.69487
# Shear Modulus (GPa) = 24.31441 40.73242 32.52341
#
# Velocity S-wave (km/s) = 3.03936 3.93388 3.51519
# Velocity P-wave (km/s) = 5.17946 6.68167 5.97794
#
# Compressibility (1/GPa) = 0.02618413
#
# Stress axis : x y z
#
# Youngs Moduli (GPa) = 130.51762 42.03292 142.63348
#
# Poissons Ratio (x) = 0.00819 0.36153
# Poissons Ratio (y) = 0.02544 0.48641
# Poissons Ratio (z) = 0.33082 0.14334
#
# Static dielectric constant tensor:
#      x y z
#    x 2.159670 -0.069330 0.014190 
#    y -0.069330 2.140440 -0.067750 
#    z 0.014190 -0.067750 2.102880 
# 
# From -- ./inp_files/126113.got.cif
#   From: 2010.05.17/outbox.cif.g08.bks.cpg/sg2_64_cif.got.tgz:126113.got - 2010.06.03 11:33:40.
