data_PCOD9001190
_publ_section_title
;
Structure prediction by ZEFSAII (Michael W. Deem and Ramdas Pophale) SiO2 
 PCOD9001190
Probable space group: P -1
;
_chemical_formula_sum "Si O2"
_cell_formula_units_Z 14
_cell_length_a 16.015232
_cell_length_b 11.775767
_cell_length_c 15.086613
_cell_angle_alpha 49.398373
_cell_angle_beta 162.175270
_cell_angle_gamma 131.592149
_cell_volume 649.154916
_symmetry_space_group_name_H-M "P -1"
_symmetry_group_IT_number 2
_symmetry_cell_setting 'triclinic'
loop_
_space_group_symop_operation_xyz
x,y,z
-x,-y,-z
loop_
_atom_site_type_symbol
_atom_site_label
_atom_site_fract_x
_atom_site_fract_y
_atom_site_fract_z
Si Si1 0.285953 0.574096 0.145653
Si Si2 0.733893 0.049782 0.584993
Si Si3 0.810178 0.955672 0.076718
Si Si4 0.250180 0.407348 0.510932
Si Si5 0.011746 0.725964 0.948070
Si Si6 0.720564 0.911853 0.217963
Si Si7 0.563239 0.241130 0.477209
O O1 0.068608 0.589378 0.838355
O O2 0.249503 0.397915 0.224675
O O3 0.599395 0.632376 0.406566
O O4 0.182758 0.655777 0.082469
O O5 0.666912 0.162912 0.535893
O O6 0.017675 0.123191 0.782143
O O7 0.699446 0.884032 0.685799
O O8 0.481342 0.035095 0.267643
O O9 0.745128 0.922224 0.130741
O O10 0.026238 0.116295 0.210065
O O11 0.296677 0.268473 0.689447
O O12 0.418693 0.578139 0.617586
O O13 0.207799 0.752466 0.218136
O O14 0.000000 0.000000 0.500000
O O15 0.500000 0.000000 0.000000
#
# Coordination Sequence:
#
# PCOD9001190 Si02
#       7
#     2   2   2   2   2   2   2
#     4  10  21  34  56  87 117 145 183 238 293 346
#     4  10  22  39  60  87 118 151 193 241 289 337
#     4  11  22  38  58  84 116 154 193 236 286 339
#     4  11  22  39  58  84 116 153 193 235 286 341
#     4   9  19  34  56  85 116 148 186 233 291 349
#     4  12  25  42  63  86 117 155 194 236 286 347
#     4   9  21  38  61  87 117 154 193 239 289 342
#
# _framework density 21.566500000000001
#
# number of rings (size 3 to 8) (size 9 to 14) (size 15 to 20)
#    0.000    1.714    0.000    4.286    0.000   16.000 
#    0.000    1.429    0.000    0.000    0.000    0.000 
#    0.000    0.000    0.000    0.000    0.000    0.000 
#
# Total GULP energy -78046.368361 kJ/mol
# GULP energy per Si atom -5574.740597 kJ/mol
# Density = 2.151741 g / cm^3
# Si number density = 21.566500 Si / 1000 Ang^3
#
#
#
# Elastic Constant Matrix: (Units=GPa)
#
#
# Indices 1 2 3 4 5 6 
#
# 1 129.8881 57.7106 17.1144 -22.8923 5.3835 13.2777
# 2 57.7106 106.3220 18.5847 -25.6225 -12.0729 8.1435
# 3 17.1144 18.5847 79.5459 -13.9071 25.6122 6.0178
# 4 -22.8923 -25.6225 -13.9071 22.7915 4.1798 -5.6866
# 5 5.3835 -12.0729 25.6122 4.1798 30.3209 1.8744
# 6 13.2777 8.1435 6.0178 -5.6866 1.8744 33.3253
#
#
#
# Elastic Compliance Matrix: (Units=1/GPa)
#
#
# Indices 1 2 3 4 5 6 
#
# 1 0.011807 -0.005674 0.002867 0.008156 -0.007778 -0.002006
# 2 -0.005674 0.016383 -0.004465 0.008093 0.010194 -0.000129
# 3 0.002867 -0.004465 0.024007 0.017060 -0.024913 -0.000074
# 4 0.008156 0.008093 0.017060 0.077482 -0.023704 0.006247
# 5 -0.007778 0.010194 -0.024913 -0.023704 0.062885 -0.002475
# 6 -0.002006 -0.000129 -0.000074 0.006247 -0.002475 0.032057
#
#
# Mechanical properties :
#
#
# Convention : Reuss Voigt Hill
#
# Bulk Modulus (GPa) = 26.55667 55.84172 41.19919
# Shear Modulus (GPa) = 19.86361 32.11063 25.98712
#
# Velocity S-wave (km/s) = 3.03816 3.86283 3.47504
# Velocity P-wave (km/s) = 4.96465 6.77084 5.93684
#
# Compressibility (1/GPa) = 0.03765532
#
# Stress axis : x y z
#
# Youngs Moduli (GPa) = 84.69504 61.03714 41.65397
#
# Poissons Ratio (x) = 0.34632 -0.11944
# Poissons Ratio (y) = 0.48056 0.18597
# Poissons Ratio (z) = -0.24285 0.27251
#
# Static dielectric constant tensor:
#      x y z
#    x 1.878360 -0.043340 0.079520 
#    y -0.043340 1.907870 -0.064920 
#    z 0.079520 -0.064920 1.857440 
# 
# From -- ./inp_files/63919.got.cif
#   From: 2010.05.17/outbox.cif.g08.bks.cpg/sg2_32_cif.got.tgz:63919.got - 2010.06.03 11:33:40.
