data_PCOD9001238
_publ_section_title
;
Structure prediction by ZEFSAII (Michael W. Deem and Ramdas Pophale) SiO2 
 PCOD9001238
Probable space group: P -1
;
_chemical_formula_sum "Si O2"
_cell_formula_units_Z 12
_cell_length_a 12.481307
_cell_length_b 5.069862
_cell_length_c 13.132648
_cell_angle_alpha 95.469442
_cell_angle_beta 137.313976
_cell_angle_gamma 77.441161
_cell_volume 547.310574
_symmetry_space_group_name_H-M "P -1"
_symmetry_group_IT_number 2
_symmetry_cell_setting 'triclinic'
loop_
_space_group_symop_operation_xyz
x,y,z
-x,-y,-z
loop_
_atom_site_type_symbol
_atom_site_label
_atom_site_fract_x
_atom_site_fract_y
_atom_site_fract_z
Si Si1 0.627399 0.610143 0.520703
Si Si2 0.635314 0.102230 0.802820
Si Si3 0.168420 0.982050 0.347955
Si Si4 0.181295 0.755392 0.894590
Si Si5 0.829492 0.521107 0.933743
Si Si6 0.009353 0.763845 0.578347
O O1 0.500000 0.500000 0.500000
O O2 0.528885 0.743862 0.357534
O O3 0.715081 0.854223 0.623909
O O4 0.760672 0.331865 0.591760
O O5 0.768186 0.250748 0.850992
O O6 0.691160 0.781543 0.819233
O O7 0.662346 0.166250 0.943422
O O8 0.134930 0.143879 0.437917
O O9 0.163940 0.724689 0.761413
O O10 0.162195 0.494514 0.937833
O O11 0.015319 0.969001 0.820019
O O12 0.000000 0.500000 0.000000
O O13 0.000000 0.500000 0.500000
O O14 0.000000 0.000000 0.500000
#
# Coordination Sequence:
#
# PCOD9001238 Si02
#       6
#     2   2   2   2   2   2
#     4  12  25  38  59  88 133 168 196 234 310 369
#     4  10  23  35  56  82 119 162 192 243 297 354
#     4  10  24  39  60  90 121 155 205 254 298 361
#     4   8  24  35  66  83 120 150 211 253 296 345
#     4  10  21  34  58  85 116 153 210 245 291 342
#     4  10  21  38  67  93 113 150 208 268 313 339
#
# _framework density 21.925395999999999
#
# number of rings (size 3 to 8) (size 9 to 14) (size 15 to 20)
#    2.000    0.000    0.000    3.000    9.333    0.000 
#    0.000    0.000    0.000    6.000    0.000    0.000 
#    0.000    0.000    0.000    0.000    0.000    0.000 
#
# Total GULP energy -66835.609662 kJ/mol
# GULP energy per Si atom -5569.634139 kJ/mol
# Density = 2.187549 g / cm^3
# Si number density = 21.925396 Si / 1000 Ang^3
#
#
#
# Elastic Constant Matrix: (Units=GPa)
#
#
# Indices 1 2 3 4 5 6 
#
# 1 33.8364 5.6655 11.7857 -4.0485 -15.4325 17.3216
# 2 5.6655 151.4636 49.1526 -28.4991 -9.2079 21.7365
# 3 11.7857 49.1526 159.5038 -22.5690 -27.3276 1.3691
# 4 -4.0485 -28.4991 -22.5690 40.8272 2.7985 2.3693
# 5 -15.4325 -9.2079 -27.3276 2.7985 39.9290 -1.7203
# 6 17.3216 21.7365 1.3691 2.3693 -1.7203 23.3573
#
#
#
# Elastic Compliance Matrix: (Units=1/GPa)
#
#
# Indices 1 2 3 4 5 6 
#
# 1 0.078567 0.012702 -0.001845 0.017780 0.027782 -0.069734
# 2 0.012702 0.011898 -0.002358 0.009169 0.004494 -0.020953
# 3 -0.001845 -0.002358 0.008154 0.002199 0.004307 0.003179
# 4 0.017780 0.009169 0.002199 0.034837 0.006978 -0.024867
# 5 0.027782 0.004494 0.004307 0.006978 0.038289 -0.022925
# 6 -0.069734 -0.020953 0.003179 -0.024867 -0.022925 0.114674
#
#
# Mechanical properties :
#
#
# Convention : Reuss Voigt Hill
#
# Bulk Modulus (GPa) = 8.64930 53.11238 30.88084
# Shear Modulus (GPa) = 16.23587 39.36936 27.80261
#
# Velocity S-wave (km/s) = 2.72417 4.24206 3.56484
# Velocity P-wave (km/s) = 3.72133 6.94767 5.57308
#
# Compressibility (1/GPa) = 0.11561630
#
# Stress axis : x y z
#
# Youngs Moduli (GPa) = 12.72800 84.05056 122.63828
#
# Poissons Ratio (x) = -1.06761 0.22632
# Poissons Ratio (y) = -0.16167 0.28915
# Poissons Ratio (z) = 0.02349 0.19817
#
# Static dielectric constant tensor:
#      x y z
#    x 2.012280 0.069900 -0.143930 
#    y 0.069900 1.812330 -0.009210 
#    z -0.143930 -0.009210 1.965430 
# 
# From -- ./inp_files/61770.got.cif
#   From: 2010.05.17/outbox.cif.g08.bks.cpg/sg2_31_cif.got.tgz:61770.got - 2010.06.03 11:33:40.
