data_PCOD9001898
_publ_section_title
;
Structure prediction by ZEFSAII (Michael W. Deem and Ramdas Pophale) SiO2 
 PCOD9001898
Probable space group: P -1
;
_chemical_formula_sum "Si O2"
_cell_formula_units_Z 14
_cell_length_a 11.763649
_cell_length_b 23.330661
_cell_length_c 5.511842
_cell_angle_alpha 124.860872
_cell_angle_beta 70.423013
_cell_angle_gamma 150.567291
_cell_volume 558.074704
_symmetry_space_group_name_H-M "P -1"
_symmetry_group_IT_number 2
_symmetry_cell_setting 'triclinic'
loop_
_space_group_symop_operation_xyz
x,y,z
-x,-y,-z
loop_
_atom_site_type_symbol
_atom_site_label
_atom_site_fract_x
_atom_site_fract_y
_atom_site_fract_z
Si Si1 0.434101 0.663228 0.294378
Si Si2 0.745749 0.949957 0.988093
Si Si3 0.479429 0.425850 0.643527
Si Si4 0.212227 0.127712 0.847409
Si Si5 0.907025 0.340567 0.887763
Si Si6 0.080032 0.306315 0.381636
Si Si7 0.332738 0.819872 0.819249
O O1 0.570242 0.801958 0.627274
O O2 0.508629 0.638644 0.363907
O O3 0.557259 0.716372 0.068848
O O4 0.132221 0.511010 0.134338
O O5 0.629357 0.963695 0.019764
O O6 0.706829 0.905784 0.183803
O O7 0.037837 0.083018 0.047969
O O8 0.229500 0.315103 0.391287
O O9 0.719103 0.554195 0.603539
O O10 0.500000 0.500000 0.000000
O O11 0.000000 0.000000 0.500000
O O12 0.269011 0.746303 0.436344
O O13 0.787340 0.274417 0.078493
O O14 0.039285 0.333565 0.714154
O O15 0.812003 0.180179 0.125503
#
# Coordination Sequence:
#
# PCOD9001898 Si02
#       7
#     2   2   2   2   2   2   2
#     4  11  21  35  59  86 123 152 199 241 293 350
#     4  10  23  39  59  80 117 159 203 243 292 345
#     4  11  18  34  55  85 125 157 189 237 288 359
#     4   9  22  40  56  82 108 158 206 248 289 341
#     4  10  21  36  53  93 120 157 188 232 300 359
#     4   9  20  33  54  83 124 155 193 223 292 354
#     4  10  21  38  57  85 124 157 193 235 298 360
#
# _framework density 25.08625
#
# number of rings (size 3 to 8) (size 9 to 14) (size 15 to 20)
#    0.857    1.143    2.857    0.000    8.000    1.143 
#    0.000    0.000    0.000    0.857    0.000   11.000 
#    0.000    0.000    0.000    0.000    0.000    0.000 
#
# Total GULP energy -78055.536929 kJ/mol
# GULP energy per Si atom -5575.395495 kJ/mol
# Density = 2.502915 g / cm^3
# Si number density = 25.086250 Si / 1000 Ang^3
#
#
#
# Elastic Constant Matrix: (Units=GPa)
#
#
# Indices 1 2 3 4 5 6 
#
# 1 185.5027 43.3873 14.7512 -1.8316 45.2070 -2.5207
# 2 43.3873 111.6484 23.7175 -38.3362 8.0235 -15.5100
# 3 14.7512 23.7175 52.3558 -21.4067 20.3740 -8.0277
# 4 -1.8316 -38.3362 -21.4067 30.8137 -1.1193 3.3135
# 5 45.2070 8.0235 20.3740 -1.1193 47.3978 2.9732
# 6 -2.5207 -15.5100 -8.0277 3.3135 2.9732 45.3277
#
#
#
# Elastic Compliance Matrix: (Units=1/GPa)
#
#
# Indices 1 2 3 4 5 6 
#
# 1 0.008130 -0.004464 0.000547 -0.004942 -0.007342 -0.000136
# 2 -0.004464 0.019719 0.004285 0.026646 -0.000629 0.005351
# 3 0.000547 0.004285 0.036616 0.029449 -0.016726 0.006926
# 4 -0.004942 0.026646 0.029449 0.084444 -0.011001 0.008607
# 5 -0.007342 -0.000629 -0.016726 -0.011001 0.035457 -0.005107
# 6 -0.000136 0.005351 0.006926 0.008607 -0.005107 0.024818
#
#
# Mechanical properties :
#
#
# Convention : Reuss Voigt Hill
#
# Bulk Modulus (GPa) = 15.33706 57.02432 36.18069
# Shear Modulus (GPa) = 21.72201 42.55123 32.13662
#
# Velocity S-wave (km/s) = 2.94580 4.12296 3.58305
# Velocity P-wave (km/s) = 4.20682 6.74134 5.61885
#
# Compressibility (1/GPa) = 0.06520153
#
# Stress axis : x y z
#
# Youngs Moduli (GPa) = 123.00368 50.71236 27.31022
#
# Poissons Ratio (x) = 0.22637 -0.01494
# Poissons Ratio (y) = 0.54906 -0.11702
# Poissons Ratio (z) = -0.06728 -0.21730
#
# Static dielectric constant tensor:
#      x y z
#    x 2.045030 0.019860 0.047260 
#    y 0.019860 2.003380 -0.029250 
#    z 0.047260 -0.029250 2.092330 
# 
# From -- ./inp_files/63896.got.cif
#   From: 2010.05.17/outbox.cif.g08.bks.cpg/sg2_32_cif.got.tgz:63896.got - 2010.06.03 11:33:40.
