data_PCOD9001102
_publ_section_title
;
Structure prediction by ZEFSAII (Michael W. Deem and Ramdas Pophale) SiO2 
 PCOD9001102
Probable space group: P -1
;
_chemical_formula_sum "Si O2"
_cell_formula_units_Z 16
_cell_length_a 10.645275
_cell_length_b 19.010598
_cell_length_c 12.609628
_cell_angle_alpha 138.941341
_cell_angle_beta 35.953933
_cell_angle_gamma 151.783877
_cell_volume 700.714232
_symmetry_space_group_name_H-M "P -1"
_symmetry_group_IT_number 2
_symmetry_cell_setting 'triclinic'
loop_
_space_group_symop_operation_xyz
x,y,z
-x,-y,-z
loop_
_atom_site_type_symbol
_atom_site_label
_atom_site_fract_x
_atom_site_fract_y
_atom_site_fract_z
Si Si1 0.845223 0.905967 0.222760
Si Si2 0.658582 0.873388 0.627035
Si Si3 0.762379 0.117013 0.537424
Si Si4 0.652429 0.033447 0.168014
Si Si5 0.944435 0.635700 0.707230
Si Si6 0.121276 0.663160 0.868160
Si Si7 0.303911 0.317769 0.749547
Si Si8 0.156685 0.649198 0.352443
O O1 0.812438 0.803749 0.218286
O O2 0.520533 0.779387 0.242962
O O3 0.877367 0.038096 0.394051
O O4 0.141980 0.982467 0.043452
O O5 0.525395 0.938397 0.745298
O O6 0.480010 0.804507 0.781548
O O7 0.586310 0.728334 0.465628
O O8 0.000000 0.000000 0.500000
O O9 0.958351 0.278277 0.533758
O O10 0.500000 0.000000 0.500000
O O11 0.592251 0.099297 0.736813
O O12 0.911522 0.199143 0.233433
O O13 0.591554 0.490939 0.778718
O O14 0.024153 0.652239 0.797169
O O15 0.089324 0.617082 0.489679
O O16 0.993975 0.499332 0.778168
O O17 0.965256 0.691841 0.086423
#
# Coordination Sequence:
#
# PCOD9001102 Si02
#       8
#     2   2   2   2   2   2   2   2
#     4  11  19  33  54  82 114 150 180 215 273 334
#     4  11  24  39  58  81 110 144 187 237 282 324
#     4  10  21  34  49  79 118 155 182 211 265 331
#     4  11  21  36  54  80 116 148 183 226 272 328
#     4  11  18  31  55  84 115 146 171 223 284 332
#     4  11  21  35  55  85 113 143 180 229 285 330
#     4  12  20  34  60  83 112 143 178 229 287 335
#     4  11  20  33  52  81 121 150 182 215 264 336
#
# _framework density 22.833843999999999
#
# number of rings (size 3 to 8) (size 9 to 14) (size 15 to 20)
#    0.000    1.000    8.750    2.250    0.000    2.500 
#    2.250    0.000    0.000    0.750    0.000    1.750 
#    0.000    0.000    0.000    0.000    0.000    0.000 
#
# Total GULP energy -89079.181039 kJ/mol
# GULP energy per Si atom -5567.448815 kJ/mol
# Density = 2.278187 g / cm^3
# Si number density = 22.833844 Si / 1000 Ang^3
#
#
#
# Elastic Constant Matrix: (Units=GPa)
#
#
# Indices 1 2 3 4 5 6 
#
# 1 12.2551 23.7858 8.7132 0.9558 -2.8859 -4.9227
# 2 23.7858 83.4359 23.4214 -2.5773 -16.4935 -8.5220
# 3 8.7132 23.4214 128.4084 -24.8272 -12.5976 -1.6794
# 4 0.9558 -2.5773 -24.8272 39.3199 3.3645 -9.9707
# 5 -2.8859 -16.4935 -12.5976 3.3645 17.8839 1.8555
# 6 -4.9227 -8.5220 -1.6794 -9.9707 1.8555 30.1699
#
#
#
# Elastic Compliance Matrix: (Units=1/GPa)
#
#
# Indices 1 2 3 4 5 6 
#
# 1 0.203405 -0.060254 -0.006660 -0.006863 -0.027726 0.015236
# 2 -0.060254 0.033111 0.000440 0.001838 0.020894 -0.001132
# 3 -0.006660 0.000440 0.009895 0.006366 0.004959 0.001387
# 4 -0.006863 0.001838 0.006366 0.032631 -0.002175 0.010672
# 5 -0.027726 0.020894 0.004959 -0.002175 0.074996 -0.003677
# 6 0.015236 -0.001132 0.001387 0.010672 -0.003677 0.039142
#
#
# Mechanical properties :
#
#
# Convention : Reuss Voigt Hill
#
# Bulk Modulus (GPa) = 8.81348 37.32671 23.07009
# Shear Modulus (GPa) = 8.86605 28.68669 18.77637
#
# Velocity S-wave (km/s) = 1.97263 3.54831 2.87070
# Velocity P-wave (km/s) = 3.00942 5.75933 4.59492
#
# Compressibility (1/GPa) = 0.11346257
#
# Stress axis : x y z
#
# Youngs Moduli (GPa) = 4.91629 30.20190 101.06276
#
# Poissons Ratio (x) = 1.81978 0.67305
# Poissons Ratio (y) = 0.29623 -0.04443
# Poissons Ratio (z) = 0.03274 -0.01328
#
# Static dielectric constant tensor:
#      x y z
#    x 1.989750 0.045640 -0.010740 
#    y 0.045640 1.886980 -0.000430 
#    z -0.010740 -0.000430 1.945910 
# 
# From -- ./inp_files/457919.got.cif
#   From: 2010.05.17/outbox.cif.g08.bks.cpg/sg2_229_cif.got.tgz:457919.got - 2010.06.03 11:33:40.
