data_PCOD9001758
_publ_section_title
;
Structure prediction by ZEFSAII (Michael W. Deem and Ramdas Pophale) SiO2 
 PCOD9001758
Probable space group: P -1
;
_chemical_formula_sum "Si O2"
_cell_formula_units_Z 12
_cell_length_a 8.592100
_cell_length_b 9.016068
_cell_length_c 9.001979
_cell_angle_alpha 113.812248
_cell_angle_beta 110.818340
_cell_angle_gamma 97.653383
_cell_volume 564.264976
_symmetry_space_group_name_H-M "P -1"
_symmetry_group_IT_number 2
_symmetry_cell_setting 'triclinic'
loop_
_space_group_symop_operation_xyz
x,y,z
-x,-y,-z
loop_
_atom_site_type_symbol
_atom_site_label
_atom_site_fract_x
_atom_site_fract_y
_atom_site_fract_z
Si Si1 0.414349 0.944998 0.112863
Si Si2 0.759205 0.332974 0.265769
Si Si3 0.583659 0.585257 0.835079
Si Si4 0.050627 0.269192 0.494831
Si Si5 0.166661 0.156464 0.177485
Si Si6 0.359904 0.240966 0.751815
O O1 0.555540 0.906386 0.251298
O O2 0.318454 0.067905 0.198732
O O3 0.268575 0.765849 0.940601
O O4 0.500000 0.000000 0.000000
O O5 0.573812 0.352164 0.256760
O O6 0.878868 0.528577 0.362598
O O7 0.846043 0.239063 0.376885
O O8 0.755707 0.677084 0.834537
O O9 0.489437 0.382100 0.742140
O O10 0.625531 0.664780 0.046069
O O11 0.120150 0.224863 0.343390
O O12 0.156689 0.188650 0.612467
O O13 0.000000 0.000000 0.000000
#
# Coordination Sequence:
#
# PCOD9001758 Si02
#       6
#     2   2   2   2   2   2
#     4  11  20  40  64  84 117 165 195 233 305 358
#     4   9  18  37  60  84 114 164 190 225 293 369
#     4   9  19  39  64  83 117 164 197 226 296 368
#     4  10  21  35  62  92 120 147 200 249 286 344
#     4  12  23  37  62  91 120 154 196 249 298 343
#     4   9  19  37  64  86 114 157 203 236 283 362
#
# _framework density 21.266605999999999
#
# number of rings (size 3 to 8) (size 9 to 14) (size 15 to 20)
#    0.000    2.000    5.000    1.000    0.000    3.333 
#    0.000    4.167    3.667    0.000    0.000    0.000 
#    0.000    0.000    0.000    0.000    0.000    0.000 
#
# Total GULP energy -66821.739039 kJ/mol
# GULP energy per Si atom -5568.478253 kJ/mol
# Density = 2.121820 g / cm^3
# Si number density = 21.266606 Si / 1000 Ang^3
#
#
#
# Elastic Constant Matrix: (Units=GPa)
#
#
# Indices 1 2 3 4 5 6 
#
# 1 63.1271 48.4726 27.6101 -21.7322 12.8645 -5.7312
# 2 48.4726 90.0877 26.3147 -7.6113 14.6659 -12.9848
# 3 27.6101 26.3147 75.4476 -15.5937 25.1580 -1.1141
# 4 -21.7322 -7.6113 -15.5937 33.0546 -24.1140 13.7908
# 5 12.8645 14.6659 25.1580 -24.1140 40.2400 0.8248
# 6 -5.7312 -12.9848 -1.1141 13.7908 0.8248 27.2060
#
#
#
# Elastic Compliance Matrix: (Units=1/GPa)
#
#
# Indices 1 2 3 4 5 6 
#
# 1 0.078853 -0.050592 -0.012182 0.114806 0.071046 -0.068383
# 2 -0.050592 0.047186 0.003839 -0.084361 -0.055134 0.056454
# 3 -0.012182 0.003839 0.019732 -0.015358 -0.019217 0.008442
# 4 0.114806 -0.084361 -0.015358 0.265043 0.165673 -0.156081
# 5 0.071046 -0.055134 -0.019217 0.165673 0.135581 -0.100225
# 6 -0.068383 0.056454 0.008442 -0.156081 -0.100225 0.131798
#
#
# Mechanical properties :
#
#
# Convention : Reuss Voigt Hill
#
# Bulk Modulus (GPa) = 35.84281 48.16190 42.00235
# Shear Modulus (GPa) = 6.20838 28.51780 17.36309
#
# Velocity S-wave (km/s) = 1.71045 3.66589 2.86046
# Velocity P-wave (km/s) = 4.55977 6.37293 5.54102
#
# Compressibility (1/GPa) = 0.02789960
#
# Stress axis : x y z
#
# Youngs Moduli (GPa) = 12.68182 21.19293 50.67944
#
# Poissons Ratio (x) = 1.07219 0.61740
# Poissons Ratio (y) = 0.64160 -0.19455
# Poissons Ratio (z) = 0.15450 -0.08136
#
# Static dielectric constant tensor:
#      x y z
#    x 1.781920 0.017130 0.086360 
#    y 0.017130 1.869850 0.032180 
#    z 0.086360 0.032180 1.821050 
# 
# From -- ./inp_files/155711.got.cif
#   From: 2010.05.17/outbox.cif.g08.bks.cpg/sg2_78_cif.got.tgz:155711.got - 2010.06.03 11:33:40.
