data_PCOD9001127
_publ_section_title
;
Structure prediction by ZEFSAII (Michael W. Deem and Ramdas Pophale) SiO2 
 PCOD9001127
Probable space group: P -1
;
_chemical_formula_sum "Si O2"
_cell_formula_units_Z 14
_cell_length_a 11.399255
_cell_length_b 15.672762
_cell_length_c 5.514351
_cell_angle_alpha 99.800933
_cell_angle_beta 118.367282
_cell_angle_gamma 106.747488
_cell_volume 772.999979
_symmetry_space_group_name_H-M "P -1"
_symmetry_group_IT_number 2
_symmetry_cell_setting 'triclinic'
loop_
_space_group_symop_operation_xyz
x,y,z
-x,-y,-z
loop_
_atom_site_type_symbol
_atom_site_label
_atom_site_fract_x
_atom_site_fract_y
_atom_site_fract_z
Si Si1 0.032516 0.110205 0.591190
Si Si2 0.827179 0.475297 0.452417
Si Si3 0.087838 0.634659 0.907545
Si Si4 0.640738 0.536170 0.980420
Si Si5 0.301415 0.268543 0.146374
Si Si6 0.621732 0.359773 0.562571
Si Si7 0.014775 0.198589 0.108867
O O1 0.989131 0.141698 0.308145
O O2 0.205532 0.178744 0.839519
O O3 0.963999 0.134956 0.780775
O O4 0.000000 0.000000 0.500000
O O5 0.894467 0.410454 0.353312
O O6 0.672766 0.397248 0.361641
O O7 0.934841 0.545478 0.795594
O O8 0.784515 0.543250 0.270698
O O9 0.057957 0.727435 0.914934
O O10 0.238922 0.654111 0.202240
O O11 0.670888 0.633974 0.920844
O O12 0.611834 0.449487 0.727286
O O13 0.500000 0.500000 0.000000
O O14 0.460209 0.275309 0.376487
O O15 0.191219 0.255927 0.257334
#
# Coordination Sequence:
#
# PCOD9001127 Si02
#       7
#     2   2   2   2   2   2   2
#     4  10  23  42  68  95 117 147 203 265 316 359
#     4  10  21  34  53  75 128 165 211 242 282 349
#     4  10  22  35  54  83 120 168 203 240 294 356
#     4  11  21  32  52  85 123 160 206 243 290 349
#     4  10  23  34  62  86 121 160 204 253 305 349
#     4  11  22  34  51  85 123 165 196 250 287 359
#     4  10  23  39  69  89 120 151 207 247 312 366
#
# _framework density 18.111256000000001
#
# number of rings (size 3 to 8) (size 9 to 14) (size 15 to 20)
#    0.857    0.857    1.429    3.000    6.000    1.143 
#    0.000    0.000    0.000    1.714    0.000    0.000 
#    0.000    0.000    0.000    0.000    0.000    0.000 
#
# Total GULP energy -77965.781695 kJ/mol
# GULP energy per Si atom -5568.984407 kJ/mol
# Density = 1.807003 g / cm^3
# Si number density = 18.111256 Si / 1000 Ang^3
#
#
#
# Elastic Constant Matrix: (Units=GPa)
#
#
# Indices 1 2 3 4 5 6 
#
# 1 92.1724 46.3653 35.2881 -1.4131 0.6640 -15.9386
# 2 46.3653 115.1396 57.7317 -0.7355 -1.5221 -17.7316
# 3 35.2881 57.7317 86.3135 -3.7453 3.4840 -13.6953
# 4 -1.4131 -0.7355 -3.7453 22.6943 -2.2467 -3.8898
# 5 0.6640 -1.5221 3.4840 -2.2467 33.5927 -2.7527
# 6 -15.9386 -17.7316 -13.6953 -3.8898 -2.7527 21.3945
#
#
#
# Elastic Compliance Matrix: (Units=1/GPa)
#
#
# Indices 1 2 3 4 5 6 
#
# 1 0.014840 -0.003669 -0.002487 0.001601 0.000460 0.006772
# 2 -0.003669 0.014800 -0.007708 0.000002 0.001940 0.004848
# 3 -0.002487 -0.007708 0.018604 0.003190 -0.001686 0.004031
# 4 0.001601 0.000002 0.003190 0.047175 0.003801 0.012302
# 5 0.000460 0.001940 -0.001686 0.003801 0.030728 0.005516
# 6 0.006772 0.004848 0.004031 0.012302 0.005516 0.061331
#
#
# Mechanical properties :
#
#
# Convention : Reuss Voigt Hill
#
# Bulk Modulus (GPa) = 48.74565 63.59953 56.17259
# Shear Modulus (GPa) = 22.51800 25.81898 24.16849
#
# Velocity S-wave (km/s) = 3.52989 3.77978 3.65697
# Velocity P-wave (km/s) = 6.60201 7.36486 6.99384
#
# Compressibility (1/GPa) = 0.02051465
#
# Stress axis : x y z
#
# Youngs Moduli (GPa) = 67.38747 67.56889 53.75205
#
# Poissons Ratio (x) = 0.24793 0.13369
# Poissons Ratio (y) = 0.24727 0.41430
# Poissons Ratio (z) = 0.16761 0.52080
#
# Static dielectric constant tensor:
#      x y z
#    x 1.773380 0.069320 0.029380 
#    y 0.069320 1.612410 -0.027030 
#    z 0.029380 -0.027030 1.718990 
# 
# From -- ./inp_files/74889.got.cif
#   From: 2010.05.17/outbox.cif.g08.bks.cpg/sg2_38_cif.got.tgz:74889.got - 2010.06.03 11:33:40.
