data_PCOD9001541
_publ_section_title
;
Structure prediction by ZEFSAII (Michael W. Deem and Ramdas Pophale) SiO2 
 PCOD9001541
Probable space group: P -1
;
_chemical_formula_sum "Si O2"
_cell_formula_units_Z 16
_cell_length_a 12.555321
_cell_length_b 15.460295
_cell_length_c 5.722215
_cell_angle_alpha 86.344545
_cell_angle_beta 104.279131
_cell_angle_gamma 48.679179
_cell_volume 768.232646
_symmetry_space_group_name_H-M "P -1"
_symmetry_group_IT_number 2
_symmetry_cell_setting 'triclinic'
loop_
_space_group_symop_operation_xyz
x,y,z
-x,-y,-z
loop_
_atom_site_type_symbol
_atom_site_label
_atom_site_fract_x
_atom_site_fract_y
_atom_site_fract_z
Si Si1 0.272332 0.673529 0.429849
Si Si2 0.785780 0.554501 0.797924
Si Si3 0.397421 0.958757 0.708309
Si Si4 0.005625 0.701485 0.289099
Si Si5 0.451361 0.728866 0.760164
Si Si6 0.511603 0.420546 0.823492
Si Si7 0.027440 0.409872 0.341486
Si Si8 0.302512 0.093878 0.135820
O O1 0.098956 0.738990 0.362488
O O2 0.331122 0.723936 0.599289
O O3 0.378647 0.530729 0.567604
O O4 0.323115 0.666703 0.195179
O O5 0.869954 0.437943 0.702096
O O6 0.604318 0.645058 0.698854
O O7 0.839813 0.620957 0.740336
O O8 0.869280 0.490122 0.100361
O O9 0.389969 0.859202 0.716642
O O10 0.573094 0.897220 0.807300
O O11 0.327129 0.032793 0.410328
O O12 0.333287 0.025049 0.917093
O O13 0.936021 0.699027 0.487828
O O14 0.873077 0.780612 0.012285
O O15 0.506532 0.661900 0.052484
O O16 0.500000 0.500000 0.000000
O O17 0.000000 0.500000 0.500000
#
# Coordination Sequence:
#
# PCOD9001541 Si02
#       8
#     2   2   2   2   2   2   2   2
#     4  10  21  38  58  97 128 174 216 259 336 397
#     4  10  21  35  58 100 130 164 212 264 346 398
#     4  10  25  47  70  96 128 173 236 272 336 396
#     4  11  22  39  65  89 134 169 214 273 333 400
#     4  11  23  38  68  92 133 173 216 279 321 402
#     4   9  18  35  58  90 133 169 211 256 320 399
#     4   9  21  35  53  93 131 163 207 261 338 402
#     4  10  25  48  69  96 127 179 226 283 331 393
#
# _framework density 20.827024000000002
#
# number of rings (size 3 to 8) (size 9 to 14) (size 15 to 20)
#    0.000    2.000    0.000    3.000    8.750    4.000 
#    0.000    1.250    0.000    0.000    0.000    0.000 
#    0.000    0.000    0.000    0.000    0.000    0.000 
#
# Total GULP energy -89210.314470 kJ/mol
# GULP energy per Si atom -5575.644654 kJ/mol
# Density = 2.077962 g / cm^3
# Si number density = 20.827024 Si / 1000 Ang^3
#
#
#
# Elastic Constant Matrix: (Units=GPa)
#
#
# Indices 1 2 3 4 5 6 
#
# 1 129.5308 45.8178 61.6416 -19.8354 7.9162 19.2251
# 2 45.8178 59.2761 22.1897 8.7939 -1.9712 12.4252
# 3 61.6416 22.1897 94.8037 2.0105 -7.9307 6.8113
# 4 -19.8354 8.7939 2.0105 21.8571 1.4135 4.2441
# 5 7.9162 -1.9712 -7.9307 1.4135 33.3150 -0.2850
# 6 19.2251 12.4252 6.8113 4.2441 -0.2850 27.5456
#
#
#
# Elastic Compliance Matrix: (Units=1/GPa)
#
#
# Indices 1 2 3 4 5 6 
#
# 1 0.038606 -0.026881 -0.020120 0.052375 -0.017931 -0.018099
# 2 -0.026881 0.039715 0.009806 -0.043123 0.012946 0.005200
# 3 -0.020120 0.009806 0.022294 -0.026641 0.011870 0.008334
# 4 0.052375 -0.043123 -0.026641 0.120510 -0.026703 -0.029359
# 5 -0.017931 0.012946 0.011870 -0.026703 0.039072 0.008258
# 6 -0.018099 0.005200 0.008334 -0.029359 0.008258 0.049138
#
#
# Mechanical properties :
#
#
# Convention : Reuss Voigt Hill
#
# Bulk Modulus (GPa) = 38.13121 60.32320 49.22720
# Shear Modulus (GPa) = 12.73993 26.80763 19.77378
#
# Velocity S-wave (km/s) = 2.47594 3.59159 3.08462
# Velocity P-wave (km/s) = 5.14995 6.79898 6.03109
#
# Compressibility (1/GPa) = 0.02622524
#
# Stress axis : x y z
#
# Youngs Moduli (GPa) = 25.90286 25.17931 44.85488
#
# Poissons Ratio (x) = 0.67685 0.90248
# Poissons Ratio (y) = 0.69630 -0.43986
# Poissons Ratio (z) = 0.52117 -0.24692
#
# Static dielectric constant tensor:
#      x y z
#    x 1.787890 -0.021120 -0.031340 
#    y -0.021120 1.751450 0.040600 
#    z -0.031340 0.040600 1.811720 
# 
# From -- ./inp_files/71276.got.cif
#   From: 2010.05.17/outbox.cif.g08.bks.cpg/sg2_36_cif.got.tgz:71276.got - 2010.06.03 11:33:40.
