data_PCOD9001651
_publ_section_title
;
Structure prediction by ZEFSAII (Michael W. Deem and Ramdas Pophale) SiO2 
 PCOD9001651
Probable space group: P -1
;
_chemical_formula_sum "Si O2"
_cell_formula_units_Z 16
_cell_length_a 17.124040
_cell_length_b 16.761168
_cell_length_c 16.797243
_cell_angle_alpha 163.074553
_cell_angle_beta 33.493414
_cell_angle_gamma 141.173042
_cell_volume 769.230566
_symmetry_space_group_name_H-M "P -1"
_symmetry_group_IT_number 2
_symmetry_cell_setting 'triclinic'
loop_
_space_group_symop_operation_xyz
x,y,z
-x,-y,-z
loop_
_atom_site_type_symbol
_atom_site_label
_atom_site_fract_x
_atom_site_fract_y
_atom_site_fract_z
Si Si1 0.658359 0.655650 0.358180
Si Si2 0.379877 0.441660 0.984463
Si Si3 0.628622 0.113860 0.953249
Si Si4 0.969273 0.544426 0.976370
Si Si5 0.882238 0.975925 0.725128
Si Si6 0.992088 0.953706 0.155406
Si Si7 0.060804 0.463043 0.325030
Si Si8 0.665344 0.975050 0.499666
O O1 0.609924 0.844389 0.503002
O O2 0.679703 0.879189 0.621378
O O3 0.585920 0.408450 0.226692
O O4 0.808873 0.493050 0.047820
O O5 0.232569 0.406354 0.122109
O O6 0.357821 0.697784 0.184784
O O7 0.500000 0.500000 0.000000
O O8 0.409894 0.168014 0.645194
O O9 0.752036 0.116233 0.917104
O O10 0.500000 0.000000 0.000000
O O11 0.076815 0.343240 0.638364
O O12 0.000000 0.500000 0.000000
O O13 0.985518 0.864857 0.259986
O O14 0.883198 0.043596 0.882619
O O15 0.837669 0.893309 0.265093
O O16 0.969714 0.258531 0.432302
O O17 0.012949 0.758237 0.874841
O O18 0.000000 0.500000 0.500000
#
# Coordination Sequence:
#
# PCOD9001651 Si02
#       8
#     2   2   2   2   2   2   2   2
#     4  12  23  39  63  88 119 154 208 259 304 355
#     4  10  21  39  61  89 122 153 191 246 308 366
#     4  12  26  42  57  80 127 179 206 238 294 369
#     4  12  21  34  60  95 115 145 196 263 317 334
#     4  12  22  37  59  89 122 151 201 255 306 353
#     4  10  21  35  60  90 118 145 191 255 303 348
#     4  10  21  39  60  87 119 156 193 238 305 373
#     4  10  21  36  61  92 116 144 194 256 307 345
#
# _framework density 20.800006
#
# number of rings (size 3 to 8) (size 9 to 14) (size 15 to 20)
#    0.000    1.000    3.750    3.750    3.500    0.000 
#    0.000    3.750    0.000    0.000    0.000    0.000 
#    0.000    0.000    0.000    0.000    0.000    0.000 
#
# Total GULP energy -89208.127988 kJ/mol
# GULP energy per Si atom -5575.507999 kJ/mol
# Density = 2.075266 g / cm^3
# Si number density = 20.800006 Si / 1000 Ang^3
#
#
#
# Elastic Constant Matrix: (Units=GPa)
#
#
# Indices 1 2 3 4 5 6 
#
# 1 120.5439 50.7517 35.4418 -4.8195 40.9302 -24.0954
# 2 50.7517 121.9211 36.8341 18.5523 25.3590 -30.7013
# 3 35.4418 36.8341 96.7739 20.8790 40.1988 -14.8532
# 4 -4.8195 18.5523 20.8790 28.6138 4.3973 -2.2317
# 5 40.9302 25.3590 40.1988 4.3973 40.6023 -5.2226
# 6 -24.0954 -30.7013 -14.8532 -2.2317 -5.2226 31.0341
#
#
#
# Elastic Compliance Matrix: (Units=1/GPa)
#
#
# Indices 1 2 3 4 5 6 
#
# 1 0.016397 -0.002862 0.001581 0.006571 -0.015932 0.008448
# 2 -0.002862 0.014125 0.001300 -0.008993 -0.004846 0.010911
# 3 0.001581 0.001300 0.022673 -0.013013 -0.022329 0.008672
# 4 0.006571 -0.008993 -0.013013 0.050072 0.005752 -0.005454
# 5 -0.015932 -0.004846 -0.022329 0.005752 0.063037 -0.016830
# 6 0.008448 0.010911 0.008672 -0.005454 -0.016830 0.050501
#
#
# Mechanical properties :
#
#
# Convention : Reuss Voigt Hill
#
# Bulk Modulus (GPa) = 18.78514 65.03267 41.90891
# Shear Modulus (GPa) = 21.32103 34.46414 27.89259
#
# Velocity S-wave (km/s) = 3.20511 4.07496 3.66592
# Velocity P-wave (km/s) = 4.76948 7.31259 6.17340
#
# Compressibility (1/GPa) = 0.05323357
#
# Stress axis : x y z
#
# Youngs Moduli (GPa) = 60.98748 70.79862 44.10468
#
# Poissons Ratio (x) = 0.20262 -0.06974
# Poissons Ratio (y) = 0.17454 -0.05734
# Poissons Ratio (z) = -0.09644 -0.09204
#
# Static dielectric constant tensor:
#      x y z
#    x 1.802320 -0.014180 -0.006160 
#    y -0.014180 1.777180 -0.007460 
#    z -0.006160 -0.007460 1.736330 
# 
# From -- ./inp_files/534667.got.cif
#   From: 2010.05.17/outbox.cif.g08.bks.cpg/sg2_268_cif.got.tgz:534667.got - 2010.06.03 11:33:40.
