data_PCOD9001361
_publ_section_title
;
Structure prediction by ZEFSAII (Michael W. Deem and Ramdas Pophale) SiO2 
 PCOD9001361
Probable space group: P -1
;
_chemical_formula_sum "Si O2"
_cell_formula_units_Z 14
_cell_length_a 6.890866
_cell_length_b 16.390161
_cell_length_c 8.559256
_cell_angle_alpha 127.663471
_cell_angle_beta 103.353088
_cell_angle_gamma 50.994136
_cell_volume 575.822458
_symmetry_space_group_name_H-M "P -1"
_symmetry_group_IT_number 2
_symmetry_cell_setting 'triclinic'
loop_
_space_group_symop_operation_xyz
x,y,z
-x,-y,-z
loop_
_atom_site_type_symbol
_atom_site_label
_atom_site_fract_x
_atom_site_fract_y
_atom_site_fract_z
Si Si1 0.837349 0.357020 0.241034
Si Si2 0.326845 0.939644 0.058691
Si Si3 0.260471 0.348840 0.206820
Si Si4 0.129419 0.343715 0.842136
Si Si5 0.644012 0.063008 0.581320
Si Si6 0.169660 0.073429 0.862712
Si Si7 0.718124 0.420954 0.628798
O O1 0.782248 0.340225 0.388713
O O2 0.580664 0.494051 0.284235
O O3 0.058618 0.371105 0.318225
O O4 0.930159 0.230228 0.009759
O O5 0.239326 0.961024 0.249570
O O6 0.562214 0.947409 0.111152
O O7 0.463650 0.787173 0.864799
O O8 0.164008 0.021436 0.971181
O O9 0.269020 0.463464 0.290994
O O10 0.162749 0.317271 0.999972
O O11 0.419460 0.223188 0.696253
O O12 0.927567 0.339244 0.706409
O O13 0.000000 0.500000 0.000000
O O14 0.500000 0.000000 0.500000
O O15 0.812581 0.994902 0.376066
#
# Coordination Sequence:
#
# PCOD9001361 Si02
#       7
#     2   2   2   2   2   2   2
#     4  10  21  35  52  84 111 143 190 222 279 341
#     4   8  16  29  51  79 105 137 184 230 274 333
#     4   9  18  36  55  79 106 145 184 225 281 329
#     4   9  19  34  55  81 110 147 183 231 284 330
#     4   9  17  29  52  81 108 141 190 231 280 334
#     4   9  17  30  51  80 108 141 188 228 274 338
#     4  10  21  35  55  78 115 147 178 235 276 333
#
# _framework density 24.31305
#
# number of rings (size 3 to 8) (size 9 to 14) (size 15 to 20)
#    0.000    2.857    0.000    1.286    8.000    0.571 
#    0.000    0.714    0.000    7.714    0.000    0.000 
#    0.000    0.000    0.000    0.000    0.000    0.000 
#
# Total GULP energy -78036.427842 kJ/mol
# GULP energy per Si atom -5574.030560 kJ/mol
# Density = 2.425771 g / cm^3
# Si number density = 24.313050 Si / 1000 Ang^3
#
#
#
# Elastic Constant Matrix: (Units=GPa)
#
#
# Indices 1 2 3 4 5 6 
#
# 1 72.4508 14.2298 33.4996 -3.8616 -1.9193 5.7986
# 2 14.2298 80.4270 46.1105 -1.7523 -0.3757 -1.8586
# 3 33.4996 46.1105 153.1548 7.2942 -15.4065 -7.7361
# 4 -3.8616 -1.7523 7.2942 29.8373 -7.0865 11.5951
# 5 -1.9193 -0.3757 -15.4065 -7.0865 35.0854 -8.9243
# 6 5.7986 -1.8586 -7.7361 11.5951 -8.9243 29.2461
#
#
#
# Elastic Compliance Matrix: (Units=1/GPa)
#
#
# Indices 1 2 3 4 5 6 
#
# 1 0.016726 -0.000551 -0.004292 0.005586 -0.001683 -0.007215
# 2 -0.000551 0.015333 -0.004887 0.002208 -0.001997 -0.001694
# 3 -0.004292 -0.004887 0.009973 -0.004663 0.004802 0.006492
# 4 0.005586 0.002208 -0.004663 0.043306 0.002278 -0.018675
# 5 -0.001683 -0.001997 0.004802 0.002278 0.033720 0.010863
# 6 -0.007215 -0.001694 0.006492 -0.018675 0.010863 0.047951
#
#
# Mechanical properties :
#
#
# Convention : Reuss Voigt Hill
#
# Bulk Modulus (GPa) = 44.30713 54.85695 49.58204
# Shear Modulus (GPa) = 25.77405 32.97993 29.37699
#
# Velocity S-wave (km/s) = 3.25944 3.68702 3.47980
# Velocity P-wave (km/s) = 5.69459 6.38258 6.04837
#
# Compressibility (1/GPa) = 0.02256973
#
# Stress axis : x y z
#
# Youngs Moduli (GPa) = 59.78750 65.21971 100.27477
#
# Poissons Ratio (x) = 0.03596 0.43040
# Poissons Ratio (y) = 0.03297 0.49007
# Poissons Ratio (z) = 0.25662 0.31874
#
# Static dielectric constant tensor:
#      x y z
#    x 2.077330 -0.031110 -0.012250 
#    y -0.031110 2.027300 0.089830 
#    z -0.012250 0.089830 2.025610 
# 
# From -- ./inp_files/218322.got.cif
#   From: 2010.05.17/outbox.cif.g08.bks.cpg/sg2_110_cif.got.tgz:218322.got - 2010.06.03 11:33:40.
