data_PCOD9001021
_publ_section_title
;
Structure prediction by ZEFSAII (Michael W. Deem and Ramdas Pophale) SiO2 
 PCOD9001021
Probable space group: P -1
;
_chemical_formula_sum "Si O2"
_cell_formula_units_Z 16
_cell_length_a 21.311219
_cell_length_b 9.442250
_cell_length_c 10.963165
_cell_angle_alpha 42.394594
_cell_angle_beta 136.165619
_cell_angle_gamma 145.697797
_cell_volume 801.491210
_symmetry_space_group_name_H-M "P -1"
_symmetry_group_IT_number 2
_symmetry_cell_setting 'triclinic'
loop_
_space_group_symop_operation_xyz
x,y,z
-x,-y,-z
loop_
_atom_site_type_symbol
_atom_site_label
_atom_site_fract_x
_atom_site_fract_y
_atom_site_fract_z
Si Si1 0.591724 0.814474 0.402402
Si Si2 0.734075 0.528037 0.359275
Si Si3 0.202757 0.196881 0.073423
Si Si4 0.447253 0.453326 0.822077
Si Si5 0.584627 0.271042 0.057598
Si Si6 0.161800 0.909068 0.451730
Si Si7 0.342235 0.015183 0.334294
Si Si8 0.927567 0.692282 0.356767
O O1 0.500000 0.500000 0.500000
O O2 0.641545 0.934876 0.530271
O O3 0.549105 0.976854 0.190739
O O4 0.705805 0.900267 0.437110
O O5 0.683783 0.658598 0.273366
O O6 0.657005 0.399275 0.206973
O O7 0.864913 0.690753 0.390540
O O8 0.704084 0.285099 0.556676
O O9 0.249750 0.065156 0.143655
O O10 0.160112 0.047257 0.238125
O O11 0.318850 0.511515 0.042709
O O12 0.108532 0.197672 0.870186
O O13 0.532224 0.753839 0.693056
O O14 0.500000 0.500000 0.000000
O O15 0.480296 0.286818 0.905940
O O16 0.128019 0.618514 0.554288
O O17 0.065073 0.854731 0.442757
#
# Coordination Sequence:
#
# PCOD9001021 Si02
#       8
#     2   2   2   2   2   2   2   2
#     4  10  18  32  48  63  92 126 158 193 223 262
#     4   9  14  26  40  64  92 119 141 178 228 277
#     4   9  14  27  42  61  91 121 145 179 228 275
#     4   9  16  24  43  63  92 123 144 184 234 278
#     4   8  15  27  41  64  91 113 151 187 223 270
#     4  10  18  28  43  66  89 127 151 184 235 266
#     4   9  16  27  41  67  94 117 157 179 227 279
#     4  10  17  27  44  64  98 120 147 186 229 285
#
# _framework density 19.962788
#
# number of rings (size 3 to 8) (size 9 to 14) (size 15 to 20)
#    0.000    2.750    5.000    1.500    0.000    0.000 
#    0.000    5.625    0.000    0.000    0.000    1.750 
#    0.000    0.000    0.000    0.250    0.000    0.000 
#
# Total GULP energy -89123.423973 kJ/mol
# GULP energy per Si atom -5570.213998 kJ/mol
# Density = 1.991735 g / cm^3
# Si number density = 19.962788 Si / 1000 Ang^3
#
#
#
# Elastic Constant Matrix: (Units=GPa)
#
#
# Indices 1 2 3 4 5 6 
#
# 1 96.3029 33.5406 26.2594 -0.4882 19.2271 43.7806
# 2 33.5406 57.6036 29.2490 -1.5712 19.1460 32.4604
# 3 26.2594 29.2490 129.1894 -14.7564 15.3563 20.7916
# 4 -0.4882 -1.5712 -14.7564 20.9690 3.0362 2.2221
# 5 19.2271 19.1460 15.3563 3.0362 29.3284 10.4734
# 6 43.7806 32.4604 20.7916 2.2221 10.4734 41.6217
#
#
#
# Elastic Compliance Matrix: (Units=1/GPa)
#
#
# Indices 1 2 3 4 5 6 
#
# 1 0.021615 0.003777 0.000152 0.004677 -0.008694 -0.023820
# 2 0.003777 0.038276 -0.001959 0.007084 -0.016817 -0.028991
# 3 0.000152 -0.001959 0.009981 0.007750 -0.003746 -0.003089
# 4 0.004677 0.007084 0.007750 0.057111 -0.012591 -0.014196
# 5 -0.008694 -0.016817 -0.003746 -0.012591 0.049643 0.012312
# 6 -0.023820 -0.028991 -0.003089 -0.014196 0.012312 0.070895
#
#
# Mechanical properties :
#
#
# Convention : Reuss Voigt Hill
#
# Bulk Modulus (GPa) = 13.54801 51.24377 32.39589
# Shear Modulus (GPa) = 18.64392 31.32029 24.98211
#
# Velocity S-wave (km/s) = 3.05935 3.96527 3.54140
# Velocity P-wave (km/s) = 4.39100 6.83300 5.74329
#
# Compressibility (1/GPa) = 0.07381159
#
# Stress axis : x y z
#
# Youngs Moduli (GPa) = 46.26344 26.12636 100.19119
#
# Poissons Ratio (x) = -0.09868 -0.01528
# Poissons Ratio (y) = -0.17473 0.19632
# Poissons Ratio (z) = -0.00705 0.05119
#
# Static dielectric constant tensor:
#      x y z
#    x 1.906270 0.116120 -0.049470 
#    y 0.116120 1.803910 -0.022490 
#    z -0.049470 -0.022490 1.787830 
# 
# From -- ./inp_files/318407.got.cif
#   From: 2010.05.17/outbox.cif.g08.bks.cpg/sg2_160_cif.got.tgz:318407.got - 2010.06.03 11:33:40.
