data_PCOD9001810
_publ_section_title
;
Structure prediction by ZEFSAII (Michael W. Deem and Ramdas Pophale) SiO2 
 PCOD9001810
Probable space group: P -1
;
_chemical_formula_sum "Si O2"
_cell_formula_units_Z 10
_cell_length_a 5.365785
_cell_length_b 16.992458
_cell_length_c 9.321426
_cell_angle_alpha 29.694135
_cell_angle_beta 75.075287
_cell_angle_gamma 65.316431
_cell_volume 371.950353
_symmetry_space_group_name_H-M "P -1"
_symmetry_group_IT_number 2
_symmetry_cell_setting 'triclinic'
loop_
_space_group_symop_operation_xyz
x,y,z
-x,-y,-z
loop_
_atom_site_type_symbol
_atom_site_label
_atom_site_fract_x
_atom_site_fract_y
_atom_site_fract_z
Si Si1 0.395252 0.692181 0.152914
Si Si2 0.137230 0.179932 0.165119
Si Si3 0.910733 0.266793 0.337147
Si Si4 0.546265 0.879492 0.047492
Si Si5 0.274036 0.352890 0.376005
O O1 0.500000 0.500000 0.500000
O O2 0.160630 0.724849 0.018004
O O3 0.680566 0.942844 0.795495
O O4 0.664386 0.715377 0.008084
O O5 0.687044 0.171600 0.916181
O O6 0.077308 0.123395 0.419075
O O7 0.611423 0.278969 0.416676
O O8 0.112968 0.265795 0.438408
O O9 0.839222 0.448250 0.973725
O O10 0.757681 0.693595 0.380230
O O11 0.500000 0.000000 0.000000
#
# Coordination Sequence:
#
# PCOD9001810 Si02
#       5
#     2   2   2   2   2
#     4  10  21  35  64  91 117 156 207 260 297 354
#     4  10  22  38  63  88 123 160 210 253 304 364
#     4  10  21  39  60  93 119 161 202 260 308 361
#     4  10  25  42  63  93 128 167 207 254 308 370
#     4  10  22  37  62  88 128 155 204 255 313 360
#
# _framework density 26.885307999999998
#
# number of rings (size 3 to 8) (size 9 to 14) (size 15 to 20)
#    1.200    0.800    0.000    3.000    5.600    2.400 
#    0.000    2.000    0.000    0.000    0.000    0.000 
#    0.000    0.000    0.000    0.000    0.000    0.000 
#
# Total GULP energy -55892.424911 kJ/mol
# GULP energy per Si atom -5589.242491 kJ/mol
# Density = 2.682412 g / cm^3
# Si number density = 26.885308 Si / 1000 Ang^3
#
#
#
# Elastic Constant Matrix: (Units=GPa)
#
#
# Indices 1 2 3 4 5 6 
#
# 1 199.5181 52.1872 22.4907 9.3667 10.0480 16.8620
# 2 52.1872 146.4106 6.7070 18.2471 -2.2644 16.8856
# 3 22.4907 6.7070 80.3407 4.2775 3.4131 7.3747
# 4 9.3667 18.2471 4.2775 35.6075 10.8945 -0.0505
# 5 10.0480 -2.2644 3.4131 10.8945 44.5748 22.5724
# 6 16.8620 16.8856 7.3747 -0.0505 22.5724 42.8043
#
#
#
# Elastic Compliance Matrix: (Units=1/GPa)
#
#
# Indices 1 2 3 4 5 6 
#
# 1 0.005780 -0.001895 -0.001338 -0.000137 -0.000826 -0.000863
# 2 -0.001895 0.008901 0.000378 -0.005647 0.005003 -0.005475
# 3 -0.001338 0.000378 0.013058 -0.001700 0.000935 -0.002367
# 4 -0.000137 -0.005647 -0.001700 0.035455 -0.013802 0.009894
# 5 -0.000826 0.005003 0.000935 -0.013802 0.036974 -0.021324
# 6 -0.000863 -0.005475 -0.002367 0.009894 -0.021324 0.037526
#
#
# Mechanical properties :
#
#
# Convention : Reuss Voigt Hill
#
# Bulk Modulus (GPa) = 45.39602 65.44880 55.42241
# Shear Modulus (GPa) = 33.16836 47.58963 40.37899
#
# Velocity S-wave (km/s) = 3.51621 4.21182 3.87964
# Velocity P-wave (km/s) = 5.77986 6.93175 6.38184
#
# Compressibility (1/GPa) = 0.02202837
#
# Stress axis : x y z
#
# Youngs Moduli (GPa) = 173.02375 112.35045 76.58104
#
# Poissons Ratio (x) = 0.21289 0.10247
# Poissons Ratio (y) = 0.32787 -0.02895
# Poissons Ratio (z) = 0.23153 -0.04247
#
# Static dielectric constant tensor:
#      x y z
#    x 2.009220 -0.067840 -0.006360 
#    y -0.067840 2.241410 -0.109770 
#    z -0.006360 -0.109770 2.108610 
# 
# From -- ./inp_files/107346.got.cif
#   From: 2010.05.17/outbox.cif.g08.bks.cpg/sg2_54_cif.got.tgz:107346.got - 2010.06.03 11:33:40.
