data_PCOD9001066
_publ_section_title
;
Structure prediction by ZEFSAII (Michael W. Deem and Ramdas Pophale) SiO2 
 PCOD9001066
Probable space group: P -1
;
_chemical_formula_sum "Si O2"
_cell_formula_units_Z 16
_cell_length_a 15.129322
_cell_length_b 8.759641
_cell_length_c 10.974398
_cell_angle_alpha 66.979293
_cell_angle_beta 56.139231
_cell_angle_gamma 35.010883
_cell_volume 686.377624
_symmetry_space_group_name_H-M "P -1"
_symmetry_group_IT_number 2
_symmetry_cell_setting 'triclinic'
loop_
_space_group_symop_operation_xyz
x,y,z
-x,-y,-z
loop_
_atom_site_type_symbol
_atom_site_label
_atom_site_fract_x
_atom_site_fract_y
_atom_site_fract_z
Si Si1 0.376079 0.478364 0.852798
Si Si2 0.848999 0.464349 0.811664
Si Si3 0.549829 0.769367 0.635543
Si Si4 0.623228 0.513187 0.408777
Si Si5 0.358759 0.678165 0.159087
Si Si6 0.210464 0.243514 0.431225
Si Si7 0.015158 0.973257 0.347488
Si Si8 0.223099 0.031311 0.726225
O O1 0.391540 0.375609 0.742487
O O2 0.565977 0.284524 0.815437
O O3 0.284690 0.770368 0.801294
O O4 0.272733 0.501950 0.023963
O O5 0.754997 0.739361 0.740078
O O6 0.018128 0.298683 0.812888
O O7 0.914164 0.273310 0.705135
O O8 0.580319 0.685009 0.498789
O O9 0.619010 0.526213 0.730791
O O10 0.673484 0.763815 0.583475
O O11 0.340964 0.012078 0.722253
O O12 0.500000 0.500000 0.500000
O O13 0.823101 0.228605 0.366821
O O14 0.500000 0.500000 0.000000
O O15 0.155955 0.939858 0.209849
O O16 0.243681 0.049185 0.559055
O O17 0.000000 0.500000 0.500000
O O18 0.000000 0.000000 0.500000
#
# Coordination Sequence:
#
# PCOD9001066 Si02
#       8
#     2   2   2   2   2   2   2   2
#     4  11  21  35  58  88 121 149 193 251 302 350
#     4  11  20  36  56  87 119 147 200 247 297 353
#     4  11  20  37  54  84 119 152 203 247 291 358
#     4  12  21  35  56  88 124 156 194 249 307 359
#     4  11  20  33  53  84 124 152 188 247 299 355
#     4  10  21  37  57  82 112 159 199 249 291 356
#     4  12  20  32  55  84 120 156 191 242 304 350
#     4  10  21  33  59  83 115 153 198 238 302 348
#
# _framework density 23.310784000000002
#
# number of rings (size 3 to 8) (size 9 to 14) (size 15 to 20)
#    0.000    1.000    7.500    0.750    0.000    0.000 
#    0.000    0.000    0.000    3.750    3.250    0.000 
#    0.000    0.000    0.000    0.000    0.000    0.000 
#
# Total GULP energy -89089.201118 kJ/mol
# GULP energy per Si atom -5568.075070 kJ/mol
# Density = 2.325773 g / cm^3
# Si number density = 23.310784 Si / 1000 Ang^3
#
#
#
# Elastic Constant Matrix: (Units=GPa)
#
#
# Indices 1 2 3 4 5 6 
#
# 1 146.6167 54.6057 47.1181 17.6603 -23.0188 -53.4457
# 2 54.6057 101.2776 30.2549 2.5270 -22.1941 -35.3387
# 3 47.1181 30.2549 142.6938 -8.3909 -22.1675 -2.7489
# 4 17.6603 2.5270 -8.3909 32.1998 -4.1132 -12.6198
# 5 -23.0188 -22.1941 -22.1675 -4.1132 42.9383 9.3449
# 6 -53.4457 -35.3387 -2.7489 -12.6198 9.3449 46.4853
#
#
#
# Elastic Compliance Matrix: (Units=1/GPa)
#
#
# Indices 1 2 3 4 5 6 
#
# 1 0.014427 -0.001096 -0.004191 -0.003093 0.001585 0.014348
# 2 -0.001096 0.015608 -0.001818 0.003628 0.004591 0.010560
# 3 -0.004191 -0.001818 0.009342 0.003150 0.003118 -0.005419
# 4 -0.003093 0.003628 0.003150 0.037175 0.003494 0.008778
# 5 0.001585 0.004591 0.003118 0.003494 0.028292 0.000758
# 6 0.014348 0.010560 -0.005419 0.008778 0.000758 0.047947
#
#
# Mechanical properties :
#
#
# Convention : Reuss Voigt Hill
#
# Bulk Modulus (GPa) = 39.73063 72.72728 56.22896
# Shear Modulus (GPa) = 28.50815 41.56532 35.03674
#
# Velocity S-wave (km/s) = 3.50088 4.22725 3.88110
# Velocity P-wave (km/s) = 5.78121 7.42246 6.65264
#
# Compressibility (1/GPa) = 0.02516950
#
# Stress axis : x y z
#
# Youngs Moduli (GPa) = 69.31404 64.07068 107.03832
#
# Poissons Ratio (x) = 0.07020 0.44857
# Poissons Ratio (y) = 0.07594 0.19455
# Poissons Ratio (z) = 0.29048 0.11645
#
# Static dielectric constant tensor:
#      x y z
#    x 1.931660 0.013390 0.006000 
#    y 0.013390 1.989580 0.030390 
#    z 0.006000 0.030390 1.908350 
# 
# From -- ./inp_files/463650.got.cif
#   From: 2010.05.17/outbox.cif.g08.bks.cpg/sg2_232_cif.got.tgz:463650.got - 2010.06.03 11:33:40.
