data_PCOD9001328
_publ_section_title
;
Structure prediction by ZEFSAII (Michael W. Deem and Ramdas Pophale) SiO2 
 PCOD9001328
Probable space group: P -1
;
_chemical_formula_sum "Si O2"
_cell_formula_units_Z 14
_cell_length_a 14.359370
_cell_length_b 10.880606
_cell_length_c 9.266763
_cell_angle_alpha 47.703441
_cell_angle_beta 144.687781
_cell_angle_gamma 140.885889
_cell_volume 524.807186
_symmetry_space_group_name_H-M "P -1"
_symmetry_group_IT_number 2
_symmetry_cell_setting 'triclinic'
loop_
_space_group_symop_operation_xyz
x,y,z
-x,-y,-z
loop_
_atom_site_type_symbol
_atom_site_label
_atom_site_fract_x
_atom_site_fract_y
_atom_site_fract_z
Si Si1 0.857397 0.939090 0.230946
Si Si2 0.491275 0.183433 0.283255
Si Si3 0.474959 0.204568 0.649360
Si Si4 0.159645 0.723312 0.038440
Si Si5 0.133824 0.413175 0.643090
Si Si6 0.800458 0.796111 0.885328
Si Si7 0.269461 0.768733 0.826970
O O1 0.874330 0.768797 0.310248
O O2 0.628430 0.850590 0.991631
O O3 0.000000 0.000000 0.500000
O O4 0.908912 0.152099 0.059843
O O5 0.696844 0.377686 0.363815
O O6 0.354676 0.203252 0.206645
O O7 0.500000 0.000000 0.500000
O O8 0.647471 0.277156 0.695484
O O9 0.307385 0.239862 0.374127
O O10 0.372573 0.969375 0.710671
O O11 0.582238 0.281512 0.877457
O O12 0.204360 0.814295 0.862161
O O13 0.000000 0.500000 0.000000
O O14 0.926423 0.373820 0.386585
O O15 0.173332 0.370778 0.887450
O O16 0.000000 0.000000 0.000000
#
# Coordination Sequence:
#
# PCOD9001328 Si02
#       7
#     2   2   2   2   2   2   2
#     4  11  21  37  62  92 126 160 208 261 314 365
#     4  11  27  43  65  94 131 168 216 265 324 391
#     4   9  19  35  59  92 123 171 208 256 313 380
#     4  10  21  34  65  95 122 162 214 258 308 374
#     4  11  23  42  64  94 127 166 211 271 323 376
#     4  11  21  37  63  91 130 165 205 259 331 370
#     4   9  19  36  62  90 124 163 215 258 313 373
#
# _framework density 26.676462999999998
#
# number of rings (size 3 to 8) (size 9 to 14) (size 15 to 20)
#    0.857    0.857    2.857    2.571    4.000    1.143 
#    0.000    0.714    3.143    4.286    0.000    0.000 
#    0.000    0.000    0.000    0.000    0.000    0.000 
#
# Total GULP energy -78025.928114 kJ/mol
# GULP energy per Si atom -5573.280580 kJ/mol
# Density = 2.661575 g / cm^3
# Si number density = 26.676463 Si / 1000 Ang^3
#
#
#
# Elastic Constant Matrix: (Units=GPa)
#
#
# Indices 1 2 3 4 5 6 
#
# 1 55.4043 53.4768 42.1253 -3.2091 20.0992 12.7375
# 2 53.4768 214.1345 95.7546 19.5349 27.0181 22.2731
# 3 42.1253 95.7546 288.0753 33.0796 27.3627 7.4618
# 4 -3.2091 19.5349 33.0796 60.0722 -5.8049 10.6066
# 5 20.0992 27.0181 27.3627 -5.8049 43.1526 0.7363
# 6 12.7375 22.2731 7.4618 10.6066 0.7363 54.8856
#
#
#
# Elastic Compliance Matrix: (Units=1/GPa)
#
#
# Indices 1 2 3 4 5 6 
#
# 1 0.029081 -0.005137 -0.002144 0.004512 -0.008275 -0.005134
# 2 -0.005137 0.006943 -0.001182 -0.001826 -0.001431 -0.001092
# 3 -0.002144 -0.001182 0.004595 -0.002562 -0.001534 0.000868
# 4 0.004512 -0.001826 -0.002562 0.019902 0.003410 -0.003849
# 5 -0.008275 -0.001431 -0.001534 0.003410 0.029327 0.001657
# 6 -0.005134 -0.001092 0.000868 -0.003849 0.001657 0.020458
#
#
# Mechanical properties :
#
#
# Convention : Reuss Voigt Hill
#
# Bulk Modulus (GPa) = 42.20954 104.48085 73.34519
# Shear Modulus (GPa) = 37.00120 56.03922 46.52021
#
# Velocity S-wave (km/s) = 3.72833 4.58831 4.18049
# Velocity P-wave (km/s) = 5.86439 8.20494 7.13134
#
# Compressibility (1/GPa) = 0.02369133
#
# Stress axis : x y z
#
# Youngs Moduli (GPa) = 34.38623 144.04018 217.61211
#
# Poissons Ratio (x) = 0.74000 0.46657
# Poissons Ratio (y) = 0.17666 0.25731
# Poissons Ratio (z) = 0.07373 0.17032
#
# Static dielectric constant tensor:
#      x y z
#    x 2.451770 -0.168480 -0.054880 
#    y -0.168480 2.136780 0.017730 
#    z -0.054880 0.017730 2.225280 
# 
# From -- ./inp_files/471540.got.cif
#   From: 2010.05.17/outbox.cif.g08.bks.cpg/sg2_236_cif.got.tgz:471540.got - 2010.06.03 11:33:40.
