data_PCOD9001487
_publ_section_title
;
Structure prediction by ZEFSAII (Michael W. Deem and Ramdas Pophale) SiO2 
 PCOD9001487
Probable space group: P -1
;
_chemical_formula_sum "Si O2"
_cell_formula_units_Z 13
_cell_length_a 11.228171
_cell_length_b 7.505579
_cell_length_c 6.986976
_cell_angle_alpha 77.450958
_cell_angle_beta 75.967051
_cell_angle_gamma 70.162247
_cell_volume 531.437050
_symmetry_space_group_name_H-M "P -1"
_symmetry_group_IT_number 2
_symmetry_cell_setting 'triclinic'
loop_
_space_group_symop_operation_xyz
x,y,z
-x,-y,-z
loop_
_atom_site_type_symbol
_atom_site_label
_atom_site_fract_x
_atom_site_fract_y
_atom_site_fract_z
Si Si1 0.920433 0.879125 0.670986
Si Si2 0.852316 0.785926 0.310841
Si Si3 0.527017 0.861524 0.801213
Si Si4 0.572781 0.734812 0.392666
Si Si5 0.237371 0.874244 0.993476
Si Si6 0.379423 0.475117 0.935374
Si Si7 0.000000 0.500000 0.000000
O O1 0.864774 0.791608 0.532088
O O2 0.981114 0.702526 0.832673
O O3 0.823067 0.040269 0.803455
O O4 0.000000 0.000000 0.500000
O O5 0.715412 0.754446 0.327163
O O6 0.954979 0.627983 0.185163
O O7 0.840878 0.993568 0.176530
O O8 0.539896 0.747446 0.624239
O O9 0.528475 0.074019 0.701494
O O10 0.383484 0.885445 0.926166
O O11 0.629890 0.728515 0.936637
O O12 0.585467 0.555576 0.293381
O O13 0.256702 0.651193 0.992614
O O14 0.500000 0.500000 0.000000
#
# Coordination Sequence:
#
# PCOD9001487 Si02
#       7
#     2   2   2   2   2   2   1
#     4  11  25  45  69  95 130 172 215 275 338 389
#     4  10  23  42  64  92 129 167 215 275 328 391
#     4   9  20  37  59  86 124 169 211 261 316 380
#     4  10  21  36  59  89 122 168 216 259 323 389
#     4   9  22  39  59  92 128 164 216 267 320 394
#     4  10  21  35  56  87 126 167 209 260 314 378
#     4  10  24  46  70  98 128 164 226 274 326 406
#
# _framework density 24.461974000000001
#
# number of rings (size 3 to 8) (size 9 to 14) (size 15 to 20)
#    0.000    2.154    0.000    0.923    0.000   20.923 
#    0.000    0.000    0.000    0.000    0.000    0.000 
#    0.000    0.000    0.000    0.000    0.000    0.000 
#
# Total GULP energy -72391.064088 kJ/mol
# GULP energy per Si atom -5568.543391 kJ/mol
# Density = 2.440630 g / cm^3
# Si number density = 24.461974 Si / 1000 Ang^3
#
#
#
# Elastic Constant Matrix: (Units=GPa)
#
#
# Indices 1 2 3 4 5 6 
#
# 1 45.8310 13.7961 34.9514 9.0892 2.3939 0.8615
# 2 13.7961 168.0703 71.8569 28.4858 -2.4114 -17.7836
# 3 34.9514 71.8569 224.1958 44.3159 -1.3368 -13.2064
# 4 9.0892 28.4858 44.3159 51.5043 0.7355 -0.8851
# 5 2.3939 -2.4114 -1.3368 0.7355 35.5341 8.7137
# 6 0.8615 -17.7836 -13.2064 -0.8851 8.7137 17.6516
#
#
#
# Elastic Compliance Matrix: (Units=1/GPa)
#
#
# Indices 1 2 3 4 5 6 
#
# 1 0.025237 -0.000805 -0.003787 -0.000817 -0.000768 -0.004538
# 2 -0.000805 0.007862 -0.001403 -0.002855 -0.001212 0.007365
# 3 -0.003787 -0.001403 0.006523 -0.004100 -0.000404 0.003645
# 4 -0.000817 -0.002855 -0.004100 0.024578 0.000391 -0.004864
# 5 -0.000768 -0.001212 -0.000404 0.000391 0.032366 -0.017443
# 6 -0.004538 0.007365 0.003645 -0.004864 -0.017443 0.075388
#
#
# Mechanical properties :
#
#
# Convention : Reuss Voigt Hill
#
# Bulk Modulus (GPa) = 36.19085 75.47842 55.83463
# Shear Modulus (GPa) = 25.88611 42.10418 33.99514
#
# Velocity S-wave (km/s) = 3.25656 4.15325 3.73193
# Velocity P-wave (km/s) = 5.38211 7.34314 6.43773
#
# Compressibility (1/GPa) = 0.02763129
#
# Stress axis : x y z
#
# Youngs Moduli (GPa) = 39.62449 127.19880 153.29835
#
# Poissons Ratio (x) = 0.10244 0.58048
# Poissons Ratio (y) = 0.03191 0.21513
# Poissons Ratio (z) = 0.15004 0.17850
#
# Static dielectric constant tensor:
#      x y z
#    x 2.017670 0.056000 -0.004170 
#    y 0.056000 2.026900 -0.048390 
#    z -0.004170 -0.048390 1.899790 
# 
# From -- ./inp_files/87577.got.cif
#   From: 2010.05.17/outbox.cif.g08.bks.cpg/sg2_44_cif.got.tgz:87577.got - 2010.06.03 11:33:40.
