data_PCOD9001728
_publ_section_title
;
Structure prediction by ZEFSAII (Michael W. Deem and Ramdas Pophale) SiO2 
 PCOD9001728
Probable space group: P -1
;
_chemical_formula_sum "Si O2"
_cell_formula_units_Z 16
_cell_length_a 9.306122
_cell_length_b 9.525179
_cell_length_c 15.290965
_cell_angle_alpha 60.090504
_cell_angle_beta 57.776566
_cell_angle_gamma 102.240180
_cell_volume 753.883272
_symmetry_space_group_name_H-M "P -1"
_symmetry_group_IT_number 2
_symmetry_cell_setting 'triclinic'
loop_
_space_group_symop_operation_xyz
x,y,z
-x,-y,-z
loop_
_atom_site_type_symbol
_atom_site_label
_atom_site_fract_x
_atom_site_fract_y
_atom_site_fract_z
Si Si1 0.761812 0.176185 0.105788
Si Si2 0.038848 0.369380 0.111019
Si Si3 0.107380 0.823757 0.390396
Si Si4 0.482783 0.895941 0.129074
Si Si5 0.372445 0.456602 0.303998
Si Si6 0.394029 0.707621 0.657006
Si Si7 0.278859 0.296832 0.185284
Si Si8 0.349179 0.867248 0.459273
O O1 0.974391 0.259090 0.071032
O O2 0.700833 0.077313 0.060436
O O3 0.554516 0.987977 0.288518
O O4 0.766645 0.375626 0.038295
O O5 0.826855 0.347752 0.213542
O O6 0.087791 0.272494 0.200337
O O7 0.252217 0.808168 0.280211
O O8 0.144083 0.771999 0.491831
O O9 0.839836 0.672290 0.520571
O O10 0.222338 0.071842 0.269856
O O11 0.469844 0.695734 0.186830
O O12 0.500000 0.000000 0.000000
O O13 0.550393 0.438077 0.288299
O O14 0.298884 0.352554 0.263413
O O15 0.356893 0.715491 0.564318
O O16 0.597670 0.946345 0.553043
O O17 0.500000 0.500000 0.000000
#
# Coordination Sequence:
#
# PCOD9001728 Si02
#       8
#     2   2   2   2   2   2   2   2
#     4   9  20  38  64  88 122 171 214 260 330 380
#     4  10  21  38  66  95 129 166 216 275 331 379
#     4  11  23  41  66  96 130 176 225 271 325 389
#     4  11  24  47  66  93 136 179 214 277 338 395
#     4  12  25  40  66 101 133 170 226 269 327 404
#     4  10  21  35  61  95 131 167 210 270 327 384
#     4  12  24  39  70 105 131 168 226 277 326 390
#     4   9  18  36  59  88 130 165 205 265 325 366
#
# _framework density 21.223445999999999
#
# number of rings (size 3 to 8) (size 9 to 14) (size 15 to 20)
#    0.000    1.500    1.250    4.500    8.750    0.000 
#    0.000    3.125    5.500    0.000    0.000    0.000 
#    0.000    0.000    0.000    0.000    0.000    0.000 
#
# Total GULP energy -89304.452303 kJ/mol
# GULP energy per Si atom -5581.528269 kJ/mol
# Density = 2.117514 g / cm^3
# Si number density = 21.223446 Si / 1000 Ang^3
#
#
#
# Elastic Constant Matrix: (Units=GPa)
#
#
# Indices 1 2 3 4 5 6 
#
# 1 157.7516 50.6508 45.8348 3.3132 31.2640 -15.4003
# 2 50.6508 73.6679 12.9565 -11.4096 20.7164 -10.9479
# 3 45.8348 12.9565 81.7565 9.0853 12.0185 -0.6460
# 4 3.3132 -11.4096 9.0853 26.2324 -0.0997 2.5654
# 5 31.2640 20.7164 12.0185 -0.0997 44.9248 -0.1360
# 6 -15.4003 -10.9479 -0.6460 2.5654 -0.1360 27.6119
#
#
#
# Elastic Compliance Matrix: (Units=1/GPa)
#
#
# Indices 1 2 3 4 5 6 
#
# 1 0.010367 -0.005173 -0.004136 -0.002518 -0.003717 0.003850
# 2 -0.005173 0.021051 -0.000592 0.009549 -0.005914 0.004531
# 3 -0.004136 -0.000592 0.015313 -0.004873 -0.000962 -0.001735
# 4 -0.002518 0.009549 -0.004873 0.044458 -0.001255 -0.001869
# 5 -0.003717 -0.005914 -0.000962 -0.001255 0.027815 -0.004187
# 6 0.003850 0.004531 -0.001735 -0.001869 -0.004187 0.040272
#
#
# Mechanical properties :
#
#
# Convention : Reuss Voigt Hill
#
# Bulk Modulus (GPa) = 37.13414 59.11781 48.12597
# Shear Modulus (GPa) = 26.58829 33.33608 29.96219
#
# Velocity S-wave (km/s) = 3.54330 3.96753 3.76140
# Velocity P-wave (km/s) = 5.85446 6.99313 6.44897
#
# Compressibility (1/GPa) = 0.02692940
#
# Stress axis : x y z
#
# Youngs Moduli (GPa) = 96.46032 47.50450 65.30446
#
# Poissons Ratio (x) = 0.24575 0.27007
# Poissons Ratio (y) = 0.49900 0.03865
# Poissons Ratio (z) = 0.39892 0.02811
#
# Static dielectric constant tensor:
#      x y z
#    x 1.826420 0.035830 -0.040470 
#    y 0.035830 1.772950 0.004910 
#    z -0.040470 0.004910 1.820090 
# 
# From -- ./inp_files/494473.got.cif
#   From: 2010.05.17/outbox.cif.g08.bks.cpg/sg2_248_cif.got.tgz:494473.got - 2010.06.03 11:33:40.
