data_PCOD9001488
_publ_section_title
;
Structure prediction by ZEFSAII (Michael W. Deem and Ramdas Pophale) SiO2 
 PCOD9001488
Probable space group: P -1
;
_chemical_formula_sum "Si O2"
_cell_formula_units_Z 16
_cell_length_a 9.345380
_cell_length_b 22.439478
_cell_length_c 28.810800
_cell_angle_alpha 18.304825
_cell_angle_beta 35.292780
_cell_angle_gamma 27.966501
_cell_volume 879.592364
_symmetry_space_group_name_H-M "P -1"
_symmetry_group_IT_number 2
_symmetry_cell_setting 'triclinic'
loop_
_space_group_symop_operation_xyz
x,y,z
-x,-y,-z
loop_
_atom_site_type_symbol
_atom_site_label
_atom_site_fract_x
_atom_site_fract_y
_atom_site_fract_z
Si Si1 0.179280 0.057023 0.025481
Si Si2 0.433926 0.087143 0.505740
Si Si3 0.040714 0.645339 0.047028
Si Si4 0.750911 0.397227 0.809026
Si Si5 0.860713 0.362725 0.152150
Si Si6 0.081047 0.925496 0.480568
Si Si7 0.532283 0.393727 0.767779
Si Si8 0.260056 0.785894 0.803660
O O1 0.249824 0.806512 0.179842
O O2 0.500000 0.000000 0.000000
O O3 0.967162 0.221588 0.002599
O O4 0.047242 0.199204 0.906783
O O5 0.293879 0.356824 0.353764
O O6 0.500000 0.000000 0.500000
O O7 0.220756 0.027916 0.629608
O O8 0.788022 0.930840 0.542634
O O9 0.381786 0.398464 0.139459
O O10 0.759569 0.621104 0.137433
O O11 0.041710 0.781595 0.901333
O O12 0.450842 0.452787 0.873555
O O13 0.712695 0.349888 0.800815
O O14 0.783370 0.286952 0.181398
O O15 0.058970 0.126900 0.306544
O O16 0.000000 0.500000 0.000000
O O17 0.386325 0.659304 0.593434
O O18 0.000000 0.000000 0.500000
#
# Coordination Sequence:
#
# PCOD9001488 Si02
#       8
#     2   2   2   2   2   2   2   2
#     4  10  22  38  60  83 115 159 204 245 280 351
#     4  11  19  33  57  84 119 146 192 245 292 345
#     4  10  21  35  56  88 113 155 201 236 297 342
#     4  11  21  38  56  89 120 152 202 236 299 351
#     4  11  22  35  58  89 127 152 182 247 308 353
#     4  11  21  35  57  92 117 149 199 243 293 349
#     4  11  21  37  61  83 121 155 197 243 290 355
#     4  11  20  33  58  84 120 152 188 251 293 346
#
# _framework density 18.190244
#
# number of rings (size 3 to 8) (size 9 to 14) (size 15 to 20)
#    0.000    1.250    7.500    1.125    1.750    0.000 
#    0.000    0.000    0.000   11.250    0.000    0.000 
#    0.000    0.000    0.000    0.000    0.000    0.000 
#
# Total GULP energy -89084.527745 kJ/mol
# GULP energy per Si atom -5567.782984 kJ/mol
# Density = 1.814884 g / cm^3
# Si number density = 18.190244 Si / 1000 Ang^3
#
#
#
# Elastic Constant Matrix: (Units=GPa)
#
#
# Indices 1 2 3 4 5 6 
#
# 1 122.4014 4.7859 29.0750 -4.1916 8.9296 13.4747
# 2 4.7859 18.9398 20.8014 3.1735 -3.6505 -0.0955
# 3 29.0750 20.8014 107.8136 10.8463 -0.8922 -4.4095
# 4 -4.1916 3.1735 10.8463 35.5193 -2.2269 -0.9353
# 5 8.9296 -3.6505 -0.8922 -2.2269 31.7724 -3.6931
# 6 13.4747 -0.0955 -4.4095 -0.9353 -3.6931 24.4068
#
#
#
# Elastic Compliance Matrix: (Units=1/GPa)
#
#
# Indices 1 2 3 4 5 6 
#
# 1 0.009956 -0.000069 -0.003144 0.001748 -0.003531 -0.006532
# 2 -0.000069 0.068876 -0.013076 -0.001736 0.007327 -0.001012
# 3 -0.003144 -0.013076 0.013119 -0.003106 -0.000011 0.003934
# 4 0.001748 -0.001736 -0.003106 0.029537 0.001268 -0.000209
# 5 -0.003531 0.007327 -0.000011 0.001268 0.034234 0.007205
# 6 -0.006532 -0.001012 0.003934 -0.000209 0.007205 0.046367
#
#
# Mechanical properties :
#
#
# Convention : Reuss Voigt Hill
#
# Bulk Modulus (GPa) = 16.84286 39.83103 28.33695
# Shear Modulus (GPa) = 19.64952 31.30587 25.47770
#
# Velocity S-wave (km/s) = 3.29024 4.15303 3.74655
# Velocity P-wave (km/s) = 4.86966 6.70383 5.85896
#
# Compressibility (1/GPa) = 0.05937234
#
# Stress axis : x y z
#
# Youngs Moduli (GPa) = 100.44356 14.51887 76.22416
#
# Poissons Ratio (x) = 0.00101 0.23962
# Poissons Ratio (y) = 0.00698 0.99672
# Poissons Ratio (z) = 0.31576 0.18985
#
# Static dielectric constant tensor:
#      x y z
#    x 1.634820 -0.025560 0.022020 
#    y -0.025560 1.669600 -0.032050 
#    z 0.022020 -0.032050 1.675380 
# 
# From -- ./inp_files/257979.got.cif
#   From: 2010.05.17/outbox.cif.g08.bks.cpg/sg2_129_cif.got.tgz:257979.got - 2010.06.03 11:33:40.
