data_PCOD9002084
_publ_section_title
;
Structure prediction by ZEFSAII (Michael W. Deem and Ramdas Pophale) SiO2 
 PCOD9002084
Probable space group: P -1
;
_chemical_formula_sum "Si O2"
_cell_formula_units_Z 16
_cell_length_a 20.375564
_cell_length_b 20.107938
_cell_length_c 7.027271
_cell_angle_alpha 57.809795
_cell_angle_beta 123.350730
_cell_angle_gamma 166.009038
_cell_volume 581.453227
_symmetry_space_group_name_H-M "P -1"
_symmetry_group_IT_number 2
_symmetry_cell_setting 'triclinic'
loop_
_space_group_symop_operation_xyz
x,y,z
-x,-y,-z
loop_
_atom_site_type_symbol
_atom_site_label
_atom_site_fract_x
_atom_site_fract_y
_atom_site_fract_z
Si Si1 0.425184 0.256461 0.957665
Si Si2 0.636303 0.228540 0.320009
Si Si3 0.003601 0.779215 0.250239
Si Si4 0.165275 0.822980 0.740529
Si Si5 0.152479 0.078835 0.248725
Si Si6 0.336045 0.609898 0.152208
Si Si7 0.332710 0.346305 0.661973
Si Si8 0.139135 0.664036 0.211589
O O1 0.535588 0.348142 0.779084
O O2 0.684521 0.490287 0.152607
O O3 0.173900 0.957548 0.057637
O O4 0.323820 0.246214 0.854257
O O5 0.682450 0.360683 0.122699
O O6 0.715791 0.278244 0.583707
O O7 0.840451 0.379559 0.265690
O O8 0.330985 0.908211 0.268983
O O9 0.084189 0.773399 0.478235
O O10 0.116893 0.957519 0.295759
O O11 0.147604 0.714360 0.942051
O O12 0.946265 0.657463 0.779468
O O13 0.458702 0.140889 0.774432
O O14 0.463492 0.405631 0.264854
O O15 0.972588 0.911629 0.412653
O O16 0.000000 0.000000 0.000000
O O17 0.500000 0.500000 0.500000
#
# Coordination Sequence:
#
# PCOD9002084 Si02
#       8
#     2   2   2   2   2   2   2   2
#     4  12  24  41  56  83 115 149 178 226 284 336
#     4   8  14  27  49  78 105 142 171 226 272 311
#     4  12  25  39  61  80 114 152 183 222 278 333
#     4  10  21  36  57  86 108 147 187 232 265 322
#     4  12  23  44  62  82 110 147 189 222 271 341
#     4  10  21  36  58  83 115 142 188 229 275 321
#     4  12  26  41  62  87 110 140 184 238 279 318
#     4   8  14  27  49  77 109 132 182 224 266 309
#
# _framework density 27.517258999999999
#
# number of rings (size 3 to 8) (size 9 to 14) (size 15 to 20)
#    0.000    1.500    2.500    3.000    3.500    0.000 
#    0.000    0.000    0.000    1.500    0.000    0.000 
#    0.000    0.000    0.000    0.000    0.000    0.000 
#
# Total GULP energy -89633.781656 kJ/mol
# GULP energy per Si atom -5602.111354 kJ/mol
# Density = 2.745463 g / cm^3
# Si number density = 27.517259 Si / 1000 Ang^3
#
#
#
# Elastic Constant Matrix: (Units=GPa)
#
#
# Indices 1 2 3 4 5 6 
#
# 1 81.8992 12.8745 -9.3101 -7.2757 3.9989 2.4069
# 2 12.8745 122.6464 15.5091 -3.7148 2.5630 7.3165
# 3 -9.3101 15.5091 129.8511 -7.1778 9.7531 -7.4702
# 4 -7.2757 -3.7148 -7.1778 36.0520 1.9078 1.1902
# 5 3.9989 2.5630 9.7531 1.9078 30.8183 -6.9734
# 6 2.4069 7.3165 -7.4702 1.1902 -6.9734 40.4760
#
#
#
# Elastic Compliance Matrix: (Units=1/GPa)
#
#
# Indices 1 2 3 4 5 6 
#
# 1 0.012977 -0.001355 0.001386 0.002905 -0.002362 -0.000763
# 2 -0.001355 0.008576 -0.001153 0.000472 -0.000609 -0.001801
# 3 0.001386 -0.001153 0.008304 0.001912 -0.002568 0.001160
# 4 0.002905 0.000472 0.001912 0.028960 -0.003106 -0.001292
# 5 -0.002362 -0.000609 -0.002568 -0.003106 0.035151 0.005924
# 6 -0.000763 -0.001801 0.001160 -0.001292 0.005924 0.026350
#
#
# Mechanical properties :
#
#
# Convention : Reuss Voigt Hill
#
# Bulk Modulus (GPa) = 36.21448 41.39375 38.80412
# Shear Modulus (GPa) = 37.94652 42.49080 40.21866
#
# Velocity S-wave (km/s) = 3.71753 3.93383 3.82721
# Velocity P-wave (km/s) = 5.62280 5.97569 5.80193
#
# Compressibility (1/GPa) = 0.02761327
#
# Stress axis : x y z
#
# Youngs Moduli (GPa) = 77.06203 116.60392 120.43084
#
# Poissons Ratio (x) = 0.15795 -0.16696
# Poissons Ratio (y) = 0.10439 0.13888
# Poissons Ratio (z) = -0.10683 0.13446
#
# Static dielectric constant tensor:
#      x y z
#    x 2.126230 -0.012710 -0.076720 
#    y -0.012710 2.049480 -0.001740 
#    z -0.076720 -0.001740 2.318070 
# 
# From -- ./inp_files/55187.got.cif
#   From: 2010.05.17/outbox.cif.g08.bks.cpg/sg2_28_cif.got.tgz:55187.got - 2010.06.03 11:33:40.
