data_PCOD9002841
_publ_section_title
;
Structure prediction by ZEFSAII (Michael W. Deem and Ramdas Pophale) SiO2 
 PCOD9002841
Probable space group: P -1
;
_chemical_formula_sum "Si O2"
_cell_formula_units_Z 12
_cell_length_a 5.245278
_cell_length_b 20.849717
_cell_length_c 12.130815
_cell_angle_alpha 21.632862
_cell_angle_beta 91.508870
_cell_angle_gamma 91.058285
_cell_volume 488.847859
_symmetry_space_group_name_H-M "P -1"
_symmetry_group_IT_number 2
_symmetry_cell_setting 'triclinic'
loop_
_space_group_symop_operation_xyz
x,y,z
-x,-y,-z
loop_
_atom_site_type_symbol
_atom_site_label
_atom_site_fract_x
_atom_site_fract_y
_atom_site_fract_z
Si Si1 0.229652 0.630831 0.974184
Si Si2 0.170248 0.887836 0.760184
Si Si3 0.539894 0.395036 0.490895
Si Si4 0.755059 0.029775 0.023993
Si Si5 0.299908 0.198100 0.394904
Si Si6 0.200351 0.351583 0.767518
O O1 0.254083 0.733984 0.926566
O O2 0.445886 0.691103 0.794149
O O3 0.950610 0.687648 0.831188
O O4 0.327355 0.439971 0.323217
O O5 0.356761 0.024745 0.596757
O O6 0.000000 0.000000 0.500000
O O7 0.967177 0.817796 0.956890
O O8 0.408332 0.342865 0.688603
O O9 0.690871 0.572114 0.238725
O O10 0.729028 0.235116 0.724566
O O11 0.754510 0.893139 0.343514
O O12 0.500000 0.000000 0.000000
O O13 0.000000 0.000000 0.000000
O O14 0.000000 0.500000 0.500000
#
# Coordination Sequence:
#
# PCOD9002841 Si02
#       6
#     2   2   2   2   2   2
#     4  11  23  43  69 108 143 188 221 292 364 434
#     4  10  21  36  66 104 151 180 219 272 366 434
#     4  11  26  42  72 104 146 184 243 294 354 428
#     4  12  30  51  74 100 137 195 252 296 343 408
#     4  11  25  45  70 101 148 185 238 285 353 424
#     4  11  22  40  67 107 148 188 224 291 368 422
#
# _framework density 24.547512999999999
#
# number of rings (size 3 to 8) (size 9 to 14) (size 15 to 20)
#    0.000    1.000    1.667    4.500   11.667    0.000 
#    0.000    5.000    0.000    0.000    0.000    0.000 
#    0.000    0.000    0.000    0.000    0.000    0.000 
#
# Total GULP energy -67034.184469 kJ/mol
# GULP energy per Si atom -5586.182039 kJ/mol
# Density = 2.449164 g / cm^3
# Si number density = 24.547513 Si / 1000 Ang^3
#
#
#
# Elastic Constant Matrix: (Units=GPa)
#
#
# Indices 1 2 3 4 5 6 
#
# 1 149.6066 33.5149 38.9378 6.3300 26.8678 -22.5104
# 2 33.5149 69.9843 22.9211 14.5194 15.4513 -27.4650
# 3 38.9378 22.9211 100.6226 19.3682 16.9638 -13.3209
# 4 6.3300 14.5194 19.3682 36.2206 -3.6075 4.0091
# 5 26.8678 15.4513 16.9638 -3.6075 52.8303 5.5860
# 6 -22.5104 -27.4650 -13.3209 4.0091 5.5860 47.9242
#
#
#
# Elastic Compliance Matrix: (Units=1/GPa)
#
#
# Indices 1 2 3 4 5 6 
#
# 1 0.008671 -0.001184 -0.001816 -0.000836 -0.003899 0.003414
# 2 -0.001184 0.026408 0.001136 -0.013918 -0.010261 0.017254
# 3 -0.001816 0.001136 0.013426 -0.008324 -0.004794 0.004785
# 4 -0.000836 -0.013918 -0.008324 0.040646 0.011576 -0.015433
# 5 -0.003899 -0.010261 -0.004794 0.011576 0.027642 -0.013235
# 6 0.003414 0.017254 0.004785 -0.015433 -0.013235 0.036522
#
#
# Mechanical properties :
#
#
# Convention : Reuss Voigt Hill
#
# Bulk Modulus (GPa) = 22.33230 56.77345 39.55287
# Shear Modulus (GPa) = 29.07497 42.38433 35.72965
#
# Velocity S-wave (km/s) = 3.44530 4.15977 3.81928
# Velocity P-wave (km/s) = 4.99441 6.80072 5.96632
#
# Compressibility (1/GPa) = 0.04477819
#
# Stress axis : x y z
#
# Youngs Moduli (GPa) = 115.32410 37.86690 74.48202
#
# Poissons Ratio (x) = 0.04482 0.13523
# Poissons Ratio (y) = 0.13651 -0.08458
# Poissons Ratio (z) = 0.20938 -0.04300
#
# Static dielectric constant tensor:
#      x y z
#    x 1.980090 0.016870 0.042480 
#    y 0.016870 2.054990 -0.116540 
#    z 0.042480 -0.116540 2.113810 
# 
# From -- ./inp_files/20259.got.cif
#   From: 2010.05.17/outbox.cif.g08.bks.cpg/sg2_11_cif.got.tgz:20259.got - 2010.06.03 11:33:40.
