data_PCOD9002039
_publ_section_title
;
Structure prediction by ZEFSAII (Michael W. Deem and Ramdas Pophale) SiO2 
 PCOD9002039
Probable space group: P -1
;
_chemical_formula_sum "Si O2"
_cell_formula_units_Z 16
_cell_length_a 5.205522
_cell_length_b 9.266616
_cell_length_c 25.109106
_cell_angle_alpha 47.783089
_cell_angle_beta 118.072363
_cell_angle_gamma 89.359085
_cell_volume 684.995735
_symmetry_space_group_name_H-M "P -1"
_symmetry_group_IT_number 2
_symmetry_cell_setting 'triclinic'
loop_
_space_group_symop_operation_xyz
x,y,z
-x,-y,-z
loop_
_atom_site_type_symbol
_atom_site_label
_atom_site_fract_x
_atom_site_fract_y
_atom_site_fract_z
Si Si1 0.333221 0.488124 0.675171
Si Si2 0.636810 0.772008 0.602697
Si Si3 0.665907 0.344663 0.139629
Si Si4 0.323566 0.646998 0.156152
Si Si5 0.392944 0.048017 0.037823
Si Si6 0.161748 0.737808 0.941674
Si Si7 0.468452 0.036962 0.753891
Si Si8 0.676757 0.776135 0.730789
O O1 0.400669 0.658067 0.604145
O O2 0.672423 0.375219 0.773463
O O3 0.306795 0.299722 0.684919
O O4 0.010250 0.610817 0.653275
O O5 0.605866 0.836457 0.646997
O O6 0.500000 0.000000 0.500000
O O7 0.790657 0.355239 0.089939
O O8 0.918138 0.386167 0.188727
O O9 0.723522 0.098841 0.217421
O O10 0.283795 0.542454 0.045969
O O11 0.464603 0.383869 0.222305
O O12 0.484898 0.806110 0.129077
O O13 0.003435 0.782502 0.052508
O O14 0.603994 0.151465 0.057745
O O15 0.500000 0.000000 0.000000
O O16 0.773729 0.923000 0.855189
O O17 0.574341 0.966402 0.719420
#
# Coordination Sequence:
#
# PCOD9002039 Si02
#       8
#     2   2   2   2   2   2   2   2
#     4  11  26  46  78 104 143 182 231 293 364 431
#     4  11  27  53  80 108 137 176 228 297 378 452
#     4  10  21  38  60  87 144 188 242 283 339 402
#     4  10  23  38  57  96 132 190 230 290 336 410
#     4  11  22  33  57  86 139 178 248 284 333 381
#     4  10  21  36  56  92 139 196 242 288 332 396
#     4  11  24  40  66 103 140 191 239 288 344 408
#     4  10  24  42  70  99 136 184 240 286 361 424
#
# _framework density 23.357809
#
# number of rings (size 3 to 8) (size 9 to 14) (size 15 to 20)
#    0.000    1.500    1.250    2.250   14.000    1.000 
#    0.000    1.250    0.000    0.000    0.000    0.000 
#    0.000    0.000    0.000    0.000    0.000    0.000 
#
# Total GULP energy -89143.414937 kJ/mol
# GULP energy per Si atom -5571.463434 kJ/mol
# Density = 2.330465 g / cm^3
# Si number density = 23.357809 Si / 1000 Ang^3
#
#
#
# Elastic Constant Matrix: (Units=GPa)
#
#
# Indices 1 2 3 4 5 6 
#
# 1 107.0740 44.3400 29.7407 -14.8442 -21.2499 2.7062
# 2 44.3400 153.1057 48.7346 -18.4894 -8.6069 0.5074
# 3 29.7407 48.7346 98.2620 -13.2614 -33.7745 -1.3262
# 4 -14.8442 -18.4894 -13.2614 25.4206 6.5998 -5.8283
# 5 -21.2499 -8.6069 -33.7745 6.5998 36.3037 -6.2769
# 6 2.7062 0.5074 -1.3262 -5.8283 -6.2769 45.7383
#
#
#
# Elastic Compliance Matrix: (Units=1/GPa)
#
#
# Indices 1 2 3 4 5 6 
#
# 1 0.012149 -0.002840 0.000390 0.003766 0.006230 0.000659
# 2 -0.002840 0.009032 -0.004724 0.003588 -0.004610 -0.000245
# 3 0.000390 -0.004724 0.018431 0.002908 0.016274 0.003168
# 4 0.003766 0.003588 0.002908 0.047441 -0.001895 0.005607
# 5 0.006230 -0.004610 0.016274 -0.001895 0.046676 0.006319
# 6 0.000659 -0.000245 0.003168 0.005607 0.006319 0.023501
#
#
# Mechanical properties :
#
#
# Convention : Reuss Voigt Hill
#
# Bulk Modulus (GPa) = 39.58175 67.11917 53.35046
# Shear Modulus (GPa) = 27.77794 37.20094 32.48944
#
# Velocity S-wave (km/s) = 3.45227 3.99514 3.73358
# Velocity P-wave (km/s) = 5.73354 7.07666 6.44021
#
# Compressibility (1/GPa) = 0.02526417
#
# Stress axis : x y z
#
# Youngs Moduli (GPa) = 82.31291 110.71260 54.25728
#
# Poissons Ratio (x) = 0.31438 -0.02115
# Poissons Ratio (y) = 0.23373 0.25631
# Poissons Ratio (z) = -0.03208 0.52301
#
# Static dielectric constant tensor:
#      x y z
#    x 2.011340 -0.084980 0.171350 
#    y -0.084980 2.002780 -0.321190 
#    z 0.171350 -0.321190 3.089020 
# 
# From -- ./inp_files/615166.got.cif
#   From: 2010.05.17/outbox.cif.g08.bks.cpg/sg2_308_cif.got.tgz:615166.got - 2010.06.03 11:33:40.
