data_PCOD9002436
_publ_section_title
;
Structure prediction by ZEFSAII (Michael W. Deem and Ramdas Pophale) SiO2 
 PCOD9002436
Probable space group: P -1
;
_chemical_formula_sum "Si O2"
_cell_formula_units_Z 16
_cell_length_a 9.344589
_cell_length_b 17.691854
_cell_length_c 8.411966
_cell_angle_alpha 77.056722
_cell_angle_beta 114.765203
_cell_angle_gamma 142.990060
_cell_volume 744.442199
_symmetry_space_group_name_H-M "P -1"
_symmetry_group_IT_number 2
_symmetry_cell_setting 'triclinic'
loop_
_space_group_symop_operation_xyz
x,y,z
-x,-y,-z
loop_
_atom_site_type_symbol
_atom_site_label
_atom_site_fract_x
_atom_site_fract_y
_atom_site_fract_z
Si Si1 0.230230 0.647016 0.245398
Si Si2 0.390077 0.968716 0.193233
Si Si3 0.292661 0.695040 0.610677
Si Si4 0.383246 0.829488 0.010747
Si Si5 0.818553 0.172448 0.512136
Si Si6 0.406968 0.436742 0.728163
Si Si7 0.112633 0.435016 0.275767
Si Si8 0.371777 0.567577 0.874127
O O1 0.326876 0.680302 0.454830
O O2 0.426528 0.775422 0.174306
O O3 0.192006 0.549830 0.191705
O O4 0.935593 0.565639 0.161753
O O5 0.688180 0.077615 0.347330
O O6 0.318542 0.875539 0.075774
O O7 0.230206 0.891879 0.315494
O O8 0.396666 0.052378 0.061273
O O9 0.340218 0.807017 0.568818
O O10 0.408585 0.672290 0.789131
O O11 0.995943 0.582759 0.593098
O O12 0.136386 0.703239 0.854099
O O13 0.124156 0.308836 0.582731
O O14 0.638771 0.516938 0.673856
O O15 0.424642 0.528226 0.774310
O O16 0.458816 0.396503 0.916403
#
# Coordination Sequence:
#
# PCOD9002436 Si02
#       8
#     2   2   2   2   2   2   2   2
#     4  11  21  40  63  96 132 167 209 256 322 394
#     4  10  23  38  63  91 120 176 222 262 287 374
#     4  11  22  40  61  91 132 173 207 249 313 401
#     4  11  20  38  63  96 123 159 222 267 300 367
#     4  11  22  42  63  90 128 168 221 255 310 370
#     4  11  23  37  61 102 138 157 197 275 330 378
#     4  11  23  36  64 103 129 158 204 262 335 380
#     4  10  21  36  60  94 136 167 192 250 344 383
#
# _framework density 21.492602000000002
#
# number of rings (size 3 to 8) (size 9 to 14) (size 15 to 20)
#    0.000    1.250    5.000    1.875    3.500    0.500 
#    0.000    0.000    0.000    7.500    0.000    0.000 
#    0.000    0.000    0.000    0.000    0.000    0.000 
#
# Total GULP energy -89131.725910 kJ/mol
# GULP energy per Si atom -5570.732869 kJ/mol
# Density = 2.144368 g / cm^3
# Si number density = 21.492602 Si / 1000 Ang^3
#
#
#
# Elastic Constant Matrix: (Units=GPa)
#
#
# Indices 1 2 3 4 5 6 
#
# 1 92.8305 29.8058 20.9450 -9.2097 -0.8400 -6.0959
# 2 29.8058 105.0418 26.6209 -28.2825 -9.6551 -24.3819
# 3 20.9450 26.6209 101.8253 -20.1021 2.8874 -11.4812
# 4 -9.2097 -28.2825 -20.1021 44.1732 1.1857 1.9997
# 5 -0.8400 -9.6551 2.8874 1.1857 26.7622 -6.0888
# 6 -6.0959 -24.3819 -11.4812 1.9997 -6.0888 26.7334
#
#
#
# Elastic Compliance Matrix: (Units=1/GPa)
#
#
# Indices 1 2 3 4 5 6 
#
# 1 0.012168 -0.003543 -0.001799 -0.000459 -0.001006 -0.001425
# 2 -0.003543 0.018093 -0.000468 0.009595 0.009917 0.017033
# 3 -0.001799 -0.000468 0.011630 0.004477 -0.000853 0.003629
# 4 -0.000459 0.009595 0.004477 0.030209 0.003709 0.009154
# 5 -0.001006 0.009917 -0.000853 0.003709 0.045033 0.018428
# 6 -0.001425 0.017033 0.003629 0.009154 0.018428 0.057688
#
#
# Mechanical properties :
#
#
# Convention : Reuss Voigt Hill
#
# Bulk Modulus (GPa) = 33.03579 50.49345 41.76462
# Shear Modulus (GPa) = 25.44128 34.35549 29.89839
#
# Velocity S-wave (km/s) = 3.44426 4.00244 3.73379
# Velocity P-wave (km/s) = 5.58761 6.70103 6.16949
#
# Compressibility (1/GPa) = 0.03027020
#
# Stress axis : x y z
#
# Youngs Moduli (GPa) = 82.18422 55.27072 85.98290
#
# Poissons Ratio (x) = 0.19585 0.15470
# Poissons Ratio (y) = 0.29122 0.04021
# Poissons Ratio (z) = 0.14787 0.02584
#
# Static dielectric constant tensor:
#      x y z
#    x 1.777080 -0.044410 0.008280 
#    y -0.044410 1.832300 -0.073520 
#    z 0.008280 -0.073520 1.908740 
# 
# From -- ./inp_files/217503.got.cif
#   From: 2010.05.17/outbox.cif.g08.bks.cpg/sg2_109_cif.got.tgz:217503.got - 2010.06.03 11:33:40.
