data_PCOD9002884
_publ_section_title
;
Structure prediction by ZEFSAII (Michael W. Deem and Ramdas Pophale) SiO2 
 PCOD9002884
Probable space group: P -1
;
_chemical_formula_sum "Si O2"
_cell_formula_units_Z 14
_cell_length_a 5.334597
_cell_length_b 8.444766
_cell_length_c 13.946703
_cell_angle_alpha 120.994706
_cell_angle_beta 107.846175
_cell_angle_gamma 85.675574
_cell_volume 510.043828
_symmetry_space_group_name_H-M "P -1"
_symmetry_group_IT_number 2
_symmetry_cell_setting 'triclinic'
loop_
_space_group_symop_operation_xyz
x,y,z
-x,-y,-z
loop_
_atom_site_type_symbol
_atom_site_label
_atom_site_fract_x
_atom_site_fract_y
_atom_site_fract_z
Si Si1 0.673256 0.728394 0.842717
Si Si2 0.990761 0.939964 0.368127
Si Si3 0.295540 0.419652 0.728919
Si Si4 0.833144 0.540976 0.611323
Si Si5 0.579356 0.767519 0.501185
Si Si6 0.602395 0.935601 0.162090
Si Si7 0.957323 0.285786 0.960374
O O1 0.515771 0.569847 0.841996
O O2 0.691416 0.644684 0.712214
O O3 0.964029 0.745649 0.928767
O O4 0.522695 0.909751 0.868196
O O5 0.912235 0.717939 0.279479
O O6 0.762930 0.015529 0.299788
O O7 0.000000 0.000000 0.500000
O O8 0.281991 0.028396 0.398157
O O9 0.418793 0.282032 0.626346
O O10 0.126995 0.545415 0.682827
O O11 0.780007 0.643067 0.540098
O O12 0.700534 0.328963 0.526314
O O13 0.830638 0.835315 0.103806
O O14 0.346073 0.796296 0.117856
O O15 0.000000 0.500000 0.000000
#
# Coordination Sequence:
#
# PCOD9002884 Si02
#       7
#     2   2   2   2   2   2   2
#     4  11  26  44  75 107 148 193 251 310 375 450
#     4  10  23  44  69 105 152 197 246 308 374 451
#     4  10  21  39  65  99 144 187 250 295 380 426
#     4  10  21  36  67  98 140 192 242 303 363 447
#     4   9  20  39  58 101 139 196 240 302 365 441
#     4  12  28  50  77 114 150 200 251 309 380 456
#     4  12  29  52  81 110 152 194 255 317 383 443
#
# _framework density 27.448623000000001
#
# number of rings (size 3 to 8) (size 9 to 14) (size 15 to 20)
#    0.000    1.429    0.000    3.429    8.000    6.286 
#    0.000    0.000    0.000    0.000    0.000    0.000 
#    0.000    0.000    0.000    0.000    0.000    0.000 
#
# Total GULP energy -78341.439134 kJ/mol
# GULP energy per Si atom -5595.817081 kJ/mol
# Density = 2.738615 g / cm^3
# Si number density = 27.448623 Si / 1000 Ang^3
#
#
#
# Elastic Constant Matrix: (Units=GPa)
#
#
# Indices 1 2 3 4 5 6 
#
# 1 123.5954 35.4338 39.8935 20.4504 16.2669 -0.6045
# 2 35.4338 128.5419 29.0579 11.3985 -0.3765 -9.3599
# 3 39.8935 29.0579 121.2374 -3.7341 13.2969 3.9083
# 4 20.4504 11.3985 -3.7341 45.7220 -2.1119 20.7525
# 5 16.2669 -0.3765 13.2969 -2.1119 51.4024 3.4386
# 6 -0.6045 -9.3599 3.9083 20.7525 3.4386 50.9989
#
#
#
# Elastic Compliance Matrix: (Units=1/GPa)
#
#
# Indices 1 2 3 4 5 6 
#
# 1 0.011027 -0.001568 -0.003194 -0.006233 -0.003121 0.002834
# 2 -0.001568 0.009146 -0.001949 -0.003069 0.000740 0.003008
# 3 -0.003194 -0.001949 0.010113 0.003892 -0.001281 -0.002668
# 4 -0.006233 -0.003069 0.003892 0.032399 0.003233 -0.014337
# 5 -0.003121 0.000740 -0.001281 0.003233 0.021082 -0.002540
# 6 0.002834 0.003008 -0.002668 -0.014337 -0.002540 0.026404
#
#
# Mechanical properties :
#
#
# Convention : Reuss Voigt Hill
#
# Bulk Modulus (GPa) = 59.29554 64.68280 61.98917
# Shear Modulus (GPa) = 38.69603 47.55728 43.12666
#
# Velocity S-wave (km/s) = 3.75875 4.16696 3.96811
# Velocity P-wave (km/s) = 6.36293 6.83868 6.60509
#
# Compressibility (1/GPa) = 0.01686467
#
# Stress axis : x y z
#
# Youngs Moduli (GPa) = 90.68514 109.34145 98.88578
#
# Poissons Ratio (x) = 0.17143 0.31582
# Poissons Ratio (y) = 0.14218 0.19271
# Poissons Ratio (z) = 0.28963 0.21308
#
# Static dielectric constant tensor:
#      x y z
#    x 2.116160 0.045040 -0.064200 
#    y 0.045040 2.172270 0.005410 
#    z -0.064200 0.005410 2.164630 
# 
# From -- ./inp_files/87545.got.cif
#   From: 2010.05.17/outbox.cif.g08.bks.cpg/sg2_44_cif.got.tgz:87545.got - 2010.06.03 11:33:40.
