data_PCOD9002043
_publ_section_title
;
Structure prediction by ZEFSAII (Michael W. Deem and Ramdas Pophale) SiO2 
 PCOD9002043
Probable space group: P -1
;
_chemical_formula_sum "Si O2"
_cell_formula_units_Z 16
_cell_length_a 12.450534
_cell_length_b 12.381433
_cell_length_c 13.021541
_cell_angle_alpha 94.643030
_cell_angle_beta 59.056927
_cell_angle_gamma 40.810488
_cell_volume 612.795696
_symmetry_space_group_name_H-M "P -1"
_symmetry_group_IT_number 2
_symmetry_cell_setting 'triclinic'
loop_
_space_group_symop_operation_xyz
x,y,z
-x,-y,-z
loop_
_atom_site_type_symbol
_atom_site_label
_atom_site_fract_x
_atom_site_fract_y
_atom_site_fract_z
Si Si1 0.390880 0.702091 0.319497
Si Si2 0.064511 0.296000 0.320948
Si Si3 0.680928 0.203625 0.959218
Si Si4 0.546168 0.090160 0.109558
Si Si5 0.474761 0.867282 0.281213
Si Si6 0.674968 0.417348 0.503272
Si Si7 0.225027 0.177531 0.799285
Si Si8 0.078735 0.756454 0.158051
O O1 0.397942 0.816265 0.373481
O O2 0.493009 0.513055 0.316644
O O3 0.644709 0.502740 0.084773
O O4 0.000000 0.000000 0.500000
O O5 0.165773 0.339648 0.298286
O O6 0.695755 0.529603 0.511063
O O7 0.227781 0.104605 0.327321
O O8 0.232808 0.136961 0.113137
O O9 0.304102 0.551902 0.133891
O O10 0.588440 0.185287 0.085036
O O11 0.925554 0.111341 0.849029
O O12 0.915590 0.950683 0.739746
O O13 0.701877 0.930330 0.130742
O O14 0.503437 0.943693 0.350736
O O15 0.849676 0.542510 0.016349
O O16 0.500000 0.500000 0.500000
O O17 0.223382 0.084828 0.708285
#
# Coordination Sequence:
#
# PCOD9002043 Si02
#       8
#     2   2   2   2   2   2   2   2
#     4  11  18  34  55  78 101 138 176 207 256 310
#     4   9  17  31  47  72 105 137 167 212 256 302
#     4  10  21  38  53  76 107 140 171 212 261 308
#     4   9  17  29  50  74 102 132 171 214 259 297
#     4   9  17  29  49  74 103 132 173 213 251 301
#     4  11  22  34  51  80 109 134 169 215 261 305
#     4   9  17  29  48  78 100 129 174 219 250 293
#     4  10  21  36  57  76 103 138 177 214 253 308
#
# _framework density 26.109843000000001
#
# number of rings (size 3 to 8) (size 9 to 14) (size 15 to 20)
#    0.000    2.250    2.500    2.250    7.000    1.500 
#    0.000    0.000    0.000    3.000    0.000    0.000 
#    0.000    0.000    0.000    0.000    0.000    0.000 
#
# Total GULP energy -89215.902800 kJ/mol
# GULP energy per Si atom -5575.993925 kJ/mol
# Density = 2.605042 g / cm^3
# Si number density = 26.109843 Si / 1000 Ang^3
#
#
#
# Elastic Constant Matrix: (Units=GPa)
#
#
# Indices 1 2 3 4 5 6 
#
# 1 185.4192 29.2461 19.2445 -1.0112 -44.7227 24.2164
# 2 29.2461 80.0690 22.0010 -17.0417 -14.6711 16.5966
# 3 19.2445 22.0010 34.1982 -7.0792 1.7575 5.1670
# 4 -1.0112 -17.0417 -7.0792 32.6913 9.7355 -4.2382
# 5 -44.7227 -14.6711 1.7575 9.7355 41.2383 -6.5047
# 6 24.2164 16.5966 5.1670 -4.2382 -6.5047 44.0854
#
#
#
# Elastic Compliance Matrix: (Units=1/GPa)
#
#
# Indices 1 2 3 4 5 6 
#
# 1 0.008946 -0.000006 -0.006055 -0.004580 0.010552 -0.003086
# 2 -0.000006 0.018252 -0.010243 0.005237 0.004989 -0.004428
# 3 -0.006055 -0.010243 0.041353 0.007617 -0.013603 0.001060
# 4 -0.004580 0.005237 0.007617 0.038697 -0.012319 0.001554
# 5 0.010552 0.004989 -0.013603 -0.012319 0.040758 -0.001251
# 6 -0.003086 -0.004428 0.001060 0.001554 -0.001251 0.025886
#
#
# Mechanical properties :
#
#
# Convention : Reuss Voigt Hill
#
# Bulk Modulus (GPa) = 27.81950 48.96329 38.39140
# Shear Modulus (GPa) = 22.88544 38.88265 30.88404
#
# Velocity S-wave (km/s) = 2.96380 3.86320 3.44299
# Velocity P-wave (km/s) = 4.73181 6.22033 5.52642
#
# Compressibility (1/GPa) = 0.03594600
#
# Stress axis : x y z
#
# Youngs Moduli (GPa) = 111.78717 54.78767 24.18181
#
# Poissons Ratio (x) = 0.00030 0.14641
# Poissons Ratio (y) = 0.00062 0.24768
# Poissons Ratio (z) = 0.67682 0.56117
#
# Static dielectric constant tensor:
#      x y z
#    x 2.236770 0.084430 -0.055910 
#    y 0.084430 1.983780 0.046660 
#    z -0.055910 0.046660 2.106390 
# 
# From -- ./inp_files/251932.got.cif
#   From: 2010.05.17/outbox.cif.g08.bks.cpg/sg2_126_cif.got.tgz:251932.got - 2010.06.03 11:33:40.
