data_PCOD9002942
_publ_section_title
;
Structure prediction by ZEFSAII (Michael W. Deem and Ramdas Pophale) SiO2 
 PCOD9002942
Probable space group: P -1
;
_chemical_formula_sum "Si O2"
_cell_formula_units_Z 16
_cell_length_a 19.587770
_cell_length_b 8.788102
_cell_length_c 7.619246
_cell_angle_alpha 121.186685
_cell_angle_beta 36.214255
_cell_angle_gamma 115.736387
_cell_volume 662.551456
_symmetry_space_group_name_H-M "P -1"
_symmetry_group_IT_number 2
_symmetry_cell_setting 'triclinic'
loop_
_space_group_symop_operation_xyz
x,y,z
-x,-y,-z
loop_
_atom_site_type_symbol
_atom_site_label
_atom_site_fract_x
_atom_site_fract_y
_atom_site_fract_z
Si Si1 0.511696 0.786182 0.539579
Si Si2 0.189887 0.585083 0.700230
Si Si3 0.640422 0.690225 0.686498
Si Si4 0.828254 0.975691 0.473288
Si Si5 0.116933 0.666445 0.284837
Si Si6 0.410917 0.827548 0.390335
Si Si7 0.966829 0.260419 0.157394
Si Si8 0.340395 0.502907 0.844282
O O1 0.440362 0.822689 0.533778
O O2 0.422662 0.679338 0.787089
O O3 0.613175 0.646801 0.213775
O O4 0.567233 0.971124 0.599225
O O5 0.275366 0.420972 0.430317
O O6 0.283072 0.748669 0.584621
O O7 0.096553 0.603211 0.753062
O O8 0.124354 0.595582 0.030617
O O9 0.703249 0.884365 0.658203
O O10 0.643451 0.585859 0.434302
O O11 0.510354 0.709722 0.030158
O O12 0.838854 0.124975 0.691223
O O13 0.877185 0.091549 0.276337
O O14 0.919944 0.820193 0.209261
O O15 0.010461 0.676243 0.649368
O O16 0.211172 0.565741 0.146371
#
# Coordination Sequence:
#
# PCOD9002942 Si02
#       8
#     2   2   2   2   2   2   2   2
#     4  10  22  35  56  77 124 157 200 232 295 359
#     4  11  23  39  61  95 122 157 204 244 302 357
#     4  11  23  37  60  87 127 155 200 254 292 355
#     4   9  21  43  62  88 116 160 205 248 301 358
#     4   9  19  40  62  86 120 155 195 257 293 348
#     4  11  23  38  54  91 120 161 198 242 291 371
#     4   9  22  41  68  84 118 162 202 249 304 356
#     4  10  21  37  54  88 114 162 196 243 301 350
#
# _framework density 24.149066999999999
#
# number of rings (size 3 to 8) (size 9 to 14) (size 15 to 20)
#    0.750    1.250    2.500    1.125    5.250    2.500 
#    0.000    2.500    0.000    0.000    0.000    0.000 
#    0.000    0.000    0.000    0.000    0.000    0.000 
#
# Total GULP energy -89371.883575 kJ/mol
# GULP energy per Si atom -5585.742723 kJ/mol
# Density = 2.409410 g / cm^3
# Si number density = 24.149067 Si / 1000 Ang^3
#
#
#
# Elastic Constant Matrix: (Units=GPa)
#
#
# Indices 1 2 3 4 5 6 
#
# 1 75.9294 27.8242 31.5176 -3.2398 -11.5305 -9.4511
# 2 27.8242 105.9707 19.1961 3.9759 -2.5259 11.5563
# 3 31.5176 19.1961 108.9876 0.0955 6.9277 -4.5333
# 4 -3.2398 3.9759 0.0955 35.2573 0.8807 -10.3871
# 5 -11.5305 -2.5259 6.9277 0.8807 21.6988 0.6425
# 6 -9.4511 11.5563 -4.5333 -10.3871 0.6425 28.8282
#
#
#
# Elastic Compliance Matrix: (Units=1/GPa)
#
#
# Indices 1 2 3 4 5 6 
#
# 1 0.020504 -0.005384 -0.005315 0.005050 0.011476 0.009608
# 2 -0.005384 0.012046 -0.000855 -0.004261 -0.000769 -0.008247
# 3 -0.005315 -0.000855 0.011299 -0.000118 -0.006541 0.000480
# 4 0.005050 -0.004261 -0.000118 0.033877 0.000390 0.015543
# 5 0.011476 -0.000769 -0.006541 0.000390 0.054108 0.001977
# 6 0.009608 -0.008247 0.000480 0.015543 0.001977 0.046776
#
#
# Mechanical properties :
#
#
# Convention : Reuss Voigt Hill
#
# Bulk Modulus (GPa) = 48.21760 49.77370 48.99565
# Shear Modulus (GPa) = 23.96559 31.31351 27.63955
#
# Velocity S-wave (km/s) = 3.15366 3.60484 3.38677
# Velocity P-wave (km/s) = 5.76808 6.16298 5.96880
#
# Compressibility (1/GPa) = 0.02073932
#
# Stress axis : x y z
#
# Youngs Moduli (GPa) = 48.77156 83.01438 88.50431
#
# Poissons Ratio (x) = 0.44699 0.47042
# Poissons Ratio (y) = 0.26261 0.07567
# Poissons Ratio (z) = 0.25923 0.07098
#
# Static dielectric constant tensor:
#      x y z
#    x 1.892750 0.022850 0.017730 
#    y 0.022850 2.005750 -0.000280 
#    z 0.017730 -0.000280 1.932310 
# 
# From -- ./inp_files/351843.got.cif
#   From: 2010.05.17/outbox.cif.g08.bks.cpg/sg2_176_cif.got.tgz:351843.got - 2010.06.03 11:33:40.
