data_PCOD9002669
_publ_section_title
;
Structure prediction by ZEFSAII (Michael W. Deem and Ramdas Pophale) SiO2 
 PCOD9002669
Probable space group: P -1
;
_chemical_formula_sum "Si O2"
_cell_formula_units_Z 13
_cell_length_a 8.127687
_cell_length_b 12.312583
_cell_length_c 8.244468
_cell_angle_alpha 103.519108
_cell_angle_beta 60.163390
_cell_angle_gamma 135.143705
_cell_volume 495.168669
_symmetry_space_group_name_H-M "P -1"
_symmetry_group_IT_number 2
_symmetry_cell_setting 'triclinic'
loop_
_space_group_symop_operation_xyz
x,y,z
-x,-y,-z
loop_
_atom_site_type_symbol
_atom_site_label
_atom_site_fract_x
_atom_site_fract_y
_atom_site_fract_z
Si Si1 0.635872 0.704457 0.151474
Si Si2 0.500000 0.500000 0.500000
Si Si3 0.090550 0.403009 0.435380
Si Si4 0.855466 0.142417 0.243879
Si Si5 0.531278 0.891181 0.076101
Si Si6 0.037132 0.043425 0.680835
Si Si7 0.969931 0.572104 0.188208
O O1 0.351903 0.531440 0.245355
O O2 0.588903 0.799837 0.112666
O O3 0.726032 0.773876 0.315706
O O4 0.881037 0.744017 0.960107
O O5 0.219847 0.366382 0.484756
O O6 0.678414 0.502365 0.285215
O O7 0.855628 0.248427 0.398402
O O8 0.031122 0.469332 0.631795
O O9 0.898414 0.046121 0.289682
O O10 0.602688 0.019859 0.209933
O O11 0.230398 0.758233 0.118633
O O12 0.762256 0.981547 0.860986
O O13 0.000000 0.000000 0.500000
O O14 0.000000 0.500000 0.000000
#
# Coordination Sequence:
#
# PCOD9002669 Si02
#       7
#     2   1   2   2   2   2   2
#     4   9  19  34  60  96 121 165 210 252 311 375
#     4   8  24  38  56  98 120 164 202 262 318 356
#     4  10  21  36  63  89 125 165 203 255 318 367
#     4   9  19  37  57  92 126 162 204 264 309 369
#     4   9  20  38  59  89 127 162 210 258 310 369
#     4   9  19  31  61  89 126 168 210 250 310 377
#     4  10  23  39  63  92 128 164 209 265 313 376
#
# _framework density 26.253677
#
# number of rings (size 3 to 8) (size 9 to 14) (size 15 to 20)
#    0.923    1.846    0.000    2.308    8.615    1.231 
#    0.000    0.000    0.000    8.308    0.000    0.000 
#    0.000    0.000    0.000    0.000    0.000    0.000 
#
# Total GULP energy -72417.197105 kJ/mol
# GULP energy per Si atom -5570.553623 kJ/mol
# Density = 2.619392 g / cm^3
# Si number density = 26.253677 Si / 1000 Ang^3
#
#
#
# Elastic Constant Matrix: (Units=GPa)
#
#
# Indices 1 2 3 4 5 6 
#
# 1 23.8786 -4.1129 8.9602 -4.2157 -16.3968 11.0508
# 2 -4.1129 124.7772 52.6501 31.0229 -11.9350 30.3361
# 3 8.9602 52.6501 134.0324 24.8143 -9.8915 18.2020
# 4 -4.2157 31.0229 24.8143 42.8398 9.4481 -1.1296
# 5 -16.3968 -11.9350 -9.8915 9.4481 45.7515 -12.3201
# 6 11.0508 30.3361 18.2020 -1.1296 -12.3201 40.9368
#
#
#
# Elastic Compliance Matrix: (Units=1/GPa)
#
#
# Indices 1 2 3 4 5 6 
#
# 1 0.069261 0.012162 -0.004163 -0.005161 0.023025 -0.019071
# 2 0.012162 0.015775 -0.002989 -0.010298 0.006750 -0.011896
# 3 -0.004163 -0.002989 0.009835 -0.004061 0.000418 -0.001020
# 4 -0.005161 -0.010298 -0.004061 0.035152 -0.010333 0.008690
# 5 0.023025 0.006750 0.000418 -0.010333 0.033676 -0.001554
# 6 -0.019071 -0.011896 -0.001020 0.008690 -0.001554 0.038617
#
#
# Mechanical properties :
#
#
# Convention : Reuss Voigt Hill
#
# Bulk Modulus (GPa) = 9.53388 44.18701 26.86045
# Shear Modulus (GPa) = 22.00127 40.91833 31.45980
#
# Velocity S-wave (km/s) = 2.89801 3.95216 3.46540
# Velocity P-wave (km/s) = 3.85192 6.13950 5.12497
#
# Compressibility (1/GPa) = 0.10488904
#
# Stress axis : x y z
#
# Youngs Moduli (GPa) = 14.43815 63.39274 101.68186
#
# Poissons Ratio (x) = -0.77096 0.42328
# Poissons Ratio (y) = -0.17559 0.30397
# Poissons Ratio (z) = 0.06010 0.18951
#
# Static dielectric constant tensor:
#      x y z
#    x 2.437410 -0.324540 0.191150 
#    y -0.324540 2.166240 -0.024370 
#    z 0.191150 -0.024370 1.993470 
# 
# From -- ./inp_files/197461.got.cif
#   From: 2010.05.17/outbox.cif.g08.bks.cpg/sg2_99_cif.got.tgz:197461.got - 2010.06.03 11:33:40.
