data_PCOD9002695
_publ_section_title
;
Structure prediction by ZEFSAII (Michael W. Deem and Ramdas Pophale) SiO2 
 PCOD9002695
Probable space group: P -1
;
_chemical_formula_sum "Si O2"
_cell_formula_units_Z 16
_cell_length_a 9.525251
_cell_length_b 8.222674
_cell_length_c 10.873360
_cell_angle_alpha 54.021433
_cell_angle_beta 72.070454
_cell_angle_gamma 90.536897
_cell_volume 635.377054
_symmetry_space_group_name_H-M "P -1"
_symmetry_group_IT_number 2
_symmetry_cell_setting 'triclinic'
loop_
_space_group_symop_operation_xyz
x,y,z
-x,-y,-z
loop_
_atom_site_type_symbol
_atom_site_label
_atom_site_fract_x
_atom_site_fract_y
_atom_site_fract_z
Si Si1 0.371277 0.622640 0.959455
Si Si2 0.923243 0.476096 0.757829
Si Si3 0.405520 0.050719 0.389271
Si Si4 0.299188 0.192953 0.749279
Si Si5 0.168883 0.948336 0.118581
Si Si6 0.837852 0.601025 0.102004
Si Si7 0.344644 0.755103 0.347119
Si Si8 0.209331 0.298137 0.475305
O O1 0.472018 0.846699 0.793785
O O2 0.500000 0.500000 0.000000
O O3 0.252433 0.585258 0.120304
O O4 0.270670 0.534227 0.907296
O O5 0.946901 0.276587 0.763432
O O6 0.935196 0.671662 0.577852
O O7 0.026189 0.490491 0.844250
O O8 0.313575 0.212751 0.388234
O O9 0.500000 0.000000 0.500000
O O10 0.300268 0.844539 0.448355
O O11 0.480179 0.245429 0.678826
O O12 0.220678 0.160295 0.652760
O O13 0.230671 0.998859 0.941375
O O14 0.256291 0.375170 0.759927
O O15 0.299816 0.912247 0.189658
O O16 0.115916 0.158705 0.067996
O O17 0.270618 0.527688 0.415359
#
# Coordination Sequence:
#
# PCOD9002695 Si02
#       8
#     2   2   2   2   2   2   2   2
#     4  12  24  42  66  96 126 168 220 272 323 386
#     4  11  23  43  65  93 132 172 217 269 324 391
#     4  12  25  39  65  99 133 166 216 277 336 379
#     4  10  21  36  63  93 134 164 218 266 326 384
#     4   9  22  37  64  92 121 168 220 260 326 383
#     4  10  24  40  68  92 132 171 219 265 329 385
#     4  11  21  39  64  94 134 169 213 282 325 377
#     4  11  24  40  63  97 133 172 219 264 328 395
#
# _framework density 25.181896999999999
#
# number of rings (size 3 to 8) (size 9 to 14) (size 15 to 20)
#    0.750    0.500    2.500    3.750    3.500    0.500 
#    0.000    0.000    0.000    0.750    0.000    0.000 
#    0.000    0.000    0.000    0.000    0.000    0.000 
#
# Total GULP energy -89367.827083 kJ/mol
# GULP energy per Si atom -5585.489193 kJ/mol
# Density = 2.512458 g / cm^3
# Si number density = 25.181897 Si / 1000 Ang^3
#
#
#
# Elastic Constant Matrix: (Units=GPa)
#
#
# Indices 1 2 3 4 5 6 
#
# 1 152.9887 37.7780 39.3785 -4.8046 35.5682 3.5481
# 2 37.7780 120.6181 16.9236 2.6967 9.8398 4.8847
# 3 39.3785 16.9236 78.5857 3.2572 31.1257 -8.7845
# 4 -4.8046 2.6967 3.2572 35.8633 -5.9298 5.0317
# 5 35.5682 9.8398 31.1257 -5.9298 44.1914 2.6274
# 6 3.5481 4.8847 -8.7845 5.0317 2.6274 28.3420
#
#
#
# Elastic Compliance Matrix: (Units=1/GPa)
#
#
# Indices 1 2 3 4 5 6 
#
# 1 0.008792 -0.002020 -0.002195 0.000879 -0.004895 -0.001135
# 2 -0.002020 0.009147 -0.001358 -0.000499 0.000580 -0.001710
# 3 -0.002195 -0.001358 0.020940 -0.005715 -0.014000 0.009312
# 4 0.000879 -0.000499 -0.005715 0.031022 0.008070 -0.008051
# 5 -0.004895 0.000580 -0.014000 0.008070 0.037905 -0.008773
# 6 -0.001135 -0.001710 0.009312 -0.008051 -0.008773 0.040849
#
#
# Mechanical properties :
#
#
# Convention : Reuss Voigt Hill
#
# Bulk Modulus (GPa) = 36.05752 60.03919 48.04835
# Shear Modulus (GPa) = 29.57776 38.88686 34.23231
#
# Velocity S-wave (km/s) = 3.43091 3.93394 3.69101
# Velocity P-wave (km/s) = 5.48131 6.67297 6.10628
#
# Compressibility (1/GPa) = 0.02773347
#
# Stress axis : x y z
#
# Youngs Moduli (GPa) = 113.73578 109.32660 47.75488
#
# Poissons Ratio (x) = 0.22085 0.10483
# Poissons Ratio (y) = 0.22976 0.06484
# Poissons Ratio (z) = 0.24967 0.14844
#
# Static dielectric constant tensor:
#      x y z
#    x 2.009980 -0.048970 -0.037830 
#    y -0.048970 1.988000 -0.032910 
#    z -0.037830 -0.032910 2.095050 
# 
# From -- ./inp_files/381021.got.cif
#   From: 2010.05.17/outbox.cif.g08.bks.cpg/sg2_191_cif.got.tgz:381021.got - 2010.06.03 11:33:40.
