data_PCOD9002167
_publ_section_title
;
Structure prediction by ZEFSAII (Michael W. Deem and Ramdas Pophale) SiO2 
 PCOD9002167
Probable space group: P -1
;
_chemical_formula_sum "Si O2"
_cell_formula_units_Z 16
_cell_length_a 14.438461
_cell_length_b 11.122458
_cell_length_c 24.660790
_cell_angle_alpha 22.818022
_cell_angle_beta 158.525337
_cell_angle_gamma 149.226980
_cell_volume 562.221772
_symmetry_space_group_name_H-M "P -1"
_symmetry_group_IT_number 2
_symmetry_cell_setting 'triclinic'
loop_
_space_group_symop_operation_xyz
x,y,z
-x,-y,-z
loop_
_atom_site_type_symbol
_atom_site_label
_atom_site_fract_x
_atom_site_fract_y
_atom_site_fract_z
Si Si1 0.801979 0.706333 0.048084
Si Si2 0.714368 0.146700 0.415904
Si Si3 0.473937 0.626249 0.271469
Si Si4 0.413379 0.493853 0.176895
Si Si5 0.104254 0.944232 0.639322
Si Si6 0.314619 0.633101 0.298723
Si Si7 0.914987 0.933997 0.248859
Si Si8 0.143426 0.239001 0.822596
O O1 0.711806 0.350753 0.139982
O O2 0.931724 0.728061 0.169492
O O3 0.024245 0.696942 0.128780
O O4 0.614344 0.990793 0.822066
O O5 0.444243 0.203862 0.273740
O O6 0.731326 0.439028 0.262519
O O7 0.897636 0.155165 0.564585
O O8 0.856351 0.886876 0.565884
O O9 0.430436 0.421077 0.280154
O O10 0.372300 0.502245 0.324742
O O11 0.753509 0.758265 0.381941
O O12 0.326100 0.941921 0.045302
O O13 0.657071 0.726293 0.202531
O O14 0.172259 0.708106 0.944456
O O15 0.000000 0.000000 0.500000
O O16 0.500000 0.500000 0.500000
O O17 0.025989 0.852988 0.283746
#
# Coordination Sequence:
#
# PCOD9002167 Si02
#       8
#     2   2   2   2   2   2   2   2
#     4  10  22  41  54  82 119 148 187 236 274 338
#     4  11  20  30  52  82 117 152 176 220 287 340
#     4  10  21  36  58  87 113 145 190 236 283 330
#     4   9  17  32  50  79 114 141 182 235 275 326
#     4  12  23  35  54  86 124 151 182 227 289 343
#     4  10  22  39  61  78 105 154 201 230 274 330
#     4   9  17  28  49  78 112 139 182 227 276 324
#     4   9  18  33  53  80 113 148 181 230 281 328
#
# _framework density 28.458518999999999
#
# number of rings (size 3 to 8) (size 9 to 14) (size 15 to 20)
#    0.000    2.000    2.500    3.000    0.000    2.000 
#    2.250    0.000    0.000    0.750    0.000   18.375 
#    0.000    0.000    0.000    0.000    0.000    0.000 
#
# Total GULP energy -89516.553243 kJ/mol
# GULP energy per Si atom -5594.784578 kJ/mol
# Density = 2.839375 g / cm^3
# Si number density = 28.458519 Si / 1000 Ang^3
#
#
#
# Elastic Constant Matrix: (Units=GPa)
#
#
# Indices 1 2 3 4 5 6 
#
# 1 164.5856 6.4286 22.0742 11.2228 -13.6978 -30.0248
# 2 6.4286 58.0610 4.3768 12.2417 2.7600 -9.3448
# 3 22.0742 4.3768 162.4102 -8.6658 -16.8412 -28.8350
# 4 11.2228 12.2417 -8.6658 35.7630 -22.9040 15.8459
# 5 -13.6978 2.7600 -16.8412 -22.9040 46.5101 -6.6329
# 6 -30.0248 -9.3448 -28.8350 15.8459 -6.6329 43.7210
#
#
#
# Elastic Compliance Matrix: (Units=1/GPa)
#
#
# Indices 1 2 3 4 5 6 
#
# 1 0.008005 0.001901 -0.000007 -0.006834 0.000073 0.008386
# 2 0.001901 0.023621 -0.000873 -0.020045 -0.009372 0.011622
# 3 -0.000007 -0.000873 0.007690 0.003563 0.005213 0.004380
# 4 -0.006834 -0.020045 0.003563 0.069665 0.030896 -0.027189
# 5 0.000073 -0.009372 0.005213 0.030896 0.038631 -0.003852
# 6 0.008386 0.011622 0.004380 -0.027189 -0.003852 0.043274
#
#
# Mechanical properties :
#
#
# Convention : Reuss Voigt Hill
#
# Bulk Modulus (GPa) = 24.17918 50.09067 37.13493
# Shear Modulus (GPa) = 24.67556 48.67730 36.67643
#
# Velocity S-wave (km/s) = 2.94780 4.14026 3.59384
# Velocity P-wave (km/s) = 4.48339 6.36358 5.50436
#
# Compressibility (1/GPa) = 0.04135790
#
# Stress axis : x y z
#
# Youngs Moduli (GPa) = 124.92960 42.33537 130.03786
#
# Poissons Ratio (x) = -0.08050 0.00096
# Poissons Ratio (y) = -0.23755 0.11351
# Poissons Ratio (z) = 0.00092 0.03696
#
# Static dielectric constant tensor:
#      x y z
#    x 2.246490 0.090700 -0.012980 
#    y 0.090700 2.461300 -0.180290 
#    z -0.012980 -0.180290 2.200730 
# 
# From -- ./inp_files/611933.got.cif
#   From: 2010.05.17/outbox.cif.g08.bks.cpg/sg2_306_cif.got.tgz:611933.got - 2010.06.03 11:33:40.
