data_PCOD9002613
_publ_section_title
;
Structure prediction by ZEFSAII (Michael W. Deem and Ramdas Pophale) SiO2 
 PCOD9002613
Probable space group: P -1
;
_chemical_formula_sum "Si O2"
_cell_formula_units_Z 16
_cell_length_a 11.831850
_cell_length_b 15.345003
_cell_length_c 7.920680
_cell_angle_alpha 45.513633
_cell_angle_beta 106.271724
_cell_angle_gamma 129.558136
_cell_volume 754.064936
_symmetry_space_group_name_H-M "P -1"
_symmetry_group_IT_number 2
_symmetry_cell_setting 'triclinic'
loop_
_space_group_symop_operation_xyz
x,y,z
-x,-y,-z
loop_
_atom_site_type_symbol
_atom_site_label
_atom_site_fract_x
_atom_site_fract_y
_atom_site_fract_z
Si Si1 0.364080 0.357920 0.017098
Si Si2 0.331708 0.555627 0.519977
Si Si3 0.667005 0.159807 0.410643
Si Si4 0.948107 0.536041 0.264531
Si Si5 0.502214 0.884658 0.277917
Si Si6 0.257815 0.026854 0.459161
Si Si7 0.156525 0.512810 0.165540
Si Si8 0.055718 0.242168 0.220103
O O1 0.359689 0.209283 0.191973
O O2 0.203810 0.278015 0.154009
O O3 0.500000 0.500000 0.000000
O O4 0.370467 0.442203 0.734973
O O5 0.216890 0.521291 0.670347
O O6 0.471253 0.742602 0.348924
O O7 0.247318 0.522014 0.353930
O O8 0.636416 0.182340 0.556326
O O9 0.500000 0.000000 0.500000
O O10 0.759595 0.096972 0.510664
O O11 0.734858 0.313847 0.115764
O O12 0.000000 0.500000 0.500000
O O13 0.002923 0.479392 0.217226
O O14 0.025294 0.715630 0.001144
O O15 0.651381 0.961257 0.353009
O O16 0.500000 0.000000 0.000000
O O17 0.080210 0.938000 0.539489
O O18 0.116213 0.375363 0.210038
#
# Coordination Sequence:
#
# PCOD9002613 Si02
#       8
#     2   2   2   2   2   2   2   2
#     4  11  23  45  64  88 123 171 224 258 314 375
#     4  10  21  39  64  92 124 170 210 261 305 386
#     4  10  21  36  62  93 130 157 201 258 319 372
#     4   9  19  33  60  93 127 159 198 254 315 376
#     4  11  23  40  64  97 131 160 208 262 324 375
#     4  11  23  41  64  91 128 169 210 261 316 379
#     4  11  21  39  63  97 131 160 207 260 331 375
#     4  11  23  38  63  93 126 170 211 259 319 382
#
# _framework density 21.218330999999999
#
# number of rings (size 3 to 8) (size 9 to 14) (size 15 to 20)
#    0.000    1.500    2.500    3.750    5.250    0.000 
#    0.000    2.500    0.000    0.000    0.000    0.000 
#    0.000    0.000    0.000    0.000    0.000    0.000 
#
# Total GULP energy -89166.379946 kJ/mol
# GULP energy per Si atom -5572.898747 kJ/mol
# Density = 2.117004 g / cm^3
# Si number density = 21.218331 Si / 1000 Ang^3
#
#
#
# Elastic Constant Matrix: (Units=GPa)
#
#
# Indices 1 2 3 4 5 6 
#
# 1 48.3932 10.9369 20.1944 2.5038 1.6774 4.6326
# 2 10.9369 78.8194 69.7687 -10.4195 9.5859 0.4204
# 3 20.1944 69.7687 161.0551 -8.2772 12.2070 1.0634
# 4 2.5038 -10.4195 -8.2772 36.8612 -3.2350 -1.7719
# 5 1.6774 9.5859 12.2070 -3.2350 26.7462 -0.3770
# 6 4.6326 0.4204 1.0634 -1.7719 -0.3770 26.3233
#
#
#
# Elastic Compliance Matrix: (Units=1/GPa)
#
#
# Indices 1 2 3 4 5 6 
#
# 1 0.022470 -0.001366 -0.002317 -0.002647 -0.000239 -0.004021
# 2 -0.001366 0.021476 -0.008692 0.003957 -0.003159 0.000470
# 3 -0.002317 -0.008692 0.010372 -0.000096 -0.001483 0.000100
# 4 -0.002647 0.003957 -0.000096 0.028721 0.002299 0.002373
# 5 -0.000239 -0.003159 -0.001483 0.002299 0.039503 0.000873
# 6 -0.004021 0.000470 0.000100 0.002373 0.000873 0.038857
#
#
# Mechanical properties :
#
#
# Convention : Reuss Voigt Hill
#
# Bulk Modulus (GPa) = 33.82239 54.45199 44.13719
# Shear Modulus (GPa) = 25.50949 30.47733 27.99341
#
# Velocity S-wave (km/s) = 3.47109 3.79406 3.63616
# Velocity P-wave (km/s) = 5.66034 6.70161 6.20286
#
# Compressibility (1/GPa) = 0.02956622
#
# Stress axis : x y z
#
# Youngs Moduli (GPa) = 44.50412 46.56437 96.41494
#
# Poissons Ratio (x) = 0.06363 0.22338
# Poissons Ratio (y) = 0.06081 0.83806
# Poissons Ratio (z) = 0.10311 0.40475
#
# Static dielectric constant tensor:
#      x y z
#    x 1.887150 -0.027850 -0.001160 
#    y -0.027850 1.798300 -0.029260 
#    z -0.001160 -0.029260 1.803170 
# 
# From -- ./inp_files/271574.got.cif
#   From: 2010.05.17/outbox.cif.g08.bks.cpg/sg2_136_cif.got.tgz:271574.got - 2010.06.03 11:33:40.
