data_PCOD9002674
_publ_section_title
;
Structure prediction by ZEFSAII (Michael W. Deem and Ramdas Pophale) SiO2 
 PCOD9002674
Probable space group: P -1
;
_chemical_formula_sum "Si O2"
_cell_formula_units_Z 16
_cell_length_a 11.802496
_cell_length_b 8.692239
_cell_length_c 13.073819
_cell_angle_alpha 49.624626
_cell_angle_beta 58.919386
_cell_angle_gamma 97.729642
_cell_volume 608.472273
_symmetry_space_group_name_H-M "P -1"
_symmetry_group_IT_number 2
_symmetry_cell_setting 'triclinic'
loop_
_space_group_symop_operation_xyz
x,y,z
-x,-y,-z
loop_
_atom_site_type_symbol
_atom_site_label
_atom_site_fract_x
_atom_site_fract_y
_atom_site_fract_z
Si Si1 0.095402 0.890257 0.007780
Si Si2 0.669002 0.417670 0.780049
Si Si3 0.673448 0.174761 0.694576
Si Si4 0.325052 0.597543 0.908928
Si Si5 0.046854 0.619839 0.810998
Si Si6 0.483656 0.194524 0.590659
Si Si7 0.717240 0.873049 0.654669
Si Si8 0.659464 0.695923 0.132668
O O1 0.279101 0.058981 0.777953
O O2 0.186464 0.976217 0.040216
O O3 0.940009 0.563902 0.183644
O O4 0.000000 0.000000 0.000000
O O5 0.765703 0.387523 0.658697
O O6 0.772496 0.700802 0.680709
O O7 0.515650 0.383503 0.802709
O O8 0.532516 0.129296 0.037214
O O9 0.610854 0.269253 0.596851
O O10 0.773297 0.088061 0.629842
O O11 0.488626 0.647104 0.863961
O O12 0.246386 0.361348 0.962110
O O13 0.428130 0.916712 0.686476
O O14 0.140429 0.474110 0.104790
O O15 0.219293 0.950311 0.557939
O O16 0.000000 0.500000 0.000000
O O17 0.580607 0.466352 0.358197
#
# Coordination Sequence:
#
# PCOD9002674 Si02
#       8
#     2   2   2   2   2   2   2   2
#     4  11  24  35  55  92 133 160 203 272 323 377
#     4  10  22  39  69  99 127 170 221 267 320 394
#     4  10  21  40  66  99 129 168 219 267 324 387
#     4   9  22  37  60  88 130 165 201 272 321 377
#     4  11  25  39  57  95 132 168 216 264 327 392
#     4  10  21  36  63  90 123 162 213 259 324 386
#     4  10  23  41  67  92 127 176 219 261 329 389
#     4  11  21  38  62  95 120 164 215 259 327 381
#
# _framework density 26.295362999999998
#
# number of rings (size 3 to 8) (size 9 to 14) (size 15 to 20)
#    0.000    1.750    1.250    1.875   14.000    0.000 
#    2.250    0.000    0.000   19.500    0.000    0.000 
#    0.000    0.000    0.000    0.000    0.000    0.000 
#
# Total GULP energy -89370.021479 kJ/mol
# GULP energy per Si atom -5585.626342 kJ/mol
# Density = 2.623551 g / cm^3
# Si number density = 26.295363 Si / 1000 Ang^3
#
#
#
# Elastic Constant Matrix: (Units=GPa)
#
#
# Indices 1 2 3 4 5 6 
#
# 1 85.9604 19.4121 39.9934 0.8231 23.9814 -9.8544
# 2 19.4121 183.6345 18.0642 1.6898 7.9834 -18.4306
# 3 39.9934 18.0642 71.5932 15.8876 16.9669 -9.2046
# 4 0.8231 1.6898 15.8876 31.2937 -1.5347 -2.1136
# 5 23.9814 7.9834 16.9669 -1.5347 32.7606 -0.2860
# 6 -9.8544 -18.4306 -9.2046 -2.1136 -0.2860 32.6273
#
#
#
# Elastic Compliance Matrix: (Units=1/GPa)
#
#
# Indices 1 2 3 4 5 6 
#
# 1 0.018480 -0.000456 -0.008538 0.003650 -0.008797 0.003074
# 2 -0.000456 0.005894 -0.000738 0.000237 -0.000683 0.002993
# 3 -0.008538 -0.000738 0.023343 -0.011702 -0.006183 0.002777
# 4 0.003650 0.000237 -0.011702 0.038069 0.005119 0.000446
# 5 -0.008797 -0.000683 -0.006183 0.005119 0.040537 -0.004100
# 6 0.003074 0.002993 0.002777 0.000446 -0.004100 0.034045
#
#
# Mechanical properties :
#
#
# Convention : Reuss Voigt Hill
#
# Bulk Modulus (GPa) = 35.39559 55.12528 45.26043
# Shear Modulus (GPa) = 26.41983 36.91754 31.66868
#
# Velocity S-wave (km/s) = 3.17319 3.75101 3.47413
# Velocity P-wave (km/s) = 5.18802 6.30630 5.77429
#
# Compressibility (1/GPa) = 0.02825211
#
# Stress axis : x y z
#
# Youngs Moduli (GPa) = 54.11120 169.65398 42.83913
#
# Poissons Ratio (x) = 0.07740 0.36577
# Poissons Ratio (y) = 0.02469 0.03163
# Poissons Ratio (z) = 0.46201 0.12528
#
# Static dielectric constant tensor:
#      x y z
#    x 2.059800 0.078590 0.019690 
#    y 0.078590 2.228560 -0.034110 
#    z 0.019690 -0.034110 2.047250 
# 
# From -- ./inp_files/528158.got.cif
#   From: 2010.05.17/outbox.cif.g08.bks.cpg/sg2_265_cif.got.tgz:528158.got - 2010.06.03 11:33:40.
