data_PCOD9002564
_publ_section_title
;
Structure prediction by ZEFSAII (Michael W. Deem and Ramdas Pophale) SiO2 
 PCOD9002564
Probable space group: P -1
;
_chemical_formula_sum "Si O2"
_cell_formula_units_Z 14
_cell_length_a 8.043748
_cell_length_b 10.624885
_cell_length_c 8.780867
_cell_angle_alpha 89.982099
_cell_angle_beta 129.599928
_cell_angle_gamma 102.568257
_cell_volume 554.736074
_symmetry_space_group_name_H-M "P -1"
_symmetry_group_IT_number 2
_symmetry_cell_setting 'triclinic'
loop_
_space_group_symop_operation_xyz
x,y,z
-x,-y,-z
loop_
_atom_site_type_symbol
_atom_site_label
_atom_site_fract_x
_atom_site_fract_y
_atom_site_fract_z
Si Si1 0.559790 0.143309 0.383101
Si Si2 0.429724 0.361343 0.100985
Si Si3 0.706891 0.821357 0.515963
Si Si4 0.791633 0.042552 0.247194
Si Si5 0.205337 0.410465 0.238047
Si Si6 0.055836 0.658890 0.207218
Si Si7 0.452787 0.784664 0.066797
O O1 0.467279 0.242282 0.224671
O O2 0.363934 0.092192 0.392576
O O3 0.654321 0.059327 0.318912
O O4 0.768001 0.225642 0.605170
O O5 0.406915 0.455642 0.229248
O O6 0.590144 0.350807 0.053084
O O7 0.193235 0.349717 0.878456
O O8 0.741857 0.692224 0.616310
O O9 0.512845 0.775394 0.276973
O O10 0.943149 0.902045 0.583557
O O11 0.685123 0.891468 0.141227
O O12 0.724996 0.137705 0.083197
O O13 0.140590 0.530306 0.276688
O O14 0.996294 0.337490 0.004699
#
# Coordination Sequence:
#
# PCOD9002564 Si02
#       7
#     2   2   2   2   2   2   2
#     4  10  21  36  62  84 114 154 191 229 294 329
#     4   8  17  35  55  84 108 153 186 225 285 342
#     4  11  22  36  60  91 110 149 201 234 273 351
#     4  10  23  42  56  86 119 151 188 242 280 346
#     4   8  19  36  58  85 115 150 194 229 288 335
#     4   9  17  37  60  80 120 153 181 243 281 337
#     4  10  21  39  61  78 120 155 184 237 299 319
#
# _framework density 25.237226
#
# number of rings (size 3 to 8) (size 9 to 14) (size 15 to 20)
#    0.857    1.714    0.000    1.286    2.000    2.857 
#    0.000   14.286    0.000    4.286    0.000    0.000 
#    0.000    0.000    0.000    0.000    0.000    0.000 
#
# Total GULP energy -78077.178499 kJ/mol
# GULP energy per Si atom -5576.941321 kJ/mol
# Density = 2.517978 g / cm^3
# Si number density = 25.237226 Si / 1000 Ang^3
#
#
#
# Elastic Constant Matrix: (Units=GPa)
#
#
# Indices 1 2 3 4 5 6 
#
# 1 78.6619 40.8793 23.8087 -9.1110 -8.4901 -13.3951
# 2 40.8793 104.9273 39.7327 -9.7697 0.6484 -21.6343
# 3 23.8087 39.7327 129.0862 -12.2409 5.3752 2.5547
# 4 -9.1110 -9.7697 -12.2409 46.2321 0.5167 1.3824
# 5 -8.4901 0.6484 5.3752 0.5167 29.6111 -12.0182
# 6 -13.3951 -21.6343 2.5547 1.3824 -12.0182 38.8382
#
#
#
# Elastic Compliance Matrix: (Units=1/GPa)
#
#
# Indices 1 2 3 4 5 6 
#
# 1 0.017973 -0.004836 -0.002124 0.001685 0.008086 0.006087
# 2 -0.004836 0.014329 -0.003652 0.000876 0.001824 0.007087
# 3 -0.002124 -0.003652 0.009682 0.001564 -0.004252 -0.004775
# 4 0.001685 0.000876 0.001564 0.022560 -0.000168 0.000111
# 5 0.008086 0.001824 -0.004252 -0.000168 0.044012 0.017709
# 6 0.006087 0.007087 -0.004775 0.000111 0.017709 0.037585
#
#
# Mechanical properties :
#
#
# Convention : Reuss Voigt Hill
#
# Bulk Modulus (GPa) = 48.16670 57.94631 53.05650
# Shear Modulus (GPa) = 28.68881 36.81993 32.75437
#
# Velocity S-wave (km/s) = 3.37525 3.82377 3.60649
# Velocity P-wave (km/s) = 5.85805 6.51962 6.19767
#
# Compressibility (1/GPa) = 0.02076123
#
# Stress axis : x y z
#
# Youngs Moduli (GPa) = 55.63881 69.78969 103.28198
#
# Poissons Ratio (x) = 0.33751 0.21934
# Poissons Ratio (y) = 0.26908 0.37714
# Poissons Ratio (z) = 0.11816 0.25484
#
# Static dielectric constant tensor:
#      x y z
#    x 2.083320 0.028550 -0.042140 
#    y 0.028550 2.004970 -0.023560 
#    z -0.042140 -0.023560 1.976110 
# 
# From -- ./inp_files/179619.got.cif
#   From: 2010.05.17/outbox.cif.g08.bks.cpg/sg2_90_cif.got.tgz:179619.got - 2010.06.03 11:33:40.
