data_PCOD9002360
_publ_section_title
;
Structure prediction by ZEFSAII (Michael W. Deem and Ramdas Pophale) SiO2 
 PCOD9002360
Probable space group: P -1
;
_chemical_formula_sum "Si O2"
_cell_formula_units_Z 14
_cell_length_a 15.633942
_cell_length_b 6.707607
_cell_length_c 8.298411
_cell_angle_alpha 130.442480
_cell_angle_beta 78.542581
_cell_angle_gamma 117.669910
_cell_volume 579.714830
_symmetry_space_group_name_H-M "P -1"
_symmetry_group_IT_number 2
_symmetry_cell_setting 'triclinic'
loop_
_space_group_symop_operation_xyz
x,y,z
-x,-y,-z
loop_
_atom_site_type_symbol
_atom_site_label
_atom_site_fract_x
_atom_site_fract_y
_atom_site_fract_z
Si Si1 0.904542 0.255101 0.109775
Si Si2 0.434638 0.153363 0.658484
Si Si3 0.789262 0.571602 0.433468
Si Si4 0.202076 0.395198 0.171191
Si Si5 0.104130 0.764422 0.279740
Si Si6 0.620540 0.753946 0.944312
Si Si7 0.616123 0.716060 0.571304
O O1 0.912630 0.227836 0.900898
O O2 0.875979 0.935274 0.024167
O O3 0.817041 0.339776 0.218009
O O4 0.003731 0.528102 0.273162
O O5 0.510663 0.495107 0.827994
O O6 0.365004 0.107321 0.509106
O O7 0.500000 0.000000 0.500000
O O8 0.383158 0.067768 0.804905
O O9 0.810016 0.567571 0.614034
O O10 0.681130 0.544616 0.447728
O O11 0.144095 0.101577 0.492758
O O12 0.179719 0.629628 0.208611
O O13 0.306433 0.387910 0.115426
O O14 0.643452 0.880870 0.820292
O O15 0.500000 0.500000 0.500000
#
# Coordination Sequence:
#
# PCOD9002360 Si02
#       7
#     2   2   2   2   2   2   2
#     4  10  22  40  60  90 121 160 205 250 313 370
#     4  10  21  36  60  86 118 160 207 245 308 368
#     4  10  22  39  61  90 122 159 208 250 306 371
#     4  10  22  38  60  88 125 157 202 253 309 366
#     4  10  22  39  62  89 122 158 204 258 304 367
#     4   9  21  39  54  88 122 154 205 253 301 367
#     4   9  20  39  58  87 125 158 202 254 307 361
#
# _framework density 24.149802999999999
#
# number of rings (size 3 to 8) (size 9 to 14) (size 15 to 20)
#    0.000    2.286    0.000    0.857    4.000    5.714 
#    0.000    0.000    0.000    0.000    0.000    0.000 
#    0.000    0.000    0.000    0.000    0.000    0.000 
#
# Total GULP energy -78227.653195 kJ/mol
# GULP energy per Si atom -5587.689514 kJ/mol
# Density = 2.409484 g / cm^3
# Si number density = 24.149803 Si / 1000 Ang^3
#
#
#
# Elastic Constant Matrix: (Units=GPa)
#
#
# Indices 1 2 3 4 5 6 
#
# 1 70.9488 10.2720 10.9215 -7.6953 9.0344 11.3585
# 2 10.2720 72.4236 19.8321 4.9045 15.2151 -3.0810
# 3 10.9215 19.8321 100.1048 -23.8850 -9.2696 -16.0768
# 4 -7.6953 4.9045 -23.8850 30.1496 -0.4791 0.6942
# 5 9.0344 15.2151 -9.2696 -0.4791 23.4391 -3.8310
# 6 11.3585 -3.0810 -16.0768 0.6942 -3.8310 48.5042
#
#
#
# Elastic Compliance Matrix: (Units=1/GPa)
#
#
# Indices 1 2 3 4 5 6 
#
# 1 0.016767 -0.000136 -0.003041 0.001888 -0.008460 -0.005638
# 2 -0.000136 0.020337 -0.008489 -0.010278 -0.017157 -0.002698
# 3 -0.003041 -0.008489 0.018180 0.015086 0.015357 0.007196
# 4 0.001888 -0.010278 0.015086 0.047390 0.013582 0.004300
# 5 -0.008460 -0.017157 0.015357 0.013582 0.065201 0.010937
# 6 -0.005638 -0.002698 0.007196 0.004300 0.010937 0.024953
#
#
# Mechanical properties :
#
#
# Convention : Reuss Voigt Hill
#
# Bulk Modulus (GPa) = 31.29525 36.16983 33.73254
# Shear Modulus (GPa) = 22.04489 33.91533 27.98011
#
# Velocity S-wave (km/s) = 3.02460 3.75156 3.40752
# Velocity P-wave (km/s) = 5.01842 5.81166 5.42955
#
# Compressibility (1/GPa) = 0.03195374
#
# Stress axis : x y z
#
# Youngs Moduli (GPa) = 59.64050 49.17087 55.00513
#
# Poissons Ratio (x) = 0.00668 0.16726
# Poissons Ratio (y) = 0.00810 0.46693
# Poissons Ratio (z) = 0.18135 0.41740
#
# Static dielectric constant tensor:
#      x y z
#    x 1.922090 0.063260 0.036980 
#    y 0.063260 2.029650 0.015370 
#    z 0.036980 0.015370 1.913100 
# 
# From -- ./inp_files/296707.got.cif
#   From: 2010.05.17/outbox.cif.g08.bks.cpg/sg2_149_cif.got.tgz:296707.got - 2010.06.03 11:33:40.
