data_PCOD9002297
_publ_section_title
;
Structure prediction by ZEFSAII (Michael W. Deem and Ramdas Pophale) SiO2 
 PCOD9002297
Probable space group: P -1
;
_chemical_formula_sum "Si O2"
_cell_formula_units_Z 16
_cell_length_a 13.130623
_cell_length_b 15.363502
_cell_length_c 5.385367
_cell_angle_alpha 88.698017
_cell_angle_beta 56.855879
_cell_angle_gamma 52.035334
_cell_volume 631.045354
_symmetry_space_group_name_H-M "P -1"
_symmetry_group_IT_number 2
_symmetry_cell_setting 'triclinic'
loop_
_space_group_symop_operation_xyz
x,y,z
-x,-y,-z
loop_
_atom_site_type_symbol
_atom_site_label
_atom_site_fract_x
_atom_site_fract_y
_atom_site_fract_z
Si Si1 0.863454 0.125080 0.372792
Si Si2 0.685279 0.907689 0.387119
Si Si3 0.867146 0.945396 0.386835
Si Si4 0.784156 0.570798 0.995204
Si Si5 0.026877 0.754336 0.583078
Si Si6 0.815785 0.666560 0.452527
Si Si7 0.444763 0.650850 0.512636
Si Si8 0.362069 0.525368 0.355259
O O1 0.859571 0.215020 0.530084
O O2 0.698373 0.208820 0.401619
O O3 0.853857 0.041466 0.551742
O O4 0.028464 0.067120 0.982890
O O5 0.689473 0.994862 0.532046
O O6 0.718889 0.806720 0.519599
O O7 0.500000 0.000000 0.500000
O O8 0.850829 0.830524 0.976950
O O9 0.963300 0.813419 0.390065
O O10 0.774448 0.640224 0.768442
O O11 0.973865 0.427845 0.787173
O O12 0.774528 0.630443 0.262946
O O13 0.630303 0.580593 0.146923
O O14 0.169702 0.610853 0.495346
O O15 0.353793 0.603429 0.582968
O O16 0.520659 0.613971 0.690836
O O17 0.500000 0.500000 0.000000
#
# Coordination Sequence:
#
# PCOD9002297 Si02
#       8
#     2   2   2   2   2   2   2   2
#     4   9  20  38  59  91 121 157 209 255 327 392
#     4  11  26  42  62  92 125 169 223 272 329 391
#     4  10  21  39  63  85 122 166 203 265 322 389
#     4  10  23  43  69  92 130 174 218 278 328 396
#     4  10  21  39  62  89 124 163 205 267 327 394
#     4  10  24  45  64  95 129 172 227 270 332 394
#     4  10  21  36  59  91 124 160 206 264 327 388
#     4  10  21  36  60  95 126 157 207 262 330 400
#
# _framework density 25.354755000000001
#
# number of rings (size 3 to 8) (size 9 to 14) (size 15 to 20)
#    0.000    2.000    0.000    1.875    5.250    4.500 
#    0.000    0.000    0.000    0.000    0.000    0.000 
#    0.000    0.000    0.000    0.000    0.000    0.000 
#
# Total GULP energy -89149.049715 kJ/mol
# GULP energy per Si atom -5571.815607 kJ/mol
# Density = 2.529705 g / cm^3
# Si number density = 25.354755 Si / 1000 Ang^3
#
#
#
# Elastic Constant Matrix: (Units=GPa)
#
#
# Indices 1 2 3 4 5 6 
#
# 1 122.6011 65.4557 20.8467 -0.7622 -27.1402 -26.0592
# 2 65.4557 143.7812 41.3990 -15.1784 -21.0945 -30.4007
# 3 20.8467 41.3990 75.3591 -9.5761 -18.9991 -9.8727
# 4 -0.7622 -15.1784 -9.5761 34.5404 -10.7529 -7.7626
# 5 -27.1402 -21.0945 -18.9991 -10.7529 35.2874 3.2298
# 6 -26.0592 -30.4007 -9.8727 -7.7626 3.2298 33.1636
#
#
#
# Elastic Compliance Matrix: (Units=1/GPa)
#
#
# Indices 1 2 3 4 5 6 
#
# 1 0.013575 -0.002887 0.002310 0.004978 0.010667 0.008835
# 2 -0.002887 0.013078 -0.002199 0.009435 0.006313 0.010659
# 3 0.002310 -0.002199 0.019357 0.010097 0.013354 0.006624
# 4 0.004978 0.009435 0.010097 0.050241 0.027963 0.024603
# 5 0.010667 0.006313 0.013354 0.027963 0.054252 0.019407
# 6 0.008835 0.010659 0.006624 0.024603 0.019407 0.052708
#
#
# Mechanical properties :
#
#
# Convention : Reuss Voigt Hill
#
# Bulk Modulus (GPa) = 24.71670 66.34935 45.53303
# Shear Modulus (GPa) = 22.49725 34.86760 28.68243
#
# Velocity S-wave (km/s) = 2.98199 3.71238 3.36705
# Velocity P-wave (km/s) = 4.65036 6.67839 5.75442
#
# Compressibility (1/GPa) = 0.04045847
#
# Stress axis : x y z
#
# Youngs Moduli (GPa) = 73.66425 76.46240 51.66171
#
# Poissons Ratio (x) = 0.22071 -0.11933
# Poissons Ratio (y) = 0.21264 0.11361
# Poissons Ratio (z) = -0.17015 0.16815
#
# Static dielectric constant tensor:
#      x y z
#    x 2.273180 0.097570 0.195280 
#    y 0.097570 2.201960 0.033510 
#    z 0.195280 0.033510 2.130930 
# 
# From -- ./inp_files/72016.got.cif
#   From: 2010.05.17/outbox.cif.g08.bks.cpg/sg2_37_cif.got.tgz:72016.got - 2010.06.03 11:33:40.
