data_PCOD9002037
_publ_section_title
;
Structure prediction by ZEFSAII (Michael W. Deem and Ramdas Pophale) SiO2 
 PCOD9002037
Probable space group: P -1
;
_chemical_formula_sum "Si O2"
_cell_formula_units_Z 16
_cell_length_a 11.998101
_cell_length_b 7.531098
_cell_length_c 10.552512
_cell_angle_alpha 72.798832
_cell_angle_beta 128.603417
_cell_angle_gamma 93.611400
_cell_volume 702.330987
_symmetry_space_group_name_H-M "P -1"
_symmetry_group_IT_number 2
_symmetry_cell_setting 'triclinic'
loop_
_space_group_symop_operation_xyz
x,y,z
-x,-y,-z
loop_
_atom_site_type_symbol
_atom_site_label
_atom_site_fract_x
_atom_site_fract_y
_atom_site_fract_z
Si Si1 0.341089 0.997031 0.751944
Si Si2 0.183395 0.943168 0.887900
Si Si3 0.161550 0.417064 0.260146
Si Si4 0.851083 0.012432 0.620888
Si Si5 0.368050 0.634717 0.499626
Si Si6 0.549597 0.714408 0.824579
Si Si7 0.572394 0.116195 0.730959
Si Si8 0.837437 0.477600 0.052661
O O1 0.281566 0.036566 0.840536
O O2 0.205057 0.997992 0.561186
O O3 0.442774 0.792700 0.846250
O O4 0.447702 0.133982 0.745963
O O5 0.269762 0.914662 0.086459
O O6 0.178343 0.733107 0.876963
O O7 0.016842 0.036962 0.752687
O O8 0.276981 0.479509 0.422384
O O9 0.181636 0.499674 0.117943
O O10 0.166397 0.193370 0.294925
O O11 0.002763 0.500545 0.183908
O O12 0.746016 0.183681 0.573322
O O13 0.478203 0.585440 0.704126
O O14 0.442372 0.718069 0.414403
O O15 0.709904 0.621886 0.993945
O O16 0.556504 0.909093 0.710373
#
# Coordination Sequence:
#
# PCOD9002037 Si02
#       8
#     2   2   2   2   2   2   2   2
#     4   9  22  39  60  83 120 159 201 237 287 352
#     4  11  21  39  61  85 118 162 196 236 300 347
#     4  10  22  37  59  92 121 151 193 244 303 354
#     4  10  23  39  65  89 118 154 198 251 289 354
#     4  11  21  39  61  91 121 153 195 244 309 342
#     4   9  22  36  58  84 120 154 193 250 287 349
#     4  10  21  36  56  90 112 157 195 241 288 355
#     4  10  21  38  55  89 123 148 194 248 292 356
#
# _framework density 22.781282000000001
#
# number of rings (size 3 to 8) (size 9 to 14) (size 15 to 20)
#    0.750    1.250    1.250    1.875    3.500    2.500 
#    0.000    0.000    2.750    6.750    0.000    0.000 
#    0.000    0.000    0.000    0.000    0.000    0.000 
#
# Total GULP energy -89371.294574 kJ/mol
# GULP energy per Si atom -5585.705911 kJ/mol
# Density = 2.272943 g / cm^3
# Si number density = 22.781282 Si / 1000 Ang^3
#
#
#
# Elastic Constant Matrix: (Units=GPa)
#
#
# Indices 1 2 3 4 5 6 
#
# 1 82.9517 20.3604 25.6815 -2.7033 23.4151 -5.1484
# 2 20.3604 40.9460 12.1120 9.4913 16.7827 1.7275
# 3 25.6815 12.1120 74.7358 8.9756 27.4864 -12.6284
# 4 -2.7033 9.4913 8.9756 35.3077 0.2552 6.7358
# 5 23.4151 16.7827 27.4864 0.2552 35.5022 -5.7634
# 6 -5.1484 1.7275 -12.6284 6.7358 -5.7634 10.4732
#
#
#
# Elastic Compliance Matrix: (Units=1/GPa)
#
#
# Indices 1 2 3 4 5 6 
#
# 1 0.016063 -0.005585 -0.002981 0.003571 -0.005706 -0.000213
# 2 -0.005585 0.035645 0.001069 -0.008118 -0.015680 -0.010744
# 3 -0.002981 0.001069 0.025876 -0.012779 -0.013559 0.030316
# 4 0.003571 -0.008118 -0.012779 0.040786 0.005299 -0.035629
# 5 -0.005706 -0.015680 -0.013559 0.005299 0.051128 0.008159
# 6 -0.000213 -0.010744 0.030316 -0.035629 0.008159 0.161107
#
#
# Mechanical properties :
#
#
# Convention : Reuss Voigt Hill
#
# Bulk Modulus (GPa) = 15.97714 34.99347 25.48531
# Shear Modulus (GPa) = 13.64399 25.62193 19.63296
#
# Velocity S-wave (km/s) = 2.44992 3.35728 2.93883
# Velocity P-wave (km/s) = 3.87703 5.51565 4.76727
#
# Compressibility (1/GPa) = 0.06258941
#
# Stress axis : x y z
#
# Youngs Moduli (GPa) = 62.25559 28.05405 38.64632
#
# Poissons Ratio (x) = 0.15669 0.11519
# Poissons Ratio (y) = 0.34772 -0.04131
# Poissons Ratio (z) = 0.18557 -0.02998
#
# Static dielectric constant tensor:
#      x y z
#    x 1.856710 -0.005740 0.019400 
#    y -0.005740 1.852850 -0.010470 
#    z 0.019400 -0.010470 1.851250 
# 
# From -- ./inp_files/414551.got.cif
#   From: 2010.05.17/outbox.cif.g08.bks.cpg/sg2_208_cif.got.tgz:414551.got - 2010.06.03 11:33:40.
