data_PCOD9002005
_publ_section_title
;
Structure prediction by ZEFSAII (Michael W. Deem and Ramdas Pophale) SiO2 
 PCOD9002005
Probable space group: P -1
;
_chemical_formula_sum "Si O2"
_cell_formula_units_Z 16
_cell_length_a 5.651346
_cell_length_b 26.090303
_cell_length_c 5.391640
_cell_angle_alpha 65.866839
_cell_angle_beta 58.968423
_cell_angle_gamma 81.892452
_cell_volume 619.182968
_symmetry_space_group_name_H-M "P -1"
_symmetry_group_IT_number 2
_symmetry_cell_setting 'triclinic'
loop_
_space_group_symop_operation_xyz
x,y,z
-x,-y,-z
loop_
_atom_site_type_symbol
_atom_site_label
_atom_site_fract_x
_atom_site_fract_y
_atom_site_fract_z
Si Si1 0.072439 0.841540 0.347254
Si Si2 0.189445 0.344374 0.556720
Si Si3 0.488264 0.815903 0.804206
Si Si4 0.949510 0.627183 0.927325
Si Si5 0.955073 0.952245 0.908542
Si Si6 0.818225 0.482546 0.881586
Si Si7 0.296168 0.717493 0.768902
Si Si8 0.379812 0.924098 0.394694
O O1 0.995972 0.886585 0.087889
O O2 0.174458 0.883946 0.422178
O O3 0.805673 0.803047 0.660378
O O4 0.312932 0.808304 0.163043
O O5 0.168776 0.385770 0.254167
O O6 0.405868 0.301257 0.436396
O O7 0.265937 0.372684 0.727280
O O8 0.879039 0.316108 0.846609
O O9 0.341471 0.779837 0.732715
O O10 0.508506 0.882786 0.604636
O O11 0.091692 0.691324 0.716581
O O12 0.175390 0.585490 0.968780
O O13 0.629808 0.947824 0.041836
O O14 0.196243 0.965251 0.555340
O O15 0.000000 0.000000 0.000000
O O16 0.000000 0.500000 0.500000
O O17 0.500000 0.500000 0.000000
O O18 0.000000 0.500000 0.000000
#
# Coordination Sequence:
#
# PCOD9002005 Si02
#       8
#     2   2   2   2   2   2   2   2
#     4  10  21  37  58  83 120 156 196 256 308 380
#     4  10  24  41  67  95 134 173 218 280 340 395
#     4  10  21  39  57  87 116 154 205 250 315 383
#     4  10  26  44  71  96 143 172 233 279 348 406
#     4  10  21  36  56  84 115 152 203 250 302 372
#     4  12  28  47  76 109 145 195 243 298 365 435
#     4  10  24  39  65  93 127 169 219 272 335 401
#     4  10  21  37  57  81 117 154 195 251 311 367
#
# _framework density 25.840502999999998
#
# number of rings (size 3 to 8) (size 9 to 14) (size 15 to 20)
#    0.750    1.000    0.000    3.000    5.250    3.000 
#    0.000    0.000    0.000    0.000    0.000    0.000 
#    0.000    0.000    0.000    0.000    0.000    0.000 
#
# Total GULP energy -89249.046686 kJ/mol
# GULP energy per Si atom -5578.065418 kJ/mol
# Density = 2.578169 g / cm^3
# Si number density = 25.840503 Si / 1000 Ang^3
#
#
#
# Elastic Constant Matrix: (Units=GPa)
#
#
# Indices 1 2 3 4 5 6 
#
# 1 89.7521 28.0865 60.9493 16.0622 -16.0741 1.2268
# 2 28.0865 99.8055 51.2505 12.8067 -15.8513 -7.0185
# 3 60.9493 51.2505 184.2332 47.1469 -22.4522 -4.2719
# 4 16.0622 12.8067 47.1469 43.1621 -4.3499 -0.8496
# 5 -16.0741 -15.8513 -22.4522 -4.3499 42.9184 5.7008
# 6 1.2268 -7.0185 -4.2719 -0.8496 5.7008 51.0609
#
#
#
# Elastic Compliance Matrix: (Units=1/GPa)
#
#
# Indices 1 2 3 4 5 6 
#
# 1 0.015069 -0.001711 -0.004078 -0.000367 0.003011 -0.001281
# 2 -0.001711 0.012267 -0.002532 0.000030 0.002402 0.001248
# 3 -0.004078 -0.002532 0.009825 -0.008277 0.001808 0.000232
# 4 -0.000367 0.000030 -0.008277 0.032217 -0.001190 -0.000011
# 5 0.003011 0.002402 0.001808 -0.001190 0.026481 -0.002567
# 6 -0.001281 0.001248 0.000232 -0.000011 -0.002567 0.020093
#
#
# Mechanical properties :
#
#
# Convention : Reuss Voigt Hill
#
# Bulk Modulus (GPa) = 48.73707 72.70704 60.72206
# Shear Modulus (GPa) = 35.85925 42.99526 39.42725
#
# Velocity S-wave (km/s) = 3.72925 4.08348 3.91038
# Velocity P-wave (km/s) = 6.11921 7.10148 6.62856
#
# Compressibility (1/GPa) = 0.02051826
#
# Stress axis : x y z
#
# Youngs Moduli (GPa) = 66.36077 81.52083 101.77969
#
# Poissons Ratio (x) = 0.13950 0.41505
# Poissons Ratio (y) = 0.11356 0.25773
# Poissons Ratio (z) = 0.27062 0.20643
#
# Static dielectric constant tensor:
#      x y z
#    x 2.150330 -0.093730 0.081510 
#    y -0.093730 2.110500 -0.096330 
#    z 0.081510 -0.096330 2.131560 
# 
# From -- ./inp_files/12307.got.cif
#   From: 2010.05.17/outbox.cif.g08.bks.cpg/sg2_7_cif.got.tgz:12307.got - 2010.06.03 11:33:40.
