data_PCOD9002365
_publ_section_title
;
Structure prediction by ZEFSAII (Michael W. Deem and Ramdas Pophale) SiO2 
 PCOD9002365
Probable space group: P -1
;
_chemical_formula_sum "Si O2"
_cell_formula_units_Z 14
_cell_length_a 11.127447
_cell_length_b 12.882480
_cell_length_c 9.818996
_cell_angle_alpha 146.976616
_cell_angle_beta 105.848306
_cell_angle_gamma 58.137878
_cell_volume 606.242816
_symmetry_space_group_name_H-M "P -1"
_symmetry_group_IT_number 2
_symmetry_cell_setting 'triclinic'
loop_
_space_group_symop_operation_xyz
x,y,z
-x,-y,-z
loop_
_atom_site_type_symbol
_atom_site_label
_atom_site_fract_x
_atom_site_fract_y
_atom_site_fract_z
Si Si1 0.598098 0.659832 0.017183
Si Si2 0.311536 0.739565 0.202812
Si Si3 0.979467 0.164095 0.875290
Si Si4 0.759274 0.324463 0.465288
Si Si5 0.827231 0.657427 0.923445
Si Si6 0.458383 0.914197 0.640558
Si Si7 0.303516 0.601866 0.771740
O O1 0.621065 0.519353 0.006286
O O2 0.622517 0.494678 0.714322
O O3 0.764427 0.628206 0.014867
O O4 0.493195 0.935144 0.258120
O O5 0.366356 0.859552 0.446829
O O6 0.130583 0.866595 0.287976
O O7 0.355954 0.708936 0.022477
O O8 0.125430 0.920371 0.700013
O O9 0.038155 0.311915 0.997819
O O10 0.865441 0.298544 0.115382
O O11 0.848258 0.449044 0.613109
O O12 0.702919 0.314626 0.289525
O O13 0.671707 0.898411 0.089848
O O14 0.590199 0.675262 0.484499
#
# Coordination Sequence:
#
# PCOD9002365 Si02
#       7
#     2   2   2   2   2   2   2
#     4   8  21  36  60  81 114 149 192 233 277 336
#     4  10  21  36  60  87 116 150 187 235 288 335
#     4  10  21  36  60  87 116 150 187 235 288 335
#     4   9  20  40  57  84 119 147 192 235 280 340
#     4   8  21  36  60  81 114 149 192 233 277 336
#     4   9  20  40  57  84 119 147 192 235 280 340
#     4  10  22  37  61  85 118 151 187 234 291 336
#
# _framework density 23.093057000000002
#
# number of rings (size 3 to 8) (size 9 to 14) (size 15 to 20)
#    2.571    0.000    0.000    1.714    0.000    7.429 
#    0.000    7.143    0.000    0.000    0.000    0.000 
#    0.000    0.000    0.000    0.000    0.000    0.000 
#
# Total GULP energy -77950.251130 kJ/mol
# GULP energy per Si atom -5567.875081 kJ/mol
# Density = 2.304050 g / cm^3
# Si number density = 23.093057 Si / 1000 Ang^3
#
#
#
# Elastic Constant Matrix: (Units=GPa)
#
#
# Indices 1 2 3 4 5 6 
#
# 1 0.0471 -4.1684 20.8904 7.1861 6.1484 -0.8065
# 2 -4.1684 74.3836 27.1682 8.7618 9.7613 -6.1621
# 3 20.8904 27.1682 57.9269 16.5228 18.5347 -0.6084
# 4 7.1861 8.7618 16.5228 26.5458 7.6656 -6.6033
# 5 6.1484 9.7613 18.5347 7.6656 28.0149 -1.5030
# 6 -0.8065 -6.1621 -0.6084 -6.6033 -1.5030 21.0357
#
#
#
# Elastic Compliance Matrix: (Units=1/GPa)
#
#
# Indices 1 2 3 4 5 6 
#
# 1 -0.091916 -0.021568 0.042652 0.004204 -0.002080 -0.007437
# 2 -0.021568 0.011623 0.002221 0.001705 -0.001086 0.003100
# 3 0.042652 0.002221 0.009005 -0.015151 -0.012111 -0.003075
# 4 0.004204 0.001705 -0.015151 0.050628 -0.004498 0.015794
# 5 -0.002080 -0.001086 -0.012111 -0.004498 0.045834 0.001115
# 6 -0.007437 0.003100 -0.003075 0.015794 0.001115 0.053109
#
#
# Mechanical properties :
#
#
# Convention : Reuss Voigt Hill
#
# Bulk Modulus (GPa) = -40.51981 24.45977 -8.03002
# Shear Modulus (GPa) = 213.25198 21.01712 117.13455
#
# Velocity S-wave (km/s) = 9.62004 3.02007 7.12972
# Velocity P-wave (km/s) = 10.28635 4.77241 8.01826
#
# Compressibility (1/GPa) = -0.02467929
#
# Stress axis : x y z
#
# Youngs Moduli (GPa) = -10.87951 86.03961 111.05503
#
# Poissons Ratio (x) = 1.85566 -4.73669
# Poissons Ratio (y) = -0.23464 -0.24661
# Poissons Ratio (z) = 0.46403 -0.19106
#
# Static dielectric constant tensor:
#      x y z
#    x 2.169000 0.035690 -0.032320 
#    y 0.035690 1.888960 -0.032440 
#    z -0.032320 -0.032440 1.902110 
# 
# From -- ./inp_files/455247.got.cif
#   From: 2010.05.17/outbox.cif.g08.bks.cpg/sg2_228_cif.got.tgz:455247.got - 2010.06.03 11:33:40.
