data_PCOD9002583
_publ_section_title
;
Structure prediction by ZEFSAII (Michael W. Deem and Ramdas Pophale) SiO2 
 PCOD9002583
Probable space group: P -1
;
_chemical_formula_sum "Si O2"
_cell_formula_units_Z 16
_cell_length_a 9.694580
_cell_length_b 12.353578
_cell_length_c 11.816777
_cell_angle_alpha 127.594148
_cell_angle_beta 141.769470
_cell_angle_gamma 53.717193
_cell_volume 675.390252
_symmetry_space_group_name_H-M "P -1"
_symmetry_group_IT_number 2
_symmetry_cell_setting 'triclinic'
loop_
_space_group_symop_operation_xyz
x,y,z
-x,-y,-z
loop_
_atom_site_type_symbol
_atom_site_label
_atom_site_fract_x
_atom_site_fract_y
_atom_site_fract_z
Si Si1 0.671008 0.890472 0.671265
Si Si2 0.291133 0.475990 0.212269
Si Si3 0.171322 0.001382 0.715030
Si Si4 0.969620 0.699769 0.905931
Si Si5 0.800729 0.097081 0.717326
Si Si6 0.237224 0.700732 0.611157
Si Si7 0.905538 0.691880 0.196455
Si Si8 0.977996 0.354182 0.344348
O O1 0.402507 0.907902 0.503634
O O2 0.782563 0.761506 0.577289
O O3 0.790645 0.840092 0.834017
O O4 0.744091 0.022090 0.746924
O O5 0.176146 0.384208 0.167509
O O6 0.437231 0.564499 0.625839
O O7 0.151944 0.632312 0.253680
O O8 0.234052 0.417519 0.014429
O O9 0.029723 0.020343 0.752390
O O10 0.231555 0.152128 0.829134
O O11 0.316449 0.841565 0.713672
O O12 0.000000 0.000000 0.500000
O O13 0.074554 0.627982 0.811298
O O14 0.166750 0.751966 0.130599
O O15 0.001661 0.696430 0.388951
O O16 0.189542 0.701087 0.714348
O O17 0.000000 0.500000 0.500000
#
# Coordination Sequence:
#
# PCOD9002583 Si02
#       8
#     2   2   2   2   2   2   2   2
#     4   9  23  36  65  87 118 168 205 250 313 369
#     4  11  23  40  66  93 120 167 213 251 316 374
#     4  10  21  36  62  88 125 157 201 262 310 357
#     4  10  22  39  65  91 121 164 210 261 293 391
#     4  11  19  43  61  89 122 164 210 253 308 376
#     4  11  23  42  63  91 127 165 201 264 322 362
#     4  10  23  41  59  90 126 163 211 253 301 391
#     4  10  22  42  60  92 128 158 205 259 312 370
#
# _framework density 23.690007000000001
#
# number of rings (size 3 to 8) (size 9 to 14) (size 15 to 20)
#    0.750    1.000    2.500    1.500    3.500    1.500 
#    2.250    0.625    0.000    0.000    0.000    0.000 
#    0.000    0.000    0.000    0.000    0.000    0.000 
#
# Total GULP energy -89198.791210 kJ/mol
# GULP energy per Si atom -5574.924451 kJ/mol
# Density = 2.363609 g / cm^3
# Si number density = 23.690007 Si / 1000 Ang^3
#
#
#
# Elastic Constant Matrix: (Units=GPa)
#
#
# Indices 1 2 3 4 5 6 
#
# 1 57.5108 0.9765 22.3985 -8.4980 -17.0959 15.9896
# 2 0.9765 53.8001 -4.0769 7.9493 0.0481 8.2820
# 3 22.3985 -4.0769 81.3413 1.0802 -14.0685 14.2206
# 4 -8.4980 7.9493 1.0802 40.1469 -3.6829 -5.3603
# 5 -17.0959 0.0481 -14.0685 -3.6829 24.0989 2.2486
# 6 15.9896 8.2820 14.2206 -5.3603 2.2486 28.5844
#
#
#
# Elastic Compliance Matrix: (Units=1/GPa)
#
#
# Indices 1 2 3 4 5 6 
#
# 1 0.030661 0.001112 -0.001336 0.006127 0.023539 -0.017511
# 2 0.001112 0.020943 0.002862 -0.004992 0.002518 -0.009248
# 3 -0.001336 0.002862 0.015955 -0.001664 0.008950 -0.009036
# 4 0.006127 -0.004992 -0.001664 0.028396 0.007390 0.003591
# 5 0.023539 0.002518 0.008950 0.007390 0.066615 -0.022204
# 6 -0.017511 -0.009248 -0.009036 0.003591 -0.022204 0.054374
#
#
# Mechanical properties :
#
#
# Convention : Reuss Voigt Hill
#
# Bulk Modulus (GPa) = 13.72978 25.69427 19.71202
# Shear Modulus (GPa) = 21.19126 30.12300 25.65713
#
# Velocity S-wave (km/s) = 2.99410 3.56975 3.29452
# Velocity P-wave (km/s) = 4.21439 5.27829 4.77606
#
# Compressibility (1/GPa) = 0.07283437
#
# Stress axis : x y z
#
# Youngs Moduli (GPa) = 32.61500 47.74851 62.67709
#
# Poissons Ratio (x) = -0.05308 0.08373
# Poissons Ratio (y) = -0.03626 -0.17939
# Poissons Ratio (z) = 0.04357 -0.13666
#
# Static dielectric constant tensor:
#      x y z
#    x 1.902560 0.023260 -0.031480 
#    y 0.023260 2.011590 -0.008150 
#    z -0.031480 -0.008150 1.960620 
# 
# From -- ./inp_files/430448.got.cif
#   From: 2010.05.17/outbox.cif.g08.bks.cpg/sg2_216_cif.got.tgz:430448.got - 2010.06.03 11:33:40.
