data_PCOD9002915
_publ_section_title
;
Structure prediction by ZEFSAII (Michael W. Deem and Ramdas Pophale) SiO2 
 PCOD9002915
Probable space group: P -1
;
_chemical_formula_sum "Si O2"
_cell_formula_units_Z 14
_cell_length_a 15.408565
_cell_length_b 6.469352
_cell_length_c 12.081446
_cell_angle_alpha 89.608484
_cell_angle_beta 26.333790
_cell_angle_gamma 91.950780
_cell_volume 532.029229
_symmetry_space_group_name_H-M "P -1"
_symmetry_group_IT_number 2
_symmetry_cell_setting 'triclinic'
loop_
_space_group_symop_operation_xyz
x,y,z
-x,-y,-z
loop_
_atom_site_type_symbol
_atom_site_label
_atom_site_fract_x
_atom_site_fract_y
_atom_site_fract_z
Si Si1 0.790195 0.958546 0.587580
Si Si2 0.365679 0.020558 0.012588
Si Si3 0.126411 0.108730 0.737931
Si Si4 0.830896 0.719657 0.086453
Si Si5 0.503487 0.109926 0.614799
Si Si6 0.699505 0.457631 0.834821
Si Si7 0.038738 0.374827 0.285619
O O1 0.971981 0.130831 0.378715
O O2 0.595130 0.071914 0.781726
O O3 0.819797 0.817467 0.447719
O O4 0.751999 0.873200 0.754129
O O5 0.372203 0.036606 0.872533
O O6 0.315986 0.780418 0.102877
O O7 0.148192 0.289423 0.804793
O O8 0.279966 0.935241 0.591672
O O9 0.921363 0.964431 0.971366
O O10 0.606470 0.691509 0.299217
O O11 0.944461 0.594774 0.865723
O O12 0.500000 0.000000 0.500000
O O13 0.756048 0.568464 0.887054
O O14 0.876745 0.479836 0.542458
O O15 0.500000 0.500000 0.000000
#
# Coordination Sequence:
#
# PCOD9002915 Si02
#       7
#     2   2   2   2   2   2   2
#     4   8  15  30  51  76 107 127 161 225 265 297
#     4   9  17  31  52  80 107 134 177 221 258 315
#     4   8  15  28  45  74 105 128 163 208 255 311
#     4   9  16  28  50  75 101 134 170 214 263 307
#     4   9  17  30  50  76 104 135 168 213 269 311
#     4  10  21  37  52  71 110 151 177 214 263 309
#     4   9  19  34  51  78 106 139 184 215 253 325
#
# _framework density 26.314343999999998
#
# number of rings (size 3 to 8) (size 9 to 14) (size 15 to 20)
#    0.000    3.143    0.000    0.000    0.000    6.857 
#    0.000   20.000    0.000    7.714    0.000   45.000 
#    0.000    0.000    0.000    0.000    0.000    0.000 
#
# Total GULP energy -77941.353031 kJ/mol
# GULP energy per Si atom -5567.239502 kJ/mol
# Density = 2.625445 g / cm^3
# Si number density = 26.314344 Si / 1000 Ang^3
#
#
#
# Elastic Constant Matrix: (Units=GPa)
#
#
# Indices 1 2 3 4 5 6 
#
# 1 213.3223 51.3661 75.9591 9.8284 48.3241 29.8798
# 2 51.3661 35.3662 24.0122 14.3927 19.4035 20.0367
# 3 75.9591 24.0122 149.8464 33.3317 37.3970 18.2347
# 4 9.8284 14.3927 33.3317 33.9431 21.1375 11.1176
# 5 48.3241 19.4035 37.3970 21.1375 69.2431 8.9677
# 6 29.8798 20.0367 18.2347 11.1176 8.9677 38.2950
#
#
#
# Elastic Compliance Matrix: (Units=1/GPa)
#
#
# Indices 1 2 3 4 5 6 
#
# 1 0.009587 -0.012384 -0.003796 0.008826 -0.003751 -0.000877
# 2 -0.012384 0.064243 0.003214 -0.018663 -0.002888 -0.019387
# 3 -0.003796 0.003214 0.010581 -0.009897 -0.000857 -0.000685
# 4 0.008826 -0.018663 -0.009897 0.053194 -0.011144 -0.005243
# 5 -0.003751 -0.002888 -0.000857 -0.011144 0.021334 0.003085
# 6 -0.000877 -0.019387 -0.000685 -0.005243 0.003085 0.038067
#
#
# Mechanical properties :
#
#
# Convention : Reuss Voigt Hill
#
# Bulk Modulus (GPa) = 17.09985 77.91219 47.50602
# Shear Modulus (GPa) = 20.62442 44.77606 32.70024
#
# Velocity S-wave (km/s) = 2.80263 4.12950 3.52899
# Velocity P-wave (km/s) = 4.12133 7.23945 5.89046
#
# Compressibility (1/GPa) = 0.05848006
#
# Stress axis : x y z
#
# Youngs Moduli (GPa) = 104.30441 15.56586 94.50902
#
# Poissons Ratio (x) = 0.19277 0.35873
# Poissons Ratio (y) = 1.29173 -0.30378
# Poissons Ratio (z) = 0.39591 -0.05003
#
# Static dielectric constant tensor:
#      x y z
#    x 2.076370 0.009380 -0.027670 
#    y 0.009380 2.196480 0.077670 
#    z -0.027670 0.077670 2.119600 
# 
# From -- ./inp_files/444682.got.cif
#   From: 2010.05.17/outbox.cif.g08.bks.cpg/sg2_223_cif.got.tgz:444682.got - 2010.06.03 11:33:40.
