data_PCOD9002694
_publ_section_title
;
Structure prediction by ZEFSAII (Michael W. Deem and Ramdas Pophale) SiO2 
 PCOD9002694
Probable space group: P -1
;
_chemical_formula_sum "Si O2"
_cell_formula_units_Z 16
_cell_length_a 12.088061
_cell_length_b 8.919674
_cell_length_c 12.024042
_cell_angle_alpha 70.756849
_cell_angle_beta 37.052152
_cell_angle_gamma 74.311925
_cell_volume 737.458978
_symmetry_space_group_name_H-M "P -1"
_symmetry_group_IT_number 2
_symmetry_cell_setting 'triclinic'
loop_
_space_group_symop_operation_xyz
x,y,z
-x,-y,-z
loop_
_atom_site_type_symbol
_atom_site_label
_atom_site_fract_x
_atom_site_fract_y
_atom_site_fract_z
Si Si1 0.927868 0.327625 0.065144
Si Si2 0.378126 0.876710 0.695395
Si Si3 0.221400 0.975879 0.336062
Si Si4 0.188902 0.052580 0.987512
Si Si5 0.437273 0.196022 0.929193
Si Si6 0.302471 0.207323 0.389413
Si Si7 0.966099 0.278054 0.783482
Si Si8 0.303931 0.444156 0.129800
O O1 0.718114 0.265655 0.258831
O O2 0.963911 0.307575 0.909475
O O3 0.000000 0.500000 0.000000
O O4 0.041594 0.192898 0.072172
O O5 0.493088 0.798668 0.724275
O O6 0.500000 0.000000 0.500000
O O7 0.229526 0.993349 0.844709
O O8 0.339762 0.814613 0.253167
O O9 0.262812 0.033803 0.413878
O O10 0.000000 0.000000 0.500000
O O11 0.337058 0.088394 0.130963
O O12 0.363445 0.123363 0.892184
O O13 0.122911 0.890610 0.136717
O O14 0.349738 0.364724 0.992681
O O15 0.254385 0.319555 0.296283
O O16 0.171360 0.263548 0.578823
O O17 0.846908 0.419165 0.791609
O O18 0.500000 0.500000 0.000000
#
# Coordination Sequence:
#
# PCOD9002694 Si02
#       8
#     2   2   2   2   2   2   2   2
#     4  11  24  43  69  96 133 177 228 280 345 412
#     4  11  22  41  67  99 130 175 227 281 341 406
#     4  10  21  36  63  93 126 170 216 275 331 399
#     4  11  21  41  67  93 125 175 226 274 338 407
#     4  10  22  39  61  90 128 167 221 270 335 397
#     4  11  22  40  63  95 131 170 227 279 338 403
#     4  11  23  41  66  94 129 176 228 276 339 418
#     4  11  24  39  61  90 133 178 214 275 344 405
#
# _framework density 21.696121000000002
#
# number of rings (size 3 to 8) (size 9 to 14) (size 15 to 20)
#    0.000    1.250    1.250    6.375    5.250    0.000 
#    0.000    3.750    0.000    0.000    0.000    0.000 
#    0.000    0.000    0.000    0.000    0.000    0.000 
#
# Total GULP energy -89182.213369 kJ/mol
# GULP energy per Si atom -5573.888336 kJ/mol
# Density = 2.164674 g / cm^3
# Si number density = 21.696121 Si / 1000 Ang^3
#
#
#
# Elastic Constant Matrix: (Units=GPa)
#
#
# Indices 1 2 3 4 5 6 
#
# 1 87.5882 43.5915 13.2837 4.5630 -21.7126 3.1080
# 2 43.5915 129.7276 24.9839 5.1035 -13.5292 0.0530
# 3 13.2837 24.9839 82.8207 7.7370 -16.1543 1.3764
# 4 4.5630 5.1035 7.7370 20.8966 -8.5304 -6.2809
# 5 -21.7126 -13.5292 -16.1543 -8.5304 35.4596 1.4385
# 6 3.1080 0.0530 1.3764 -6.2809 1.4385 44.8873
#
#
#
# Elastic Compliance Matrix: (Units=1/GPa)
#
#
# Indices 1 2 3 4 5 6 
#
# 1 0.015654 -0.004503 0.000429 0.000498 0.008234 -0.001286
# 2 -0.004503 0.009641 -0.002181 -0.000565 -0.000220 0.000295
# 3 0.000429 -0.002181 0.013955 -0.002947 0.005120 -0.001032
# 4 0.000498 -0.000565 -0.002947 0.056111 0.011940 0.007525
# 5 0.008234 -0.000220 0.005120 0.011940 0.038376 -0.000286
# 6 -0.001286 0.000295 -0.001032 0.007525 -0.000286 0.023461
#
#
# Mechanical properties :
#
#
# Convention : Reuss Voigt Hill
#
# Bulk Modulus (GPa) = 37.39917 51.53939 44.46928
# Shear Modulus (GPa) = 27.99226 34.80052 31.39639
#
# Velocity S-wave (km/s) = 3.59583 4.00934 3.80820
# Velocity P-wave (km/s) = 5.87496 6.72605 6.31486
#
# Compressibility (1/GPa) = 0.02673856
#
# Stress axis : x y z
#
# Youngs Moduli (GPa) = 63.88102 103.72656 71.66021
#
# Poissons Ratio (x) = 0.46708 -0.03071
# Poissons Ratio (y) = 0.28765 0.15630
# Poissons Ratio (z) = -0.02738 0.22624
#
# Static dielectric constant tensor:
#      x y z
#    x 1.792930 0.053070 -0.044570 
#    y 0.053070 1.740570 0.047700 
#    z -0.044570 0.047700 1.788580 
# 
# From -- ./inp_files/417004.got.cif
#   From: 2010.05.17/outbox.cif.g08.bks.cpg/sg2_209_cif.got.tgz:417004.got - 2010.06.03 11:33:40.
