data_PCOD9002743
_publ_section_title
;
Structure prediction by ZEFSAII (Michael W. Deem and Ramdas Pophale) SiO2 
 PCOD9002743
Probable space group: P -1
;
_chemical_formula_sum "Si O2"
_cell_formula_units_Z 16
_cell_length_a 9.148690
_cell_length_b 8.882256
_cell_length_c 16.905383
_cell_angle_alpha 54.615232
_cell_angle_beta 133.143359
_cell_angle_gamma 133.980760
_cell_volume 706.914723
_symmetry_space_group_name_H-M "P -1"
_symmetry_group_IT_number 2
_symmetry_cell_setting 'triclinic'
loop_
_space_group_symop_operation_xyz
x,y,z
-x,-y,-z
loop_
_atom_site_type_symbol
_atom_site_label
_atom_site_fract_x
_atom_site_fract_y
_atom_site_fract_z
Si Si1 0.514994 0.224801 0.078860
Si Si2 0.306342 0.625435 0.505841
Si Si3 0.450484 0.423967 0.246320
Si Si4 0.061842 0.841736 0.429782
Si Si5 0.240751 0.389818 0.836304
Si Si6 0.641850 0.872130 0.235500
Si Si7 0.233687 0.042114 0.183658
Si Si8 0.426683 0.120707 0.606476
O O1 0.711652 0.423871 0.140765
O O2 0.298609 0.105828 0.096541
O O3 0.596829 0.059825 0.136032
O O4 0.427706 0.317328 0.949473
O O5 0.509330 0.663832 0.630229
O O6 0.220739 0.790400 0.447456
O O7 0.393099 0.663425 0.436986
O O8 0.106792 0.385876 0.521767
O O9 0.683212 0.504464 0.253822
O O10 0.455365 0.642443 0.201691
O O11 0.246788 0.239985 0.175857
O O12 0.897784 0.910213 0.302518
O O13 0.209080 0.005091 0.503342
O O14 0.993197 0.182941 0.817707
O O15 0.623873 0.855027 0.329544
O O16 0.449557 0.021172 0.301098
#
# Coordination Sequence:
#
# PCOD9002743 Si02
#       8
#     2   2   2   2   2   2   2   2
#     4   9  21  43  62  89 118 151 201 255 295 360
#     4  10  22  36  61  84 121 163 210 236 284 358
#     4  10  22  38  57  91 123 155 201 245 295 360
#     4  10  21  37  58  86 121 161 201 244 291 354
#     4  10  21  40  68  86 112 159 205 245 301 353
#     4  10  23  40  59  89 131 155 195 254 308 346
#     4  10  21  36  64  89 115 157 205 242 291 362
#     4  11  22  37  59  87 121 164 201 244 289 351
#
# _framework density 22.633566999999999
#
# number of rings (size 3 to 8) (size 9 to 14) (size 15 to 20)
#    0.000    2.000    1.250    1.125    5.250    2.500 
#    0.000    9.375    0.000    0.000    0.000    0.000 
#    0.000    0.000    0.000    0.000    0.000    0.000 
#
# Total GULP energy -89457.144187 kJ/mol
# GULP energy per Si atom -5591.071512 kJ/mol
# Density = 2.258205 g / cm^3
# Si number density = 22.633567 Si / 1000 Ang^3
#
#
#
# Elastic Constant Matrix: (Units=GPa)
#
#
# Indices 1 2 3 4 5 6 
#
# 1 31.2478 33.9438 6.2550 -7.4689 1.6116 -8.7773
# 2 33.9438 128.9401 4.2224 0.1250 18.6620 -9.3516
# 3 6.2550 4.2224 54.2575 -19.6364 4.8430 -12.0704
# 4 -7.4689 0.1250 -19.6364 32.0626 -3.8047 7.7976
# 5 1.6116 18.6620 4.8430 -3.8047 30.8141 -17.7660
# 6 -8.7773 -9.3516 -12.0704 7.7976 -17.7660 40.5928
#
#
#
# Elastic Compliance Matrix: (Units=1/GPa)
#
#
# Indices 1 2 3 4 5 6 
#
# 1 0.054585 -0.015706 0.000730 0.011926 0.015432 0.012865
# 2 -0.015706 0.013051 -0.000826 -0.004387 -0.009864 -0.004109
# 3 0.000730 -0.000826 0.024542 0.014112 0.001302 0.005124
# 4 0.011926 -0.004387 0.014112 0.043309 0.004935 -0.000395
# 5 0.015432 -0.009864 0.001302 0.004935 0.051246 0.022932
# 6 0.012865 -0.004109 0.005124 -0.000395 0.022932 0.038106
#
#
# Mechanical properties :
#
#
# Convention : Reuss Voigt Hill
#
# Bulk Modulus (GPa) = 16.50863 33.69865 25.10364
# Shear Modulus (GPa) = 18.07445 32.02883 25.05164
#
# Velocity S-wave (km/s) = 2.82896 3.76587 3.33052
# Velocity P-wave (km/s) = 4.24033 5.81637 5.08972
#
# Compressibility (1/GPa) = 0.06057436
#
# Stress axis : x y z
#
# Youngs Moduli (GPa) = 18.31996 76.62250 40.74689
#
# Poissons Ratio (x) = 1.20341 -0.02976
# Poissons Ratio (y) = 0.28773 0.03367
# Poissons Ratio (z) = -0.01338 0.06332
#
# Static dielectric constant tensor:
#      x y z
#    x 1.864270 -0.012980 0.003500 
#    y -0.012980 1.860100 0.004170 
#    z 0.003500 0.004170 1.846670 
# 
# From -- ./inp_files/493012.got.cif
#   From: 2010.05.17/outbox.cif.g08.bks.cpg/sg2_247_cif.got.tgz:493012.got - 2010.06.03 11:33:40.
