data_PCOD9002376
_publ_section_title
;
Structure prediction by ZEFSAII (Michael W. Deem and Ramdas Pophale) SiO2 
 PCOD9002376
Probable space group: P -1
;
_chemical_formula_sum "Si O2"
_cell_formula_units_Z 12
_cell_length_a 6.475177
_cell_length_b 9.549528
_cell_length_c 17.589094
_cell_angle_alpha 44.463604
_cell_angle_beta 130.903557
_cell_angle_gamma 132.675916
_cell_volume 528.313683
_symmetry_space_group_name_H-M "P -1"
_symmetry_group_IT_number 2
_symmetry_cell_setting 'triclinic'
loop_
_space_group_symop_operation_xyz
x,y,z
-x,-y,-z
loop_
_atom_site_type_symbol
_atom_site_label
_atom_site_fract_x
_atom_site_fract_y
_atom_site_fract_z
Si Si1 0.140569 0.229935 0.985125
Si Si2 0.764604 0.140795 0.454719
Si Si3 0.716812 0.567711 0.908360
Si Si4 0.861917 0.578830 0.778113
Si Si5 0.263082 0.536472 0.374431
Si Si6 0.683183 0.993779 0.323115
O O1 0.432666 0.378644 0.950370
O O2 0.925321 0.361062 0.879723
O O3 0.209167 0.234878 0.090294
O O4 0.000000 0.000000 0.000000
O O5 0.641196 0.057365 0.373628
O O6 0.939596 0.403505 0.385075
O O7 0.500000 0.000000 0.500000
O O8 0.039509 0.079524 0.571460
O O9 0.675590 0.600809 0.796511
O O10 0.000000 0.500000 0.000000
O O11 0.176667 0.787051 0.776968
O O12 0.736613 0.572239 0.665500
O O13 0.500000 0.500000 0.500000
O O14 0.393594 0.797235 0.298292
#
# Coordination Sequence:
#
# PCOD9002376 Si02
#       6
#     2   2   2   2   2   2
#     4  10  22  40  62  90 119 149 196 249 298 359
#     4   9  18  34  55  78 111 154 196 243 291 336
#     4   9  21  40  61  85 116 151 192 244 304 356
#     4  10  21  36  60  88 119 157 197 243 298 349
#     4   9  19  36  56  83 118 156 196 237 283 341
#     4   9  19  35  53  78 115 151 195 243 284 344
#
# _framework density 22.713778999999999
#
# number of rings (size 3 to 8) (size 9 to 14) (size 15 to 20)
#    0.000    2.667    0.000    1.000    0.000   11.333 
#    0.000    3.333    0.000    2.000    0.000    0.000 
#    0.000    0.000    0.000    0.000    0.000    0.000 
#
# Total GULP energy -66948.625278 kJ/mol
# GULP energy per Si atom -5579.052107 kJ/mol
# Density = 2.266208 g / cm^3
# Si number density = 22.713779 Si / 1000 Ang^3
#
#
#
# Elastic Constant Matrix: (Units=GPa)
#
#
# Indices 1 2 3 4 5 6 
#
# 1 144.6097 75.0945 41.5919 11.7269 -39.1186 7.8351
# 2 75.0945 227.3336 32.3796 -6.5292 -28.7639 0.1943
# 3 41.5919 32.3796 78.7900 13.1706 -23.2085 -4.3405
# 4 11.7269 -6.5292 13.1706 29.5856 -3.7667 3.7190
# 5 -39.1186 -28.7639 -23.2085 -3.7667 44.8362 -3.7339
# 6 7.8351 0.1943 -4.3405 3.7190 -3.7339 25.0870
#
#
#
# Elastic Compliance Matrix: (Units=1/GPa)
#
#
# Indices 1 2 3 4 5 6 
#
# 1 0.011031 -0.002559 -0.002652 -0.002647 0.006173 -0.002573
# 2 -0.002559 0.005617 -0.001103 0.002842 0.001064 0.000302
# 3 -0.002652 -0.001103 0.017859 -0.007104 0.006117 0.005890
# 4 -0.002647 0.002842 -0.007104 0.039272 -0.001401 -0.006455
# 5 0.006173 0.001064 0.006117 -0.001401 0.031758 0.004057
# 6 -0.002573 0.000302 0.005890 -0.006455 0.004057 0.043242
#
#
# Mechanical properties :
#
#
# Convention : Reuss Voigt Hill
#
# Bulk Modulus (GPa) = 45.70556 83.20727 64.45641
# Shear Modulus (GPa) = 29.63842 40.01291 34.82567
#
# Velocity S-wave (km/s) = 3.61621 4.20171 3.91991
# Velocity P-wave (km/s) = 6.13205 7.76219 6.99477
#
# Compressibility (1/GPa) = 0.02187918
#
# Stress axis : x y z
#
# Youngs Moduli (GPa) = 90.65660 178.02677 55.99431
#
# Poissons Ratio (x) = 0.45552 0.14852
# Poissons Ratio (y) = 0.23197 0.06175
# Poissons Ratio (z) = 0.24045 0.19631
#
# Static dielectric constant tensor:
#      x y z
#    x 1.831930 -0.010490 0.020650 
#    y -0.010490 1.862920 -0.061720 
#    z 0.020650 -0.061720 2.022690 
# 
# From -- ./inp_files/547935.got.cif
#   From: 2010.05.17/outbox.cif.g08.bks.cpg/sg2_274_cif.got.tgz:547935.got - 2010.06.03 11:33:40.
