data_PCOD9002829
_publ_section_title
;
Structure prediction by ZEFSAII (Michael W. Deem and Ramdas Pophale) SiO2 
 PCOD9002829
Probable space group: P -1
;
_chemical_formula_sum "Si O2"
_cell_formula_units_Z 16
_cell_length_a 8.604343
_cell_length_b 10.778223
_cell_length_c 12.362501
_cell_angle_alpha 84.653410
_cell_angle_beta 43.203202
_cell_angle_gamma 100.979338
_cell_volume 723.138482
_symmetry_space_group_name_H-M "P -1"
_symmetry_group_IT_number 2
_symmetry_cell_setting 'triclinic'
loop_
_space_group_symop_operation_xyz
x,y,z
-x,-y,-z
loop_
_atom_site_type_symbol
_atom_site_label
_atom_site_fract_x
_atom_site_fract_y
_atom_site_fract_z
Si Si1 0.828141 0.024229 0.864380
Si Si2 0.241578 0.342364 0.172831
Si Si3 0.568131 0.184813 0.063331
Si Si4 0.505724 0.291822 0.308725
Si Si5 0.432327 0.444909 0.854867
Si Si6 0.530731 0.826272 0.219572
Si Si7 0.608381 0.889048 0.425793
Si Si8 0.021229 0.853557 0.502811
O O1 0.968834 0.783268 0.654612
O O2 0.722766 0.927737 0.029832
O O3 0.800088 0.164013 0.897828
O O4 0.650769 0.946733 0.862642
O O5 0.218740 0.383627 0.059009
O O6 0.480266 0.299703 0.055260
O O7 0.328974 0.465717 0.202232
O O8 0.585555 0.208750 0.181317
O O9 0.615820 0.449255 0.209626
O O10 0.531139 0.241445 0.418565
O O11 0.213562 0.241501 0.438163
O O12 0.476355 0.322183 0.787383
O O13 0.599382 0.861855 0.305761
O O14 0.269562 0.841096 0.338568
O O15 0.500000 0.000000 0.500000
O O16 0.895254 0.948468 0.303942
O O17 0.000000 0.000000 0.500000
#
# Coordination Sequence:
#
# PCOD9002829 Si02
#       8
#     2   2   2   2   2   2   2   2
#     4  11  23  38  64  98 124 159 211 266 322 377
#     4   9  18  37  63  94 127 160 205 272 313 369
#     4   9  19  37  66  97 117 156 206 273 315 361
#     4  10  24  40  63  91 127 168 209 270 307 379
#     4   9  20  39  61  87 126 168 218 251 313 374
#     4  12  24  39  64  93 129 171 207 258 315 392
#     4  12  28  42  62  91 135 170 204 261 327 388
#     4  10  21  36  65  96 127 162 214 266 321 361
#
# _framework density 22.125776999999999
#
# number of rings (size 3 to 8) (size 9 to 14) (size 15 to 20)
#    0.000    2.000    1.250    3.375   10.500    2.500 
#    0.000    2.500    0.000    9.000    0.000    0.000 
#    0.000    0.000    0.000    0.000    0.000    0.000 
#
# Total GULP energy -89311.525892 kJ/mol
# GULP energy per Si atom -5581.970368 kJ/mol
# Density = 2.207542 g / cm^3
# Si number density = 22.125777 Si / 1000 Ang^3
#
#
#
# Elastic Constant Matrix: (Units=GPa)
#
#
# Indices 1 2 3 4 5 6 
#
# 1 26.1269 16.0258 30.6588 0.0550 -3.0409 -15.9640
# 2 16.0258 127.6039 72.8474 4.2636 13.6496 -26.0633
# 3 30.6588 72.8474 147.6481 -15.1463 18.3134 -26.0514
# 4 0.0550 4.2636 -15.1463 46.3186 -10.3780 12.6147
# 5 -3.0409 13.6496 18.3134 -10.3780 46.1187 -1.3563
# 6 -15.9640 -26.0633 -26.0514 12.6147 -1.3563 25.5567
#
#
#
# Elastic Compliance Matrix: (Units=1/GPa)
#
#
# Indices 1 2 3 4 5 6 
#
# 1 0.087754 0.010220 -0.015562 -0.021183 0.005943 0.060145
# 2 0.010220 0.014922 -0.006728 -0.009417 -0.002624 0.019252
# 3 -0.015562 -0.006728 0.013229 0.005951 -0.003131 -0.006201
# 4 -0.021183 -0.009417 0.005951 0.034925 0.005896 -0.033695
# 5 0.005943 -0.002624 -0.003131 0.005896 0.025312 -0.003722
# 6 0.060145 0.019252 -0.006201 -0.033695 -0.003722 0.106445
#
#
# Mechanical properties :
#
#
# Convention : Reuss Voigt Hill
#
# Bulk Modulus (GPa) = 10.89758 60.04922 35.47340
# Shear Modulus (GPa) = 14.82296 35.72192 25.27244
#
# Velocity S-wave (km/s) = 2.59113 4.02243 3.38334
# Velocity P-wave (km/s) = 3.72665 6.98371 5.59732
#
# Compressibility (1/GPa) = 0.09176351
#
# Stress axis : x y z
#
# Youngs Moduli (GPa) = 11.39556 67.01630 75.59435
#
# Poissons Ratio (x) = -0.68492 1.17642
# Poissons Ratio (y) = -0.11646 0.50860
# Poissons Ratio (z) = 0.17734 0.45089
#
# Static dielectric constant tensor:
#      x y z
#    x 1.852440 -0.005870 0.025360 
#    y -0.005870 1.835800 -0.037540 
#    z 0.025360 -0.037540 1.898300 
# 
# From -- ./inp_files/385281.got.cif
#   From: 2010.05.17/outbox.cif.g08.bks.cpg/sg2_193_cif.got.tgz:385281.got - 2010.06.03 11:33:40.
