data_PCOD9002625
_publ_section_title
;
Structure prediction by ZEFSAII (Michael W. Deem and Ramdas Pophale) SiO2 
 PCOD9002625
Probable space group: P -1
;
_chemical_formula_sum "Si O2"
_cell_formula_units_Z 16
_cell_length_a 5.069643
_cell_length_b 18.045481
_cell_length_c 14.941844
_cell_angle_alpha 138.181979
_cell_angle_beta 130.568490
_cell_angle_gamma 56.338066
_cell_volume 685.781509
_symmetry_space_group_name_H-M "P -1"
_symmetry_group_IT_number 2
_symmetry_cell_setting 'triclinic'
loop_
_space_group_symop_operation_xyz
x,y,z
-x,-y,-z
loop_
_atom_site_type_symbol
_atom_site_label
_atom_site_fract_x
_atom_site_fract_y
_atom_site_fract_z
Si Si1 0.150138 0.945375 0.391933
Si Si2 0.247718 0.695483 0.864905
Si Si3 0.848286 0.574984 0.232988
Si Si4 0.376667 0.436659 0.329360
Si Si5 0.507464 0.227299 0.570844
Si Si6 0.813264 0.124665 0.366314
Si Si7 0.224261 0.081049 0.070844
Si Si8 0.674877 0.597164 0.029752
O O1 0.261514 0.817982 0.331809
O O2 0.500000 0.000000 0.500000
O O3 0.000000 0.000000 0.500000
O O4 0.895551 0.994073 0.299671
O O5 0.375351 0.656888 0.757963
O O6 0.566840 0.670807 0.984762
O O7 0.951605 0.619921 0.758887
O O8 0.057167 0.822354 0.946247
O O9 0.645888 0.645387 0.331111
O O10 0.665191 0.463704 0.080218
O O11 0.238776 0.532265 0.311790
O O12 0.784842 0.646735 0.192712
O O13 0.500000 0.500000 0.500000
O O14 0.717020 0.196254 0.498973
O O15 0.163361 0.161764 0.434750
O O16 0.477990 0.141809 0.245131
O O17 0.500000 0.000000 0.000000
O O18 0.000000 0.000000 0.000000
O O19 0.000000 0.500000 0.000000
#
# Coordination Sequence:
#
# PCOD9002625 Si02
#       8
#     2   2   2   2   2   2   2   2
#     4   8  16  34  53  82 117 152 191 249 314 373
#     4  11  25  45  69  97 135 182 226 283 335 396
#     4  10  23  37  65  97 131 174 221 264 336 405
#     4  11  24  41  67 103 139 172 219 276 345 411
#     4  10  21  36  62  95 119 163 210 260 336 390
#     4  10  22  39  62  84 131 157 207 283 324 383
#     4  12  27  47  68  96 128 179 235 276 339 403
#     4  10  21  44  62  91 139 175 220 276 323 406
#
# _framework density 23.331049
#
# number of rings (size 3 to 8) (size 9 to 14) (size 15 to 20)
#    0.000    1.750    1.250    1.875    5.250    1.000 
#    2.250    1.250    0.000    0.000    0.000    0.000 
#    0.000    0.000    0.000    0.000    0.000    0.000 
#
# Total GULP energy -89322.823290 kJ/mol
# GULP energy per Si atom -5582.676456 kJ/mol
# Density = 2.327795 g / cm^3
# Si number density = 23.331049 Si / 1000 Ang^3
#
#
#
# Elastic Constant Matrix: (Units=GPa)
#
#
# Indices 1 2 3 4 5 6 
#
# 1 124.0577 10.9020 27.6117 -3.3757 -15.2004 -11.3188
# 2 10.9020 131.8125 38.7144 -10.6743 -8.9209 -23.0932
# 3 27.6117 38.7144 80.3881 -11.6063 -9.2487 -1.1661
# 4 -3.3757 -10.6743 -11.6063 30.4673 -8.4791 -5.6330
# 5 -15.2004 -8.9209 -9.2487 -8.4791 38.5212 9.0486
# 6 -11.3188 -23.0932 -1.1661 -5.6330 9.0486 31.0981
#
#
#
# Elastic Compliance Matrix: (Units=1/GPa)
#
#
# Indices 1 2 3 4 5 6 
#
# 1 0.009372 0.001100 -0.003146 0.001649 0.002710 0.003620
# 2 0.001100 0.010801 -0.004833 0.003843 0.000560 0.008773
# 3 -0.003146 -0.004833 0.016882 0.004623 0.003732 -0.004350
# 4 0.001649 0.003843 0.004623 0.040290 0.009609 0.008129
# 5 0.002710 0.000560 0.003732 0.009609 0.031556 -0.005899
# 6 0.003620 0.008773 -0.004350 0.008129 -0.005899 0.043015
#
#
# Mechanical properties :
#
#
# Convention : Reuss Voigt Hill
#
# Bulk Modulus (GPa) = 42.92634 54.52383 48.72508
# Shear Modulus (GPa) = 28.82863 37.28599 33.05731
#
# Velocity S-wave (km/s) = 3.51897 4.00200 3.76823
# Velocity P-wave (km/s) = 5.91182 6.69141 6.31366
#
# Compressibility (1/GPa) = 0.02329572
#
# Stress axis : x y z
#
# Youngs Moduli (GPa) = 106.70546 92.58181 59.23544
#
# Poissons Ratio (x) = -0.10186 0.18638
# Poissons Ratio (y) = -0.11740 0.28629
# Poissons Ratio (z) = 0.33575 0.44746
#
# Static dielectric constant tensor:
#      x y z
#    x 1.891580 0.012330 -0.023290 
#    y 0.012330 1.992390 -0.007800 
#    z -0.023290 -0.007800 1.885840 
# 
# From -- ./inp_files/485278.got.cif
#   From: 2010.05.17/outbox.cif.g08.bks.cpg/sg2_243_cif.got.tgz:485278.got - 2010.06.03 11:33:40.
