data_PCOD9002953
_publ_section_title
;
Structure prediction by ZEFSAII (Michael W. Deem and Ramdas Pophale) SiO2 
 PCOD9002953
Probable space group: P -1
;
_chemical_formula_sum "Si O2"
_cell_formula_units_Z 16
_cell_length_a 16.387350
_cell_length_b 7.987244
_cell_length_c 19.436652
_cell_angle_alpha 119.515587
_cell_angle_beta 18.947602
_cell_angle_gamma 110.976329
_cell_volume 664.295869
_symmetry_space_group_name_H-M "P -1"
_symmetry_group_IT_number 2
_symmetry_cell_setting 'triclinic'
loop_
_space_group_symop_operation_xyz
x,y,z
-x,-y,-z
loop_
_atom_site_type_symbol
_atom_site_label
_atom_site_fract_x
_atom_site_fract_y
_atom_site_fract_z
Si Si1 0.678827 0.631851 0.404176
Si Si2 0.093695 0.585884 0.259394
Si Si3 0.821673 0.340166 0.353936
Si Si4 0.681404 0.927734 0.737496
Si Si5 0.154520 0.950138 0.224098
Si Si6 0.688639 0.765378 0.280177
Si Si7 0.602499 0.243056 0.738532
Si Si8 0.272064 0.091066 0.863749
O O1 0.500000 0.500000 0.500000
O O2 0.837543 0.500912 0.315378
O O3 0.821945 0.660419 0.224976
O O4 0.476331 0.858415 0.637441
O O5 0.038925 0.768735 0.283099
O O6 0.950688 0.420891 0.329572
O O7 0.946238 0.719472 0.470394
O O8 0.416149 0.459461 0.966515
O O9 0.522661 0.339880 0.597265
O O10 0.022171 0.117456 0.119151
O O11 0.730144 0.037056 0.789159
O O12 0.633239 0.078036 0.741466
O O13 0.404645 0.891570 0.961415
O O14 0.911859 0.173572 0.452010
O O15 0.836188 0.798714 0.101090
O O16 0.500000 0.000000 0.500000
O O17 0.437629 0.203082 0.797560
#
# Coordination Sequence:
#
# PCOD9002953 Si02
#       8
#     2   2   2   2   2   2   2   2
#     4   9  18  34  55  79 107 143 186 227 276 337
#     4  10  21  37  59  86 117 153 194 238 285 345
#     4  10  21  37  57  81 112 149 187 234 286 336
#     4  10  22  39  59  85 118 153 190 239 290 341
#     4  10  22  39  59  86 118 151 192 239 288 343
#     4   9  20  36  55  81 111 143 186 231 277 339
#     4  10  21  37  59  84 116 156 192 235 291 344
#     4  10  21  37  55  80 113 147 184 234 287 338
#
# _framework density 24.085654000000002
#
# number of rings (size 3 to 8) (size 9 to 14) (size 15 to 20)
#    0.000    2.250    0.000    3.000    0.000   12.000 
#    0.000    6.250    0.000    0.000    0.000    0.000 
#    0.000    0.000    0.000    0.000    0.000    0.000 
#
# Total GULP energy -89239.855456 kJ/mol
# GULP energy per Si atom -5577.490966 kJ/mol
# Density = 2.403083 g / cm^3
# Si number density = 24.085654 Si / 1000 Ang^3
#
#
#
# Elastic Constant Matrix: (Units=GPa)
#
#
# Indices 1 2 3 4 5 6 
#
# 1 55.3129 9.8175 -8.7541 7.2836 1.4380 -8.7970
# 2 9.8175 49.6286 23.8822 11.2079 14.0744 6.5652
# 3 -8.7541 23.8822 137.1263 18.2474 6.9729 -1.1227
# 4 7.2836 11.2079 18.2474 35.7257 4.0388 -7.4839
# 5 1.4380 14.0744 6.9729 4.0388 32.0938 3.2898
# 6 -8.7970 6.5652 -1.1227 -7.4839 3.2898 30.5796
#
#
#
# Elastic Compliance Matrix: (Units=1/GPa)
#
#
# Indices 1 2 3 4 5 6 
#
# 1 0.020951 -0.005998 0.002727 -0.002452 0.000717 0.006738
# 2 -0.005998 0.028629 -0.004099 -0.006353 -0.009722 -0.008531
# 3 0.002727 -0.004099 0.008645 -0.003464 0.000118 0.001121
# 4 -0.002452 -0.006353 -0.003464 0.034343 -0.001607 0.009109
# 5 0.000717 -0.009722 0.000118 -0.001607 0.035766 -0.001943
# 6 0.006738 -0.008531 0.001121 0.009109 -0.001943 0.038951
#
#
# Mechanical properties :
#
#
# Convention : Reuss Voigt Hill
#
# Bulk Modulus (GPa) = 22.99616 32.43989 27.71802
# Shear Modulus (GPa) = 25.44288 34.15462 29.79875
#
# Velocity S-wave (km/s) = 3.25368 3.76978 3.52120
# Velocity P-wave (km/s) = 4.86658 5.69615 5.29763
#
# Compressibility (1/GPa) = 0.04348552
#
# Stress axis : x y z
#
# Youngs Moduli (GPa) = 47.73061 34.92962 115.67851
#
# Poissons Ratio (x) = 0.20949 -0.31547
# Poissons Ratio (y) = 0.28627 0.47417
# Poissons Ratio (z) = -0.13017 0.14318
#
# Static dielectric constant tensor:
#      x y z
#    x 1.985340 0.015390 -0.010840 
#    y 0.015390 1.953520 0.000540 
#    z -0.010840 0.000540 2.006650 
# 
# From -- ./inp_files/599542.got.cif
#   From: 2010.05.17/outbox.cif.g08.bks.cpg/sg2_300_cif.got.tgz:599542.got - 2010.06.03 11:33:40.
