data_PCOD9002062
_publ_section_title
;
Structure prediction by ZEFSAII (Michael W. Deem and Ramdas Pophale) SiO2 
 PCOD9002062
Probable space group: P -1
;
_chemical_formula_sum "Si O2"
_cell_formula_units_Z 16
_cell_length_a 8.086990
_cell_length_b 10.479035
_cell_length_c 17.259888
_cell_angle_alpha 39.617912
_cell_angle_beta 68.319776
_cell_angle_gamma 93.742089
_cell_volume 699.540857
_symmetry_space_group_name_H-M "P -1"
_symmetry_group_IT_number 2
_symmetry_cell_setting 'triclinic'
loop_
_space_group_symop_operation_xyz
x,y,z
-x,-y,-z
loop_
_atom_site_type_symbol
_atom_site_label
_atom_site_fract_x
_atom_site_fract_y
_atom_site_fract_z
Si Si1 0.804323 0.094148 0.933967
Si Si2 0.716317 0.721718 0.255810
Si Si3 0.457860 0.704666 0.068642
Si Si4 0.239415 0.538170 0.031081
Si Si5 0.070979 0.008424 0.354566
Si Si6 0.271224 0.202122 0.599337
Si Si7 0.247313 0.725089 0.774956
Si Si8 0.320667 0.157958 0.383723
O O1 0.703930 0.248017 0.881943
O O2 0.066359 0.261210 0.809028
O O3 0.722991 0.915195 0.106760
O O4 0.698557 0.908121 0.965709
O O5 0.492459 0.449445 0.413354
O O6 0.731729 0.790247 0.311297
O O7 0.419291 0.722242 0.976326
O O8 0.379255 0.428480 0.229971
O O9 0.997709 0.471192 0.124089
O O10 0.274792 0.613905 0.900676
O O11 0.210385 0.282060 0.166593
O O12 0.935451 0.824250 0.393810
O O13 0.875997 0.972759 0.459456
O O14 0.223348 0.998762 0.395131
O O15 0.259507 0.961873 0.690122
O O16 0.452138 0.795808 0.654628
#
# Coordination Sequence:
#
# PCOD9002062 Si02
#       8
#     2   2   2   2   2   2   2   2
#     4  10  22  39  60  82 107 147 192 234 275 321
#     4  10  22  39  60  81 107 148 191 233 277 321
#     4  10  21  36  57  84 115 144 185 232 274 327
#     4   9  20  36  55  82 115 146 182 226 271 327
#     4   9  20  36  54  81 116 147 181 224 272 329
#     4  10  21  38  57  83 115 144 184 232 276 328
#     4  10  21  36  58  86 115 147 181 223 277 333
#     4  10  21  36  57  85 116 149 180 221 278 334
#
# _framework density 22.872146999999998
#
# number of rings (size 3 to 8) (size 9 to 14) (size 15 to 20)
#    0.000    2.250    0.000    1.500    0.000   14.000 
#    0.000    0.000    0.000    9.000    0.000    0.000 
#    0.000    0.000    0.000    0.000    0.000    0.000 
#
# Total GULP energy -89431.492939 kJ/mol
# GULP energy per Si atom -5589.468309 kJ/mol
# Density = 2.282009 g / cm^3
# Si number density = 22.872147 Si / 1000 Ang^3
#
#
#
# Elastic Constant Matrix: (Units=GPa)
#
#
# Indices 1 2 3 4 5 6 
#
# 1 61.3949 18.8298 28.6533 7.0191 -9.6151 10.4648
# 2 18.8298 58.7516 15.3016 -6.6941 0.4966 24.5325
# 3 28.6533 15.3016 69.8372 4.9240 -1.6205 4.0216
# 4 7.0191 -6.6941 4.9240 21.1920 6.3196 -0.7473
# 5 -9.6151 0.4966 -1.6205 6.3196 35.3098 2.2189
# 6 10.4648 24.5325 4.0216 -0.7473 2.2189 45.3670
#
#
#
# Elastic Compliance Matrix: (Units=1/GPa)
#
#
# Indices 1 2 3 4 5 6 
#
# 1 0.024820 -0.006373 -0.007678 -0.011098 0.008621 -0.002203
# 2 -0.006373 0.026398 -0.003393 0.011892 -0.003628 -0.012131
# 3 -0.007678 -0.003393 0.018249 -0.002432 -0.000895 0.001992
# 4 -0.011098 0.011892 -0.002432 0.059222 -0.013774 -0.002006
# 5 0.008621 -0.003628 -0.000895 -0.013774 0.033257 -0.001801
# 6 -0.002203 -0.012131 0.001992 -0.002006 -0.001801 0.028989
#
#
# Mechanical properties :
#
#
# Convention : Reuss Voigt Hill
#
# Bulk Modulus (GPa) = 28.91912 35.06146 31.99029
# Shear Modulus (GPa) = 21.06611 28.85371 24.95991
#
# Velocity S-wave (km/s) = 3.03815 3.55564 3.30704
# Velocity P-wave (km/s) = 4.99784 5.67621 5.34780
#
# Compressibility (1/GPa) = 0.03457919
#
# Stress axis : x y z
#
# Youngs Moduli (GPa) = 40.28976 37.88159 54.79891
#
# Poissons Ratio (x) = 0.24141 0.42073
# Poissons Ratio (y) = 0.25675 0.18595
# Poissons Ratio (z) = 0.30933 0.12855
#
# Static dielectric constant tensor:
#      x y z
#    x 1.889550 0.036810 -0.012600 
#    y 0.036810 1.885580 0.017000 
#    z -0.012600 0.017000 1.834410 
# 
# From -- ./inp_files/263452.got.cif
#   From: 2010.05.17/outbox.cif.g08.bks.cpg/sg2_132_cif.got.tgz:263452.got - 2010.06.03 11:33:40.
