data_PCOD9002449
_publ_section_title
;
Structure prediction by ZEFSAII (Michael W. Deem and Ramdas Pophale) SiO2 
 PCOD9002449
Probable space group: P -1
;
_chemical_formula_sum "Si O2"
_cell_formula_units_Z 14
_cell_length_a 15.703677
_cell_length_b 15.964479
_cell_length_c 6.842055
_cell_angle_alpha 56.069746
_cell_angle_beta 72.399451
_cell_angle_gamma 28.696047
_cell_volume 603.195797
_symmetry_space_group_name_H-M "P -1"
_symmetry_group_IT_number 2
_symmetry_cell_setting 'triclinic'
loop_
_space_group_symop_operation_xyz
x,y,z
-x,-y,-z
loop_
_atom_site_type_symbol
_atom_site_label
_atom_site_fract_x
_atom_site_fract_y
_atom_site_fract_z
Si Si1 0.101328 0.492446 0.045076
Si Si2 0.397983 0.179047 0.570820
Si Si3 0.915823 0.268410 0.270067
Si Si4 0.715457 0.900141 0.001098
Si Si5 0.228259 0.946421 0.147040
Si Si6 0.792150 0.243417 0.721037
Si Si7 0.213873 0.572967 0.263833
O O1 0.318733 0.256566 0.302371
O O2 0.093572 0.609090 0.791242
O O3 0.000000 0.500000 0.000000
O O4 0.953494 0.661108 0.113115
O O5 0.291204 0.382502 0.486593
O O6 0.623408 0.973201 0.754337
O O7 0.339258 0.134890 0.773717
O O8 0.869038 0.967503 0.679380
O O9 0.857054 0.238399 0.490133
O O10 0.766360 0.425053 0.984127
O O11 0.647991 0.076124 0.903296
O O12 0.313407 0.755660 0.257308
O O13 0.026520 0.175941 0.861637
O O14 0.688595 0.433204 0.679436
O O15 0.000000 0.000000 0.000000
#
# Coordination Sequence:
#
# PCOD9002449 Si02
#       7
#     2   2   2   2   2   2   2
#     4  10  21  34  56  82 108 146 183 226 273 335
#     4  10  20  36  56  80 112 143 181 228 278 326
#     4   8  17  31  46  79 109 136 176 227 273 313
#     4  10  20  35  57  80 111 146 178 230 274 326
#     4   8  17  31  48  78 107 140 179 221 268 325
#     4  10  17  27  54  82 103 141 185 224 269 327
#     4   8  18  31  51  79 102 146 177 220 273 323
#
# _framework density 23.209714000000002
#
# number of rings (size 3 to 8) (size 9 to 14) (size 15 to 20)
#    0.857    2.000    1.429    0.857    2.000    1.714 
#    0.000    0.714    0.000    3.429    0.000    0.000 
#    0.000    0.000    0.000    0.000    0.000    0.000 
#
# Total GULP energy -77985.149472 kJ/mol
# GULP energy per Si atom -5570.367819 kJ/mol
# Density = 2.315689 g / cm^3
# Si number density = 23.209714 Si / 1000 Ang^3
#
#
#
# Elastic Constant Matrix: (Units=GPa)
#
#
# Indices 1 2 3 4 5 6 
#
# 1 190.0688 22.0162 77.2679 -0.5774 -38.8443 40.1712
# 2 22.0162 27.4505 16.0094 -9.1731 -10.1392 11.4241
# 3 77.2679 16.0094 81.3620 -8.1542 -17.3129 4.6928
# 4 -0.5774 -9.1731 -8.1542 23.2284 -0.5536 -1.4742
# 5 -38.8443 -10.1392 -17.3129 -0.5536 46.4531 -10.3573
# 6 40.1712 11.4241 4.6928 -1.4742 -10.3573 34.4925
#
#
#
# Elastic Compliance Matrix: (Units=1/GPa)
#
#
# Indices 1 2 3 4 5 6 
#
# 1 0.013788 0.002168 -0.012187 -0.003865 0.004295 -0.013994
# 2 0.002168 0.055372 -0.008664 0.017985 0.007145 -0.016771
# 3 -0.012187 -0.008664 0.025508 0.006136 0.000629 0.014044
# 4 -0.003865 0.017985 0.006136 0.052373 0.003851 0.001105
# 5 0.004295 0.007145 0.000629 0.003851 0.027151 0.000864
# 6 -0.013994 -0.016771 0.014044 0.001105 0.000864 0.049240
#
#
# Mechanical properties :
#
#
# Convention : Reuss Voigt Hill
#
# Bulk Modulus (GPa) = 17.45145 58.82978 38.14062
# Shear Modulus (GPa) = 17.86353 33.07399 25.46876
#
# Velocity S-wave (km/s) = 2.77728 3.77902 3.31619
# Velocity P-wave (km/s) = 4.22134 6.66659 5.57957
#
# Compressibility (1/GPa) = 0.05730182
#
# Stress axis : x y z
#
# Youngs Moduli (GPa) = 72.52650 18.05957 39.20299
#
# Poissons Ratio (x) = -0.03914 0.47777
# Poissons Ratio (y) = -0.15720 0.33965
# Poissons Ratio (z) = 0.88389 0.15646
#
# Static dielectric constant tensor:
#      x y z
#    x 1.953950 0.073690 0.022520 
#    y 0.073690 1.882640 -0.040010 
#    z 0.022520 -0.040010 1.885910 
# 
# From -- ./inp_files/316896.got.cif
#   From: 2010.05.17/outbox.cif.g08.bks.cpg/sg2_159_cif.got.tgz:316896.got - 2010.06.03 11:33:40.
