data_PCOD9002698
_publ_section_title
;
Structure prediction by ZEFSAII (Michael W. Deem and Ramdas Pophale) SiO2 
 PCOD9002698
Probable space group: P -1
;
_chemical_formula_sum "Si O2"
_cell_formula_units_Z 16
_cell_length_a 19.309459
_cell_length_b 9.521046
_cell_length_c 23.969916
_cell_angle_alpha 130.053497
_cell_angle_beta 18.162837
_cell_angle_gamma 139.000037
_cell_volume 840.818747
_symmetry_space_group_name_H-M "P -1"
_symmetry_group_IT_number 2
_symmetry_cell_setting 'triclinic'
loop_
_space_group_symop_operation_xyz
x,y,z
-x,-y,-z
loop_
_atom_site_type_symbol
_atom_site_label
_atom_site_fract_x
_atom_site_fract_y
_atom_site_fract_z
Si Si1 0.582560 0.507201 0.619978
Si Si2 0.813926 0.688245 0.762317
Si Si3 0.195506 0.291320 0.102717
Si Si4 0.971783 0.203223 0.059392
Si Si5 0.872742 0.521829 0.511773
Si Si6 0.754614 0.260955 0.357048
Si Si7 0.812424 0.017893 0.550911
Si Si8 0.405877 0.074772 0.820526
O O1 0.719967 0.465549 0.555814
O O2 0.633548 0.403005 0.500286
O O3 0.738956 0.776186 0.560575
O O4 0.266716 0.392929 0.852439
O O5 0.873232 0.805147 0.806711
O O6 0.500505 0.532120 0.939836
O O7 0.889053 0.512798 0.673244
O O8 0.013609 0.874723 0.611758
O O9 0.882084 0.272241 0.201237
O O10 0.996060 0.333748 0.235372
O O11 0.194397 0.109858 0.019396
O O12 0.729077 0.095439 0.171740
O O13 0.000000 0.000000 0.000000
O O14 0.646965 0.330909 0.679162
O O15 0.001738 0.780133 0.495367
O O16 0.500000 0.000000 0.500000
O O17 0.536136 0.999082 0.745231
#
# Coordination Sequence:
#
# PCOD9002698 Si02
#       8
#     2   2   2   2   2   2   2   2
#     4  12  25  43  63  97 132 165 205 264 325 371
#     4  10  21  36  63  94 122 166 212 249 310 378
#     4  11  19  36  65  93 122 156 221 260 294 367
#     4  12  23  41  69  93 119 165 224 265 301 368
#     4  11  18  40  65  90 121 169 209 248 311 387
#     4  12  23  41  68  96 118 164 219 266 305 364
#     4  11  24  40  61  94 135 165 196 260 332 376
#     4  11  20  40  69  89 120 166 216 260 303 374
#
# _framework density 19.029070000000001
#
# number of rings (size 3 to 8) (size 9 to 14) (size 15 to 20)
#    0.000    0.750    7.500    1.125    1.750    0.500 
#    2.250    1.250    0.000    0.000    0.000    0.000 
#    0.000    0.000    0.000    0.000    0.000    0.000 
#
# Total GULP energy -89239.569699 kJ/mol
# GULP energy per Si atom -5577.473106 kJ/mol
# Density = 1.898576 g / cm^3
# Si number density = 19.029070 Si / 1000 Ang^3
#
#
#
# Elastic Constant Matrix: (Units=GPa)
#
#
# Indices 1 2 3 4 5 6 
#
# 1 50.3447 4.4122 10.6293 7.9621 0.1869 22.4559
# 2 4.4122 87.9986 33.2641 0.8755 7.1021 6.5143
# 3 10.6293 33.2641 91.9146 10.3055 7.7606 13.5076
# 4 7.9621 0.8755 10.3055 23.3499 6.6408 2.4363
# 5 0.1869 7.1021 7.7606 6.6408 25.0803 -1.7570
# 6 22.4559 6.5143 13.5076 2.4363 -1.7570 25.6785
#
#
#
# Elastic Compliance Matrix: (Units=1/GPa)
#
#
# Indices 1 2 3 4 5 6 
#
# 1 0.034381 0.000067 0.001469 -0.009124 -0.000417 -0.030020
# 2 0.000067 0.013471 -0.004692 0.002593 -0.003153 -0.001470
# 3 0.001469 -0.004692 0.014245 -0.005227 -0.002214 -0.007244
# 4 -0.009124 0.002593 -0.005227 0.051188 -0.012296 0.004373
# 5 -0.000417 -0.003153 -0.002214 -0.012296 0.045170 0.006586
# 6 -0.030020 -0.001470 -0.007244 0.004373 0.006586 0.069414
#
#
# Mechanical properties :
#
#
# Convention : Reuss Voigt Hill
#
# Bulk Modulus (GPa) = 17.92483 36.31880 27.12182
# Shear Modulus (GPa) = 19.78033 26.95190 23.36612
#
# Velocity S-wave (km/s) = 3.22759 3.76753 3.50797
# Velocity P-wave (km/s) = 4.83011 6.16872 5.53999
#
# Compressibility (1/GPa) = 0.05578853
#
# Stress axis : x y z
#
# Youngs Moduli (GPa) = 29.08545 74.23141 70.19973
#
# Poissons Ratio (x) = -0.00500 -0.10316
# Poissons Ratio (y) = -0.00196 0.32934
# Poissons Ratio (z) = -0.04274 0.34826
#
# Static dielectric constant tensor:
#      x y z
#    x 1.675140 0.045090 0.015180 
#    y 0.045090 1.648210 0.046180 
#    z 0.015180 0.046180 1.741290 
# 
# From -- ./inp_files/196211.got.cif
#   From: 2010.05.17/outbox.cif.g08.bks.cpg/sg2_99_cif.got.tgz:196211.got - 2010.06.03 11:33:40.
