data_PCOD9002996
_publ_section_title
;
Structure prediction by ZEFSAII (Michael W. Deem and Ramdas Pophale) SiO2 
 PCOD9002996
Probable space group: P -1
;
_chemical_formula_sum "Si O2"
_cell_formula_units_Z 16
_cell_length_a 9.070890
_cell_length_b 7.950438
_cell_length_c 16.713685
_cell_angle_alpha 74.153902
_cell_angle_beta 104.008406
_cell_angle_gamma 52.422463
_cell_volume 775.867263
_symmetry_space_group_name_H-M "P -1"
_symmetry_group_IT_number 2
_symmetry_cell_setting 'triclinic'
loop_
_space_group_symop_operation_xyz
x,y,z
-x,-y,-z
loop_
_atom_site_type_symbol
_atom_site_label
_atom_site_fract_x
_atom_site_fract_y
_atom_site_fract_z
Si Si1 0.554720 0.963634 0.151004
Si Si2 0.066856 0.524626 0.631809
Si Si3 0.769072 0.481113 0.518254
Si Si4 0.741363 0.095704 0.587188
Si Si5 0.075942 0.106036 0.195671
Si Si6 0.295203 0.794275 0.928448
Si Si7 0.116543 0.431894 0.110469
Si Si8 0.818230 0.964173 0.967556
O O1 0.743381 0.692614 0.253106
O O2 0.401891 0.974125 0.071346
O O3 0.649560 0.055093 0.108472
O O4 0.375451 0.188000 0.163613
O O5 0.184226 0.492417 0.569578
O O6 0.927065 0.467867 0.596504
O O7 0.902765 0.813872 0.606589
O O8 0.806453 0.240173 0.554053
O O9 0.518362 0.717788 0.485893
O O10 0.761863 0.072667 0.689198
O O11 0.024755 0.355275 0.163919
O O12 0.868912 0.152513 0.164032
O O13 0.157362 0.021833 0.125583
O O14 0.500000 0.500000 0.000000
O O15 0.215966 0.847991 0.002910
O O16 0.000000 0.500000 0.000000
O O17 0.016751 0.702331 0.076179
#
# Coordination Sequence:
#
# PCOD9002996 Si02
#       8
#     2   2   2   2   2   2   2   2
#     4  10  21  37  58  90 114 158 205 254 298 363
#     4  11  23  41  70  95 129 160 210 263 322 379
#     4  10  23  45  66  98 125 164 205 259 329 393
#     4  11  23  41  70  92 131 162 209 261 322 384
#     4  10  21  37  56  86 115 156 203 251 293 364
#     4  12  23  34  56  87 127 158 206 254 299 355
#     4   8  17  37  57  74 114 161 203 235 296 354
#     4  10  21  38  59  77 122 172 201 242 305 356
#
# _framework density 20.622084000000001
#
# number of rings (size 3 to 8) (size 9 to 14) (size 15 to 20)
#    0.000    2.000    0.000    6.000    3.500    0.000 
#    0.000    0.000   11.000    0.000    0.000    0.000 
#    0.000    0.000    0.000    0.000    0.000    0.000 
#
# Total GULP energy -89129.809464 kJ/mol
# GULP energy per Si atom -5570.613092 kJ/mol
# Density = 2.057515 g / cm^3
# Si number density = 20.622084 Si / 1000 Ang^3
#
#
#
# Elastic Constant Matrix: (Units=GPa)
#
#
# Indices 1 2 3 4 5 6 
#
# 1 124.6631 18.4105 38.9092 -9.9953 -2.3640 9.7087
# 2 18.4105 121.4801 26.5913 -20.8204 3.5599 -4.2431
# 3 38.9092 26.5913 81.2021 -17.5736 -2.1628 5.1844
# 4 -9.9953 -20.8204 -17.5736 28.8771 -2.1152 -1.0917
# 5 -2.3640 3.5599 -2.1628 -2.1152 29.1375 -3.5587
# 6 9.7087 -4.2431 5.1844 -1.0917 -3.5587 15.9508
#
#
#
# Elastic Compliance Matrix: (Units=1/GPa)
#
#
# Indices 1 2 3 4 5 6 
#
# 1 0.009801 -0.000721 -0.004112 0.000189 0.000005 -0.004807
# 2 -0.000721 0.009915 -0.001902 0.005856 -0.000499 0.003984
# 3 -0.004112 -0.001902 0.016708 0.007373 0.001353 -0.002627
# 4 0.000189 0.005856 0.007373 0.043756 0.003365 0.002792
# 5 0.000005 -0.000499 0.001353 0.003365 0.035655 0.007610
# 6 -0.004807 0.003984 -0.002627 0.002792 0.007610 0.069421
#
#
# Mechanical properties :
#
#
# Convention : Reuss Voigt Hill
#
# Bulk Modulus (GPa) = 43.56649 55.01856 49.29253
# Shear Modulus (GPa) = 24.22755 31.02205 27.62480
#
# Velocity S-wave (km/s) = 3.43131 3.88275 3.66399
# Velocity P-wave (km/s) = 6.07211 6.84386 6.46950
#
# Compressibility (1/GPa) = 0.02295342
#
# Stress axis : x y z
#
# Youngs Moduli (GPa) = 102.02822 100.86027 59.85286
#
# Poissons Ratio (x) = 0.07271 0.24614
# Poissons Ratio (y) = 0.07355 0.11382
# Poissons Ratio (z) = 0.41959 0.19181
#
# Static dielectric constant tensor:
#      x y z
#    x 1.833470 -0.001790 -0.015080 
#    y -0.001790 1.902230 -0.067170 
#    z -0.015080 -0.067170 1.709650 
# 
# From -- ./inp_files/557125.got.cif
#   From: 2010.05.17/outbox.cif.g08.bks.cpg/sg2_279_cif.got.tgz:557125.got - 2010.06.03 11:33:40.
