data_PCOD9002773
_publ_section_title
;
Structure prediction by ZEFSAII (Michael W. Deem and Ramdas Pophale) SiO2 
 PCOD9002773
Probable space group: P -1
;
_chemical_formula_sum "Si O2"
_cell_formula_units_Z 16
_cell_length_a 8.835905
_cell_length_b 9.129980
_cell_length_c 17.588258
_cell_angle_alpha 41.102107
_cell_angle_beta 73.226238
_cell_angle_gamma 57.701341
_cell_volume 771.663750
_symmetry_space_group_name_H-M "P -1"
_symmetry_group_IT_number 2
_symmetry_cell_setting 'triclinic'
loop_
_space_group_symop_operation_xyz
x,y,z
-x,-y,-z
loop_
_atom_site_type_symbol
_atom_site_label
_atom_site_fract_x
_atom_site_fract_y
_atom_site_fract_z
Si Si1 0.895675 0.982758 0.094925
Si Si2 0.414990 0.823761 0.682314
Si Si3 0.805261 0.532211 0.666823
Si Si4 0.816264 0.037685 0.478216
Si Si5 0.484105 0.976590 0.921026
Si Si6 0.438052 0.400334 0.643973
Si Si7 0.683173 0.608221 0.490931
Si Si8 0.334998 0.579640 0.935128
O O1 0.709834 0.997964 0.085157
O O2 0.035724 0.719476 0.219405
O O3 0.839778 0.212708 0.073935
O O4 0.000000 0.000000 0.000000
O O5 0.598824 0.614663 0.692770
O O6 0.234881 0.913423 0.622179
O O7 0.381697 0.707433 0.808032
O O8 0.426305 0.083073 0.593248
O O9 0.821115 0.512393 0.580275
O O10 0.816577 0.777542 0.596560
O O11 0.664633 0.304634 0.430946
O O12 0.000000 0.000000 0.500000
O O13 0.487359 0.199042 0.783462
O O14 0.500000 0.000000 0.000000
O O15 0.645822 0.690181 0.986873
O O16 0.617625 0.394142 0.587047
O O17 0.311907 0.370583 0.609867
O O18 0.500000 0.500000 0.000000
#
# Coordination Sequence:
#
# PCOD9002773 Si02
#       8
#     2   2   2   2   2   2   2   2
#     4  11  25  43  65  94 125 168 223 269 316 384
#     4  11  20  41  67  90 126 170 219 255 320 393
#     4  11  21  40  64  93 125 168 216 260 321 382
#     4  11  22  37  61  94 130 164 204 262 321 379
#     4  11  24  43  69  94 128 175 213 268 325 381
#     4  11  21  38  60  97 129 158 216 255 325 378
#     4  10  21  36  64  94 123 169 204 266 313 384
#     4  10  22  41  65  93 121 169 217 265 318 379
#
# _framework density 20.73442
#
# number of rings (size 3 to 8) (size 9 to 14) (size 15 to 20)
#    0.000    1.250    2.500    5.250    1.750    1.000 
#    0.000    3.750    0.000    0.000    0.000    0.000 
#    0.000    0.000    0.000    0.000    0.000    0.000 
#
# Total GULP energy -89109.616804 kJ/mol
# GULP energy per Si atom -5569.351050 kJ/mol
# Density = 2.068723 g / cm^3
# Si number density = 20.734420 Si / 1000 Ang^3
#
#
#
# Elastic Constant Matrix: (Units=GPa)
#
#
# Indices 1 2 3 4 5 6 
#
# 1 76.9313 31.8977 51.0086 5.0792 6.7375 16.3472
# 2 31.8977 125.1139 84.4794 -5.6946 10.1779 24.2091
# 3 51.0086 84.4794 179.0325 -3.2704 23.9330 6.8664
# 4 5.0792 -5.6946 -3.2704 34.1849 5.0617 0.5911
# 5 6.7375 10.1779 23.9330 5.0617 29.0572 4.6829
# 6 16.3472 24.2091 6.8664 0.5911 4.6829 31.4342
#
#
#
# Elastic Compliance Matrix: (Units=1/GPa)
#
#
# Indices 1 2 3 4 5 6 
#
# 1 0.018356 0.000367 -0.005401 -0.003337 0.002078 -0.008896
# 2 0.000367 0.014259 -0.006651 0.001601 0.001733 -0.010008
# 3 -0.005401 -0.006651 0.010948 0.001631 -0.006770 0.006518
# 4 -0.003337 0.001601 0.001631 0.031146 -0.006645 0.000550
# 5 0.002078 0.001733 -0.006770 -0.006645 0.041179 -0.006946
# 6 -0.008896 -0.010008 0.006518 0.000550 -0.006946 0.043747
#
#
# Mechanical properties :
#
#
# Convention : Reuss Voigt Hill
#
# Bulk Modulus (GPa) = 49.52368 79.53878 64.53123
# Shear Modulus (GPa) = 26.35271 33.18138 29.76704
#
# Velocity S-wave (km/s) = 3.56893 4.00472 3.79309
# Velocity P-wave (km/s) = 6.39684 7.73484 7.09744
#
# Compressibility (1/GPa) = 0.02019236
#
# Stress axis : x y z
#
# Youngs Moduli (GPa) = 54.47864 70.13347 91.34380
#
# Poissons Ratio (x) = -0.02576 0.49332
# Poissons Ratio (y) = -0.02001 0.60756
# Poissons Ratio (z) = 0.29422 0.46648
#
# Static dielectric constant tensor:
#      x y z
#    x 1.596510 0.258100 0.025190 
#    y 0.258100 1.429860 -0.025760 
#    z 0.025190 -0.025760 1.712650 
# 
# From -- ./inp_files/274864.got.cif
#   From: 2010.05.17/outbox.cif.g08.bks.cpg/sg2_138_cif.got.tgz:274864.got - 2010.06.03 11:33:40.
