data_PCOD9002040
_publ_section_title
;
Structure prediction by ZEFSAII (Michael W. Deem and Ramdas Pophale) SiO2 
 PCOD9002040
Probable space group: P -1
;
_chemical_formula_sum "Si O2"
_cell_formula_units_Z 16
_cell_length_a 11.307379
_cell_length_b 5.200389
_cell_length_c 17.358481
_cell_angle_alpha 98.029476
_cell_angle_beta 125.753166
_cell_angle_gamma 64.660093
_cell_volume 740.133518
_symmetry_space_group_name_H-M "P -1"
_symmetry_group_IT_number 2
_symmetry_cell_setting 'triclinic'
loop_
_space_group_symop_operation_xyz
x,y,z
-x,-y,-z
loop_
_atom_site_type_symbol
_atom_site_label
_atom_site_fract_x
_atom_site_fract_y
_atom_site_fract_z
Si Si1 0.928356 0.772246 0.305427
Si Si2 0.588225 0.224930 0.827420
Si Si3 0.836663 0.209922 0.490299
Si Si4 0.632821 0.226464 0.134175
Si Si5 0.956768 0.477607 0.142949
Si Si6 0.348896 0.064077 0.017703
Si Si7 0.709650 0.787393 0.367874
Si Si8 0.911119 0.146136 0.891757
O O1 0.958470 0.566292 0.235637
O O2 0.832149 0.713554 0.337902
O O3 0.094253 0.767191 0.399194
O O4 0.799899 0.080221 0.237045
O O5 0.475348 0.477904 0.852938
O O6 0.467506 0.149772 0.727046
O O7 0.718000 0.299327 0.836322
O O8 0.695892 0.966065 0.913882
O O9 0.767759 0.513990 0.434215
O O10 0.720450 0.053922 0.427208
O O11 0.000000 0.000000 0.500000
O O12 0.528750 0.039964 0.093218
O O13 0.663512 0.179424 0.052504
O O14 0.033270 0.635921 0.121453
O O15 0.770232 0.632380 0.050697
O O16 0.040304 0.138097 0.153263
O O17 0.000000 0.000000 0.000000
#
# Coordination Sequence:
#
# PCOD9002040 Si02
#       8
#     2   2   2   2   2   2   2   2
#     4  10  21  41  66  93 128 156 201 258 310 372
#     4  12  23  36  64  82 128 161 204 252 301 367
#     4  10  21  38  61  93 127 154 193 250 315 376
#     4  10  21  36  56  94 121 158 198 244 323 365
#     4  11  26  42  63  92 120 172 211 249 301 357
#     4  10  21  37  57  87 126 157 198 254 304 373
#     4  11  23  38  62  97 121 157 197 248 322 369
#     4  12  26  43  62  86 127 170 217 249 291 353
#
# _framework density 21.617721
#
# number of rings (size 3 to 8) (size 9 to 14) (size 15 to 20)
#    0.000    1.250    2.500    4.500    1.750    5.000 
#    0.000    0.000    0.000    4.500    0.000    0.000 
#    0.000    0.000    0.000    0.000    0.000    0.000 
#
# Total GULP energy -89398.405382 kJ/mol
# GULP energy per Si atom -5587.400336 kJ/mol
# Density = 2.156852 g / cm^3
# Si number density = 21.617721 Si / 1000 Ang^3
#
#
#
# Elastic Constant Matrix: (Units=GPa)
#
#
# Indices 1 2 3 4 5 6 
#
# 1 81.8336 14.8851 37.3780 3.1734 17.3839 20.3633
# 2 14.8851 77.8768 30.8053 5.6676 -2.3273 4.5399
# 3 37.3780 30.8053 155.6982 6.4572 7.5073 4.1933
# 4 3.1734 5.6676 6.4572 15.9520 1.8778 0.9679
# 5 17.3839 -2.3273 7.5073 1.8778 24.4691 3.2232
# 6 20.3633 4.5399 4.1933 0.9679 3.2232 23.7046
#
#
#
# Elastic Compliance Matrix: (Units=1/GPa)
#
#
# Indices 1 2 3 4 5 6 
#
# 1 0.020376 -0.001995 -0.003549 0.000368 -0.011639 -0.014927
# 2 -0.001995 0.014666 -0.002412 -0.004247 0.004015 -0.001041
# 3 -0.003549 -0.002412 0.007774 -0.001689 -0.000259 0.002240
# 4 0.000368 -0.004247 -0.001689 0.065470 -0.005014 -0.001195
# 5 -0.011639 0.004015 -0.000259 -0.005014 0.049623 0.002733
# 6 -0.014927 -0.001041 0.002240 -0.001195 0.002733 0.054489
#
#
# Mechanical properties :
#
#
# Convention : Reuss Voigt Hill
#
# Bulk Modulus (GPa) = 37.16942 53.50504 45.33723
# Shear Modulus (GPa) = 21.07217 28.31448 24.69332
#
# Velocity S-wave (km/s) = 3.12551 3.62302 3.38342
# Velocity P-wave (km/s) = 5.50058 6.50430 6.02338
#
# Compressibility (1/GPa) = 0.02690384
#
# Stress axis : x y z
#
# Youngs Moduli (GPa) = 49.07627 68.18457 128.63157
#
# Poissons Ratio (x) = 0.13605 0.45651
# Poissons Ratio (y) = 0.09792 0.31028
# Poissons Ratio (z) = 0.17417 0.16447
#
# Static dielectric constant tensor:
#      x y z
#    x 1.852970 0.011500 0.001800 
#    y 0.011500 1.821380 0.031060 
#    z 0.001800 0.031060 1.814540 
# 
# From -- ./inp_files/564490.got.cif
#   From: 2010.05.17/outbox.cif.g08.bks.cpg/sg2_283_cif.got.tgz:564490.got - 2010.06.03 11:33:40.
