data_PCOD9002651
_publ_section_title
;
Structure prediction by ZEFSAII (Michael W. Deem and Ramdas Pophale) SiO2 
 PCOD9002651
Probable space group: P -1
;
_chemical_formula_sum "Si O2"
_cell_formula_units_Z 14
_cell_length_a 7.389071
_cell_length_b 11.406249
_cell_length_c 11.912238
_cell_angle_alpha 37.984468
_cell_angle_beta 61.566038
_cell_angle_gamma 64.126867
_cell_volume 539.886446
_symmetry_space_group_name_H-M "P -1"
_symmetry_group_IT_number 2
_symmetry_cell_setting 'triclinic'
loop_
_space_group_symop_operation_xyz
x,y,z
-x,-y,-z
loop_
_atom_site_type_symbol
_atom_site_label
_atom_site_fract_x
_atom_site_fract_y
_atom_site_fract_z
Si Si1 0.893314 0.635419 0.171740
Si Si2 0.802837 0.422293 0.677701
Si Si3 0.428478 0.248769 0.387193
Si Si4 0.493655 0.855735 0.783713
Si Si5 0.764294 0.025756 0.009788
Si Si6 0.088220 0.207929 0.188761
Si Si7 0.950181 0.219165 0.468117
O O1 0.826716 0.425867 0.375489
O O2 0.101756 0.630009 0.187824
O O3 0.957744 0.665106 0.002373
O O4 0.740212 0.823515 0.110232
O O5 0.611185 0.579433 0.641922
O O6 0.741786 0.223500 0.796923
O O7 0.000000 0.500000 0.500000
O O8 0.554086 0.265826 0.221125
O O9 0.188854 0.221331 0.440810
O O10 0.527817 0.057650 0.562792
O O11 0.693354 0.744230 0.864960
O O12 0.358701 0.930857 0.872359
O O13 0.000000 0.000000 0.000000
O O14 0.948593 0.217630 0.333608
O O15 0.113120 0.982021 0.318682
#
# Coordination Sequence:
#
# PCOD9002651 Si02
#       7
#     2   2   2   2   2   2   2
#     4  10  21  36  63  86 117 163 200 246 298 365
#     4  10  21  37  62  93 116 156 213 251 296 361
#     4   9  19  37  64  85 120 161 199 250 295 359
#     4  10  21  39  57  91 124 152 204 253 305 353
#     4  10  22  37  59  86 117 157 202 258 293 362
#     4  10  21  38  61  90 128 155 198 249 303 366
#     4   9  20  38  63  91 119 164 200 242 298 367
#
# _framework density 25.931380000000001
#
# number of rings (size 3 to 8) (size 9 to 14) (size 15 to 20)
#    0.000    2.286    0.000    2.143    8.000    1.143 
#    2.571    0.714    0.000    0.000    0.000    0.000 
#    0.000    0.000    0.000    0.000    0.000    0.000 
#
# Total GULP energy -78133.564517 kJ/mol
# GULP energy per Si atom -5580.968894 kJ/mol
# Density = 2.587236 g / cm^3
# Si number density = 25.931380 Si / 1000 Ang^3
#
#
#
# Elastic Constant Matrix: (Units=GPa)
#
#
# Indices 1 2 3 4 5 6 
#
# 1 53.1128 -10.6503 12.0733 8.9272 14.0037 3.9188
# 2 -10.6503 148.8572 24.6901 -30.5105 -13.9811 -9.7572
# 3 12.0733 24.6901 96.9913 -15.3966 16.8232 1.1994
# 4 8.9272 -30.5105 -15.3966 59.4823 4.1053 -3.6709
# 5 14.0037 -13.9811 16.8232 4.1053 27.5017 4.2410
# 6 3.9188 -9.7572 1.1994 -3.6709 4.2410 21.4706
#
#
#
# Elastic Compliance Matrix: (Units=1/GPa)
#
#
# Indices 1 2 3 4 5 6 
#
# 1 0.022469 0.000166 -0.001682 -0.003233 -0.009442 -0.002620
# 2 0.000166 0.008568 -0.002482 0.003633 0.004677 0.003699
# 3 -0.001682 -0.002482 0.013199 0.003067 -0.009054 0.000755
# 4 -0.003233 0.003633 0.003067 0.020491 -0.002374 0.006042
# 5 -0.009442 0.004677 -0.009054 -0.002374 0.050364 -0.006000
# 6 -0.002620 0.003699 0.000755 0.006042 -0.006000 0.050911
#
#
# Mechanical properties :
#
#
# Convention : Reuss Voigt Hill
#
# Bulk Modulus (GPa) = 27.59419 39.02080 33.30750
# Shear Modulus (GPa) = 26.87024 39.88078 33.37551
#
# Velocity S-wave (km/s) = 3.22251 3.92591 3.59147
# Velocity P-wave (km/s) = 4.95080 5.96915 5.48366
#
# Compressibility (1/GPa) = 0.03623951
#
# Stress axis : x y z
#
# Youngs Moduli (GPa) = 44.50478 116.71760 75.76136
#
# Poissons Ratio (x) = -0.01932 0.12745
# Poissons Ratio (y) = -0.00737 0.18803
# Poissons Ratio (z) = 0.07487 0.28967
#
# Static dielectric constant tensor:
#      x y z
#    x 2.035510 0.091360 -0.037630 
#    y 0.091360 2.238360 -0.009800 
#    z -0.037630 -0.009800 2.041580 
# 
# From -- ./inp_files/388715.got.cif
#   From: 2010.05.17/outbox.cif.g08.bks.cpg/sg2_195_cif.got.tgz:388715.got - 2010.06.03 11:33:40.
