data_PCOD9002197
_publ_section_title
;
Structure prediction by ZEFSAII (Michael W. Deem and Ramdas Pophale) SiO2 
 PCOD9002197
Probable space group: P -1
;
_chemical_formula_sum "Si O2"
_cell_formula_units_Z 15
_cell_length_a 14.056995
_cell_length_b 10.290014
_cell_length_c 7.225193
_cell_angle_alpha 80.669877
_cell_angle_beta 140.513712
_cell_angle_gamma 106.631859
_cell_volume 633.799331
_symmetry_space_group_name_H-M "P -1"
_symmetry_group_IT_number 2
_symmetry_cell_setting 'triclinic'
loop_
_space_group_symop_operation_xyz
x,y,z
-x,-y,-z
loop_
_atom_site_type_symbol
_atom_site_label
_atom_site_fract_x
_atom_site_fract_y
_atom_site_fract_z
Si Si1 0.092536 0.728058 0.090056
Si Si2 0.285883 0.946691 0.587916
Si Si3 0.112558 0.758250 0.678038
Si Si4 0.357166 0.607956 0.032612
Si Si5 0.439714 0.185094 0.970796
Si Si6 0.760981 0.673585 0.152942
Si Si7 0.500000 0.500000 0.500000
Si Si8 0.770421 0.531009 0.597666
O O1 0.156313 0.863320 0.274633
O O2 0.186011 0.613951 0.298964
O O3 0.108543 0.769252 0.889406
O O4 0.915599 0.644072 0.875610
O O5 0.226364 0.881750 0.714098
O O6 0.330024 0.106314 0.658822
O O7 0.443597 0.905620 0.781101
O O8 0.937463 0.733074 0.350449
O O9 0.188451 0.633693 0.776843
O O10 0.448057 0.677754 0.975554
O O11 0.454761 0.654977 0.351342
O O12 0.335171 0.446187 0.096764
O O13 0.332485 0.218786 0.960798
O O14 0.760561 0.582964 0.359972
O O15 0.618135 0.526727 0.482425
#
# Coordination Sequence:
#
# PCOD9002197 Si02
#       8
#     2   2   2   2   2   2   1   2
#     4  10  21  40  61  86 123 156 193 241 300 348
#     4  10  23  42  63  80 121 168 194 242 295 344
#     4  10  22  39  61  91 118 152 203 238 293 367
#     4  11  22  37  60  89 122 153 187 251 303 346
#     4  10  22  41  59  86 119 156 206 242 284 356
#     4  11  22  37  64  87 117 153 196 249 300 346
#     4  12  22  32  58  94 126 142 194 246 298 360
#     4  10  21  36  58  91 120 148 193 246 293 361
#
# _framework density 23.666796999999999
#
# number of rings (size 3 to 8) (size 9 to 14) (size 15 to 20)
#    0.000    1.600    2.667    2.400    3.733    0.533 
#    0.000   10.000    0.000    0.000    0.000    0.000 
#    0.000    0.000    0.000    0.000    0.000    0.000 
#
# Total GULP energy -83641.498809 kJ/mol
# GULP energy per Si atom -5576.099921 kJ/mol
# Density = 2.361293 g / cm^3
# Si number density = 23.666797 Si / 1000 Ang^3
#
#
#
# Elastic Constant Matrix: (Units=GPa)
#
#
# Indices 1 2 3 4 5 6 
#
# 1 91.3833 6.7542 22.5433 -6.7945 23.2882 -0.6538
# 2 6.7542 50.6599 16.8496 22.6744 13.0654 -11.4103
# 3 22.5433 16.8496 88.3451 17.9205 7.8024 1.3678
# 4 -6.7945 22.6744 17.9205 40.4058 -3.3207 -0.1283
# 5 23.2882 13.0654 7.8024 -3.3207 49.0051 -3.3920
# 6 -0.6538 -11.4103 1.3678 -0.1283 -3.3920 19.5131
#
#
#
# Elastic Compliance Matrix: (Units=1/GPa)
#
#
# Indices 1 2 3 4 5 6 
#
# 1 0.013581 -0.001345 -0.003574 0.004184 -0.005311 -0.000977
# 2 -0.001345 0.036449 -0.001989 -0.020457 -0.008781 0.019747
# 3 -0.003574 -0.001989 0.013845 -0.005676 -0.000525 -0.002382
# 4 0.004184 -0.020457 -0.005676 0.039942 0.006380 -0.010052
# 5 -0.005311 -0.008781 -0.000525 0.006380 0.025734 -0.000761
# 6 -0.000977 0.019747 -0.002382 -0.010052 -0.000761 0.062730
#
#
# Mechanical properties :
#
#
# Convention : Reuss Voigt Hill
#
# Bulk Modulus (GPa) = 19.97617 35.85361 27.91489
# Shear Modulus (GPa) = 22.44322 34.06755 28.25539
#
# Velocity S-wave (km/s) = 3.08279 3.79815 3.45901
# Velocity P-wave (km/s) = 4.59678 5.86658 5.27006
#
# Compressibility (1/GPa) = 0.05005964
#
# Stress axis : x y z
#
# Youngs Moduli (GPa) = 73.63021 27.43570 72.22759
#
# Poissons Ratio (x) = 0.03691 0.25811
# Poissons Ratio (y) = 0.09905 0.14366
# Poissons Ratio (z) = 0.26313 0.05457
#
# Static dielectric constant tensor:
#      x y z
#    x 1.838630 -0.031540 -0.041690 
#    y -0.031540 1.976790 0.001730 
#    z -0.041690 0.001730 2.081540 
# 
# From -- ./inp_files/268672.got.cif
#   From: 2010.05.17/outbox.cif.g08.bks.cpg/sg2_135_cif.got.tgz:268672.got - 2010.06.03 11:33:40.
