data_PCOD9002733
_publ_section_title
;
Structure prediction by ZEFSAII (Michael W. Deem and Ramdas Pophale) SiO2 
 PCOD9002733
Probable space group: P -1
;
_chemical_formula_sum "Si O2"
_cell_formula_units_Z 14
_cell_length_a 8.368816
_cell_length_b 11.858438
_cell_length_c 13.912649
_cell_angle_alpha 39.107393
_cell_angle_beta 133.608447
_cell_angle_gamma 131.977706
_cell_volume 603.006176
_symmetry_space_group_name_H-M "P -1"
_symmetry_group_IT_number 2
_symmetry_cell_setting 'triclinic'
loop_
_space_group_symop_operation_xyz
x,y,z
-x,-y,-z
loop_
_atom_site_type_symbol
_atom_site_label
_atom_site_fract_x
_atom_site_fract_y
_atom_site_fract_z
Si Si1 0.957912 0.893102 0.936832
Si Si2 0.474791 0.949781 0.184211
Si Si3 0.098591 0.720974 0.427439
Si Si4 0.129703 0.351293 0.120241
Si Si5 0.350004 0.330692 0.676354
Si Si6 0.441410 0.321914 0.942537
Si Si7 0.574122 0.739787 0.544423
O O1 0.983059 0.792326 0.914356
O O2 0.751604 0.757805 0.004162
O O3 0.800267 0.080446 0.924587
O O4 0.907911 0.089505 0.758839
O O5 0.546137 0.827062 0.213728
O O6 0.557579 0.884126 0.361269
O O7 0.579880 0.170814 0.082640
O O8 0.369137 0.744120 0.531210
O O9 0.000000 0.500000 0.500000
O O10 0.913418 0.713717 0.439849
O O11 0.199041 0.248919 0.309045
O O12 0.376173 0.479953 0.095056
O O13 0.000000 0.500000 0.000000
O O14 0.503049 0.542672 0.586208
O O15 0.335061 0.325379 0.790127
#
# Coordination Sequence:
#
# PCOD9002733 Si02
#       7
#     2   2   2   2   2   2   2
#     4  12  23  42  73 100 135 184 222 278 335 404
#     4  12  22  39  73 102 131 174 233 279 334 388
#     4  10  21  39  65 100 135 172 227 278 331 395
#     4  11  27  47  69  96 140 180 223 277 345 401
#     4  10  21  36  64 101 136 173 220 281 330 385
#     4  11  22  41  65 101 135 175 225 272 330 409
#     4  10  22  43  63  95 138 173 223 280 327 403
#
# _framework density 23.217009999999998
#
# number of rings (size 3 to 8) (size 9 to 14) (size 15 to 20)
#    0.000    1.143    2.857    4.286    2.000    1.714 
#    0.000    2.143    0.000    0.000    0.000    0.000 
#    0.000    0.000    0.000    0.000    0.000    0.000 
#
# Total GULP energy -78038.622960 kJ/mol
# GULP energy per Si atom -5574.187354 kJ/mol
# Density = 2.316417 g / cm^3
# Si number density = 23.217010 Si / 1000 Ang^3
#
#
#
# Elastic Constant Matrix: (Units=GPa)
#
#
# Indices 1 2 3 4 5 6 
#
# 1 59.6340 11.1627 23.8742 -0.3665 17.3905 -10.5744
# 2 11.1627 66.8976 38.5678 3.1143 -5.9263 -13.1794
# 3 23.8742 38.5678 162.9836 -6.5742 13.1878 -10.8377
# 4 -0.3665 3.1143 -6.5742 39.2879 1.2559 0.4489
# 5 17.3905 -5.9263 13.1878 1.2559 36.2772 -11.5970
# 6 -10.5744 -13.1794 -10.8377 0.4489 -11.5970 30.0384
#
#
#
# Elastic Compliance Matrix: (Units=1/GPa)
#
#
# Indices 1 2 3 4 5 6 
#
# 1 0.021039 -0.003212 -0.001410 0.000499 -0.009540 0.001798
# 2 -0.003212 0.021396 -0.004844 -0.002985 0.010261 0.010515
# 3 -0.001410 -0.004844 0.007756 0.001789 -0.003364 -0.001149
# 4 0.000499 -0.002985 0.001789 0.026110 -0.002923 -0.002007
# 5 -0.009540 0.010261 -0.003364 -0.002923 0.040077 0.015446
# 6 0.001798 0.010515 -0.001149 -0.002007 0.015446 0.044116
#
#
# Mechanical properties :
#
#
# Convention : Reuss Voigt Hill
#
# Bulk Modulus (GPa) = 31.99041 48.52493 40.25767
# Shear Modulus (GPa) = 26.33709 35.51474 30.92591
#
# Velocity S-wave (km/s) = 3.37172 3.91536 3.65367
# Velocity P-wave (km/s) = 5.38208 6.43320 5.93097
#
# Compressibility (1/GPa) = 0.03125937
#
# Stress axis : x y z
#
# Youngs Moduli (GPa) = 47.53162 46.73687 128.92515
#
# Poissons Ratio (x) = 0.15011 0.18180
# Poissons Ratio (y) = 0.15266 0.62453
# Poissons Ratio (z) = 0.06703 0.22640
#
# Static dielectric constant tensor:
#      x y z
#    x 1.974250 0.054860 0.007680 
#    y 0.054860 1.899810 0.019820 
#    z 0.007680 0.019820 1.919650 
# 
# From -- ./inp_files/497554.got.cif
#   From: 2010.05.17/outbox.cif.g08.bks.cpg/sg2_249_cif.got.tgz:497554.got - 2010.06.03 11:33:40.
