data_PCOD9002594
_publ_section_title
;
Structure prediction by ZEFSAII (Michael W. Deem and Ramdas Pophale) SiO2 
 PCOD9002594
Probable space group: P -1
;
_chemical_formula_sum "Si O2"
_cell_formula_units_Z 16
_cell_length_a 8.558726
_cell_length_b 11.679382
_cell_length_c 15.631510
_cell_angle_alpha 53.920956
_cell_angle_beta 141.376645
_cell_angle_gamma 110.608352
_cell_volume 769.955186
_symmetry_space_group_name_H-M "P -1"
_symmetry_group_IT_number 2
_symmetry_cell_setting 'triclinic'
loop_
_space_group_symop_operation_xyz
x,y,z
-x,-y,-z
loop_
_atom_site_type_symbol
_atom_site_label
_atom_site_fract_x
_atom_site_fract_y
_atom_site_fract_z
Si Si1 0.183904 0.330713 0.356665
Si Si2 0.458858 0.274180 0.206337
Si Si3 0.101984 0.589123 0.079325
Si Si4 0.461787 0.270955 0.881466
Si Si5 0.125899 0.563581 0.660854
Si Si6 0.102958 0.153375 0.668710
Si Si7 0.582483 0.143686 0.502973
Si Si8 0.753040 0.139774 0.233133
O O1 0.199843 0.467766 0.244631
O O2 0.442950 0.215613 0.496207
O O3 0.094649 0.402131 0.377682
O O4 0.967840 0.238088 0.281847
O O5 0.606251 0.406042 0.199011
O O6 0.496628 0.239908 0.338322
O O7 0.610922 0.157938 0.255736
O O8 0.158640 0.306838 0.044465
O O9 0.315776 0.667043 0.098681
O O10 0.000000 0.500000 0.000000
O O11 0.216462 0.402801 0.735019
O O12 0.360400 0.160543 0.824677
O O13 0.567616 0.202444 0.047215
O O14 0.018622 0.688856 0.491562
O O15 0.886140 0.116866 0.653964
O O16 0.137948 0.029144 0.666145
O O17 0.500000 0.000000 0.500000
#
# Coordination Sequence:
#
# PCOD9002594 Si02
#       8
#     2   2   2   2   2   2   2   2
#     4  11  21  37  66  94 114 150 207 257 292 341
#     4  10  21  36  62  91 117 148 202 254 290 343
#     4  12  19  37  62  91 116 152 207 245 289 345
#     4  12  23  42  62  86 125 164 198 239 302 364
#     4  10  22  39  63  90 120 158 200 249 297 348
#     4  11  25  41  60  89 125 163 194 239 307 368
#     4  11  21  37  61  88 117 154 196 243 296 350
#     4  11  22  39  63  91 122 155 199 251 300 351
#
# _framework density 20.780429999999999
#
# number of rings (size 3 to 8) (size 9 to 14) (size 15 to 20)
#    0.000    1.000    5.000    2.250    1.750    3.500 
#    0.000    4.375    0.000    0.000    0.000    0.000 
#    0.000    0.000    0.000    0.000    0.000    0.000 
#
# Total GULP energy -89277.430272 kJ/mol
# GULP energy per Si atom -5579.839392 kJ/mol
# Density = 2.073313 g / cm^3
# Si number density = 20.780430 Si / 1000 Ang^3
#
#
#
# Elastic Constant Matrix: (Units=GPa)
#
#
# Indices 1 2 3 4 5 6 
#
# 1 104.1132 21.9940 12.8458 9.0899 34.1748 -6.8130
# 2 21.9940 53.3200 13.7335 11.1295 13.9614 -1.9921
# 3 12.8458 13.7335 42.6119 5.1700 13.5978 -0.8509
# 4 9.0899 11.1295 5.1700 24.9859 0.3622 8.5397
# 5 34.1748 13.9614 13.5978 0.3622 33.3301 -8.5888
# 6 -6.8130 -1.9921 -0.8509 8.5397 -8.5888 26.7407
#
#
#
# Elastic Compliance Matrix: (Units=1/GPa)
#
#
# Indices 1 2 3 4 5 6 
#
# 1 0.015306 -0.001553 0.001448 -0.005125 -0.015448 0.000505
# 2 -0.001553 0.024282 -0.004115 -0.010189 -0.006128 0.002568
# 3 0.001448 -0.004115 0.028555 -0.003897 -0.011772 -0.001566
# 4 -0.005125 -0.010189 -0.003897 0.053005 0.006116 -0.017151
# 5 -0.015448 -0.006128 -0.011772 0.006116 0.056053 0.011283
# 6 0.000505 0.002568 -0.001566 -0.017151 0.011283 0.046768
#
#
# Mechanical properties :
#
#
# Convention : Reuss Voigt Hill
#
# Bulk Modulus (GPa) = 16.74951 33.02131 24.88541
# Shear Modulus (GPa) = 19.81691 27.10947 23.46319
#
# Velocity S-wave (km/s) = 3.09145 3.61580 3.36385
# Velocity P-wave (km/s) = 4.56294 5.77556 5.20469
#
# Compressibility (1/GPa) = 0.05970325
#
# Stress axis : x y z
#
# Youngs Moduli (GPa) = 65.33588 41.18232 35.01969
#
# Poissons Ratio (x) = 0.06395 -0.05070
# Poissons Ratio (y) = 0.10146 0.14410
# Poissons Ratio (z) = -0.09460 0.16946
#
# Static dielectric constant tensor:
#      x y z
#    x 1.771970 0.011890 0.007220 
#    y 0.011890 1.778060 -0.050420 
#    z 0.007220 -0.050420 1.814580 
# 
# From -- ./inp_files/259495.got.cif
#   From: 2010.05.17/outbox.cif.g08.bks.cpg/sg2_130_cif.got.tgz:259495.got - 2010.06.03 11:33:40.
