data_PCOD9002126
_publ_section_title
;
Structure prediction by ZEFSAII (Michael W. Deem and Ramdas Pophale) SiO2 
 PCOD9002126
Probable space group: P -1
;
_chemical_formula_sum "Si O2"
_cell_formula_units_Z 14
_cell_length_a 9.636556
_cell_length_b 10.099336
_cell_length_c 17.778575
_cell_angle_alpha 144.832178
_cell_angle_beta 39.356512
_cell_angle_gamma 118.977377
_cell_volume 578.066142
_symmetry_space_group_name_H-M "P -1"
_symmetry_group_IT_number 2
_symmetry_cell_setting 'triclinic'
loop_
_space_group_symop_operation_xyz
x,y,z
-x,-y,-z
loop_
_atom_site_type_symbol
_atom_site_label
_atom_site_fract_x
_atom_site_fract_y
_atom_site_fract_z
Si Si1 0.413453 0.421636 0.078330
Si Si2 0.241896 0.604376 0.531544
Si Si3 0.741304 0.871018 0.235188
Si Si4 0.724027 0.771609 0.766196
Si Si5 0.765320 0.055495 0.559826
Si Si6 0.912205 0.347097 0.870755
Si Si7 0.624715 0.901717 0.707091
O O1 0.217218 0.676040 0.312336
O O2 0.500000 0.500000 0.000000
O O3 0.648320 0.360919 0.003197
O O4 0.396916 0.157863 0.945545
O O5 0.328922 0.468447 0.349920
O O6 0.377053 0.373330 0.424065
O O7 0.954211 0.693397 0.685994
O O8 0.279997 0.853376 0.647639
O O9 0.904611 0.777612 0.196863
O O10 0.471413 0.895448 0.367059
O O11 0.869394 0.639189 0.016140
O O12 0.781572 0.849977 0.694880
O O13 0.500000 0.000000 0.000000
O O14 0.979927 0.827193 0.326735
O O15 0.710368 0.970348 0.625112
#
# Coordination Sequence:
#
# PCOD9002126 Si02
#       7
#     2   2   2   2   2   2   2
#     4   9  19  36  54  83 113 140 178 227 274 323
#     4   9  20  37  55  82 112 139 179 229 271 320
#     4  10  21  38  56  78 112 144 188 227 264 323
#     4   9  19  36  55  81 106 143 180 215 273 329
#     4  10  21  37  55  83 109 148 184 222 275 319
#     4  10  21  36  58  79 108 148 188 226 265 323
#     4   9  19  37  54  81 117 135 177 232 271 324
#
# _framework density 24.218682000000001
#
# number of rings (size 3 to 8) (size 9 to 14) (size 15 to 20)
#    0.857    1.714    0.000    1.286    0.000    5.143 
#    7.714    0.714    0.000    0.000    0.000    0.000 
#    0.000    0.000    0.000    0.000    0.000    0.000 
#
# Total GULP energy -77997.401253 kJ/mol
# GULP energy per Si atom -5571.242947 kJ/mol
# Density = 2.416356 g / cm^3
# Si number density = 24.218682 Si / 1000 Ang^3
#
#
#
# Elastic Constant Matrix: (Units=GPa)
#
#
# Indices 1 2 3 4 5 6 
#
# 1 86.5155 4.4610 12.3742 -0.2668 -10.9331 -2.4204
# 2 4.4610 75.5697 58.5530 39.7306 17.2773 -9.4661
# 3 12.3742 58.5530 253.3065 40.9573 23.3106 13.7118
# 4 -0.2668 39.7306 40.9573 62.9639 3.7768 12.1060
# 5 -10.9331 17.2773 23.3106 3.7768 31.4219 -2.3044
# 6 -2.4204 -9.4661 13.7118 12.1060 -2.3044 22.3579
#
#
#
# Elastic Compliance Matrix: (Units=1/GPa)
#
#
# Indices 1 2 3 4 5 6 
#
# 1 0.012610 -0.001959 -0.001005 0.001376 0.006121 0.001038
# 2 -0.001959 0.037402 -0.004975 -0.025664 -0.012175 0.031316
# 3 -0.001005 -0.004975 0.005561 0.000875 -0.002310 -0.006338
# 4 0.001376 -0.025664 0.000875 0.036943 0.007263 -0.030508
# 5 0.006121 -0.012175 -0.002310 0.007263 0.041288 -0.002753
# 6 0.001038 0.031316 -0.006338 -0.030508 -0.002753 0.078220
#
#
# Mechanical properties :
#
#
# Convention : Reuss Voigt Hill
#
# Bulk Modulus (GPa) = 25.19178 62.90759 44.04969
# Shear Modulus (GPa) = 20.73530 46.01563 33.37546
#
# Velocity S-wave (km/s) = 2.92921 4.36363 3.71629
# Velocity P-wave (km/s) = 4.67598 7.17075 6.05328
#
# Compressibility (1/GPa) = 0.03969548
#
# Stress axis : x y z
#
# Youngs Moduli (GPa) = 79.30074 26.73623 179.82001
#
# Poissons Ratio (x) = 0.05236 0.18078
# Poissons Ratio (y) = 0.15531 0.89465
# Poissons Ratio (z) = 0.07972 0.13302
#
# Static dielectric constant tensor:
#      x y z
#    x 1.965370 -0.008710 0.026380 
#    y -0.008710 2.027480 0.063010 
#    z 0.026380 0.063010 1.967200 
# 
# From -- ./inp_files/430217.got.cif
#   From: 2010.05.17/outbox.cif.g08.bks.cpg/sg2_216_cif.got.tgz:430217.got - 2010.06.03 11:33:40.
