data_PCOD9002865
_publ_section_title
;
Structure prediction by ZEFSAII (Michael W. Deem and Ramdas Pophale) SiO2 
 PCOD9002865
Probable space group: P -1
;
_chemical_formula_sum "Si O2"
_cell_formula_units_Z 16
_cell_length_a 17.875509
_cell_length_b 5.532091
_cell_length_c 15.477599
_cell_angle_alpha 74.072257
_cell_angle_beta 29.448900
_cell_angle_gamma 83.414295
_cell_volume 698.158947
_symmetry_space_group_name_H-M "P -1"
_symmetry_group_IT_number 2
_symmetry_cell_setting 'triclinic'
loop_
_space_group_symop_operation_xyz
x,y,z
-x,-y,-z
loop_
_atom_site_type_symbol
_atom_site_label
_atom_site_fract_x
_atom_site_fract_y
_atom_site_fract_z
Si Si1 0.850071 0.754961 0.584370
Si Si2 0.561646 0.811987 0.391726
Si Si3 0.859121 0.671711 0.159391
Si Si4 0.169559 0.969271 0.140083
Si Si5 0.671715 0.192179 0.501688
Si Si6 0.191549 0.691283 0.464640
Si Si7 0.179498 0.441408 0.170861
Si Si8 0.043413 0.982992 0.812203
O O1 0.778839 0.511842 0.616065
O O2 0.837305 0.654651 0.704373
O O3 0.034452 0.856791 0.360552
O O4 0.780831 0.006681 0.621153
O O5 0.500000 0.500000 0.500000
O O6 0.744139 0.849379 0.225385
O O7 0.507207 0.880822 0.344690
O O8 0.500000 0.000000 0.500000
O O9 0.750122 0.401540 0.328564
O O10 0.971104 0.705477 0.960122
O O11 0.944627 0.806451 0.145889
O O12 0.258382 0.747314 0.060333
O O13 0.258175 0.255074 0.054906
O O14 0.068803 0.991313 0.154994
O O15 0.711573 0.309144 0.545024
O O16 0.779915 0.990704 0.403293
O O17 0.000307 0.600586 0.681131
#
# Coordination Sequence:
#
# PCOD9002865 Si02
#       8
#     2   2   2   2   2   2   2   2
#     4  10  17  28  43  68  99 131 156 200 251 311
#     4  10  21  37  55  72  99 134 181 215 257 297
#     4  10  22  35  51  76 100 143 177 215 253 308
#     4  10  18  28  42  68  95 136 155 200 246 305
#     4  11  20  34  53  72 105 140 173 217 255 302
#     4  10  18  26  45  67  96 127 162 197 252 294
#     4  10  17  28  44  64 103 129 159 194 257 307
#     4  11  20  33  52  74 108 136 176 212 260 304
#
# _framework density 22.917414999999998
#
# number of rings (size 3 to 8) (size 9 to 14) (size 15 to 20)
#    0.000    1.750    3.750    5.625    0.000    0.000 
#    0.000    0.000    0.000    0.000    0.000    0.000 
#    0.000   11.000    0.000    0.000    0.000    0.000 
#
# Total GULP energy -89250.484850 kJ/mol
# GULP energy per Si atom -5578.155303 kJ/mol
# Density = 2.286525 g / cm^3
# Si number density = 22.917415 Si / 1000 Ang^3
#
#
#
# Elastic Constant Matrix: (Units=GPa)
#
#
# Indices 1 2 3 4 5 6 
#
# 1 122.4544 43.2378 16.9663 7.6799 10.9810 11.7483
# 2 43.2378 174.1415 9.6481 1.6468 12.2299 13.4629
# 3 16.9663 9.6481 21.2419 -0.0970 6.3674 -0.7738
# 4 7.6799 1.6468 -0.0970 16.8807 -5.4031 9.3281
# 5 10.9810 12.2299 6.3674 -5.4031 14.4093 -4.8997
# 6 11.7483 13.4629 -0.7738 9.3281 -4.8997 36.2587
#
#
#
# Elastic Compliance Matrix: (Units=1/GPa)
#
#
# Indices 1 2 3 4 5 6 
#
# 1 0.010795 -0.001593 -0.005826 -0.005722 -0.007312 -0.002546
# 2 -0.001593 0.006738 -0.000281 -0.000172 -0.005353 -0.002671
# 3 -0.005826 -0.000281 0.058675 -0.005051 -0.022639 0.001484
# 4 -0.005722 -0.000172 -0.005051 0.080013 0.031819 -0.014475
# 5 -0.007312 -0.005353 -0.022639 0.031819 0.104799 0.009849
# 6 -0.002546 -0.002671 0.001484 -0.014475 0.009849 0.034483
#
#
# Mechanical properties :
#
#
# Convention : Reuss Voigt Hill
#
# Bulk Modulus (GPa) = 16.44546 50.83803 33.64175
# Shear Modulus (GPa) = 15.09792 30.04213 22.57002
#
# Velocity S-wave (km/s) = 2.56949 3.62454 3.14162
# Velocity P-wave (km/s) = 3.99932 6.30458 5.27931
#
# Compressibility (1/GPa) = 0.06080704
#
# Stress axis : x y z
#
# Youngs Moduli (GPa) = 92.63730 148.42103 17.04310
#
# Poissons Ratio (x) = 0.23644 0.09929
# Poissons Ratio (y) = 0.14757 0.00480
# Poissons Ratio (z) = 0.53967 0.04177
#
# Static dielectric constant tensor:
#      x y z
#    x 1.839380 -0.051800 0.006330 
#    y -0.051800 1.978670 0.044070 
#    z 0.006330 0.044070 1.869160 
# 
# From -- ./inp_files/74447.got.cif
#   From: 2010.05.17/outbox.cif.g08.bks.cpg/sg2_38_cif.got.tgz:74447.got - 2010.06.03 11:33:40.
