data_PCOD9002259
_publ_section_title
;
Structure prediction by ZEFSAII (Michael W. Deem and Ramdas Pophale) SiO2 
 PCOD9002259
Probable space group: P -1
;
_chemical_formula_sum "Si O2"
_cell_formula_units_Z 16
_cell_length_a 8.332293
_cell_length_b 8.186975
_cell_length_c 17.325879
_cell_angle_alpha 58.646958
_cell_angle_beta 95.630381
_cell_angle_gamma 58.844514
_cell_volume 746.725396
_symmetry_space_group_name_H-M "P -1"
_symmetry_group_IT_number 2
_symmetry_cell_setting 'triclinic'
loop_
_space_group_symop_operation_xyz
x,y,z
-x,-y,-z
loop_
_atom_site_type_symbol
_atom_site_label
_atom_site_fract_x
_atom_site_fract_y
_atom_site_fract_z
Si Si1 0.847086 0.971865 0.624120
Si Si2 0.307001 0.480587 0.756343
Si Si3 0.660121 0.734857 0.748669
Si Si4 0.458008 0.811722 0.024222
Si Si5 0.637758 0.985799 0.192991
Si Si6 0.915851 0.192510 0.714880
Si Si7 0.223798 0.773686 0.143896
Si Si8 0.496296 0.782551 0.577202
O O1 0.845093 0.117403 0.659675
O O2 0.683879 0.160715 0.501856
O O3 0.785580 0.811360 0.696401
O O4 0.090640 0.759611 0.656366
O O5 0.341847 0.452883 0.858474
O O6 0.301606 0.269234 0.776341
O O7 0.537956 0.381547 0.766217
O O8 0.794211 0.430736 0.835456
O O9 0.469647 0.824524 0.657757
O O10 0.556911 0.874400 0.790190
O O11 0.251321 0.892068 0.042767
O O12 0.500000 0.000000 0.000000
O O13 0.431471 0.825943 0.928598
O O14 0.850699 0.899989 0.264284
O O15 0.930923 0.073619 0.828278
O O16 0.730745 0.500948 0.642228
O O17 0.500000 0.000000 0.500000
#
# Coordination Sequence:
#
# PCOD9002259 Si02
#       8
#     2   2   2   2   2   2   2   2
#     4  11  21  39  60  83 118 154 188 237 286 340
#     4   9  19  38  59  83 114 154 187 238 283 333
#     4  10  21  36  59  87 114 151 193 236 285 337
#     4   8  19  36  62  81 117 149 192 233 289 332
#     4  11  20  37  60  84 118 152 191 237 285 338
#     4  11  22  36  60  88 115 153 192 230 285 344
#     4   9  19  38  57  83 118 146 193 234 284 330
#     4   9  20  40  59  83 115 149 190 240 285 337
#
# _framework density 21.426884999999999
#
# number of rings (size 3 to 8) (size 9 to 14) (size 15 to 20)
#    0.750    1.500    0.000    4.125    0.000    1.000 
#    0.000   13.125    0.000    0.000    0.000    0.000 
#    0.000    0.000    0.000    0.000    0.000    0.000 
#
# Total GULP energy -89129.268689 kJ/mol
# GULP energy per Si atom -5570.579293 kJ/mol
# Density = 2.137812 g / cm^3
# Si number density = 21.426885 Si / 1000 Ang^3
#
#
#
# Elastic Constant Matrix: (Units=GPa)
#
#
# Indices 1 2 3 4 5 6 
#
# 1 68.3257 6.5211 1.1519 -1.9323 -3.2283 8.0970
# 2 6.5211 75.3526 12.1565 18.2199 4.4881 10.3478
# 3 1.1519 12.1565 59.4320 11.2041 9.8627 7.8322
# 4 -1.9323 18.2199 11.2041 24.0448 -0.9918 0.9960
# 5 -3.2283 4.4881 9.8627 -0.9918 35.0369 2.4246
# 6 8.0970 10.3478 7.8322 0.9960 2.4246 32.1705
#
#
#
# Elastic Compliance Matrix: (Units=1/GPa)
#
#
# Indices 1 2 3 4 5 6 
#
# 1 0.015389 -0.001602 -0.000389 0.002862 0.002056 -0.003507
# 2 -0.001602 0.017379 -0.000030 -0.013193 -0.002421 -0.004589
# 3 -0.000389 -0.000030 0.020096 -0.009438 -0.005675 -0.004065
# 4 0.002862 -0.013193 -0.009438 0.056309 0.005953 0.003629
# 5 0.002056 -0.002421 -0.005675 0.005953 0.030867 -0.000868
# 6 -0.003507 -0.004589 -0.004065 0.003629 -0.000868 0.034386
#
#
# Mechanical properties :
#
#
# Convention : Reuss Voigt Hill
#
# Bulk Modulus (GPa) = 20.48264 26.97436 23.72850
# Shear Modulus (GPa) = 25.67494 30.46917 28.07205
#
# Velocity S-wave (km/s) = 3.46534 3.77504 3.62350
# Velocity P-wave (km/s) = 5.05881 5.62295 5.34832
#
# Compressibility (1/GPa) = 0.04882184
#
# Stress axis : x y z
#
# Youngs Moduli (GPa) = 64.98185 57.54133 49.76006
#
# Poissons Ratio (x) = 0.09217 0.01937
# Poissons Ratio (y) = 0.10409 0.00149
# Poissons Ratio (z) = 0.02530 0.00173
#
# Static dielectric constant tensor:
#      x y z
#    x 1.804200 0.010180 -0.012140 
#    y 0.010180 1.734470 -0.009000 
#    z -0.012140 -0.009000 1.891010 
# 
# From -- ./inp_files/218172.got.cif
#   From: 2010.05.17/outbox.cif.g08.bks.cpg/sg2_110_cif.got.tgz:218172.got - 2010.06.03 11:33:40.
