data_PCOD9002982
_publ_section_title
;
Structure prediction by ZEFSAII (Michael W. Deem and Ramdas Pophale) SiO2 
 PCOD9002982
Probable space group: P -1
;
_chemical_formula_sum "Si O2"
_cell_formula_units_Z 16
_cell_length_a 9.821404
_cell_length_b 10.467327
_cell_length_c 11.985092
_cell_angle_alpha 73.944314
_cell_angle_beta 36.816959
_cell_angle_gamma 55.077940
_cell_volume 562.479872
_symmetry_space_group_name_H-M "P -1"
_symmetry_group_IT_number 2
_symmetry_cell_setting 'triclinic'
loop_
_space_group_symop_operation_xyz
x,y,z
-x,-y,-z
loop_
_atom_site_type_symbol
_atom_site_label
_atom_site_fract_x
_atom_site_fract_y
_atom_site_fract_z
Si Si1 0.330275 0.677477 0.207859
Si Si2 0.697476 0.154421 0.342302
Si Si3 0.966638 0.232786 0.832175
Si Si4 0.960767 0.952044 0.657334
Si Si5 0.027264 0.653611 0.615938
Si Si6 0.231855 0.139058 0.902316
Si Si7 0.117429 0.407960 0.061922
Si Si8 0.559608 0.754561 0.732707
O O1 0.157893 0.664948 0.226287
O O2 0.668698 0.570248 0.018719
O O3 0.252002 0.641340 0.387409
O O4 0.229307 0.866179 0.205511
O O5 0.436520 0.266626 0.399307
O O6 0.736999 0.164773 0.445391
O O7 0.805543 0.965053 0.300669
O O8 0.951941 0.159037 0.126602
O O9 0.135851 0.238516 0.823263
O O10 0.688677 0.255658 0.059775
O O11 0.853145 0.842810 0.734359
O O12 0.000000 0.000000 0.500000
O O13 0.827854 0.643945 0.664270
O O14 0.105663 0.557105 0.704777
O O15 0.300700 0.218545 0.934669
O O16 0.459010 0.943095 0.773341
O O17 0.000000 0.500000 0.000000
#
# Coordination Sequence:
#
# PCOD9002982 Si02
#       8
#     2   2   2   2   2   2   2   2
#     4  10  21  37  56  83 115 136 181 233 266 336
#     4   8  14  27  51  85 114 141 173 211 270 342
#     4   8  15  31  56  83 110 140 171 217 278 333
#     4   9  17  30  52  87 118 141 171 215 280 337
#     4  11  21  35  57  84 112 146 176 224 285 321
#     4   9  17  32  57  82 112 143 177 224 269 321
#     4  12  25  39  57  77 104 153 197 225 268 317
#     4   9  16  29  57  87 108 142 173 212 285 339
#
# _framework density 28.445461000000002
#
# number of rings (size 3 to 8) (size 9 to 14) (size 15 to 20)
#    0.000    2.500    2.500    2.250    0.000    1.500 
#    0.000   13.125    0.000    0.750    0.000    0.000 
#    0.000    0.000    0.000    0.000    0.000    0.000 
#
# Total GULP energy -89437.091516 kJ/mol
# GULP energy per Si atom -5589.818220 kJ/mol
# Density = 2.838072 g / cm^3
# Si number density = 28.445461 Si / 1000 Ang^3
#
#
#
# Elastic Constant Matrix: (Units=GPa)
#
#
# Indices 1 2 3 4 5 6 
#
# 1 223.0401 33.4915 47.9377 -13.9555 39.2879 -16.6024
# 2 33.4915 92.4011 21.6771 -15.9994 14.2279 -1.3916
# 3 47.9377 21.6771 85.3639 -27.7046 35.5688 -8.8440
# 4 -13.9555 -15.9994 -27.7046 32.2059 -12.9626 15.4189
# 5 39.2879 14.2279 35.5688 -12.9626 65.3689 -9.6623
# 6 -16.6024 -1.3916 -8.8440 15.4189 -9.6623 45.9435
#
#
#
# Elastic Compliance Matrix: (Units=1/GPa)
#
#
# Indices 1 2 3 4 5 6 
#
# 1 0.005562 -0.001484 -0.002465 -0.002036 -0.001818 0.001792
# 2 -0.001484 0.012592 -0.000240 0.006252 -0.000845 -0.002477
# 3 -0.002465 -0.000240 0.020868 0.015580 -0.007270 -0.003639
# 4 -0.002036 0.006252 0.015580 0.054138 -0.000209 -0.015760
# 5 -0.001818 -0.000845 -0.007270 -0.000209 0.020839 0.002371
# 6 0.001792 -0.002477 -0.003639 -0.015760 0.002371 0.027426
#
#
# Mechanical properties :
#
#
# Convention : Reuss Voigt Hill
#
# Bulk Modulus (GPa) = 32.63087 67.44642 50.03864
# Shear Modulus (GPa) = 31.24688 48.55025 39.89857
#
# Velocity S-wave (km/s) = 3.31793 4.13581 3.74924
# Velocity P-wave (km/s) = 5.11611 6.82413 6.03089
#
# Compressibility (1/GPa) = 0.03064583
#
# Stress axis : x y z
#
# Youngs Moduli (GPa) = 179.78606 79.41732 47.91978
#
# Poissons Ratio (x) = 0.11782 0.11810
# Poissons Ratio (y) = 0.26672 0.01150
# Poissons Ratio (z) = 0.44310 0.01906
#
# Static dielectric constant tensor:
#      x y z
#    x 2.163780 0.038840 0.016740 
#    y 0.038840 2.350900 0.034840 
#    z 0.016740 0.034840 2.229760 
# 
# From -- ./inp_files/179093.got.cif
#   From: 2010.05.17/outbox.cif.g08.bks.cpg/sg2_90_cif.got.tgz:179093.got - 2010.06.03 11:33:40.
