data_PCOD9002517
_publ_section_title
;
Structure prediction by ZEFSAII (Michael W. Deem and Ramdas Pophale) SiO2 
 PCOD9002517
Probable space group: P -1
;
_chemical_formula_sum "Si O2"
_cell_formula_units_Z 16
_cell_length_a 15.185616
_cell_length_b 9.205116
_cell_length_c 14.250353
_cell_angle_alpha 68.597427
_cell_angle_beta 133.401860
_cell_angle_gamma 145.058596
_cell_volume 728.708516
_symmetry_space_group_name_H-M "P -1"
_symmetry_group_IT_number 2
_symmetry_cell_setting 'triclinic'
loop_
_space_group_symop_operation_xyz
x,y,z
-x,-y,-z
loop_
_atom_site_type_symbol
_atom_site_label
_atom_site_fract_x
_atom_site_fract_y
_atom_site_fract_z
Si Si1 0.423335 0.662344 0.922384
Si Si2 0.099889 0.498156 0.851719
Si Si3 0.136785 0.770073 0.970317
Si Si4 0.232600 0.200353 0.761782
Si Si5 0.239387 0.321937 0.529566
Si Si6 0.408659 0.067437 0.447226
Si Si7 0.537605 0.674749 0.408778
Si Si8 0.900115 0.750484 0.926639
O O1 0.287113 0.651640 0.877278
O O2 0.257358 0.357170 0.824503
O O3 0.593772 0.919946 0.909115
O O4 0.580605 0.727752 0.092180
O O5 0.093563 0.659955 0.859201
O O6 0.142768 0.429406 0.986289
O O7 0.852983 0.198803 0.702484
O O8 0.000000 0.500000 0.000000
O O9 0.050284 0.841660 0.930624
O O10 0.261600 0.324175 0.655938
O O11 0.987439 0.862073 0.641591
O O12 0.444977 0.649991 0.569999
O O13 0.255159 0.162821 0.537140
O O14 0.443805 0.145134 0.564070
O O15 0.500000 0.000000 0.500000
O O16 0.500000 0.500000 0.500000
O O17 0.329253 0.449403 0.241199
O O18 0.000000 0.000000 0.000000
#
# Coordination Sequence:
#
# PCOD9002517 Si02
#       8
#     2   2   2   2   2   2   2   2
#     4  11  24  41  71  97 133 172 230 278 335 395
#     4  11  24  43  65 101 136 178 221 276 341 395
#     4  10  25  42  65  99 136 175 217 281 337 398
#     4  10  24  40  67  95 130 174 225 279 335 381
#     4  10  22  43  62  94 134 174 220 277 329 399
#     4  11  24  41  69  98 134 180 224 271 335 407
#     4  10  21  36  61  92 128 167 220 272 326 383
#     4  11  23  38  67  98 132 172 228 278 328 390
#
# _framework density 21.956652999999999
#
# number of rings (size 3 to 8) (size 9 to 14) (size 15 to 20)
#    0.000    1.500    0.000    4.125   14.000    0.000 
#    0.000    0.000    0.000    2.250    0.000    0.000 
#    0.000    0.000    0.000    0.000    0.000    0.000 
#
# Total GULP energy -89261.894410 kJ/mol
# GULP energy per Si atom -5578.868401 kJ/mol
# Density = 2.190668 g / cm^3
# Si number density = 21.956653 Si / 1000 Ang^3
#
#
#
# Elastic Constant Matrix: (Units=GPa)
#
#
# Indices 1 2 3 4 5 6 
#
# 1 142.1641 39.6953 45.0689 -2.5011 5.7645 -12.2230
# 2 39.6953 71.1583 26.0215 6.4486 1.3662 -6.1951
# 3 45.0689 26.0215 157.2703 1.1684 -2.2538 -8.2555
# 4 -2.5011 6.4486 1.1684 26.1299 -0.1628 0.1851
# 5 5.7645 1.3662 -2.2538 -0.1628 35.2437 12.4494
# 6 -12.2230 -6.1951 -8.2555 0.1851 12.4494 28.6791
#
#
#
# Elastic Compliance Matrix: (Units=1/GPa)
#
#
# Indices 1 2 3 4 5 6 
#
# 1 0.009277 -0.004322 -0.001804 0.001992 -0.002758 0.003685
# 2 -0.004322 0.017639 -0.001557 -0.004715 -0.000763 0.001882
# 3 -0.001804 -0.001557 0.007180 -0.000111 0.000560 0.000719
# 4 0.001992 -0.004715 -0.000111 0.039635 0.000230 -0.000557
# 5 -0.002758 -0.000763 0.000560 0.000230 0.034616 -0.016207
# 6 0.003685 0.001882 0.000719 -0.000557 -0.016207 0.044092
#
#
# Mechanical properties :
#
#
# Convention : Reuss Voigt Hill
#
# Bulk Modulus (GPa) = 53.39254 65.79601 59.59428
# Shear Modulus (GPa) = 28.72771 35.33101 32.02936
#
# Velocity S-wave (km/s) = 3.62108 4.01574 3.82351
# Velocity P-wave (km/s) = 6.46939 7.17865 6.83323
#
# Compressibility (1/GPa) = 0.01872921
#
# Stress axis : x y z
#
# Youngs Moduli (GPa) = 107.79905 56.69146 139.28086
#
# Poissons Ratio (x) = 0.24501 0.25129
# Poissons Ratio (y) = 0.46589 0.21688
# Poissons Ratio (z) = 0.19449 0.08828
#
# Static dielectric constant tensor:
#      x y z
#    x 1.881630 0.006250 0.028480 
#    y 0.006250 1.831820 -0.003720 
#    z 0.028480 -0.003720 1.731210 
# 
# From -- ./inp_files/184314.got.cif
#   From: 2010.05.17/outbox.cif.g08.bks.cpg/sg2_93_cif.got.tgz:184314.got - 2010.06.03 11:33:40.
