data_PCOD9002923
_publ_section_title
;
Structure prediction by ZEFSAII (Michael W. Deem and Ramdas Pophale) SiO2 
 PCOD9002923
Probable space group: P -1
;
_chemical_formula_sum "Si O2"
_cell_formula_units_Z 14
_cell_length_a 23.142915
_cell_length_b 13.967163
_cell_length_c 5.212370
_cell_angle_alpha 82.060088
_cell_angle_beta 91.119474
_cell_angle_gamma 25.726831
_cell_volume 682.522655
_symmetry_space_group_name_H-M "P -1"
_symmetry_group_IT_number 2
_symmetry_cell_setting 'triclinic'
loop_
_space_group_symop_operation_xyz
x,y,z
-x,-y,-z
loop_
_atom_site_type_symbol
_atom_site_label
_atom_site_fract_x
_atom_site_fract_y
_atom_site_fract_z
Si Si1 0.732612 0.717334 0.349371
Si Si2 0.100234 0.594783 0.020047
Si Si3 0.577466 0.647278 0.928823
Si Si4 0.296203 0.009795 0.690928
Si Si5 0.864628 0.256076 0.275557
Si Si6 0.880084 0.767926 0.905298
Si Si7 0.390563 0.284718 0.609267
O O1 0.789210 0.615049 0.104320
O O2 0.712141 0.860821 0.348457
O O3 0.603256 0.839946 0.332044
O O4 0.844755 0.513706 0.652398
O O5 0.093806 0.718755 0.916080
O O6 0.958665 0.750537 0.903280
O O7 0.744149 0.371636 0.093404
O O8 0.531318 0.777850 0.131612
O O9 0.203643 0.113442 0.880237
O O10 0.464215 0.736169 0.840046
O O11 0.227474 0.081033 0.394520
O O12 0.577536 0.716278 0.656506
O O13 0.771659 0.444725 0.425870
O O14 0.000000 0.000000 0.500000
O O15 0.000000 0.500000 0.000000
#
# Coordination Sequence:
#
# PCOD9002923 Si02
#       7
#     2   2   2   2   2   2   2
#     4  11  18  34  52  82 116 145 183 227 273 328
#     4  11  21  36  56  85 113 142 195 234 268 330
#     4  10  21  37  53  86 113 148 185 226 285 339
#     4  12  23  34  58  81 118 162 179 224 275 332
#     4   9  21  40  63  84 107 143 188 242 293 329
#     4  12  22  37  56  81 117 157 196 220 264 325
#     4   9  19  35  53  82 115 140 180 233 276 341
#
# _framework density 20.512139000000001
#
# number of rings (size 3 to 8) (size 9 to 14) (size 15 to 20)
#    0.857    0.571    4.286    2.143    0.000    1.714 
#    0.000    0.000    0.000    1.714    0.000    0.000 
#    0.000    0.000    0.000    0.000    0.000    0.000 
#
# Total GULP energy -78105.996936 kJ/mol
# GULP energy per Si atom -5578.999781 kJ/mol
# Density = 2.046545 g / cm^3
# Si number density = 20.512139 Si / 1000 Ang^3
#
#
#
# Elastic Constant Matrix: (Units=GPa)
#
#
# Indices 1 2 3 4 5 6 
#
# 1 36.0421 15.8145 13.1770 -18.5689 8.9506 -21.0976
# 2 15.8145 56.6797 21.9476 -13.1787 -11.0373 -21.2664
# 3 13.1770 21.9476 110.4075 -6.7160 21.2922 -6.2157
# 4 -18.5689 -13.1787 -6.7160 36.0582 -9.8585 4.5774
# 5 8.9506 -11.0373 21.2922 -9.8585 34.4848 -0.5486
# 6 -21.0976 -21.2664 -6.2157 4.5774 -0.5486 27.5431
#
#
#
# Elastic Compliance Matrix: (Units=1/GPa)
#
#
# Indices 1 2 3 4 5 6 
#
# 1 0.081574 0.011293 -0.005664 0.036241 -0.002685 0.063849
# 2 0.011293 0.041270 -0.010839 0.020850 0.023489 0.035072
# 3 -0.005664 -0.010839 0.013356 -0.006626 -0.012280 -0.008837
# 4 0.036241 0.020850 -0.006626 0.053156 0.017093 0.033870
# 5 -0.002685 0.023489 -0.012280 0.017093 0.049864 0.011461
# 6 0.063849 0.035072 -0.008837 0.033870 0.011461 0.104899
#
#
# Mechanical properties :
#
#
# Convention : Reuss Voigt Hill
#
# Bulk Modulus (GPa) = 7.95039 33.88973 20.92006
# Shear Modulus (GPa) = 12.61145 29.76324 21.18735
#
# Velocity S-wave (km/s) = 2.48226 3.81334 3.21739
# Velocity P-wave (km/s) = 3.47849 5.99553 4.90134
#
# Compressibility (1/GPa) = 0.12578007
#
# Stress axis : x y z
#
# Youngs Moduli (GPa) = 12.25885 24.23050 74.87471
#
# Poissons Ratio (x) = -0.27363 0.42407
# Poissons Ratio (y) = -0.13844 0.81156
# Poissons Ratio (z) = 0.06943 0.26263
#
# Static dielectric constant tensor:
#      x y z
#    x 1.743010 -0.013630 0.035630 
#    y -0.013630 1.780970 -0.036810 
#    z 0.035630 -0.036810 1.755280 
# 
# From -- ./inp_files/127408.got.cif
#   From: 2010.05.17/outbox.cif.g08.bks.cpg/sg2_64_cif.got.tgz:127408.got - 2010.06.03 11:33:40.
