data_PCOD9002059
_publ_section_title
;
Structure prediction by ZEFSAII (Michael W. Deem and Ramdas Pophale) SiO2 
 PCOD9002059
Probable space group: P -1
;
_chemical_formula_sum "Si O2"
_cell_formula_units_Z 14
_cell_length_a 5.067198
_cell_length_b 14.444926
_cell_length_c 13.490516
_cell_angle_alpha 46.992561
_cell_angle_beta 66.019731
_cell_angle_gamma 69.026628
_cell_volume 654.924018
_symmetry_space_group_name_H-M "P -1"
_symmetry_group_IT_number 2
_symmetry_cell_setting 'triclinic'
loop_
_space_group_symop_operation_xyz
x,y,z
-x,-y,-z
loop_
_atom_site_type_symbol
_atom_site_label
_atom_site_fract_x
_atom_site_fract_y
_atom_site_fract_z
Si Si1 0.164389 0.694168 0.946915
Si Si2 0.866170 0.844642 0.569040
Si Si3 0.648030 0.038651 0.297472
Si Si4 0.589081 0.933299 0.174022
Si Si5 0.247871 0.826325 0.142667
Si Si6 0.455671 0.399163 0.857151
Si Si7 0.398372 0.681257 0.698944
O O1 0.267334 0.662024 0.842633
O O2 0.179868 0.845093 0.847521
O O3 0.366772 0.686180 0.190767
O O4 0.375681 0.623641 0.047849
O O5 0.835576 0.954869 0.411584
O O6 0.710721 0.728691 0.632077
O O7 0.180117 0.792588 0.600080
O O8 0.649005 0.897654 0.652161
O O9 0.574053 0.955776 0.276366
O O10 0.341242 0.862631 0.212389
O O11 0.903482 0.855638 0.159321
O O12 0.599967 0.072529 0.021477
O O13 0.849781 0.654327 0.042774
O O14 0.412530 0.549496 0.734875
#
# Coordination Sequence:
#
# PCOD9002059 Si02
#       7
#     2   2   2   2   2   2   2
#     4  11  22  34  60  90 114 155 188 238 302 348
#     4  10  24  40  60  89 113 160 198 230 290 343
#     4  10  22  40  63  86 122 148 194 249 287 341
#     4  10  21  36  57  83 119 144 190 242 288 344
#     4  10  22  35  55  87 114 152 189 229 300 343
#     4  12  22  38  58  85 123 154 188 240 290 350
#     4  11  23  39  57  84 122 155 197 232 281 355
#
# _framework density 21.376524
#
# number of rings (size 3 to 8) (size 9 to 14) (size 15 to 20)
#    0.000    1.429    1.429    4.286    4.000    8.571 
#    0.000    0.000    0.000    5.143    0.000    0.000 
#    0.000    0.000    0.000    0.000    0.000    0.000 
#
# Total GULP energy -78404.063766 kJ/mol
# GULP energy per Si atom -5600.290269 kJ/mol
# Density = 2.132787 g / cm^3
# Si number density = 21.376524 Si / 1000 Ang^3
#
#
#
# Elastic Constant Matrix: (Units=GPa)
#
#
# Indices 1 2 3 4 5 6 
#
# 1 71.8845 8.6432 9.8128 2.8472 14.9386 7.4659
# 2 8.6432 117.7109 16.6856 -7.7659 7.7257 -4.7009
# 3 9.8128 16.6856 50.0962 -4.4961 12.3340 3.8970
# 4 2.8472 -7.7659 -4.4961 21.4571 7.0866 8.0007
# 5 14.9386 7.7257 12.3340 7.0866 25.0356 1.3485
# 6 7.4659 -4.7009 3.8970 8.0007 1.3485 19.2730
#
#
#
# Elastic Compliance Matrix: (Units=1/GPa)
#
#
# Indices 1 2 3 4 5 6 
#
# 1 0.016808 -0.000638 0.000568 0.004130 -0.010864 -0.007736
# 2 -0.000638 0.009292 -0.002268 0.003045 -0.002332 0.001871
# 3 0.000568 -0.002268 0.026711 0.014118 -0.016207 -0.010901
# 4 0.004130 0.003045 0.014118 0.071319 -0.028862 -0.031299
# 5 -0.010864 -0.002332 -0.016207 -0.028862 0.062517 0.014524
# 6 -0.007736 0.001871 -0.010901 -0.031299 0.014524 0.069520
#
#
# Mechanical properties :
#
#
# Convention : Reuss Voigt Hill
#
# Bulk Modulus (GPa) = 20.77509 34.44165 27.60837
# Shear Modulus (GPa) = 18.05765 26.78982 22.42373
#
# Velocity S-wave (km/s) = 2.90960 3.54395 3.24232
# Velocity P-wave (km/s) = 4.58557 5.73524 5.19232
#
# Compressibility (1/GPa) = 0.04813457
#
# Stress axis : x y z
#
# Youngs Moduli (GPa) = 59.49522 107.61431 37.43725
#
# Poissons Ratio (x) = 0.06866 -0.02125
# Poissons Ratio (y) = 0.03796 0.08491
# Poissons Ratio (z) = -0.03377 0.24409
#
# Static dielectric constant tensor:
#      x y z
#    x 1.758550 0.004460 -0.008540 
#    y 0.004460 1.777910 0.004460 
#    z -0.008540 0.004460 1.763670 
# 
# From -- ./inp_files/362713.got.cif
#   From: 2010.05.17/outbox.cif.g08.bks.cpg/sg2_182_cif.got.tgz:362713.got - 2010.06.03 11:33:40.
