data_PCOD9002846
_publ_section_title
;
Structure prediction by ZEFSAII (Michael W. Deem and Ramdas Pophale) SiO2 
 PCOD9002846
Probable space group: P -1
;
_chemical_formula_sum "Si O2"
_cell_formula_units_Z 16
_cell_length_a 7.690926
_cell_length_b 6.067013
_cell_length_c 19.187922
_cell_angle_alpha 119.013863
_cell_angle_beta 67.413019
_cell_angle_gamma 78.695453
_cell_volume 636.735786
_symmetry_space_group_name_H-M "P -1"
_symmetry_group_IT_number 2
_symmetry_cell_setting 'triclinic'
loop_
_space_group_symop_operation_xyz
x,y,z
-x,-y,-z
loop_
_atom_site_type_symbol
_atom_site_label
_atom_site_fract_x
_atom_site_fract_y
_atom_site_fract_z
Si Si1 0.723193 0.653393 0.802548
Si Si2 0.390743 0.337050 0.036537
Si Si3 0.185285 0.778146 0.386607
Si Si4 0.579643 0.764615 0.259501
Si Si5 0.066989 0.825940 0.816189
Si Si6 0.751595 0.160395 0.352573
Si Si7 0.730939 0.847254 0.100685
Si Si8 0.415418 0.772853 0.480664
O O1 0.692203 0.499994 0.852583
O O2 0.848193 0.454769 0.687532
O O3 0.492840 0.869978 0.840020
O O4 0.853757 0.802121 0.838078
O O5 0.500000 0.500000 0.000000
O O6 0.500000 0.000000 0.000000
O O7 0.225348 0.336036 0.004376
O O8 0.330133 0.849184 0.320276
O O9 0.363405 0.650880 0.400888
O O10 0.000000 0.000000 0.500000
O O11 0.745110 0.478416 0.231870
O O12 0.604316 0.021352 0.330594
O O13 0.670056 0.730075 0.161529
O O14 0.095293 0.905590 0.745286
O O15 0.091734 0.054734 0.895818
O O16 0.625817 0.498556 0.432147
O O17 0.795024 0.085088 0.415331
O O18 0.500000 0.000000 0.500000
#
# Coordination Sequence:
#
# PCOD9002846 Si02
#       8
#     2   2   2   2   2   2   2   2
#     4  11  25  47  70 107 146 184 249 297 361 447
#     4  10  23  47  81 112 150 197 241 307 376 445
#     4  12  25  37  64  96 135 188 237 294 357 432
#     4  11  21  44  67  94 144 184 231 298 364 428
#     4  11  23  43  71 104 143 185 236 298 367 434
#     4  10  21  36  66  85 125 182 231 291 358 422
#     4  10  23  46  77 102 143 192 233 298 376 433
#     4  11  21  39  60  85 121 175 242 291 349 419
#
# _framework density 25.128160000000001
#
# number of rings (size 3 to 8) (size 9 to 14) (size 15 to 20)
#    0.000    1.250    3.750    1.500    5.250    1.500 
#   11.250    2.500    0.000    0.000    0.000    0.000 
#    0.000    0.000    0.000    0.000    0.000    0.000 
#
# Total GULP energy -89073.590231 kJ/mol
# GULP energy per Si atom -5567.099389 kJ/mol
# Density = 2.507097 g / cm^3
# Si number density = 25.128160 Si / 1000 Ang^3
#
#
#
# Elastic Constant Matrix: (Units=GPa)
#
#
# Indices 1 2 3 4 5 6 
#
# 1 113.3377 39.2546 53.4148 -4.4154 17.9802 23.6237
# 2 39.2546 104.8770 45.6390 -4.1436 9.3276 -3.0007
# 3 53.4148 45.6390 125.2694 -25.6067 30.7263 -12.3503
# 4 -4.4154 -4.1436 -25.6067 60.5001 -14.7960 -0.2797
# 5 17.9802 9.3276 30.7263 -14.7960 36.6994 0.1581
# 6 23.6237 -3.0007 -12.3503 -0.2797 0.1581 38.3837
#
#
#
# Elastic Compliance Matrix: (Units=1/GPa)
#
#
# Indices 1 2 3 4 5 6 
#
# 1 0.015985 -0.003275 -0.006795 -0.002549 -0.002285 -0.012289
# 2 -0.003275 0.012083 -0.003153 -0.000502 0.000963 0.001938
# 3 -0.006795 -0.003153 0.015540 0.004133 -0.007252 0.008996
# 4 -0.002549 -0.000502 0.004133 0.019480 0.005757 0.002978
# 5 -0.002285 0.000963 -0.007252 0.005757 0.036520 -0.000960
# 6 -0.012289 0.001938 0.008996 0.002978 -0.000960 0.036688
#
#
# Mechanical properties :
#
#
# Convention : Reuss Voigt Hill
#
# Bulk Modulus (GPa) = 58.27350 68.90014 63.58682
# Shear Modulus (GPa) = 29.68034 40.79502 35.23768
#
# Velocity S-wave (km/s) = 3.44053 4.03361 3.74882
# Velocity P-wave (km/s) = 6.24691 7.01230 6.64064
#
# Compressibility (1/GPa) = 0.01716046
#
# Stress axis : x y z
#
# Youngs Moduli (GPa) = 62.56007 82.76059 64.35169
#
# Poissons Ratio (x) = 0.27105 0.43727
# Poissons Ratio (y) = 0.20489 0.20292
# Poissons Ratio (z) = 0.42509 0.26097
#
# Static dielectric constant tensor:
#      x y z
#    x 1.692630 -0.026900 -0.115200 
#    y -0.026900 2.307310 -0.156320 
#    z -0.115200 -0.156320 2.111770 
# 
# From -- ./inp_files/585858.got.cif
#   From: 2010.05.17/outbox.cif.g08.bks.cpg/sg2_293_cif.got.tgz:585858.got - 2010.06.03 11:33:40.
