data_PCOD9002165
_publ_section_title
;
Structure prediction by ZEFSAII (Michael W. Deem and Ramdas Pophale) SiO2 
 PCOD9002165
Probable space group: P -1
;
_chemical_formula_sum "Si O2"
_cell_formula_units_Z 16
_cell_length_a 5.325609
_cell_length_b 10.716483
_cell_length_c 21.857864
_cell_angle_alpha 133.785305
_cell_angle_beta 45.377751
_cell_angle_gamma 127.142292
_cell_volume 623.944999
_symmetry_space_group_name_H-M "P -1"
_symmetry_group_IT_number 2
_symmetry_cell_setting 'triclinic'
loop_
_space_group_symop_operation_xyz
x,y,z
-x,-y,-z
loop_
_atom_site_type_symbol
_atom_site_label
_atom_site_fract_x
_atom_site_fract_y
_atom_site_fract_z
Si Si1 0.718957 0.049877 0.242292
Si Si2 0.607647 0.310585 0.990970
Si Si3 0.932292 0.062993 0.445995
Si Si4 0.821983 0.701347 0.408914
Si Si5 0.435271 0.338778 0.893024
Si Si6 0.118194 0.760620 0.604354
Si Si7 0.339730 0.659723 0.749938
Si Si8 0.541988 0.059456 0.083782
O O1 0.629481 0.134764 0.349633
O O2 0.728129 0.182233 0.228866
O O3 0.137200 0.037261 0.172686
O O4 0.508717 0.847315 0.203388
O O5 0.640485 0.356987 0.929122
O O6 0.991265 0.314078 0.959572
O O7 0.344257 0.115026 0.968229
O O8 0.456997 0.474870 0.098282
O O9 0.017124 0.108850 0.375859
O O10 0.013777 0.244575 0.533710
O O11 0.500000 0.000000 0.500000
O O12 0.999574 0.883184 0.404336
O O13 0.391314 0.673738 0.489337
O O14 0.869162 0.529076 0.305754
O O15 0.763034 0.655787 0.664588
O O16 0.293845 0.740784 0.852772
O O17 0.500000 0.000000 0.000000
#
# Coordination Sequence:
#
# PCOD9002165 Si02
#       8
#     2   2   2   2   2   2   2   2
#     4  10  21  36  58  86 122 159 205 267 315 376
#     4   9  17  34  59  82 111 158 203 257 317 380
#     4   9  20  39  62  85 125 166 203 256 315 381
#     4  10  21  39  63  91 126 169 206 253 322 387
#     4   9  17  33  58  84 114 153 205 256 317 377
#     4  10  21  37  62  92 124 165 205 262 316 377
#     4  11  22  38  62  92 126 162 215 265 317 390
#     4  10  22  40  59  82 125 166 209 264 328 383
#
# _framework density 25.643287999999998
#
# number of rings (size 3 to 8) (size 9 to 14) (size 15 to 20)
#    0.000    2.250    1.250    1.125    0.000    6.500 
#    2.250    0.000    2.750    0.000    0.000    0.000 
#    0.000    0.000    0.000    0.000    0.000    0.000 
#
# Total GULP energy -89100.453001 kJ/mol
# GULP energy per Si atom -5568.778313 kJ/mol
# Density = 2.558492 g / cm^3
# Si number density = 25.643288 Si / 1000 Ang^3
#
#
#
# Elastic Constant Matrix: (Units=GPa)
#
#
# Indices 1 2 3 4 5 6 
#
# 1 96.3415 12.2158 33.5857 16.9970 31.3093 -1.2214
# 2 12.2158 54.8562 46.8583 31.3994 16.7866 21.6971
# 3 33.5857 46.8583 181.5925 35.9420 38.7957 6.4085
# 4 16.9970 31.3994 35.9420 56.3661 12.8357 7.2566
# 5 31.3093 16.7866 38.7957 12.8357 45.2122 -0.0433
# 6 -1.2214 21.6971 6.4085 7.2566 -0.0433 40.5210
#
#
#
# Elastic Compliance Matrix: (Units=1/GPa)
#
#
# Indices 1 2 3 4 5 6 
#
# 1 0.013723 0.001610 -0.000527 -0.002690 -0.008885 0.000107
# 2 0.001610 0.041131 -0.005616 -0.015854 -0.007084 -0.018255
# 3 -0.000527 -0.005616 0.008111 -0.001181 -0.004173 0.001915
# 4 -0.002690 -0.015854 -0.001181 0.027441 0.000975 0.003681
# 5 -0.008885 -0.007084 -0.004173 0.000975 0.034209 0.004047
# 6 0.000107 -0.018255 0.001915 0.003681 0.004047 0.033499
#
#
# Mechanical properties :
#
#
# Convention : Reuss Voigt Hill
#
# Bulk Modulus (GPa) = 18.55293 57.56775 38.06034
# Shear Modulus (GPa) = 27.00609 44.42856 35.71732
#
# Velocity S-wave (km/s) = 3.24874 4.16692 3.73614
# Velocity P-wave (km/s) = 4.61770 6.75641 5.78672
#
# Compressibility (1/GPa) = 0.05389983
#
# Stress axis : x y z
#
# Youngs Moduli (GPa) = 72.87299 24.31278 123.28871
#
# Poissons Ratio (x) = -0.03915 0.06494
# Poissons Ratio (y) = -0.11734 0.69234
# Poissons Ratio (z) = 0.03838 0.13653
#
# Static dielectric constant tensor:
#      x y z
#    x 2.150800 0.078430 -0.030140 
#    y 0.078430 2.198100 0.018960 
#    z -0.030140 0.018960 2.106550 
# 
# From -- ./inp_files/604450.got.cif
#   From: 2010.05.17/outbox.cif.g08.bks.cpg/sg2_303_cif.got.tgz:604450.got - 2010.06.03 11:33:40.
