data_PCOD9002235
_publ_section_title
;
Structure prediction by ZEFSAII (Michael W. Deem and Ramdas Pophale) SiO2 
 PCOD9002235
Probable space group: P -1
;
_chemical_formula_sum "Si O2"
_cell_formula_units_Z 16
_cell_length_a 12.954800
_cell_length_b 28.942159
_cell_length_c 28.011582
_cell_angle_alpha 170.104973
_cell_angle_beta 27.449165
_cell_angle_gamma 153.668341
_cell_volume 799.152197
_symmetry_space_group_name_H-M "P -1"
_symmetry_group_IT_number 2
_symmetry_cell_setting 'triclinic'
loop_
_space_group_symop_operation_xyz
x,y,z
-x,-y,-z
loop_
_atom_site_type_symbol
_atom_site_label
_atom_site_fract_x
_atom_site_fract_y
_atom_site_fract_z
Si Si1 0.017276 0.947293 0.108202
Si Si2 0.487973 0.205594 0.122046
Si Si3 0.692274 0.324626 0.593867
Si Si4 0.262032 0.823126 0.679040
Si Si5 0.591799 0.823154 0.349298
Si Si6 0.712802 0.625651 0.719191
Si Si7 0.225313 0.205667 0.384787
Si Si8 0.206224 0.625633 0.225749
O O1 0.247026 0.025319 0.060708
O O2 0.100214 0.025381 0.207581
O O3 0.856159 0.136669 0.351276
O O4 0.855564 0.636382 0.851200
O O5 0.437558 0.314857 0.202135
O O6 0.594259 0.499963 0.405708
O O7 0.652956 0.999958 0.846995
O O8 0.631790 0.251705 0.489447
O O9 0.476815 0.251658 0.644378
O O10 0.349614 0.677913 0.540284
O O11 0.980980 0.689365 0.656333
O O12 0.295431 0.148321 0.006567
O O13 0.362856 0.689386 0.274474
O O14 0.665603 0.148346 0.636424
O O15 0.786323 0.677929 0.103582
O O16 0.036964 0.314913 0.602799
#
# Coordination Sequence:
#
# PCOD9002235 Si02
#       8
#     2   2   2   2   2   2   2   2
#     4  12  24  37  54  86 124 159 196 217 269 354
#     4  12  24  39  57  82 119 163 198 229 272 336
#     4  12  22  37  60  88 118 155 182 235 297 350
#     4  10  21  36  59  82 114 145 189 240 294 335
#     4  10  21  36  59  82 114 145 189 240 294 335
#     4  10  21  37  57  83 110 151 192 241 279 332
#     4  12  24  39  57  82 119 163 198 229 272 336
#     4  10  21  37  57  83 110 151 192 241 279 332
#
# _framework density 20.021218000000001
#
# number of rings (size 3 to 8) (size 9 to 14) (size 15 to 20)
#    0.000    1.000    2.500    5.250    7.000    0.000 
#    0.000    0.000    0.000    0.000    0.000   17.500 
#    0.000    0.000    0.000    0.000    0.000    0.000 
#
# Total GULP energy -89443.348895 kJ/mol
# GULP energy per Si atom -5590.209306 kJ/mol
# Density = 1.997565 g / cm^3
# Si number density = 20.021218 Si / 1000 Ang^3
#
#
#
# Elastic Constant Matrix: (Units=GPa)
#
#
# Indices 1 2 3 4 5 6 
#
# 1 84.1384 2.0091 10.2080 -5.4032 -17.2997 -16.2145
# 2 2.0091 64.3752 12.1707 -19.6629 2.3486 -13.9435
# 3 10.2080 12.1707 110.2248 -6.3524 -21.5273 -0.9725
# 4 -5.4032 -19.6629 -6.3524 35.8098 8.7591 -3.8613
# 5 -17.2997 2.3486 -21.5273 8.7591 36.6797 -7.5705
# 6 -16.2145 -13.9435 -0.9725 -3.8613 -7.5705 23.4870
#
#
#
# Elastic Compliance Matrix: (Units=1/GPa)
#
#
# Indices 1 2 3 4 5 6 
#
# 1 0.018223 0.004655 0.000504 0.004708 0.011569 0.019867
# 2 0.004655 0.025385 -0.002167 0.016590 -0.000370 0.020803
# 3 0.000504 -0.002167 0.010631 -0.000796 0.007152 0.001677
# 4 0.004708 0.016590 -0.000796 0.040857 -0.005338 0.018062
# 5 0.011569 -0.000370 0.007152 -0.005338 0.042528 0.020894
# 6 0.019867 0.020803 0.001677 0.018062 0.020894 0.078416
#
#
# Mechanical properties :
#
#
# Convention : Reuss Voigt Hill
#
# Bulk Modulus (GPa) = 16.60475 34.16821 25.38648
# Shear Modulus (GPa) = 21.72708 34.81866 28.27287
#
# Velocity S-wave (km/s) = 3.29781 4.17476 3.76193
# Velocity P-wave (km/s) = 4.77623 6.35147 5.61932
#
# Compressibility (1/GPa) = 0.06022371
#
# Stress axis : x y z
#
# Youngs Moduli (GPa) = 54.87713 39.39353 94.06829
#
# Poissons Ratio (x) = -0.18338 -0.04745
# Poissons Ratio (y) = -0.25545 0.20381
# Poissons Ratio (z) = -0.02768 0.08535
#
# Static dielectric constant tensor:
#      x y z
#    x 1.735850 -0.031230 0.022170 
#    y -0.031230 1.742790 -0.003140 
#    z 0.022170 -0.003140 1.685520 
# 
# From -- ./inp_files/618847.got.cif
#   From: 2010.05.17/outbox.cif.g08.bks.cpg/sg2_310_cif.got.tgz:618847.got - 2010.06.03 11:33:40.
