data_PCOD9002380
_publ_section_title
;
Structure prediction by ZEFSAII (Michael W. Deem and Ramdas Pophale) SiO2 
 PCOD9002380
Probable space group: P -1
;
_chemical_formula_sum "Si O2"
_cell_formula_units_Z 16
_cell_length_a 6.484689
_cell_length_b 20.157199
_cell_length_c 8.865872
_cell_angle_alpha 47.491438
_cell_angle_beta 60.605625
_cell_angle_gamma 58.933515
_cell_volume 712.990335
_symmetry_space_group_name_H-M "P -1"
_symmetry_group_IT_number 2
_symmetry_cell_setting 'triclinic'
loop_
_space_group_symop_operation_xyz
x,y,z
-x,-y,-z
loop_
_atom_site_type_symbol
_atom_site_label
_atom_site_fract_x
_atom_site_fract_y
_atom_site_fract_z
Si Si1 0.594652 0.543121 0.545824
Si Si2 0.547748 0.102103 0.887029
Si Si3 0.565934 0.095686 0.226580
Si Si4 0.954268 0.381897 0.839662
Si Si5 0.793208 0.267241 0.566286
Si Si6 0.985449 0.201920 0.907526
Si Si7 0.254230 0.923127 0.483694
Si Si8 0.982002 0.771856 0.754959
O O1 0.500000 0.500000 0.500000
O O2 0.716878 0.462117 0.746474
O O3 0.377581 0.627975 0.559559
O O4 0.811044 0.585747 0.343660
O O5 0.616909 0.199349 0.736656
O O6 0.667554 0.064950 0.737154
O O7 0.255096 0.130215 0.923301
O O8 0.619350 0.050858 0.104251
O O9 0.578712 0.064174 0.450552
O O10 0.291236 0.166176 0.196765
O O11 0.778826 0.148598 0.077646
O O12 0.967606 0.281826 0.913679
O O13 0.967845 0.340297 0.065291
O O14 0.929408 0.260916 0.684466
O O15 0.999427 0.222723 0.439586
O O16 0.186490 0.823638 0.655443
O O17 0.000000 0.000000 0.500000
#
# Coordination Sequence:
#
# PCOD9002380 Si02
#       8
#     2   2   2   2   2   2   2   2
#     4  11  22  36  59  88 121 163 207 258 305 353
#     4  10  21  39  66  91 122 164 209 249 306 377
#     4  11  21  39  67  89 121 166 207 249 308 371
#     4  11  21  36  62  85 120 159 207 253 300 361
#     4  10  21  36  60  88 123 164 207 253 310 362
#     4  11  18  38  65  88 115 164 214 243 298 371
#     4  11  25  43  65  97 127 156 203 262 311 369
#     4  11  23  42  62  91 123 163 207 252 308 376
#
# _framework density 22.440698999999999
#
# number of rings (size 3 to 8) (size 9 to 14) (size 15 to 20)
#    0.000    1.250    5.000    1.500    0.000    1.500 
#    0.000    3.125    0.000    0.000    0.000    0.000 
#    0.000    0.000    0.000    0.000    0.000    0.000 
#
# Total GULP energy -89174.636490 kJ/mol
# GULP energy per Si atom -5573.414781 kJ/mol
# Density = 2.238962 g / cm^3
# Si number density = 22.440699 Si / 1000 Ang^3
#
#
#
# Elastic Constant Matrix: (Units=GPa)
#
#
# Indices 1 2 3 4 5 6 
#
# 1 79.5229 11.3647 13.7836 11.7286 10.6765 -5.1114
# 2 11.3647 76.7809 25.9146 14.7593 5.9679 0.0305
# 3 13.7836 25.9146 92.9891 18.0191 20.7571 -8.1817
# 4 11.7286 14.7593 18.0191 38.6592 -2.2450 0.2371
# 5 10.6765 5.9679 20.7571 -2.2450 34.6775 -9.4581
# 6 -5.1114 0.0305 -8.1817 0.2371 -9.4581 21.9295
#
#
#
# Elastic Compliance Matrix: (Units=1/GPa)
#
#
# Indices 1 2 3 4 5 6 
#
# 1 0.013953 -0.000976 0.000029 -0.004115 -0.003977 0.001594
# 2 -0.000976 0.015114 -0.003189 -0.004044 -0.001172 -0.001900
# 3 0.000029 -0.003189 0.014850 -0.006201 -0.008180 0.002091
# 4 -0.004115 -0.004044 -0.006201 0.031996 0.007662 -0.000308
# 5 -0.003977 -0.001172 -0.008180 0.007662 0.039154 0.012827
# 6 0.001594 -0.001900 0.002091 -0.000308 0.012827 0.052290
#
#
# Mechanical properties :
#
#
# Convention : Reuss Voigt Hill
#
# Bulk Modulus (GPa) = 28.05464 39.04651 33.55057
# Shear Modulus (GPa) = 26.66516 32.26860 29.46688
#
# Velocity S-wave (km/s) = 3.45084 3.79614 3.62760
# Velocity P-wave (km/s) = 5.32978 6.05408 5.70344
#
# Compressibility (1/GPa) = 0.03564473
#
# Stress axis : x y z
#
# Youngs Moduli (GPa) = 71.67114 66.16314 67.34043
#
# Poissons Ratio (x) = 0.06454 -0.00195
# Poissons Ratio (y) = 0.06992 0.21478
# Poissons Ratio (z) = -0.00208 0.21102
#
# Static dielectric constant tensor:
#      x y z
#    x 1.869300 0.062610 0.096100 
#    y 0.062610 1.804500 0.022290 
#    z 0.096100 0.022290 2.023570 
# 
# From -- ./inp_files/49172.got.cif
#   From: 2010.05.17/outbox.cif.g08.bks.cpg/sg2_25_cif.got.tgz:49172.got - 2010.06.03 11:33:40.
