data_PCOD9002888
_publ_section_title
;
Structure prediction by ZEFSAII (Michael W. Deem and Ramdas Pophale) SiO2 
 PCOD9002888
Probable space group: P -1
;
_chemical_formula_sum "Si O2"
_cell_formula_units_Z 16
_cell_length_a 5.230743
_cell_length_b 9.318845
_cell_length_c 25.742298
_cell_angle_alpha 134.510537
_cell_angle_beta 123.826353
_cell_angle_gamma 80.182732
_cell_volume 690.321198
_symmetry_space_group_name_H-M "P -1"
_symmetry_group_IT_number 2
_symmetry_cell_setting 'triclinic'
loop_
_space_group_symop_operation_xyz
x,y,z
-x,-y,-z
loop_
_atom_site_type_symbol
_atom_site_label
_atom_site_fract_x
_atom_site_fract_y
_atom_site_fract_z
Si Si1 0.884958 0.413307 0.624086
Si Si2 0.039312 0.059542 0.591292
Si Si3 0.778924 0.312550 0.699248
Si Si4 0.180738 0.660176 0.515167
Si Si5 0.639904 0.162080 0.236212
Si Si6 0.104274 0.410867 0.865662
Si Si7 0.302513 0.061671 0.279747
Si Si8 0.281175 0.697245 0.053645
O O1 0.760379 0.431371 0.672843
O O2 0.765020 0.437401 0.558558
O O3 0.843367 0.160169 0.555972
O O4 0.258911 0.595967 0.713225
O O5 0.417482 0.188978 0.650291
O O6 0.952243 0.145078 0.657634
O O7 0.958691 0.807163 0.518411
O O8 0.014610 0.448336 0.806473
O O9 0.520070 0.827360 0.619557
O O10 0.000000 0.500000 0.500000
O O11 0.558204 0.160965 0.287349
O O12 0.975800 0.118393 0.250625
O O13 0.335417 0.949410 0.128312
O O14 0.399073 0.324596 0.888223
O O15 0.216035 0.622869 0.967717
O O16 0.795998 0.197725 0.796251
O O17 0.000000 0.500000 0.000000
#
# Coordination Sequence:
#
# PCOD9002888 Si02
#       8
#     2   2   2   2   2   2   2   2
#     4  10  26  44  67  93 140 176 228 260 333 389
#     4  10  25  46  63  96 129 185 218 267 324 396
#     4  10  24  42  70  86 135 179 220 257 331 394
#     4  12  24  44  69 104 131 177 226 283 321 385
#     4  11  24  43  63  98 134 176 213 279 332 391
#     4  10  21  40  63 100 129 173 212 275 330 399
#     4  11  24  40  65  97 137 168 222 275 337 371
#     4  10  21  36  68 100 131 161 220 275 338 385
#
# _framework density 23.177616
#
# number of rings (size 3 to 8) (size 9 to 14) (size 15 to 20)
#    0.750    0.750    3.750    0.375    7.000    1.000 
#    4.500    0.625    0.000    1.500    0.000    0.000 
#    0.000    0.000    0.000    0.000    0.000    0.000 
#
# Total GULP energy -89170.490025 kJ/mol
# GULP energy per Si atom -5573.155627 kJ/mol
# Density = 2.312486 g / cm^3
# Si number density = 23.177616 Si / 1000 Ang^3
#
#
#
# Elastic Constant Matrix: (Units=GPa)
#
#
# Indices 1 2 3 4 5 6 
#
# 1 88.3728 25.1477 18.0358 -3.9825 -0.5548 28.3573
# 2 25.1477 102.0830 39.1125 9.0807 -2.4204 23.0197
# 3 18.0358 39.1125 110.5729 -0.8593 4.1276 5.3178
# 4 -3.9825 9.0807 -0.8593 48.2109 6.2830 -3.2751
# 5 -0.5548 -2.4204 4.1276 6.2830 29.9578 10.6081
# 6 28.3573 23.0197 5.3178 -3.2751 10.6081 26.9743
#
#
#
# Elastic Compliance Matrix: (Units=1/GPa)
#
#
# Indices 1 2 3 4 5 6 
#
# 1 0.020045 0.003184 -0.003501 -0.002401 0.011499 -0.027914
# 2 0.003184 0.017022 -0.005956 -0.006000 0.011251 -0.021853
# 3 -0.003501 -0.005956 0.011522 0.002419 -0.005860 0.009091
# 4 -0.002401 -0.006000 0.002419 0.024136 -0.011038 0.014439
# 5 0.011499 0.011251 -0.005860 -0.011038 0.052711 -0.042605
# 6 -0.027914 -0.021853 0.009091 0.014439 -0.042605 0.101782
#
#
# Mechanical properties :
#
#
# Convention : Reuss Voigt Hill
#
# Bulk Modulus (GPa) = 27.74495 51.73563 39.74029
# Shear Modulus (GPa) = 19.85862 35.61077 27.73470
#
# Velocity S-wave (km/s) = 2.93029 3.92398 3.46297
# Velocity P-wave (km/s) = 4.84204 6.54981 5.75958
#
# Compressibility (1/GPa) = 0.03604259
#
# Stress axis : x y z
#
# Youngs Moduli (GPa) = 49.88743 58.74767 86.78949
#
# Poissons Ratio (x) = -0.18707 0.30389
# Poissons Ratio (y) = -0.15885 0.51693
# Poissons Ratio (z) = 0.17468 0.34991
#
# Static dielectric constant tensor:
#      x y z
#    x 1.973420 -0.042010 -0.025350 
#    y -0.042010 1.975890 0.044860 
#    z -0.025350 0.044860 1.942120 
# 
# From -- ./inp_files/615274.got.cif
#   From: 2010.05.17/outbox.cif.g08.bks.cpg/sg2_308_cif.got.tgz:615274.got - 2010.06.03 11:33:40.
