data_PCOD9002421
_publ_section_title
;
Structure prediction by ZEFSAII (Michael W. Deem and Ramdas Pophale) SiO2 
 PCOD9002421
Probable space group: P -1
;
_chemical_formula_sum "Si O2"
_cell_formula_units_Z 16
_cell_length_a 18.042105
_cell_length_b 11.060188
_cell_length_c 21.259301
_cell_angle_alpha 44.452981
_cell_angle_beta 160.429219
_cell_angle_gamma 144.839578
_cell_volume 782.458547
_symmetry_space_group_name_H-M "P -1"
_symmetry_group_IT_number 2
_symmetry_cell_setting 'triclinic'
loop_
_space_group_symop_operation_xyz
x,y,z
-x,-y,-z
loop_
_atom_site_type_symbol
_atom_site_label
_atom_site_fract_x
_atom_site_fract_y
_atom_site_fract_z
Si Si1 0.189437 0.789972 0.352490
Si Si2 0.395904 0.628892 0.232975
Si Si3 0.153004 0.565132 0.530687
Si Si4 0.743503 0.469265 0.597630
Si Si5 0.829169 0.304653 0.844914
Si Si6 0.067654 0.872259 0.545463
Si Si7 0.189824 0.103292 0.049707
Si Si8 0.196535 0.931643 0.770922
O O1 0.162089 0.726916 0.427409
O O2 0.147011 0.599610 0.345569
O O3 0.500000 0.000000 0.500000
O O4 0.970737 0.834102 0.144058
O O5 0.495707 0.479011 0.376287
O O6 0.280651 0.650192 0.198141
O O7 0.648341 0.881550 0.327063
O O8 0.161359 0.509186 0.035864
O O9 0.486728 0.684234 0.759372
O O10 0.000000 0.500000 0.500000
O O11 0.967050 0.329248 0.436570
O O12 0.677634 0.309584 0.661204
O O13 0.980092 0.718385 0.718659
O O14 0.797978 0.082904 0.901470
O O15 0.063762 0.843831 0.627604
O O16 0.829400 0.874613 0.319616
O O17 0.000000 0.000000 0.000000
O O18 0.500000 0.000000 0.000000
#
# Coordination Sequence:
#
# PCOD9002421 Si02
#       8
#     2   2   2   2   2   2   2   2
#     4  12  24  43  69 103 134 182 240 288 335 412
#     4  10  23  39  63  93 132 174 212 284 344 403
#     4  12  27  46  68 101 146 187 225 288 353 415
#     4  11  21  37  63  93 126 164 221 272 329 402
#     4  11  22  41  63  96 131 172 227 277 338 403
#     4  10  22  39  61  90 130 167 215 266 340 403
#     4  12  25  42  72 101 135 187 237 286 340 414
#     4  10  21  36  60  93 118 160 209 273 324 388
#
# _framework density 20.448367999999999
#
# number of rings (size 3 to 8) (size 9 to 14) (size 15 to 20)
#    0.000    1.000    3.750    2.625    1.750    0.500 
#    0.000    6.250    0.000    0.000    0.000    0.000 
#    0.000    0.000    0.000    0.000    0.000    0.000 
#
# Total GULP energy -89190.197704 kJ/mol
# GULP energy per Si atom -5574.387356 kJ/mol
# Density = 2.040183 g / cm^3
# Si number density = 20.448368 Si / 1000 Ang^3
#
#
#
# Elastic Constant Matrix: (Units=GPa)
#
#
# Indices 1 2 3 4 5 6 
#
# 1 72.3434 23.1030 -4.7102 -10.0076 0.5649 15.6800
# 2 23.1030 110.3221 36.7957 -18.2746 -3.6857 8.6914
# 3 -4.7102 36.7957 77.1749 -12.3852 -2.9065 18.1617
# 4 -10.0076 -18.2746 -12.3852 43.9511 2.3670 -2.4936
# 5 0.5649 -3.6857 -2.9065 2.3670 20.7895 -2.0721
# 6 15.6800 8.6914 18.1617 -2.4936 -2.0721 28.1505
#
#
#
# Elastic Compliance Matrix: (Units=1/GPa)
#
#
# Indices 1 2 3 4 5 6 
#
# 1 0.019374 -0.004838 0.007264 0.003780 -0.002175 -0.013809
# 2 -0.004838 0.012446 -0.006607 0.002326 0.001491 0.003431
# 3 0.007264 -0.006607 0.020704 0.003910 -0.000419 -0.015048
# 4 0.003780 0.002326 0.003910 0.025626 -0.002386 -0.003252
# 5 -0.002175 0.001491 -0.000419 -0.002386 0.049079 0.004423
# 6 -0.013809 0.003431 -0.015048 -0.003252 0.004423 0.051902
#
#
# Mechanical properties :
#
#
# Convention : Reuss Voigt Hill
#
# Bulk Modulus (GPa) = 22.64479 41.13526 31.89003
# Shear Modulus (GPa) = 24.72613 32.22168 28.47390
#
# Velocity S-wave (km/s) = 3.48112 3.97389 3.73564
# Velocity P-wave (km/s) = 5.22071 6.41997 5.85115
#
# Compressibility (1/GPa) = 0.04416027
#
# Stress axis : x y z
#
# Youngs Moduli (GPa) = 51.61535 80.34606 48.29941
#
# Poissons Ratio (x) = 0.38875 -0.35084
# Poissons Ratio (y) = 0.24974 0.31914
# Poissons Ratio (z) = -0.37493 0.53088
#
# Static dielectric constant tensor:
#      x y z
#    x 1.552100 0.061520 -0.036840 
#    y 0.061520 1.775340 0.029730 
#    z -0.036840 0.029730 1.714530 
# 
# From -- ./inp_files/532487.got.cif
#   From: 2010.05.17/outbox.cif.g08.bks.cpg/sg2_267_cif.got.tgz:532487.got - 2010.06.03 11:33:40.
