data_PCOD9002009
_publ_section_title
;
Structure prediction by ZEFSAII (Michael W. Deem and Ramdas Pophale) SiO2 
 PCOD9002009
Probable space group: P -1
;
_chemical_formula_sum "Si O2"
_cell_formula_units_Z 14
_cell_length_a 13.899018
_cell_length_b 9.000572
_cell_length_c 13.718822
_cell_angle_alpha 58.094480
_cell_angle_beta 30.652174
_cell_angle_gamma 79.257670
_cell_volume 582.859755
_symmetry_space_group_name_H-M "P -1"
_symmetry_group_IT_number 2
_symmetry_cell_setting 'triclinic'
loop_
_space_group_symop_operation_xyz
x,y,z
-x,-y,-z
loop_
_atom_site_type_symbol
_atom_site_label
_atom_site_fract_x
_atom_site_fract_y
_atom_site_fract_z
Si Si1 0.867801 0.340840 0.453566
Si Si2 0.525492 0.931772 0.745205
Si Si3 0.660360 0.552530 0.485528
Si Si4 0.272057 0.297131 0.079575
Si Si5 0.928969 0.884987 0.381649
Si Si6 0.684359 0.376568 0.800015
Si Si7 0.307469 0.131770 0.796172
O O1 0.869980 0.539019 0.339162
O O2 0.761315 0.300984 0.668351
O O3 0.675408 0.129092 0.626515
O O4 0.107650 0.365585 0.227160
O O5 0.702411 0.884354 0.569898
O O6 0.427528 0.010268 0.723768
O O7 0.314091 0.724829 0.065318
O O8 0.484052 0.473054 0.759141
O O9 0.498975 0.354430 0.616159
O O10 0.734435 0.776724 0.294511
O O11 0.410306 0.284206 0.052068
O O12 0.104088 0.062310 0.251073
O O13 0.840118 0.641238 0.569670
O O14 0.078540 0.978681 0.118875
#
# Coordination Sequence:
#
# PCOD9002009 Si02
#       7
#     2   2   2   2   2   2   2
#     4   9  19  35  58  83 110 150 188 226 283 334
#     4  10  21  36  56  85 115 148 190 229 276 337
#     4   8  16  34  58  82 110 144 186 233 278 330
#     4   9  20  38  58  84 115 146 184 233 281 329
#     4  10  22  37  56  84 114 150 190 226 278 336
#     4  11  22  37  57  84 117 148 187 232 275 335
#     4   9  18  34  56  83 113 144 185 235 278 326
#
# _framework density 24.019499
#
# number of rings (size 3 to 8) (size 9 to 14) (size 15 to 20)
#    0.000    2.571    0.000    1.714    0.000    6.286 
#    0.000    8.571    0.000    5.143    0.000    0.000 
#    0.000    0.000    0.000    0.000    0.000    0.000 
#
# Total GULP energy -78460.801649 kJ/mol
# GULP energy per Si atom -5604.342975 kJ/mol
# Density = 2.396483 g / cm^3
# Si number density = 24.019499 Si / 1000 Ang^3
#
#
#
# Elastic Constant Matrix: (Units=GPa)
#
#
# Indices 1 2 3 4 5 6 
#
# 1 81.4094 45.9094 27.6142 -10.6368 0.2752 -23.5397
# 2 45.9094 122.7048 45.1839 7.7574 -15.5451 -28.4761
# 3 27.6142 45.1839 79.5607 1.1931 -5.8458 -27.1120
# 4 -10.6368 7.7574 1.1931 39.6574 -12.3759 -7.0866
# 5 0.2752 -15.5451 -5.8458 -12.3759 28.0419 -14.1174
# 6 -23.5397 -28.4761 -27.1120 -7.0866 -14.1174 53.1453
#
#
#
# Elastic Compliance Matrix: (Units=1/GPa)
#
#
# Indices 1 2 3 4 5 6 
#
# 1 0.018660 -0.004843 -0.000925 0.008789 0.004646 0.007604
# 2 -0.004843 0.014024 -0.003231 0.000607 0.010770 0.006663
# 3 -0.000925 -0.003231 0.019049 0.004779 0.009736 0.010800
# 4 0.008789 0.000607 0.004779 0.039742 0.028634 0.019562
# 5 0.004646 0.010770 0.009736 0.028634 0.074592 0.036428
# 6 0.007604 0.006663 0.010800 0.019562 0.036428 0.043549
#
#
# Mechanical properties :
#
#
# Convention : Reuss Voigt Hill
#
# Bulk Modulus (GPa) = 29.64295 57.89889 43.77092
# Shear Modulus (GPa) = 20.93285 35.16674 28.04980
#
# Velocity S-wave (km/s) = 2.95531 3.83050 3.42101
# Velocity P-wave (km/s) = 4.90032 6.61218 5.81954
#
# Compressibility (1/GPa) = 0.03373483
#
# Stress axis : x y z
#
# Youngs Moduli (GPa) = 53.59032 71.30869 52.49622
#
# Poissons Ratio (x) = 0.34536 0.04857
# Poissons Ratio (y) = 0.25955 0.16959
# Poissons Ratio (z) = 0.04958 0.23037
#
# Static dielectric constant tensor:
#      x y z
#    x 1.927810 0.005910 -0.054500 
#    y 0.005910 1.902370 -0.037480 
#    z -0.054500 -0.037480 1.910240 
# 
# From -- ./inp_files/214643.got.cif
#   From: 2010.05.17/outbox.cif.g08.bks.cpg/sg2_108_cif.got.tgz:214643.got - 2010.06.03 11:33:40.
