data_PCOD9002125
_publ_section_title
;
Structure prediction by ZEFSAII (Michael W. Deem and Ramdas Pophale) SiO2 
 PCOD9002125
Probable space group: P -1
;
_chemical_formula_sum "Si O2"
_cell_formula_units_Z 12
_cell_length_a 11.036950
_cell_length_b 9.042214
_cell_length_c 9.585992
_cell_angle_alpha 135.672357
_cell_angle_beta 118.951733
_cell_angle_gamma 57.560310
_cell_volume 555.941538
_symmetry_space_group_name_H-M "P -1"
_symmetry_group_IT_number 2
_symmetry_cell_setting 'triclinic'
loop_
_space_group_symop_operation_xyz
x,y,z
-x,-y,-z
loop_
_atom_site_type_symbol
_atom_site_label
_atom_site_fract_x
_atom_site_fract_y
_atom_site_fract_z
Si Si1 0.150632 0.180109 0.994745
Si Si2 0.163107 0.633147 0.374593
Si Si3 0.259011 0.016386 0.639896
Si Si4 0.405370 0.232140 0.335465
Si Si5 0.233797 0.324367 0.571653
Si Si6 0.045670 0.789298 0.721835
O O1 0.183922 0.123735 0.813461
O O2 0.055062 0.036417 0.908126
O O3 0.094132 0.447097 0.158451
O O4 0.304806 0.107156 0.115399
O O5 0.177478 0.836690 0.428636
O O6 0.328626 0.480487 0.400335
O O7 0.085746 0.727698 0.539561
O O8 0.426912 0.884200 0.675435
O O9 0.256778 0.193545 0.639810
O O10 0.369951 0.255055 0.496205
O O11 0.168365 0.590653 0.733594
O O12 0.108256 0.251128 0.370072
#
# Coordination Sequence:
#
# PCOD9002125 Si02
#       6
#     2   2   2   2   2   2
#     4   9  20  36  58  81 103 147 177 218 267 318
#     4   8  19  35  58  80 102 147 173 218 269 313
#     4  11  19  36  57  83 110 134 183 226 258 317
#     4   9  19  37  55  81 109 145 174 210 279 322
#     4  10  21  36  58  78 109 147 173 225 269 309
#     4   9  19  41  55  74 112 144 182 212 272 322
#
# _framework density 21.585004000000001
#
# number of rings (size 3 to 8) (size 9 to 14) (size 15 to 20)
#    1.000    1.667    0.000    1.500    0.000    3.333 
#    3.000    2.500    0.000    0.000    0.000    0.000 
#    0.000    0.000    0.000    0.000    0.000    0.000 
#
# Total GULP energy -66927.851554 kJ/mol
# GULP energy per Si atom -5577.320963 kJ/mol
# Density = 2.153588 g / cm^3
# Si number density = 21.585004 Si / 1000 Ang^3
#
#
#
# Elastic Constant Matrix: (Units=GPa)
#
#
# Indices 1 2 3 4 5 6 
#
# 1 23.0572 21.5765 9.0121 10.1150 5.3770 1.3775
# 2 21.5765 95.1891 30.9063 3.6224 -3.4267 20.2911
# 3 9.0121 30.9063 69.8426 18.6755 7.2370 15.6261
# 4 10.1150 3.6224 18.6755 22.2422 7.3619 0.2365
# 5 5.3770 -3.4267 7.2370 7.3619 27.5190 -0.2626
# 6 1.3775 20.2911 15.6261 0.2365 -0.2626 40.0171
#
#
#
# Elastic Compliance Matrix: (Units=1/GPa)
#
#
# Indices 1 2 3 4 5 6 
#
# 1 0.076391 -0.020034 0.008538 -0.035324 -0.010175 0.004337
# 2 -0.020034 0.018582 -0.007848 0.010980 0.005301 -0.005698
# 3 0.008538 -0.007848 0.024080 -0.021695 -0.003228 -0.005610
# 4 -0.035324 0.010980 -0.021695 0.079847 -0.007351 0.003600
# 5 -0.010175 0.005301 -0.003228 -0.007351 0.041795 -0.000759
# 6 0.004337 -0.005698 -0.005610 0.003600 -0.000759 0.029894
#
#
# Mechanical properties :
#
#
# Convention : Reuss Voigt Hill
#
# Bulk Modulus (GPa) = 12.44333 34.56430 23.50381
# Shear Modulus (GPa) = 14.87800 26.39527 20.63663
#
# Velocity S-wave (km/s) = 2.62825 3.50072 3.09538
# Velocity P-wave (km/s) = 3.87138 5.69104 4.86701
#
# Compressibility (1/GPa) = 0.08036433
#
# Stress axis : x y z
#
# Youngs Moduli (GPa) = 13.09049 53.81430 41.52824
#
# Poissons Ratio (x) = 1.07813 -0.35456
# Poissons Ratio (y) = 0.26226 0.32593
# Poissons Ratio (z) = -0.11177 0.42235
#
# Static dielectric constant tensor:
#      x y z
#    x 1.778030 0.004260 0.025640 
#    y 0.004260 1.805090 -0.003210 
#    z 0.025640 -0.003210 1.816460 
# 
# From -- ./inp_files/131914.got.cif
#   From: 2010.05.17/outbox.cif.g08.bks.cpg/sg2_66_cif.got.tgz:131914.got - 2010.06.03 11:33:40.
