data_PCOD9002560
_publ_section_title
;
Structure prediction by ZEFSAII (Michael W. Deem and Ramdas Pophale) SiO2 
 PCOD9002560
Probable space group: P -1
;
_chemical_formula_sum "Si O2"
_cell_formula_units_Z 16
_cell_length_a 8.137595
_cell_length_b 13.061909
_cell_length_c 18.722429
_cell_angle_alpha 26.491651
_cell_angle_beta 111.364355
_cell_angle_gamma 120.324039
_cell_volume 746.162527
_symmetry_space_group_name_H-M "P -1"
_symmetry_group_IT_number 2
_symmetry_cell_setting 'triclinic'
loop_
_space_group_symop_operation_xyz
x,y,z
-x,-y,-z
loop_
_atom_site_type_symbol
_atom_site_label
_atom_site_fract_x
_atom_site_fract_y
_atom_site_fract_z
Si Si1 0.595235 0.032252 0.608065
Si Si2 0.075246 0.081129 0.077363
Si Si3 0.233302 0.831996 0.095422
Si Si4 0.382295 0.719141 0.053428
Si Si5 0.990284 0.929723 0.310642
Si Si6 0.617536 0.971359 0.273983
Si Si7 0.215345 0.640891 0.356658
Si Si8 0.607354 0.405270 0.262787
O O1 0.478293 0.013852 0.674701
O O2 0.655902 0.299683 0.409519
O O3 0.793233 0.997499 0.671925
O O4 0.455826 0.814665 0.668689
O O5 0.161375 0.872576 0.223463
O O6 0.229123 0.343023 0.904428
O O7 0.015593 0.095848 0.139992
O O8 0.888481 0.008915 0.042239
O O9 0.230582 0.693475 0.107291
O O10 0.165934 0.618361 0.278787
O O11 0.431980 0.040226 0.032369
O O12 0.431788 0.481307 0.204864
O O13 0.348343 0.798556 0.919418
O O14 0.821422 0.946737 0.322661
O O15 0.904933 0.633978 0.458051
O O16 0.442035 0.734607 0.354541
#
# Coordination Sequence:
#
# PCOD9002560 Si02
#       8
#     2   2   2   2   2   2   2   2
#     4  11  27  48  69  94 131 176 226 282 327 386
#     4  12  22  41  67  97 137 176 220 269 327 405
#     4  10  21  36  62 103 130 172 215 266 323 395
#     4  10  21  40  65  94 136 169 219 265 326 390
#     4  12  25  42  68 103 137 173 218 272 336 398
#     4  11  23  45  66 102 136 176 216 272 336 389
#     4  11  23  40  64 102 138 176 214 267 337 389
#     4  11  25  48  69  91 128 178 226 278 330 385
#
# _framework density 21.443048000000001
#
# number of rings (size 3 to 8) (size 9 to 14) (size 15 to 20)
#    0.000    1.000    5.000    1.875    3.500    2.000 
#    2.250    2.500    0.000    0.000    0.000    0.000 
#    0.000    0.000    0.000    0.000    0.000    0.000 
#
# Total GULP energy -89243.045007 kJ/mol
# GULP energy per Si atom -5577.690313 kJ/mol
# Density = 2.139424 g / cm^3
# Si number density = 21.443048 Si / 1000 Ang^3
#
#
#
# Elastic Constant Matrix: (Units=GPa)
#
#
# Indices 1 2 3 4 5 6 
#
# 1 122.5321 47.4978 35.7380 29.6003 0.3918 -17.3789
# 2 47.4978 66.1944 35.7450 30.1766 -1.2771 -15.1470
# 3 35.7380 35.7450 93.5622 27.4692 1.0798 -13.7879
# 4 29.6003 30.1766 27.4692 30.2501 -0.1557 -0.0284
# 5 0.3918 -1.2771 1.0798 -0.1557 26.9800 2.6525
# 6 -17.3789 -15.1470 -13.7879 -0.0284 2.6525 21.7910
#
#
#
# Elastic Compliance Matrix: (Units=1/GPa)
#
#
# Indices 1 2 3 4 5 6 
#
# 1 0.012809 -0.002911 0.000450 -0.010037 -0.001247 0.008615
# 2 -0.002911 0.039793 0.000740 -0.037500 -0.000863 0.025863
# 3 0.000450 0.000740 0.016809 -0.016442 -0.001891 0.011718
# 4 -0.010037 -0.037500 -0.016442 0.095197 0.003986 -0.044836
# 5 -0.001247 -0.000863 -0.001891 0.003986 0.037867 -0.007395
# 6 0.008615 0.025863 0.011718 -0.044836 -0.007395 0.078996
#
#
# Mechanical properties :
#
#
# Convention : Reuss Voigt Hill
#
# Bulk Modulus (GPa) = 15.15836 57.80561 36.48198
# Shear Modulus (GPa) = 16.29182 26.69141 21.49162
#
# Velocity S-wave (km/s) = 2.75939 3.53194 3.16929
# Velocity P-wave (km/s) = 4.15172 6.60674 5.51751
#
# Compressibility (1/GPa) = 0.06597022
#
# Stress axis : x y z
#
# Youngs Moduli (GPa) = 78.07134 25.12986 59.49151
#
# Poissons Ratio (x) = 0.07316 -0.02679
# Poissons Ratio (y) = 0.22728 -0.04404
# Poissons Ratio (z) = -0.03516 -0.01860
#
# Static dielectric constant tensor:
#      x y z
#    x 1.904060 -0.029700 -0.020070 
#    y -0.029700 1.773310 0.020990 
#    z -0.020070 0.020990 1.779790 
# 
# From -- ./inp_files/558887.got.cif
#   From: 2010.05.17/outbox.cif.g08.bks.cpg/sg2_280_cif.got.tgz:558887.got - 2010.06.03 11:33:40.
