data_PCOD9002045
_publ_section_title
;
Structure prediction by ZEFSAII (Michael W. Deem and Ramdas Pophale) SiO2 
 PCOD9002045
Probable space group: P -1
;
_chemical_formula_sum "Si O2"
_cell_formula_units_Z 16
_cell_length_a 13.725842
_cell_length_b 14.218989
_cell_length_c 4.945490
_cell_angle_alpha 58.330941
_cell_angle_beta 121.199949
_cell_angle_gamma 106.389977
_cell_volume 702.592689
_symmetry_space_group_name_H-M "P -1"
_symmetry_group_IT_number 2
_symmetry_cell_setting 'triclinic'
loop_
_space_group_symop_operation_xyz
x,y,z
-x,-y,-z
loop_
_atom_site_type_symbol
_atom_site_label
_atom_site_fract_x
_atom_site_fract_y
_atom_site_fract_z
Si Si1 0.623937 0.132505 0.056596
Si Si2 0.215104 0.695576 0.754553
Si Si3 0.139244 0.384486 0.795499
Si Si4 0.920263 0.379402 0.837574
Si Si5 0.304594 0.219828 0.120872
Si Si6 0.375359 0.083985 0.941632
Si Si7 0.483236 0.650465 0.652928
Si Si8 0.635628 0.496161 0.851153
O O1 0.513578 0.093176 0.130713
O O2 0.577642 0.235532 0.663638
O O3 0.725874 0.186088 0.294355
O O4 0.655466 0.034390 0.049585
O O5 0.170716 0.673546 0.423912
O O6 0.110436 0.670866 0.842279
O O7 0.309480 0.601698 0.099849
O O8 0.097687 0.488042 0.400268
O O9 0.042194 0.357741 0.913785
O O10 0.184543 0.280360 0.851911
O O11 0.251614 0.429637 0.043269
O O12 0.330752 0.173221 0.526294
O O13 0.403880 0.311643 0.072198
O O14 0.322400 0.119273 0.094328
O O15 0.534355 0.586767 0.559777
O O16 0.406184 0.569678 0.842033
#
# Coordination Sequence:
#
# PCOD9002045 Si02
#       8
#     2   2   2   2   2   2   2   2
#     4  10  21  36  57  80 114 147 184 229 272 321
#     4  11  22  37  57  81 113 148 182 226 274 322
#     4   9  20  38  59  82 114 145 181 228 274 324
#     4  10  23  37  57  86 110 144 187 223 271 333
#     4  10  21  37  58  82 112 147 181 227 276 323
#     4  10  23  37  57  85 109 144 189 225 271 330
#     4   9  18  34  54  85 118 149 180 217 272 336
#     4   9  18  32  55  86 118 148 180 217 272 338
#
# _framework density 22.772797000000001
#
# number of rings (size 3 to 8) (size 9 to 14) (size 15 to 20)
#    0.000    2.250    0.000    2.250    0.000   17.500 
#    0.000    0.000    0.000    4.500    0.000    0.000 
#    0.000    0.000    0.000    0.000    0.000    0.000 
#
# Total GULP energy -89478.254870 kJ/mol
# GULP energy per Si atom -5592.390929 kJ/mol
# Density = 2.272096 g / cm^3
# Si number density = 22.772797 Si / 1000 Ang^3
#
#
#
# Elastic Constant Matrix: (Units=GPa)
#
#
# Indices 1 2 3 4 5 6 
#
# 1 112.3127 33.7516 9.5384 -8.5920 17.0811 -8.3773
# 2 33.7516 134.3954 1.3845 -19.5891 11.2370 -13.4516
# 3 9.5384 1.3845 34.9798 -5.7792 -6.0050 -3.4708
# 4 -8.5920 -19.5891 -5.7792 22.9982 -8.7302 1.6982
# 5 17.0811 11.2370 -6.0050 -8.7302 28.3427 -1.6836
# 6 -8.3773 -13.4516 -3.4708 1.6982 -1.6836 37.9859
#
#
#
# Elastic Compliance Matrix: (Units=1/GPa)
#
#
# Indices 1 2 3 4 5 6 
#
# 1 0.010971 -0.002264 -0.004296 -0.001669 -0.007080 0.000986
# 2 -0.002264 0.009312 0.001857 0.007568 0.000554 0.002654
# 3 -0.004296 0.001857 0.034533 0.013577 0.013521 0.002858
# 4 -0.001669 0.007568 0.013577 0.059974 0.019458 0.001733
# 5 -0.007080 0.000554 0.013521 0.019458 0.048256 0.001139
# 6 0.000986 0.002654 0.002858 0.001733 0.001139 0.027717
#
#
# Mechanical properties :
#
#
# Convention : Reuss Voigt Hill
#
# Bulk Modulus (GPa) = 22.01967 41.22633 31.62300
# Shear Modulus (GPa) = 23.22283 33.66627 28.44455
#
# Velocity S-wave (km/s) = 3.19684 3.84911 3.53804
# Velocity P-wave (km/s) = 4.82873 6.15604 5.53233
#
# Compressibility (1/GPa) = 0.04541394
#
# Stress axis : x y z
#
# Youngs Moduli (GPa) = 91.14560 107.38316 28.95747
#
# Poissons Ratio (x) = 0.24308 0.12439
# Poissons Ratio (y) = 0.20632 -0.05379
# Poissons Ratio (z) = 0.39152 -0.19946
#
# Static dielectric constant tensor:
#      x y z
#    x 1.850750 0.005930 0.049290 
#    y 0.005930 1.911090 0.054510 
#    z 0.049290 0.054510 1.914610 
# 
# From -- ./inp_files/77227.got.cif
#   From: 2010.05.17/outbox.cif.g08.bks.cpg/sg2_39_cif.got.tgz:77227.got - 2010.06.03 11:33:40.
