data_PCOD9002099
_publ_section_title
;
Structure prediction by ZEFSAII (Michael W. Deem and Ramdas Pophale) SiO2 
 PCOD9002099
Probable space group: P -1
;
_chemical_formula_sum "Si O2"
_cell_formula_units_Z 16
_cell_length_a 8.957368
_cell_length_b 8.422460
_cell_length_c 16.334859
_cell_angle_alpha 122.160119
_cell_angle_beta 127.704738
_cell_angle_gamma 91.993045
_cell_volume 695.784599
_symmetry_space_group_name_H-M "P -1"
_symmetry_group_IT_number 2
_symmetry_cell_setting 'triclinic'
loop_
_space_group_symop_operation_xyz
x,y,z
-x,-y,-z
loop_
_atom_site_type_symbol
_atom_site_label
_atom_site_fract_x
_atom_site_fract_y
_atom_site_fract_z
Si Si1 0.116528 0.255037 0.138681
Si Si2 0.593089 0.824921 0.672427
Si Si3 0.818101 0.748214 0.391840
Si Si4 0.716427 0.227515 0.945899
Si Si5 0.670739 0.532528 0.900606
Si Si6 0.656090 0.758889 0.097031
Si Si7 0.938612 0.493040 0.573397
Si Si8 0.126342 0.132019 0.372763
O O1 0.299975 0.298719 0.279236
O O2 0.232206 0.405649 0.139492
O O3 0.905830 0.277022 0.088924
O O4 0.000000 0.000000 0.000000
O O5 0.324806 0.682035 0.545690
O O6 0.700381 0.874696 0.631789
O O7 0.677210 0.045896 0.814949
O O8 0.587617 0.662999 0.245701
O O9 0.774415 0.747962 0.474637
O O10 0.912648 0.591603 0.360275
O O11 0.000000 0.000000 0.500000
O O12 0.785357 0.446676 0.976362
O O13 0.483810 0.140530 0.890438
O O14 0.683699 0.743342 0.004967
O O15 0.500000 0.500000 0.000000
O O16 0.906827 0.891363 0.251120
O O17 0.970660 0.730904 0.665489
O O18 0.000000 0.500000 0.500000
#
# Coordination Sequence:
#
# PCOD9002099 Si02
#       8
#     2   2   2   2   2   2   2   2
#     4  10  21  36  57  87 123 162 204 252 313 377
#     4  11  22  41  62  92 131 168 212 266 321 382
#     4  11  23  43  68  96 127 167 215 264 320 387
#     4  10  21  39  63  90 126 167 208 264 321 378
#     4  11  22  40  63  92 127 165 209 264 320 378
#     4  10  21  39  63  91 123 167 215 263 316 377
#     4  10  21  39  63  90 125 169 208 256 315 375
#     4  11  23  41  65  94 130 171 213 267 322 380
#
# _framework density 22.995622000000001
#
# number of rings (size 3 to 8) (size 9 to 14) (size 15 to 20)
#    0.000    1.500    0.000    7.500    0.000    3.000 
#    0.000    7.500    0.000    0.000    0.000    0.000 
#    0.000    0.000    0.000    0.000    0.000    0.000 
#
# Total GULP energy -89370.042139 kJ/mol
# GULP energy per Si atom -5585.627634 kJ/mol
# Density = 2.294328 g / cm^3
# Si number density = 22.995622 Si / 1000 Ang^3
#
#
#
# Elastic Constant Matrix: (Units=GPa)
#
#
# Indices 1 2 3 4 5 6 
#
# 1 144.8128 5.7644 23.0542 -4.8728 4.1300 -0.7839
# 2 5.7644 60.8793 -4.4338 -0.4235 8.1152 -9.5706
# 3 23.0542 -4.4338 58.8237 0.2765 10.6071 -5.0136
# 4 -4.8728 -0.4235 0.2765 36.0923 -1.4964 2.7443
# 5 4.1300 8.1152 10.6071 -1.4964 41.2842 5.0754
# 6 -0.7839 -9.5706 -5.0136 2.7443 5.0754 26.0364
#
#
#
# Elastic Compliance Matrix: (Units=1/GPa)
#
#
# Indices 1 2 3 4 5 6 
#
# 1 0.007479 -0.001156 -0.003195 0.001118 0.000466 -0.001024
# 2 -0.001156 0.018938 0.003658 -0.000868 -0.005664 0.008827
# 3 -0.003195 0.003658 0.020256 -0.001309 -0.006456 0.006545
# 4 0.001118 -0.000868 -0.001309 0.028231 0.001896 -0.003883
# 5 0.000466 -0.005664 -0.006456 0.001896 0.028122 -0.008993
# 6 -0.001024 0.008827 0.006545 -0.003883 -0.008993 0.045044
#
#
# Mechanical properties :
#
#
# Convention : Reuss Voigt Hill
#
# Bulk Modulus (GPa) = 22.08109 34.80946 28.44527
# Shear Modulus (GPa) = 30.38555 36.69132 33.53844
#
# Velocity S-wave (km/s) = 3.63900 3.99880 3.82314
# Velocity P-wave (km/s) = 5.22298 6.04077 5.64670
#
# Compressibility (1/GPa) = 0.04528763
#
# Stress axis : x y z
#
# Youngs Moduli (GPa) = 133.70983 52.80292 49.36815
#
# Poissons Ratio (x) = 0.06105 0.15772
# Poissons Ratio (y) = 0.15459 -0.18060
# Poissons Ratio (z) = 0.42718 -0.19316
#
# Static dielectric constant tensor:
#      x y z
#    x 1.922730 -0.013650 -0.019690 
#    y -0.013650 1.913340 0.001580 
#    z -0.019690 0.001580 1.859350 
# 
# From -- ./inp_files/217088.got.cif
#   From: 2010.05.17/outbox.cif.g08.bks.cpg/sg2_109_cif.got.tgz:217088.got - 2010.06.03 11:33:40.
