data_PCOD9002097
_publ_section_title
;
Structure prediction by ZEFSAII (Michael W. Deem and Ramdas Pophale) SiO2 
 PCOD9002097
Probable space group: P -1
;
_chemical_formula_sum "Si O2"
_cell_formula_units_Z 12
_cell_length_a 13.002007
_cell_length_b 8.736666
_cell_length_c 14.681057
_cell_angle_alpha 129.193512
_cell_angle_beta 28.412507
_cell_angle_gamma 113.071104
_cell_volume 550.863007
_symmetry_space_group_name_H-M "P -1"
_symmetry_group_IT_number 2
_symmetry_cell_setting 'triclinic'
loop_
_space_group_symop_operation_xyz
x,y,z
-x,-y,-z
loop_
_atom_site_type_symbol
_atom_site_label
_atom_site_fract_x
_atom_site_fract_y
_atom_site_fract_z
Si Si1 0.253573 0.006210 0.803820
Si Si2 0.637766 0.912328 0.050492
Si Si3 0.222199 0.259278 0.738466
Si Si4 0.872745 0.994337 0.451011
Si Si5 0.394828 0.826390 0.987969
Si Si6 0.689958 0.490981 0.770062
O O1 0.279192 0.101951 0.916615
O O2 0.242750 0.159592 0.785351
O O3 0.503911 0.780295 0.512766
O O4 0.000000 0.000000 0.000000
O O5 0.351828 0.976599 0.300314
O O6 0.653754 0.110195 0.056781
O O7 0.773876 0.669887 0.808888
O O8 0.163908 0.115930 0.654156
O O9 0.000000 0.500000 0.000000
O O10 0.855322 0.234323 0.535776
O O11 0.134722 0.863032 0.241143
O O12 0.573867 0.591823 0.800710
O O13 0.500000 0.000000 0.000000
O O14 0.500000 0.500000 0.000000
#
# Coordination Sequence:
#
# PCOD9002097 Si02
#       6
#     2   2   2   2   2   2
#     4  10  21  41  64  89 121 157 204 252 296 356
#     4   9  20  38  59  88 118 152 197 243 296 351
#     4  10  23  41  62  89 121 160 203 249 302 355
#     4  10  21  40  60  82 119 156 192 242 298 354
#     4  10  21  36  57  87 118 150 194 236 290 358
#     4   9  20  37  59  86 116 151 191 239 294 349
#
# _framework density 21.784001
#
# number of rings (size 3 to 8) (size 9 to 14) (size 15 to 20)
#    0.000    2.333    0.000    1.000    0.000   14.667 
#    0.000   13.333    0.000    0.000    0.000    0.000 
#    0.000    0.000    0.000    0.000    0.000    0.000 
#
# Total GULP energy -66904.427673 kJ/mol
# GULP energy per Si atom -5575.368973 kJ/mol
# Density = 2.173442 g / cm^3
# Si number density = 21.784001 Si / 1000 Ang^3
#
#
#
# Elastic Constant Matrix: (Units=GPa)
#
#
# Indices 1 2 3 4 5 6 
#
# 1 93.5791 10.0249 36.7937 2.3534 4.2885 -2.6512
# 2 10.0249 60.1940 35.5554 -14.7447 4.6967 -10.0507
# 3 36.7937 35.5554 122.9444 -0.6003 -12.9046 12.0796
# 4 2.3534 -14.7447 -0.6003 45.8992 9.8068 -17.6844
# 5 4.2885 4.6967 -12.9046 9.8068 33.5135 -4.7300
# 6 -2.6512 -10.0507 12.0796 -17.6844 -4.7300 26.4029
#
#
#
# Elastic Compliance Matrix: (Units=1/GPa)
#
#
# Indices 1 2 3 4 5 6 
#
# 1 0.013226 0.005296 -0.006956 0.005710 -0.005461 0.009372
# 2 0.005296 0.050222 -0.023422 0.040842 -0.021072 0.053946
# 3 -0.006956 -0.023422 0.021519 -0.022208 0.014477 -0.031741
# 4 0.005710 0.040842 -0.022208 0.064734 -0.024746 0.065206
# 5 -0.005461 -0.021072 0.014477 -0.024746 0.042908 -0.024081
# 6 0.009372 0.053946 -0.031741 0.065206 -0.024081 0.113233
#
#
# Mechanical properties :
#
#
# Convention : Reuss Voigt Hill
#
# Bulk Modulus (GPa) = 28.73328 49.05172 38.89250
# Shear Modulus (GPa) = 13.60154 34.11937 23.86045
#
# Velocity S-wave (km/s) = 2.50147 3.96189 3.31315
# Velocity P-wave (km/s) = 4.64348 6.59507 5.70337
#
# Compressibility (1/GPa) = 0.03480284
#
# Stress axis : x y z
#
# Youngs Moduli (GPa) = 75.60898 19.91173 46.47133
#
# Poissons Ratio (x) = -0.10545 0.32325
# Poissons Ratio (y) = -0.40040 1.08843
# Poissons Ratio (z) = 0.52592 0.46636
#
# Static dielectric constant tensor:
#      x y z
#    x 1.824860 0.002500 0.013870 
#    y 0.002500 1.791020 -0.047960 
#    z 0.013870 -0.047960 1.824940 
# 
# From -- ./inp_files/301008.got.cif
#   From: 2010.05.17/outbox.cif.g08.bks.cpg/sg2_151_cif.got.tgz:301008.got - 2010.06.03 11:33:40.
