data_PCOD9002071
_publ_section_title
;
Structure prediction by ZEFSAII (Michael W. Deem and Ramdas Pophale) SiO2 
 PCOD9002071
Probable space group: P -1
;
_chemical_formula_sum "Si O2"
_cell_formula_units_Z 14
_cell_length_a 8.232525
_cell_length_b 13.236055
_cell_length_c 12.975958
_cell_angle_alpha 32.868587
_cell_angle_beta 70.858434
_cell_angle_gamma 89.792250
_cell_volume 614.701502
_symmetry_space_group_name_H-M "P -1"
_symmetry_group_IT_number 2
_symmetry_cell_setting 'triclinic'
loop_
_space_group_symop_operation_xyz
x,y,z
-x,-y,-z
loop_
_atom_site_type_symbol
_atom_site_label
_atom_site_fract_x
_atom_site_fract_y
_atom_site_fract_z
Si Si1 0.385755 0.183882 0.016568
Si Si2 0.230425 0.085397 0.904527
Si Si3 0.765284 0.352961 0.695933
Si Si4 0.008444 0.986245 0.387291
Si Si5 0.385084 0.730811 0.424745
Si Si6 0.261400 0.838585 0.708088
Si Si7 0.968281 0.409497 0.243551
O O1 0.288883 0.178144 0.929692
O O2 0.382873 0.957273 0.233508
O O3 0.624579 0.366104 0.800799
O O4 0.230940 0.174833 0.140143
O O5 0.260907 0.881603 0.082033
O O6 0.387577 0.221459 0.661939
O O7 0.000000 0.000000 0.000000
O O8 0.674671 0.360822 0.599169
O O9 0.000000 0.500000 0.500000
O O10 0.979831 0.752383 0.569736
O O11 0.834752 0.022511 0.352757
O O12 0.000000 0.000000 0.500000
O O13 0.201621 0.573144 0.673224
O O14 0.150790 0.717422 0.727685
O O15 0.500000 0.000000 0.500000
O O16 0.173667 0.635900 0.979389
#
# Coordination Sequence:
#
# PCOD9002071 Si02
#       7
#     2   2   2   2   2   2   2
#     4   8  16  33  54  69 105 144 169 216 267 321
#     4   9  17  31  51  75 103 136 173 213 272 322
#     4   9  17  33  51  76 103 134 179 217 259 328
#     4   9  18  36  58  78 107 148 184 218 276 328
#     4   8  16  34  53  70 103 147 171 209 280 323
#     4  10  21  36  57  85 109 141 191 229 272 331
#     4   9  19  39  57  75 116 147 175 234 279 318
#
# _framework density 22.775279999999999
#
# number of rings (size 3 to 8) (size 9 to 14) (size 15 to 20)
#    0.000    3.143    0.000    1.714    0.000    1.714 
#   15.429    1.429    6.286    0.000    0.000    0.000 
#    0.000    0.000    0.000    0.000    0.000    0.000 
#
# Total GULP energy -77935.067553 kJ/mol
# GULP energy per Si atom -5566.790539 kJ/mol
# Density = 2.272344 g / cm^3
# Si number density = 22.775280 Si / 1000 Ang^3
#
#
#
# Elastic Constant Matrix: (Units=GPa)
#
#
# Indices 1 2 3 4 5 6 
#
# 1 88.0249 25.6932 50.1753 13.7590 -33.7863 -30.6835
# 2 25.6932 55.2191 41.5013 32.8123 -18.0289 -25.4811
# 3 50.1753 41.5013 151.5604 29.8604 -40.4984 -33.7245
# 4 13.7590 32.8123 29.8604 39.3077 -20.0224 -15.2554
# 5 -33.7863 -18.0289 -40.4984 -20.0224 51.4934 13.5214
# 6 -30.6835 -25.4811 -33.7245 -15.2554 13.5214 30.1259
#
#
#
# Elastic Compliance Matrix: (Units=1/GPa)
#
#
# Indices 1 2 3 4 5 6 
#
# 1 0.022023 -0.001482 -0.001283 0.007228 0.010868 0.018522
# 2 -0.001482 0.048399 -0.002744 -0.031244 -0.004224 0.022429
# 3 -0.001283 -0.002744 0.010384 -0.000601 0.004660 0.005600
# 4 0.007228 -0.031244 -0.000601 0.058369 0.015244 0.002976
# 5 0.010868 -0.004224 0.004660 0.015244 0.033213 0.005525
# 6 0.018522 0.022429 0.005600 0.002976 0.005525 0.076327
#
#
# Mechanical properties :
#
#
# Convention : Reuss Voigt Hill
#
# Bulk Modulus (GPa) = 14.32940 58.83823 36.58381
# Shear Modulus (GPa) = 17.66810 36.01436 26.84123
#
# Velocity S-wave (km/s) = 2.78826 3.98086 3.43669
# Velocity P-wave (km/s) = 4.08304 6.85711 5.64319
#
# Compressibility (1/GPa) = 0.06978661
#
# Stress axis : x y z
#
# Youngs Moduli (GPa) = 45.40750 20.66172 96.30123
#
# Poissons Ratio (x) = 0.03061 0.12360
# Poissons Ratio (y) = 0.06728 0.26428
# Poissons Ratio (z) = 0.05828 0.05670
#
# Static dielectric constant tensor:
#      x y z
#    x 1.946910 -0.031850 -0.090030 
#    y -0.031850 1.885710 0.009770 
#    z -0.090030 0.009770 2.084750 
# 
# From -- ./inp_files/197382.got.cif
#   From: 2010.05.17/outbox.cif.g08.bks.cpg/sg2_99_cif.got.tgz:197382.got - 2010.06.03 11:33:40.
