data_PCOD9002149
_publ_section_title
;
Structure prediction by ZEFSAII (Michael W. Deem and Ramdas Pophale) SiO2 
 PCOD9002149
Probable space group: P -1
;
_chemical_formula_sum "Si O2"
_cell_formula_units_Z 14
_cell_length_a 7.653083
_cell_length_b 20.629772
_cell_length_c 13.224446
_cell_angle_alpha 146.654003
_cell_angle_beta 35.168533
_cell_angle_gamma 133.208786
_cell_volume 661.046772
_symmetry_space_group_name_H-M "P -1"
_symmetry_group_IT_number 2
_symmetry_cell_setting 'triclinic'
loop_
_space_group_symop_operation_xyz
x,y,z
-x,-y,-z
loop_
_atom_site_type_symbol
_atom_site_label
_atom_site_fract_x
_atom_site_fract_y
_atom_site_fract_z
Si Si1 0.604894 0.750006 0.502959
Si Si2 0.240684 0.009069 0.309954
Si Si3 0.286842 0.178157 0.218144
Si Si4 0.172716 0.437324 0.589461
Si Si5 0.742123 0.482429 0.680350
Si Si6 0.819084 0.348855 0.835118
Si Si7 0.785061 0.082094 0.445881
O O1 0.568472 0.870154 0.615911
O O2 0.605095 0.782755 0.666613
O O3 0.373912 0.650364 0.451194
O O4 0.938248 0.692963 0.250663
O O5 0.040905 0.031043 0.333363
O O6 0.000000 0.000000 0.500000
O O7 0.452479 0.897268 0.053839
O O8 0.219225 0.301167 0.356025
O O9 0.983790 0.097824 0.270259
O O10 0.500000 0.500000 0.500000
O O11 0.908804 0.498478 0.729495
O O12 0.030608 0.419181 0.745120
O O13 0.000000 0.500000 0.500000
O O14 0.465419 0.570117 0.904172
O O15 0.705358 0.220011 0.682763
O O16 0.500000 0.000000 0.500000
#
# Coordination Sequence:
#
# PCOD9002149 Si02
#       7
#     2   2   2   2   2   2   2
#     4   9  20  39  58  80 112 150 188 233 280 331
#     4  10  21  36  58  85 111 145 185 229 282 332
#     4   9  20  40  57  77 113 151 185 228 278 335
#     4  10  22  39  58  82 113 151 188 229 281 333
#     4  12  23  35  57  87 113 148 191 232 281 335
#     4   9  21  39  56  81 115 148 186 233 280 333
#     4   9  19  36  59  82 108 147 187 226 279 335
#
# _framework density 21.178533000000002
#
# number of rings (size 3 to 8) (size 9 to 14) (size 15 to 20)
#    0.000    2.857    0.000    4.286    0.000    9.143 
#    0.000    1.429    0.000    0.000    0.000    0.000 
#    0.000    0.000    0.000    0.000    0.000    0.000 
#
# Total GULP energy -77982.946482 kJ/mol
# GULP energy per Si atom -5570.210463 kJ/mol
# Density = 2.113033 g / cm^3
# Si number density = 21.178533 Si / 1000 Ang^3
#
#
#
# Elastic Constant Matrix: (Units=GPa)
#
#
# Indices 1 2 3 4 5 6 
#
# 1 31.8259 2.3367 3.6052 -1.3515 -14.3909 9.8582
# 2 2.3367 126.5319 43.9804 -10.1734 -7.3866 27.1984
# 3 3.6052 43.9804 147.0436 -5.9751 -26.0680 5.6538
# 4 -1.3515 -10.1734 -5.9751 25.8992 -1.0120 -6.9694
# 5 -14.3909 -7.3866 -26.0680 -1.0120 16.4595 1.3948
# 6 9.8582 27.1984 5.6538 -6.9694 1.3948 32.5236
#
#
#
# Elastic Compliance Matrix: (Units=1/GPa)
#
#
# Indices 1 2 3 4 5 6 
#
# 1 0.099673 0.009051 0.019106 0.005904 0.125663 -0.045226
# 2 0.009051 0.011620 -0.000836 0.002003 0.012981 -0.012443
# 3 0.019106 -0.000836 0.014038 0.003149 0.039481 -0.008550
# 4 0.005904 0.002003 0.003149 0.042148 0.013263 0.004451
# 5 0.125663 0.012981 0.039481 0.013263 0.245174 -0.063481
# 6 -0.045226 -0.012443 -0.008550 0.004451 -0.063481 0.060024
#
#
# Mechanical properties :
#
#
# Convention : Reuss Voigt Hill
#
# Bulk Modulus (GPa) = 5.55644 45.02732 25.29188
# Shear Modulus (GPa) = 10.45963 32.00841 21.23402
#
# Velocity S-wave (km/s) = 2.22475 3.89184 3.16985
# Velocity P-wave (km/s) = 3.03787 6.44222 5.03641
#
# Compressibility (1/GPa) = 0.17997131
#
# Stress axis : x y z
#
# Youngs Moduli (GPa) = 10.03277 86.05699 71.23359
#
# Poissons Ratio (x) = -0.77886 -1.36096
# Poissons Ratio (y) = -0.09080 0.05958
# Poissons Ratio (z) = -0.19168 0.07198
#
# Static dielectric constant tensor:
#      x y z
#    x 1.866050 -0.024840 0.028760 
#    y -0.024840 1.812130 0.009550 
#    z 0.028760 0.009550 1.763830 
# 
# From -- ./inp_files/169191.got.cif
#   From: 2010.05.17/outbox.cif.g08.bks.cpg/sg2_85_cif.got.tgz:169191.got - 2010.06.03 11:33:40.
