data_PCOD9002399
_publ_section_title
;
Structure prediction by ZEFSAII (Michael W. Deem and Ramdas Pophale) SiO2 
 PCOD9002399
Probable space group: P -1
;
_chemical_formula_sum "Si O2"
_cell_formula_units_Z 14
_cell_length_a 28.664273
_cell_length_b 8.660701
_cell_length_c 14.919975
_cell_angle_alpha 36.566035
_cell_angle_beta 161.177100
_cell_angle_gamma 150.708863
_cell_volume 578.794026
_symmetry_space_group_name_H-M "P -1"
_symmetry_group_IT_number 2
_symmetry_cell_setting 'triclinic'
loop_
_space_group_symop_operation_xyz
x,y,z
-x,-y,-z
loop_
_atom_site_type_symbol
_atom_site_label
_atom_site_fract_x
_atom_site_fract_y
_atom_site_fract_z
Si Si1 0.773142 0.409519 0.107871
Si Si2 0.100375 0.442344 0.376542
Si Si3 0.786191 0.765898 0.701397
Si Si4 0.228535 0.655579 0.273338
Si Si5 0.622419 0.881258 0.509537
Si Si6 0.290481 0.263444 0.710992
Si Si7 0.904011 0.354037 0.538461
O O1 0.826740 0.498621 0.266952
O O2 0.937246 0.617907 0.241762
O O3 0.742748 0.069298 0.211764
O O4 0.588420 0.347305 0.778004
O O5 0.286159 0.784412 0.534180
O O6 0.161607 0.214394 0.580472
O O7 0.031992 0.447222 0.346761
O O8 0.958758 0.410690 0.063627
O O9 0.719695 0.436130 0.683892
O O10 0.699344 0.735473 0.653181
O O11 0.766317 0.990252 0.492537
O O12 0.000000 0.000000 0.000000
O O13 0.327643 0.982179 0.360613
O O14 0.232892 0.409119 0.461777
O O15 0.500000 0.500000 0.000000
#
# Coordination Sequence:
#
# PCOD9002399 Si02
#       7
#     2   2   2   2   2   2   2
#     4  11  22  39  56  86 126 156 193 256 307 351
#     4  10  21  37  61  90 114 153 206 248 295 357
#     4  11  21  36  66  86 114 161 202 242 297 359
#     4  11  20  37  64  94 118 150 210 251 292 351
#     4  10  21  36  60  90 118 153 201 252 290 352
#     4  11  20  34  62  89 113 156 200 251 294 351
#     4  10  23  38  57  83 124 158 196 249 307 359
#
# _framework density 24.188224000000002
#
# number of rings (size 3 to 8) (size 9 to 14) (size 15 to 20)
#    0.000    1.429    7.143    1.714    0.000    4.000 
#    0.000    1.429    0.000    0.000    0.000    0.000 
#    0.000    0.000    0.000    0.000    0.000    0.000 
#
# Total GULP energy -78030.511751 kJ/mol
# GULP energy per Si atom -5573.607982 kJ/mol
# Density = 2.413317 g / cm^3
# Si number density = 24.188224 Si / 1000 Ang^3
#
#
#
# Elastic Constant Matrix: (Units=GPa)
#
#
# Indices 1 2 3 4 5 6 
#
# 1 172.5020 52.0873 84.5465 -2.0824 -11.5680 -33.8879
# 2 52.0873 74.4489 20.3204 9.5505 4.7067 -8.9184
# 3 84.5465 20.3204 143.1072 2.1582 11.3767 -3.3061
# 4 -2.0824 9.5505 2.1582 30.1869 -6.8025 1.8963
# 5 -11.5680 4.7067 11.3767 -6.8025 24.3489 -7.4019
# 6 -33.8879 -8.9184 -3.3061 1.8963 -7.4019 50.2858
#
#
#
# Elastic Compliance Matrix: (Units=1/GPa)
#
#
# Indices 1 2 3 4 5 6 
#
# 1 0.019155 -0.011511 -0.011402 0.010252 0.023528 0.013194
# 2 -0.011511 0.021995 0.005078 -0.011603 -0.017035 -0.005593
# 3 -0.011402 0.005078 0.014307 -0.006841 -0.017474 -0.008157
# 4 0.010252 -0.011603 -0.006841 0.043065 0.024271 0.006350
# 5 0.023528 -0.017035 -0.017474 0.024271 0.077215 0.022136
# 6 0.013194 -0.005593 -0.008157 0.006350 0.022136 0.030269
#
#
# Mechanical properties :
#
#
# Convention : Reuss Voigt Hill
#
# Bulk Modulus (GPa) = 50.54225 78.21851 64.38038
# Shear Modulus (GPa) = 20.13916 36.50458 28.32187
#
# Velocity S-wave (km/s) = 2.88861 3.88904 3.42555
# Velocity P-wave (km/s) = 5.66270 7.25078 6.50538
#
# Compressibility (1/GPa) = 0.01978543
#
# Stress axis : x y z
#
# Youngs Moduli (GPa) = 52.20639 45.46409 69.89609
#
# Poissons Ratio (x) = 0.52335 0.79696
# Poissons Ratio (y) = 0.60096 -0.35490
# Poissons Ratio (z) = 0.59526 -0.23085
#
# Static dielectric constant tensor:
#      x y z
#    x 2.066790 -0.051470 -0.087690 
#    y -0.051470 2.008470 -0.040210 
#    z -0.087690 -0.040210 2.000440 
# 
# From -- ./inp_files/543812.got.cif
#   From: 2010.05.17/outbox.cif.g08.bks.cpg/sg2_272_cif.got.tgz:543812.got - 2010.06.03 11:33:40.
