data_PCOD9002293
_publ_section_title
;
Structure prediction by ZEFSAII (Michael W. Deem and Ramdas Pophale) SiO2 
 PCOD9002293
Probable space group: P -1
;
_chemical_formula_sum "Si O2"
_cell_formula_units_Z 16
_cell_length_a 12.963180
_cell_length_b 8.293468
_cell_length_c 9.070111
_cell_angle_alpha 132.434370
_cell_angle_beta 88.489461
_cell_angle_gamma 84.451167
_cell_volume 710.728029
_symmetry_space_group_name_H-M "P -1"
_symmetry_group_IT_number 2
_symmetry_cell_setting 'triclinic'
loop_
_space_group_symop_operation_xyz
x,y,z
-x,-y,-z
loop_
_atom_site_type_symbol
_atom_site_label
_atom_site_fract_x
_atom_site_fract_y
_atom_site_fract_z
Si Si1 0.343532 0.650245 0.839237
Si Si2 0.857596 0.447248 0.098469
Si Si3 0.204000 0.084033 0.711536
Si Si4 0.827941 0.815269 0.551417
Si Si5 0.394980 0.761249 0.596421
Si Si6 0.511385 0.333268 0.759523
Si Si7 0.003119 0.022354 0.838194
Si Si8 0.404055 0.039162 0.254681
O O1 0.235157 0.693026 0.956367
O O2 0.341256 0.654926 0.667022
O O3 0.397267 0.405389 0.736878
O O4 0.403641 0.847755 0.013454
O O5 0.821551 0.648941 0.113359
O O6 0.863584 0.572364 0.331384
O O7 0.958595 0.276545 0.952533
O O8 0.189740 0.039934 0.510284
O O9 0.119062 0.976076 0.739900
O O10 0.319016 0.988061 0.701799
O O11 0.921923 0.880654 0.682455
O O12 0.715364 0.844278 0.651733
O O13 0.414541 0.633046 0.361278
O O14 0.507845 0.807543 0.676680
O O15 0.554994 0.098027 0.683147
O O16 0.500000 0.500000 0.000000
O O17 0.000000 0.000000 0.000000
#
# Coordination Sequence:
#
# PCOD9002293 Si02
#       8
#     2   2   2   2   2   2   2   2
#     4  11  22  38  63  96 140 172 219 277 332 380
#     4  10  22  42  69  93 131 173 219 265 329 395
#     4  10  24  42  67  96 127 180 221 264 325 400
#     4  10  23  42  70  93 130 175 220 265 331 393
#     4  12  22  39  64  98 135 174 223 273 330 386
#     4  10  21  36  59  90 127 177 217 260 321 397
#     4  12  24  45  72  98 132 164 219 285 331 383
#     4  11  21  40  64  92 133 180 219 268 329 396
#
# _framework density 22.512127
#
# number of rings (size 3 to 8) (size 9 to 14) (size 15 to 20)
#    0.750    0.500    2.500    4.125    0.000    0.500 
#    0.000    0.000    5.500    0.000    0.000    0.000 
#    0.000    0.000    0.000    0.000    0.000    0.000 
#
# Total GULP energy -89275.054452 kJ/mol
# GULP energy per Si atom -5579.690903 kJ/mol
# Density = 2.246089 g / cm^3
# Si number density = 22.512127 Si / 1000 Ang^3
#
#
#
# Elastic Constant Matrix: (Units=GPa)
#
#
# Indices 1 2 3 4 5 6 
#
# 1 94.1871 -6.4816 17.8996 -0.0652 -6.7950 16.0717
# 2 -6.4816 42.2512 1.3016 -14.2813 6.8740 5.3272
# 3 17.8996 1.3016 65.6837 0.4308 8.7249 -0.0207
# 4 -0.0652 -14.2813 0.4308 39.1818 1.8943 -11.8168
# 5 -6.7950 6.8740 8.7249 1.8943 32.4542 1.2151
# 6 16.0717 5.3272 -0.0207 -11.8168 1.2151 28.1353
#
#
#
# Elastic Compliance Matrix: (Units=1/GPa)
#
#
# Indices 1 2 3 4 5 6 
#
# 1 0.013390 0.001953 -0.004206 -0.002157 0.003987 -0.009099
# 2 0.001953 0.028647 -0.000360 0.010133 -0.006078 -0.002022
# 3 -0.004206 -0.000360 0.017113 0.000875 -0.005572 0.003092
# 4 -0.002157 0.010133 0.000875 0.033573 -0.005304 0.013644
# 5 0.003987 -0.006078 -0.005572 -0.005304 0.034924 -0.004867
# 6 -0.009099 -0.002022 0.003092 0.013644 -0.004867 0.047066
#
#
# Mechanical properties :
#
#
# Convention : Reuss Voigt Hill
#
# Bulk Modulus (GPa) = 18.54406 25.28458 21.91432
# Shear Modulus (GPa) = 25.26349 32.58108 28.92228
#
# Velocity S-wave (km/s) = 3.35358 3.80842 3.58822
# Velocity P-wave (km/s) = 4.82189 5.53125 5.18871
#
# Compressibility (1/GPa) = 0.05392562
#
# Stress axis : x y z
#
# Youngs Moduli (GPa) = 74.68416 34.90715 58.43470
#
# Poissons Ratio (x) = -0.06819 0.24577
# Poissons Ratio (y) = -0.14588 0.02102
# Poissons Ratio (z) = 0.31411 0.01256
#
# Static dielectric constant tensor:
#      x y z
#    x 1.828530 0.003320 0.016250 
#    y 0.003320 1.862190 0.027400 
#    z 0.016250 0.027400 1.861330 
# 
# From -- ./inp_files/245975.got.cif
#   From: 2010.05.17/outbox.cif.g08.bks.cpg/sg2_123_cif.got.tgz:245975.got - 2010.06.03 11:33:40.
