data_PCOD9002183
_publ_section_title
;
Structure prediction by ZEFSAII (Michael W. Deem and Ramdas Pophale) SiO2 
 PCOD9002183
Probable space group: P -1
;
_chemical_formula_sum "Si O2"
_cell_formula_units_Z 13
_cell_length_a 20.793634
_cell_length_b 5.028351
_cell_length_c 20.726844
_cell_angle_alpha 119.387999
_cell_angle_beta 165.867335
_cell_angle_gamma 61.052677
_cell_volume 460.718735
_symmetry_space_group_name_H-M "P -1"
_symmetry_group_IT_number 2
_symmetry_cell_setting 'triclinic'
loop_
_space_group_symop_operation_xyz
x,y,z
-x,-y,-z
loop_
_atom_site_type_symbol
_atom_site_label
_atom_site_fract_x
_atom_site_fract_y
_atom_site_fract_z
Si Si1 0.566136 0.512131 0.642917
Si Si2 0.000000 0.000000 0.000000
Si Si3 0.340659 0.579828 0.940412
Si Si4 0.151498 0.685449 0.594655
Si Si5 0.066434 0.920273 0.201624
Si Si6 0.343893 0.811609 0.653073
Si Si7 0.144896 0.453773 0.877669
O O1 0.500000 0.500000 0.500000
O O2 0.719890 0.194642 0.773447
O O3 0.295380 0.686632 0.422701
O O4 0.802047 0.735519 0.914197
O O5 0.881732 0.983943 0.810420
O O6 0.564450 0.353074 0.100459
O O7 0.501595 0.881224 0.146708
O O8 0.248121 0.454461 0.904771
O O9 0.059477 0.578738 0.631047
O O10 0.244589 0.690769 0.611176
O O11 0.000000 0.000000 0.500000
O O12 0.006877 0.229257 0.218745
O O13 0.064969 0.806559 0.344417
O O14 0.575450 0.598446 0.820579
#
# Coordination Sequence:
#
# PCOD9002183 Si02
#       7
#     2   1   2   2   2   2   2
#     4  10  22  39  60  87 120 155 198 255 316 378
#     4  10  22  40  62  88 120 156 200 256 316 372
#     4  10  21  38  59  84 120 160 199 249 303 361
#     4  10  21  36  58  89 121 155 200 251 301 362
#     4  11  23  40  61  88 121 159 206 260 316 375
#     4  10  21  39  60  85 120 160 203 250 306 368
#     4  10  22  40  59  86 120 157 206 255 303 371
#
# _framework density 28.216784000000001
#
# number of rings (size 3 to 8) (size 9 to 14) (size 15 to 20)
#    0.000    1.846    0.000    4.154    0.000    8.000 
#    0.000    4.615    0.000    0.000    0.000    0.000 
#    0.000    0.000    0.000    0.000    0.000    0.000 
#
# Total GULP energy -72427.242816 kJ/mol
# GULP energy per Si atom -5571.326370 kJ/mol
# Density = 2.815256 g / cm^3
# Si number density = 28.216784 Si / 1000 Ang^3
#
#
#
# Elastic Constant Matrix: (Units=GPa)
#
#
# Indices 1 2 3 4 5 6 
#
# 1 103.1160 15.9022 43.6486 -16.8204 7.3448 3.8574
# 2 15.9022 158.2217 109.8942 -26.5669 32.5678 -18.4431
# 3 43.6486 109.8942 295.9334 -14.5329 30.8768 -5.6359
# 4 -16.8204 -26.5669 -14.5329 77.2029 7.2534 13.7139
# 5 7.3448 32.5678 30.8768 7.2534 39.3340 -16.3684
# 6 3.8574 -18.4431 -5.6359 13.7139 -16.3684 44.5758
#
#
#
# Elastic Compliance Matrix: (Units=1/GPa)
#
#
# Indices 1 2 3 4 5 6 
#
# 1 0.011099 0.000820 -0.001474 0.003304 -0.003498 -0.003108
# 2 0.000820 0.010504 -0.003089 0.003863 -0.007101 0.000088
# 3 -0.001474 -0.003089 0.004859 -0.000167 -0.001360 -0.000984
# 4 0.003304 0.003863 -0.000167 0.017293 -0.010092 -0.007735
# 5 -0.003498 -0.007101 -0.001360 -0.010092 0.041322 0.015471
# 6 -0.003108 0.000088 -0.000984 -0.007735 0.015471 0.030676
#
#
# Mechanical properties :
#
#
# Convention : Reuss Voigt Hill
#
# Bulk Modulus (GPa) = 52.69569 99.57345 76.13457
# Shear Modulus (GPa) = 38.59086 58.07761 48.33423
#
# Velocity S-wave (km/s) = 3.70220 4.54173 4.14328
# Velocity P-wave (km/s) = 6.08201 7.92896 7.06609
#
# Compressibility (1/GPa) = 0.01897688
#
# Stress axis : x y z
#
# Youngs Moduli (GPa) = 90.09418 95.20012 205.81722
#
# Poissons Ratio (x) = -0.07811 0.30333
# Poissons Ratio (y) = -0.07392 0.63586
# Poissons Ratio (z) = 0.13278 0.29411
#
# Static dielectric constant tensor:
#      x y z
#    x 2.295150 0.036210 -0.089700 
#    y 0.036210 2.263540 -0.001850 
#    z -0.089700 -0.001850 2.259160 
# 
# From -- ./inp_files/621048.got.cif
#   From: 2010.05.17/outbox.cif.g08.bks.cpg/sg2_311_cif.got.tgz:621048.got - 2010.06.03 11:33:40.
