data_PCOD9002521
_publ_section_title
;
Structure prediction by ZEFSAII (Michael W. Deem and Ramdas Pophale) SiO2 
 PCOD9002521
Probable space group: P -1
;
_chemical_formula_sum "Si O2"
_cell_formula_units_Z 14
_cell_length_a 12.259851
_cell_length_b 11.142152
_cell_length_c 7.858666
_cell_angle_alpha 70.177137
_cell_angle_beta 84.733398
_cell_angle_gamma 46.743970
_cell_volume 719.852500
_symmetry_space_group_name_H-M "P -1"
_symmetry_group_IT_number 2
_symmetry_cell_setting 'triclinic'
loop_
_space_group_symop_operation_xyz
x,y,z
-x,-y,-z
loop_
_atom_site_type_symbol
_atom_site_label
_atom_site_fract_x
_atom_site_fract_y
_atom_site_fract_z
Si Si1 0.582251 0.577789 0.745310
Si Si2 0.612706 0.263204 0.973849
Si Si3 0.876756 0.480751 0.857584
Si Si4 0.943557 0.905183 0.100089
Si Si5 0.941212 0.181073 0.491937
Si Si6 0.910925 0.472152 0.246367
Si Si7 0.364382 0.441300 0.631798
O O1 0.649276 0.382373 0.872567
O O2 0.712695 0.575570 0.764062
O O3 0.549467 0.615227 0.531822
O O4 0.446816 0.701120 0.841403
O O5 0.476997 0.343419 0.822159
O O6 0.761689 0.056702 0.029495
O O7 0.977493 0.270660 0.932108
O O8 0.970824 0.513967 0.731087
O O9 0.859201 0.536878 0.028777
O O10 0.995727 0.846178 0.315797
O O11 0.000000 0.000000 0.000000
O O12 0.987748 0.269293 0.338015
O O13 0.755462 0.342528 0.439848
O O14 0.000000 0.000000 0.500000
O O15 0.758830 0.574713 0.332541
#
# Coordination Sequence:
#
# PCOD9002521 Si02
#       7
#     2   2   2   2   2   2   2
#     4  11  21  37  65  84 126 172 206 252 311 382
#     4  11  24  38  58  96 130 158 209 257 320 365
#     4  11  19  42  65  91 124 168 216 252 313 371
#     4  12  23  38  60  95 123 164 206 265 310 362
#     4  10  21  36  61  93 123 150 213 263 301 360
#     4   9  22  37  68  91 123 166 213 259 304 377
#     4  10  21  41  60  94 120 172 203 252 318 375
#
# _framework density 19.448429000000001
#
# number of rings (size 3 to 8) (size 9 to 14) (size 15 to 20)
#    0.857    0.571    4.286    1.286    4.000    2.286 
#    2.571    0.714    0.000    1.714    0.000    0.000 
#    0.000    0.000    0.000    0.000    0.000    0.000 
#
# Total GULP energy -78054.036975 kJ/mol
# GULP energy per Si atom -5575.288355 kJ/mol
# Density = 1.940416 g / cm^3
# Si number density = 19.448429 Si / 1000 Ang^3
#
#
#
# Elastic Constant Matrix: (Units=GPa)
#
#
# Indices 1 2 3 4 5 6 
#
# 1 101.0635 4.2283 17.0473 0.7548 -20.0482 0.8444
# 2 4.2283 39.5849 12.5823 3.2539 -0.7292 -9.3511
# 3 17.0473 12.5823 77.3668 17.3953 -6.4989 -11.7694
# 4 0.7548 3.2539 17.3953 31.3212 -6.1685 0.1311
# 5 -20.0482 -0.7292 -6.4989 -6.1685 31.3274 -6.0352
# 6 0.8444 -9.3511 -11.7694 0.1311 -6.0352 22.7220
#
#
#
# Elastic Compliance Matrix: (Units=1/GPa)
#
#
# Indices 1 2 3 4 5 6 
#
# 1 0.011813 -0.000543 -0.002462 0.002629 0.007565 0.000057
# 2 -0.000543 0.028857 -0.002443 -0.001342 0.001689 0.011087
# 3 -0.002462 -0.002443 0.017355 -0.008996 0.001858 0.008621
# 4 0.002629 -0.001342 -0.008996 0.038315 0.006601 -0.003777
# 5 0.007565 0.001689 0.001858 0.006601 0.040834 0.012184
# 6 0.000057 0.011087 0.008621 -0.003777 0.012184 0.056294
#
#
# Mechanical properties :
#
#
# Convention : Reuss Voigt Hill
#
# Bulk Modulus (GPa) = 21.21762 31.74790 26.48276
# Shear Modulus (GPa) = 22.71949 29.35129 26.03539
#
# Velocity S-wave (km/s) = 3.42159 3.88904 3.66278
# Velocity P-wave (km/s) = 5.15200 6.04365 5.61555
#
# Compressibility (1/GPa) = 0.04713063
#
# Stress axis : x y z
#
# Youngs Moduli (GPa) = 84.65016 34.65338 57.61904
#
# Poissons Ratio (x) = 0.01881 0.14183
# Poissons Ratio (y) = 0.04594 0.14078
# Poissons Ratio (z) = 0.20837 0.08467
#
# Static dielectric constant tensor:
#      x y z
#    x 1.710090 -0.006060 0.000820 
#    y -0.006060 1.676020 0.010790 
#    z 0.000820 0.010790 1.804800 
# 
# From -- ./inp_files/256864.got.cif
#   From: 2010.05.17/outbox.cif.g08.bks.cpg/sg2_129_cif.got.tgz:256864.got - 2010.06.03 11:33:40.
