data_PCOD9002672
_publ_section_title
;
Structure prediction by ZEFSAII (Michael W. Deem and Ramdas Pophale) SiO2 
 PCOD9002672
Probable space group: P -1
;
_chemical_formula_sum "Si O2"
_cell_formula_units_Z 14
_cell_length_a 7.751311
_cell_length_b 13.970749
_cell_length_c 8.524769
_cell_angle_alpha 99.103280
_cell_angle_beta 125.133558
_cell_angle_gamma 46.511800
_cell_volume 501.814033
_symmetry_space_group_name_H-M "P -1"
_symmetry_group_IT_number 2
_symmetry_cell_setting 'triclinic'
loop_
_space_group_symop_operation_xyz
x,y,z
-x,-y,-z
loop_
_atom_site_type_symbol
_atom_site_label
_atom_site_fract_x
_atom_site_fract_y
_atom_site_fract_z
Si Si1 0.828443 0.983672 0.600328
Si Si2 0.201077 0.562190 0.998394
Si Si3 0.563449 0.722175 0.403100
Si Si4 0.340505 0.718993 0.969115
Si Si5 0.170680 0.239790 0.895852
Si Si6 0.802179 0.427701 0.467802
Si Si7 0.585843 0.002205 0.823726
O O1 0.719381 0.986466 0.720676
O O2 0.657004 0.145873 0.555803
O O3 0.695427 0.972116 0.377592
O O4 0.185854 0.829690 0.773465
O O5 0.180526 0.668604 0.913389
O O6 0.514043 0.474533 0.242615
O O7 0.905081 0.656744 0.981679
O O8 0.300865 0.435614 0.918066
O O9 0.357578 0.771399 0.153233
O O10 0.687949 0.575440 0.481439
O O11 0.877170 0.673186 0.496002
O O12 0.895028 0.342396 0.652790
O O13 0.465006 0.128407 0.905693
O O14 0.195651 0.134060 0.983369
#
# Coordination Sequence:
#
# PCOD9002672 Si02
#       7
#     2   2   2   2   2   2   2
#     4  11  20  40  60  87 121 159 198 248 282 368
#     4  10  21  36  63  90 120 151 203 248 293 347
#     4  10  22  38  60  88 123 161 195 238 298 365
#     4  10  21  37  61  93 116 158 200 243 294 358
#     4  11  20  40  60  94 120 151 197 262 290 342
#     4  10  21  37  59  87 120 158 197 237 300 352
#     4  10  23  34  65  91 115 156 205 240 304 341
#
# _framework density 27.898781
#
# number of rings (size 3 to 8) (size 9 to 14) (size 15 to 20)
#    0.000    1.714    2.857    1.714    2.000    2.286 
#    0.000    2.857    0.000    5.143    0.000    0.000 
#    0.000    0.000    0.000    0.000    0.000    0.000 
#
# Total GULP energy -78257.303568 kJ/mol
# GULP energy per Si atom -5589.807398 kJ/mol
# Density = 2.783528 g / cm^3
# Si number density = 27.898781 Si / 1000 Ang^3
#
#
#
# Elastic Constant Matrix: (Units=GPa)
#
#
# Indices 1 2 3 4 5 6 
#
# 1 82.2457 17.4913 34.6084 0.3833 -14.3538 -12.1585
# 2 17.4913 152.9345 32.3705 -7.8460 -5.3425 -17.0046
# 3 34.6084 32.3705 165.7122 -19.5126 -7.7651 30.2983
# 4 0.3833 -7.8460 -19.5126 47.6873 5.4756 -11.4441
# 5 -14.3538 -5.3425 -7.7651 5.4756 31.1407 6.8149
# 6 -12.1585 -17.0046 30.2983 -11.4441 6.8149 23.9663
#
#
#
# Elastic Compliance Matrix: (Units=1/GPa)
#
#
# Indices 1 2 3 4 5 6 
#
# 1 0.018414 0.002011 -0.007742 0.001780 0.002031 0.020828
# 2 0.002011 0.009285 -0.004950 0.003798 -0.003000 0.016532
# 3 -0.007742 -0.004950 0.013572 -0.002348 0.005340 -0.027237
# 4 0.001780 0.003798 -0.002348 0.026849 -0.008613 0.021836
# 5 0.002031 -0.003000 0.005340 -0.008613 0.040519 -0.023484
# 6 0.020828 0.016532 -0.027237 0.021836 -0.023484 0.115559
#
#
# Mechanical properties :
#
#
# Convention : Reuss Voigt Hill
#
# Bulk Modulus (GPa) = 50.22816 63.31476 56.77146
# Shear Modulus (GPa) = 19.82589 41.65365 30.73977
#
# Velocity S-wave (km/s) = 2.66867 3.86816 3.32299
# Velocity P-wave (km/s) = 5.24772 6.53406 5.92590
#
# Compressibility (1/GPa) = 0.01990915
#
# Stress axis : x y z
#
# Youngs Moduli (GPa) = 54.30644 107.70541 73.68153
#
# Poissons Ratio (x) = -0.21657 0.57043
# Poissons Ratio (y) = -0.10920 0.36469
# Poissons Ratio (z) = 0.42043 0.53310
#
# Static dielectric constant tensor:
#      x y z
#    x 2.289690 -0.055790 0.027830 
#    y -0.055790 2.251770 -0.042420 
#    z 0.027830 -0.042420 2.093970 
# 
# From -- ./inp_files/169723.got.cif
#   From: 2010.05.17/outbox.cif.g08.bks.cpg/sg2_85_cif.got.tgz:169723.got - 2010.06.03 11:33:40.
