data_PCOD9002095
_publ_section_title
;
Structure prediction by ZEFSAII (Michael W. Deem and Ramdas Pophale) SiO2 
 PCOD9002095
Probable space group: P -1
;
_chemical_formula_sum "Si O2"
_cell_formula_units_Z 14
_cell_length_a 10.066563
_cell_length_b 11.769328
_cell_length_c 8.072688
_cell_angle_alpha 35.491601
_cell_angle_beta 80.096025
_cell_angle_gamma 71.396455
_cell_volume 519.535792
_symmetry_space_group_name_H-M "P -1"
_symmetry_group_IT_number 2
_symmetry_cell_setting 'triclinic'
loop_
_space_group_symop_operation_xyz
x,y,z
-x,-y,-z
loop_
_atom_site_type_symbol
_atom_site_label
_atom_site_fract_x
_atom_site_fract_y
_atom_site_fract_z
Si Si1 0.991186 0.249494 0.348555
Si Si2 0.159972 0.341218 0.475677
Si Si3 0.554361 0.644831 0.109519
Si Si4 0.266128 0.634848 0.318885
Si Si5 0.867141 0.991549 0.878977
Si Si6 0.310210 0.731235 0.671656
Si Si7 0.702171 0.903216 0.571072
O O1 0.023857 0.385249 0.330404
O O2 0.135026 0.194392 0.280384
O O3 0.987855 0.031527 0.688039
O O4 0.833908 0.334891 0.208740
O O5 0.207015 0.528218 0.311100
O O6 0.279223 0.186317 0.513680
O O7 0.130697 0.217499 0.787880
O O8 0.405728 0.695736 0.172294
O O9 0.676804 0.535899 0.346699
O O10 0.567746 0.461205 0.193197
O O11 0.597111 0.822256 0.797395
O O12 0.152337 0.837249 0.175493
O O13 0.727524 0.096500 0.671422
O O14 0.330047 0.854762 0.680087
#
# Coordination Sequence:
#
# PCOD9002095 Si02
#       7
#     2   2   2   2   2   2   2
#     4   8  20  36  56  88 112 140 188 218 284 340
#     4  10  21  36  57  87 114 144 180 229 286 325
#     4  10  22  40  58  81 111 148 194 229 265 328
#     4  10  22  40  58  81 111 148 194 229 265 328
#     4   9  19  38  58  82 111 148 184 223 276 330
#     4   9  19  38  58  82 111 148 184 223 276 330
#     4  10  21  36  57  87 114 144 180 229 286 325
#
# _framework density 26.947130000000001
#
# number of rings (size 3 to 8) (size 9 to 14) (size 15 to 20)
#    1.714    0.857    0.000    1.714    0.000    4.000 
#    0.000    5.714    0.000    0.000    0.000    0.000 
#    0.000    0.000    0.000    0.000    0.000    0.000 
#
# Total GULP energy -78320.711049 kJ/mol
# GULP energy per Si atom -5594.336503 kJ/mol
# Density = 2.688580 g / cm^3
# Si number density = 26.947130 Si / 1000 Ang^3
#
#
#
# Elastic Constant Matrix: (Units=GPa)
#
#
# Indices 1 2 3 4 5 6 
#
# 1 92.6044 23.6472 36.0978 1.1698 -29.0005 -4.7746
# 2 23.6472 123.6102 15.1930 -11.0590 -8.3232 11.7362
# 3 36.0978 15.1930 114.3634 -1.5614 -15.2270 2.0621
# 4 1.1698 -11.0590 -1.5614 29.0788 3.2535 5.1309
# 5 -29.0005 -8.3232 -15.2270 3.2535 49.0398 8.1962
# 6 -4.7746 11.7362 2.0621 5.1309 8.1962 40.9351
#
#
#
# Elastic Compliance Matrix: (Units=1/GPa)
#
#
# Indices 1 2 3 4 5 6 
#
# 1 0.015236 -0.002368 -0.003570 -0.002801 0.007435 0.001498
# 2 -0.002368 0.009321 -0.000317 0.004203 0.000396 -0.003539
# 3 -0.003570 -0.000317 0.010091 0.000641 0.001116 -0.001138
# 4 -0.002801 0.004203 0.000641 0.037411 -0.002257 -0.005801
# 5 0.007435 0.000396 0.001116 -0.002257 0.026060 -0.004237
# 6 0.001498 -0.003539 -0.001138 -0.005801 -0.004237 0.027251
#
#
# Mechanical properties :
#
#
# Convention : Reuss Voigt Hill
#
# Bulk Modulus (GPa) = 45.17205 53.38378 49.27792
# Shear Modulus (GPa) = 34.42143 40.85342 37.63743
#
# Velocity S-wave (km/s) = 3.57791 3.89788 3.74132
# Velocity P-wave (km/s) = 5.81964 6.33337 6.08193
#
# Compressibility (1/GPa) = 0.02213758
#
# Stress axis : x y z
#
# Youngs Moduli (GPa) = 65.63426 107.28938 99.10042
#
# Poissons Ratio (x) = 0.25408 0.35377
# Poissons Ratio (y) = 0.15544 0.03140
# Poissons Ratio (z) = 0.23430 0.03399
#
# Static dielectric constant tensor:
#      x y z
#    x 2.108010 0.046730 0.050640 
#    y 0.046730 2.112010 0.056670 
#    z 0.050640 0.056670 2.136060 
# 
# From -- ./inp_files/251326.got.cif
#   From: 2010.05.17/outbox.cif.g08.bks.cpg/sg2_126_cif.got.tgz:251326.got - 2010.06.03 11:33:40.
