data_PCOD9002640
_publ_section_title
;
Structure prediction by ZEFSAII (Michael W. Deem and Ramdas Pophale) SiO2 
 PCOD9002640
Probable space group: P -1
;
_chemical_formula_sum "Si O2"
_cell_formula_units_Z 14
_cell_length_a 15.603153
_cell_length_b 12.419414
_cell_length_c 9.501114
_cell_angle_alpha 133.397333
_cell_angle_beta 124.691326
_cell_angle_gamma 28.794081
_cell_volume 641.501335
_symmetry_space_group_name_H-M "P -1"
_symmetry_group_IT_number 2
_symmetry_cell_setting 'triclinic'
loop_
_space_group_symop_operation_xyz
x,y,z
-x,-y,-z
loop_
_atom_site_type_symbol
_atom_site_label
_atom_site_fract_x
_atom_site_fract_y
_atom_site_fract_z
Si Si1 0.984150 0.850974 0.991779
Si Si2 0.632837 0.456928 0.228680
Si Si3 0.544783 0.068030 0.485857
Si Si4 0.072533 0.267601 0.432513
Si Si5 0.520500 0.054633 0.921163
Si Si6 0.366723 0.526515 0.089363
Si Si7 0.941149 0.579496 0.853025
O O1 0.154821 0.751967 0.104478
O O2 0.805526 0.152707 0.122246
O O3 0.994132 0.789997 0.780610
O O4 0.984812 0.694221 0.936227
O O5 0.623144 0.633485 0.439125
O O6 0.472535 0.554132 0.242962
O O7 0.595077 0.534241 0.097262
O O8 0.500000 0.000000 0.500000
O O9 0.714138 0.970124 0.598858
O O10 0.597298 0.908704 0.260077
O O11 0.000000 0.500000 0.500000
O O12 0.021731 0.356531 0.627436
O O13 0.726902 0.814107 0.853791
O O14 0.452047 0.299405 0.058510
O O15 0.500000 0.000000 0.000000
O O16 0.000000 0.500000 0.000000
#
# Coordination Sequence:
#
# PCOD9002640 Si02
#       7
#     2   2   2   2   2   2   2
#     4  11  22  42  67  99 137 174 218 273 334 390
#     4  11  24  40  66 101 138 173 219 280 329 392
#     4  12  23  41  66  98 132 172 228 276 328 394
#     4  10  21  36  62  99 129 167 218 275 321 386
#     4  12  24  43  70  97 130 178 225 274 333 402
#     4  11  22  41  66  98 135 173 218 271 333 390
#     4  11  23  41  67  96 135 174 224 273 329 401
#
# _framework density 21.823805
#
# number of rings (size 3 to 8) (size 9 to 14) (size 15 to 20)
#    0.000    0.857    2.857    7.286    2.000    0.000 
#    0.000    0.714    3.143    1.714    0.000    0.000 
#    0.000    0.000    0.000    0.000    0.000    0.000 
#
# Total GULP energy -78199.654152 kJ/mol
# GULP energy per Si atom -5585.689582 kJ/mol
# Density = 2.177413 g / cm^3
# Si number density = 21.823805 Si / 1000 Ang^3
#
#
#
# Elastic Constant Matrix: (Units=GPa)
#
#
# Indices 1 2 3 4 5 6 
#
# 1 128.3822 60.8758 34.4547 11.0118 2.5451 12.8499
# 2 60.8758 124.3807 40.7891 20.6767 8.1340 -0.8103
# 3 34.4547 40.7891 63.9199 12.9111 0.3149 12.1393
# 4 11.0118 20.6767 12.9111 38.5828 10.2367 -0.5097
# 5 2.5451 8.1340 0.3149 10.2367 31.6695 -0.3008
# 6 12.8499 -0.8103 12.1393 -0.5097 -0.3008 53.0909
#
#
#
# Elastic Compliance Matrix: (Units=1/GPa)
#
#
# Indices 1 2 3 4 5 6 
#
# 1 0.010807 -0.004487 -0.002584 0.000088 0.000261 -0.002091
# 2 -0.004487 0.012706 -0.005514 -0.003173 -0.001799 0.002500
# 3 -0.002584 -0.005514 0.022344 -0.004600 0.002845 -0.004596
# 4 0.000088 -0.003173 -0.004600 0.031632 -0.009359 0.001233
# 5 0.000261 -0.001799 0.002845 -0.009359 0.035008 -0.000633
# 6 -0.002091 0.002500 -0.004596 0.001233 -0.000633 0.020439
#
#
# Mechanical properties :
#
#
# Convention : Reuss Voigt Hill
#
# Bulk Modulus (GPa) = 48.34122 65.43576 56.88849
# Shear Modulus (GPa) = 30.30265 36.70618 33.50442
#
# Velocity S-wave (km/s) = 3.73032 4.10559 3.92244
# Velocity P-wave (km/s) = 6.38377 7.24729 6.82919
#
# Compressibility (1/GPa) = 0.02068628
#
# Stress axis : x y z
#
# Youngs Moduli (GPa) = 92.53252 78.70468 44.75475
#
# Poissons Ratio (x) = 0.35317 0.11564
# Poissons Ratio (y) = 0.41522 0.24678
# Poissons Ratio (z) = 0.23908 0.43399
#
# Static dielectric constant tensor:
#      x y z
#    x 1.792970 -0.048850 0.012390 
#    y -0.048850 1.816510 0.014130 
#    z 0.012390 0.014130 1.829570 
# 
# From -- ./inp_files/308580.got.cif
#   From: 2010.05.17/outbox.cif.g08.bks.cpg/sg2_155_cif.got.tgz:308580.got - 2010.06.03 11:33:40.
