data_PCOD9002722
_publ_section_title
;
Structure prediction by ZEFSAII (Michael W. Deem and Ramdas Pophale) SiO2 
 PCOD9002722
Probable space group: P -1
;
_chemical_formula_sum "Si O2"
_cell_formula_units_Z 16
_cell_length_a 12.522508
_cell_length_b 9.300531
_cell_length_c 28.705952
_cell_angle_alpha 27.893954
_cell_angle_beta 29.997824
_cell_angle_gamma 37.195579
_cell_volume 775.032516
_symmetry_space_group_name_H-M "P -1"
_symmetry_group_IT_number 2
_symmetry_cell_setting 'triclinic'
loop_
_space_group_symop_operation_xyz
x,y,z
-x,-y,-z
loop_
_atom_site_type_symbol
_atom_site_label
_atom_site_fract_x
_atom_site_fract_y
_atom_site_fract_z
Si Si1 0.862669 0.087925 0.285509
Si Si2 0.171402 0.861772 0.514948
Si Si3 0.091729 0.716424 0.940694
Si Si4 0.677132 0.872497 0.931566
Si Si5 0.023411 0.123589 0.597840
Si Si6 0.827726 0.819948 0.091969
Si Si7 0.588321 0.834675 0.870140
Si Si8 0.668128 0.863803 0.334340
O O1 0.856555 0.453717 0.191841
O O2 0.094585 0.987908 0.200337
O O3 0.842486 0.952561 0.383141
O O4 0.689306 0.010591 0.335598
O O5 0.419509 0.912510 0.398766
O O6 0.208902 0.486272 0.609915
O O7 0.108107 0.005940 0.548631
O O8 0.000000 0.000000 0.500000
O O9 0.212110 0.956934 0.800077
O O10 0.247219 0.488624 0.980781
O O11 0.000000 0.500000 0.000000
O O12 0.886330 0.875119 0.000588
O O13 0.582790 0.919347 0.902449
O O14 0.500000 0.000000 0.000000
O O15 0.000000 0.500000 0.500000
O O16 0.818309 0.929595 0.739544
O O17 0.586689 0.956297 0.154478
O O18 0.000000 0.000000 0.000000
O O19 0.500000 0.500000 0.000000
#
# Coordination Sequence:
#
# PCOD9002722 Si02
#       8
#     2   2   2   2   2   2   2   2
#     4  10  23  43  65 102 138 182 233 284 355 422
#     4  11  28  50  72 100 139 187 241 300 348 420
#     4  11  21  39  64 101 133 175 221 279 344 412
#     4  10  21  36  63  98 136 177 221 280 341 411
#     4  11  26  47  72 101 140 182 238 293 354 430
#     4  11  23  40  64  98 144 177 220 282 348 426
#     4  11  25  42  64 102 135 179 229 279 350 411
#     4  11  25  46  72 102 140 185 242 289 354 418
#
# _framework density 20.644293999999999
#
# number of rings (size 3 to 8) (size 9 to 14) (size 15 to 20)
#    0.000    1.250    2.500    3.750    5.250    4.500 
#    2.250    0.000    0.000    0.000    0.000    0.000 
#    0.000    0.000    0.000    0.000    0.000    0.000 
#
# Total GULP energy -89128.797476 kJ/mol
# GULP energy per Si atom -5570.549842 kJ/mol
# Density = 2.059731 g / cm^3
# Si number density = 20.644294 Si / 1000 Ang^3
#
#
#
# Elastic Constant Matrix: (Units=GPa)
#
#
# Indices 1 2 3 4 5 6 
#
# 1 93.3659 23.9315 27.2226 -5.7787 4.0107 -13.3506
# 2 23.9315 74.6527 28.6623 -4.5128 0.1338 -5.4848
# 3 27.2226 28.6623 104.8571 -16.8330 10.5406 -6.7621
# 4 -5.7787 -4.5128 -16.8330 25.3670 6.7014 -0.9523
# 5 4.0107 0.1338 10.5406 6.7014 36.9819 1.7172
# 6 -13.3506 -5.4848 -6.7621 -0.9523 1.7172 39.4185
#
#
#
# Elastic Compliance Matrix: (Units=1/GPa)
#
#
# Indices 1 2 3 4 5 6 
#
# 1 0.012696 -0.002990 -0.001853 0.001611 -0.001300 0.003662
# 2 -0.002990 0.015790 -0.003777 -0.000746 0.001458 0.000455
# 3 -0.001853 -0.003777 0.013132 0.009063 -0.005242 0.001547
# 4 0.001611 -0.000746 0.009063 0.048923 -0.011792 0.003692
# 5 -0.001300 0.001458 -0.005242 -0.011792 0.030936 -0.002769
# 6 0.003662 0.000455 0.001547 0.003692 -0.002769 0.027147
#
#
# Mechanical properties :
#
#
# Convention : Reuss Voigt Hill
#
# Bulk Modulus (GPa) = 41.02078 48.05650 44.53864
# Shear Modulus (GPa) = 28.73722 33.22410 30.98066
#
# Velocity S-wave (km/s) = 3.73502 4.01604 3.87808
# Velocity P-wave (km/s) = 6.20596 6.69579 6.45552
#
# Compressibility (1/GPa) = 0.02437789
#
# Stress axis : x y z
#
# Youngs Moduli (GPa) = 78.76201 63.33296 76.14994
#
# Poissons Ratio (x) = 0.18935 0.14114
# Poissons Ratio (y) = 0.23548 0.28761
# Poissons Ratio (z) = 0.14598 0.23920
#
# Static dielectric constant tensor:
#      x y z
#    x 1.766670 -0.023600 -0.002000 
#    y -0.023600 1.768980 -0.016110 
#    z -0.002000 -0.016110 1.751320 
# 
# From -- ./inp_files/618196.got.cif
#   From: 2010.05.17/outbox.cif.g08.bks.cpg/sg2_310_cif.got.tgz:618196.got - 2010.06.03 11:33:40.
