data_PCOD9002511
_publ_section_title
;
Structure prediction by ZEFSAII (Michael W. Deem and Ramdas Pophale) SiO2 
 PCOD9002511
Probable space group: P -1
;
_chemical_formula_sum "Si O2"
_cell_formula_units_Z 14
_cell_length_a 7.712377
_cell_length_b 16.010636
_cell_length_c 7.105575
_cell_angle_alpha 70.144127
_cell_angle_beta 98.803004
_cell_angle_gamma 55.321288
_cell_volume 606.821089
_symmetry_space_group_name_H-M "P -1"
_symmetry_group_IT_number 2
_symmetry_cell_setting 'triclinic'
loop_
_space_group_symop_operation_xyz
x,y,z
-x,-y,-z
loop_
_atom_site_type_symbol
_atom_site_label
_atom_site_fract_x
_atom_site_fract_y
_atom_site_fract_z
Si Si1 0.759061 0.555055 0.306439
Si Si2 0.098817 0.351836 0.283263
Si Si3 0.378885 0.727476 0.826026
Si Si4 0.571247 0.105966 0.469777
Si Si5 0.907601 0.305351 0.944254
Si Si6 0.643733 0.932537 0.885664
Si Si7 0.380598 0.431041 0.346378
O O1 0.572461 0.617356 0.398168
O O2 0.000000 0.500000 0.500000
O O3 0.866426 0.432600 0.313314
O O4 0.620691 0.655322 0.044919
O O5 0.338189 0.216162 0.465531
O O6 0.186939 0.424399 0.242218
O O7 0.024568 0.332002 0.094060
O O8 0.315908 0.842018 0.632118
O O9 0.427337 0.643908 0.725079
O O10 0.197325 0.741424 0.922452
O O11 0.499358 0.074915 0.293338
O O12 0.706136 0.999760 0.723425
O O13 0.711242 0.438819 0.735313
O O14 0.115699 0.201474 0.925444
O O15 0.500000 0.000000 0.000000
#
# Coordination Sequence:
#
# PCOD9002511 Si02
#       7
#     2   2   2   2   2   2   2
#     4  10  22  33  59  92 121 168 203 242 297 368
#     4   9  19  36  61  88 122 161 207 248 295 363
#     4  11  23  41  58  93 135 160 196 251 318 379
#     4   9  22  40  63  87 118 160 206 256 306 358
#     4  11  22  38  64  89 129 167 196 259 313 360
#     4  10  23  42  66  90 111 157 220 262 293 359
#     4  10  21  36  61  91 125 166 203 245 307 366
#
# _framework density 23.071052000000002
#
# number of rings (size 3 to 8) (size 9 to 14) (size 15 to 20)
#    0.000    2.000    1.429    0.857   12.000    3.429 
#    0.000    0.714    0.000    0.000    0.000    0.000 
#    0.000    0.000    0.000    0.000    0.000    0.000 
#
# Total GULP energy -77937.733360 kJ/mol
# GULP energy per Si atom -5566.980954 kJ/mol
# Density = 2.301854 g / cm^3
# Si number density = 23.071052 Si / 1000 Ang^3
#
#
#
# Elastic Constant Matrix: (Units=GPa)
#
#
# Indices 1 2 3 4 5 6 
#
# 1 76.4561 36.4079 28.4832 12.9219 -8.6819 14.6389
# 2 36.4079 132.6809 44.5546 7.6201 -15.1277 -11.6177
# 3 28.4832 44.5546 69.1780 2.4507 -29.3635 6.2305
# 4 12.9219 7.6201 2.4507 31.3603 -6.6042 -16.9449
# 5 -8.6819 -15.1277 -29.3635 -6.6042 23.8724 5.7963
# 6 14.6389 -11.6177 6.2305 -16.9449 5.7963 37.6888
#
#
#
# Elastic Compliance Matrix: (Units=1/GPa)
#
#
# Indices 1 2 3 4 5 6 
#
# 1 0.023951 -0.005890 -0.003877 -0.018277 -0.000320 -0.018646
# 2 -0.005890 0.012350 -0.010232 0.004447 -0.008359 0.011071
# 3 -0.003877 -0.010232 0.047639 0.003043 0.055602 -0.016706
# 4 -0.018277 0.004447 0.003043 0.057339 0.007878 0.032535
# 5 -0.000320 -0.008359 0.055602 0.007878 0.113242 -0.025518
# 6 -0.018646 0.011071 -0.016706 0.032535 -0.025518 0.058502
#
#
# Mechanical properties :
#
#
# Convention : Reuss Voigt Hill
#
# Bulk Modulus (GPa) = 22.75677 55.24516 39.00096
# Shear Modulus (GPa) = 13.59923 29.84224 21.72073
#
# Velocity S-wave (km/s) = 2.43049 3.60042 3.07167
# Velocity P-wave (km/s) = 4.21445 6.42508 5.43338
#
# Compressibility (1/GPa) = 0.04394297
#
# Stress axis : x y z
#
# Youngs Moduli (GPa) = 41.75139 80.97341 20.99110
#
# Poissons Ratio (x) = 0.47691 0.08139
# Poissons Ratio (y) = 0.24590 0.21477
# Poissons Ratio (z) = 0.16189 0.82848
#
# Static dielectric constant tensor:
#      x y z
#    x 2.012840 -0.057680 0.036820 
#    y -0.057680 1.921750 -0.070480 
#    z 0.036820 -0.070480 1.954680 
# 
# From -- ./inp_files/196589.got.cif
#   From: 2010.05.17/outbox.cif.g08.bks.cpg/sg2_99_cif.got.tgz:196589.got - 2010.06.03 11:33:40.
