data_PCOD9002548
_publ_section_title
;
Structure prediction by ZEFSAII (Michael W. Deem and Ramdas Pophale) SiO2 
 PCOD9002548
Probable space group: P -1
;
_chemical_formula_sum "Si O2"
_cell_formula_units_Z 15
_cell_length_a 8.715251
_cell_length_b 10.304617
_cell_length_c 11.187531
_cell_angle_alpha 100.858386
_cell_angle_beta 63.335503
_cell_angle_gamma 141.650314
_cell_volume 532.303442
_symmetry_space_group_name_H-M "P -1"
_symmetry_group_IT_number 2
_symmetry_cell_setting 'triclinic'
loop_
_space_group_symop_operation_xyz
x,y,z
-x,-y,-z
loop_
_atom_site_type_symbol
_atom_site_label
_atom_site_fract_x
_atom_site_fract_y
_atom_site_fract_z
Si Si1 0.424987 0.060098 0.797130
Si Si2 0.222351 0.082993 0.070510
Si Si3 0.171111 0.306371 0.287412
Si Si4 0.500000 0.000000 0.500000
Si Si5 0.950058 0.122277 0.568404
Si Si6 0.236295 0.395704 0.742261
Si Si7 0.630121 0.246993 0.147577
Si Si8 0.002671 0.480154 0.353164
O O1 0.414307 0.038206 0.655397
O O2 0.769495 0.274445 0.733520
O O3 0.273247 0.842769 0.878368
O O4 0.274116 0.094390 0.914201
O O5 0.168059 0.190067 0.170881
O O6 0.522049 0.215058 0.047476
O O7 0.977148 0.834434 0.157787
O O8 0.920973 0.169555 0.454419
O O9 0.446710 0.446219 0.296705
O O10 0.168602 0.447165 0.255995
O O11 0.675033 0.238037 0.411611
O O12 0.182961 0.333506 0.609596
O O13 0.000000 0.000000 0.500000
O O14 0.666379 0.938998 0.710461
O O15 0.194883 0.523192 0.819545
O O16 0.000000 0.500000 0.500000
#
# Coordination Sequence:
#
# PCOD9002548 Si02
#       8
#     2   2   2   1   2   2   2   2
#     4  11  24  44  63  90 132 168 218 265 315 390
#     4  10  23  40  62  96 128 165 213 270 326 379
#     4  11  22  39  62  91 129 167 216 265 322 382
#     4  10  24  44  66  92 116 166 218 258 320 384
#     4  11  18  35  60  97 130 157 211 269 324 379
#     4  10  21  36  61  98 127 168 210 263 326 374
#     4  10  22  38  63  95 126 170 211 264 327 379
#     4  10  24  45  64  89 124 167 213 267 317 377
#
# _framework density 28.179416
#
# number of rings (size 3 to 8) (size 9 to 14) (size 15 to 20)
#    0.000    1.600    4.000    2.400    0.000    9.600 
#    0.000    1.333    0.000    0.000    0.000    0.000 
#    0.000    0.000    0.000    0.000    0.000    0.000 
#
# Total GULP energy -83722.357185 kJ/mol
# GULP energy per Si atom -5581.490479 kJ/mol
# Density = 2.811528 g / cm^3
# Si number density = 28.179416 Si / 1000 Ang^3
#
#
#
# Elastic Constant Matrix: (Units=GPa)
#
#
# Indices 1 2 3 4 5 6 
#
# 1 68.4916 42.9321 34.0738 19.3624 -0.7187 -10.1614
# 2 42.9321 208.5489 64.5666 18.3602 4.0308 -4.3576
# 3 34.0738 64.5666 196.3839 36.4529 -14.3186 4.7108
# 4 19.3624 18.3602 36.4529 48.8833 -1.3581 4.8041
# 5 -0.7187 4.0308 -14.3186 -1.3581 46.2712 12.4766
# 6 -10.1614 -4.3576 4.7108 4.8041 12.4766 64.0829
#
#
#
# Elastic Compliance Matrix: (Units=1/GPa)
#
#
# Indices 1 2 3 4 5 6 
#
# 1 0.019341 -0.002914 -0.001475 -0.005851 -0.001050 0.003620
# 2 -0.002914 0.005891 -0.001521 0.000020 -0.001100 0.000263
# 3 -0.001475 -0.001521 0.006731 -0.003699 0.002357 -0.001014
# 4 -0.005851 0.000020 -0.003699 0.025790 0.000230 -0.002633
# 5 -0.001050 -0.001100 0.002357 0.000230 0.023793 -0.005064
# 6 0.003620 0.000263 -0.001014 -0.002633 -0.005064 0.017455
#
#
# Mechanical properties :
#
#
# Convention : Reuss Voigt Hill
#
# Bulk Modulus (GPa) = 49.64680 84.06329 66.85504
# Shear Modulus (GPa) = 42.54055 53.97093 48.25574
#
# Velocity S-wave (km/s) = 3.88961 4.38112 4.14266
# Velocity P-wave (km/s) = 6.15049 7.44906 6.83070
#
# Compressibility (1/GPa) = 0.02014228
#
# Stress axis : x y z
#
# Youngs Moduli (GPa) = 51.70415 169.75328 148.56856
#
# Poissons Ratio (x) = 0.49462 0.21914
# Poissons Ratio (y) = 0.15065 0.22603
# Poissons Ratio (z) = 0.07626 0.25826
#
# Static dielectric constant tensor:
#      x y z
#    x 2.249370 0.011560 0.004050 
#    y 0.011560 2.209070 -0.013680 
#    z 0.004050 -0.013680 2.183820 
# 
# From -- ./inp_files/426318.got.cif
#   From: 2010.05.17/outbox.cif.g08.bks.cpg/sg2_214_cif.got.tgz:426318.got - 2010.06.03 11:33:40.
