data_PCOD9002957
_publ_section_title
;
Structure prediction by ZEFSAII (Michael W. Deem and Ramdas Pophale) SiO2 
 PCOD9002957
Probable space group: P -1
;
_chemical_formula_sum "Si O2"
_cell_formula_units_Z 16
_cell_length_a 10.944969
_cell_length_b 28.616414
_cell_length_c 5.386735
_cell_angle_alpha 58.469021
_cell_angle_beta 99.719208
_cell_angle_gamma 142.197572
_cell_volume 779.064263
_symmetry_space_group_name_H-M "P -1"
_symmetry_group_IT_number 2
_symmetry_cell_setting 'triclinic'
loop_
_space_group_symop_operation_xyz
x,y,z
-x,-y,-z
loop_
_atom_site_type_symbol
_atom_site_label
_atom_site_fract_x
_atom_site_fract_y
_atom_site_fract_z
Si Si1 0.882908 0.416557 0.890610
Si Si2 0.801438 0.723444 0.719739
Si Si3 0.679492 0.222650 0.779950
Si Si4 0.145620 0.754272 0.731982
Si Si5 0.675734 0.425579 0.180921
Si Si6 0.493561 0.256449 0.867436
Si Si7 0.553758 0.959012 0.541709
Si Si8 0.927098 0.837336 0.948643
O O1 0.098482 0.463371 0.942429
O O2 0.000000 0.500000 0.500000
O O3 0.668383 0.307310 0.004096
O O4 0.776244 0.418733 0.043901
O O5 0.530525 0.617985 0.888217
O O6 0.860375 0.775447 0.856551
O O7 0.929414 0.713244 0.773704
O O8 0.888283 0.791428 0.324620
O O9 0.848339 0.277859 0.920137
O O10 0.501995 0.107670 0.085084
O O11 0.809412 0.260422 0.466443
O O12 0.551492 0.233044 0.743576
O O13 0.368202 0.875180 0.504096
O O14 0.561879 0.343555 0.572504
O O15 0.234437 0.168697 0.092603
O O16 0.500000 0.000000 0.500000
O O17 0.811004 0.051231 0.292108
#
# Coordination Sequence:
#
# PCOD9002957 Si02
#       8
#     2   2   2   2   2   2   2   2
#     4   9  17  34  56  88 111 142 181 224 289 341
#     4  11  20  36  57  86 114 140 192 241 279 324
#     4  10  24  37  57  80 114 161 190 226 283 336
#     4  10  22  38  55  81 107 155 195 233 273 325
#     4   9  19  32  60  88 110 142 181 236 288 329
#     4  10  21  37  55  82 122 147 184 228 287 350
#     4  10  21  37  57  82 111 151 199 240 274 319
#     4  11  22  32  58  85 110 151 184 240 288 322
#
# _framework density 20.537459999999999
#
# number of rings (size 3 to 8) (size 9 to 14) (size 15 to 20)
#    0.750    1.250    2.500    1.500    3.500    1.500 
#    0.000    0.625    0.000    1.500    0.000    0.000 
#    0.000    0.000    0.000    0.000    0.000    0.000 
#
# Total GULP energy -89107.748999 kJ/mol
# GULP energy per Si atom -5569.234312 kJ/mol
# Density = 2.049072 g / cm^3
# Si number density = 20.537460 Si / 1000 Ang^3
#
#
#
# Elastic Constant Matrix: (Units=GPa)
#
#
# Indices 1 2 3 4 5 6 
#
# 1 127.8395 47.4549 20.9782 -6.4158 -22.1347 20.1390
# 2 47.4549 81.8671 19.7137 -7.8006 -19.3896 26.6593
# 3 20.9782 19.7137 64.7562 9.4070 -13.8577 0.5399
# 4 -6.4158 -7.8006 9.4070 33.2036 -1.3617 -14.9042
# 5 -22.1347 -19.3896 -13.8577 -1.3617 31.8099 -5.3300
# 6 20.1390 26.6593 0.5399 -14.9042 -5.3300 42.1268
#
#
#
# Elastic Compliance Matrix: (Units=1/GPa)
#
#
# Indices 1 2 3 4 5 6 
#
# 1 0.010617 -0.004303 -0.001408 0.000923 0.003938 -0.001509
# 2 -0.004303 0.020238 -0.003472 0.000847 0.006255 -0.009615
# 3 -0.001408 -0.003472 0.018855 -0.005649 0.005089 0.001274
# 4 0.000923 0.000847 -0.005649 0.037959 0.002474 0.012837
# 5 0.003938 0.006255 0.005089 0.002474 0.040325 0.000071
# 6 -0.001509 -0.009615 0.001274 0.012837 0.000071 0.035079
#
#
# Mechanical properties :
#
#
# Convention : Reuss Voigt Hill
#
# Bulk Modulus (GPa) = 31.90373 50.08404 40.99389
# Shear Modulus (GPa) = 26.05729 33.84911 29.95320
#
# Velocity S-wave (km/s) = 3.56584 4.06416 3.82313
# Velocity P-wave (km/s) = 5.70279 6.81637 6.28429
#
# Compressibility (1/GPa) = 0.03134429
#
# Stress axis : x y z
#
# Youngs Moduli (GPa) = 94.19267 49.41170 53.03694
#
# Poissons Ratio (x) = 0.21260 0.07469
# Poissons Ratio (y) = 0.40528 0.18412
# Poissons Ratio (z) = 0.13265 0.17154
#
# Static dielectric constant tensor:
#      x y z
#    x 1.764650 -0.001220 0.069520 
#    y -0.001220 1.797940 -0.000130 
#    z 0.069520 -0.000130 1.864000 
# 
# From -- ./inp_files/56820.got.cif
#   From: 2010.05.17/outbox.cif.g08.bks.cpg/sg2_29_cif.got.tgz:56820.got - 2010.06.03 11:33:40.
