data_PCOD9002187
_publ_section_title
;
Structure prediction by ZEFSAII (Michael W. Deem and Ramdas Pophale) SiO2 
 PCOD9002187
Probable space group: P -1
;
_chemical_formula_sum "Si O2"
_cell_formula_units_Z 16
_cell_length_a 8.349395
_cell_length_b 19.963163
_cell_length_c 16.088653
_cell_angle_alpha 17.614829
_cell_angle_beta 72.931565
_cell_angle_gamma 72.566162
_cell_volume 773.943160
_symmetry_space_group_name_H-M "P -1"
_symmetry_group_IT_number 2
_symmetry_cell_setting 'triclinic'
loop_
_space_group_symop_operation_xyz
x,y,z
-x,-y,-z
loop_
_atom_site_type_symbol
_atom_site_label
_atom_site_fract_x
_atom_site_fract_y
_atom_site_fract_z
Si Si1 0.272914 0.430806 0.250977
Si Si2 0.659291 0.591325 0.546410
Si Si3 0.647144 0.277406 0.337404
Si Si4 0.679163 0.120846 0.692516
Si Si5 0.313686 0.926475 0.598435
Si Si6 0.825974 0.994855 0.985313
Si Si7 0.554458 0.275000 0.807401
Si Si8 0.851707 0.649817 0.803113
O O1 0.247122 0.411754 0.375574
O O2 0.448572 0.290584 0.369770
O O3 0.143551 0.353588 0.293414
O O4 0.294397 0.688491 0.924039
O O5 0.632824 0.357334 0.784160
O O6 0.474020 0.711866 0.447935
O O7 0.761015 0.747762 0.286639
O O8 0.734938 0.216893 0.482867
O O9 0.701312 0.105945 0.459817
O O10 0.690443 0.516100 0.013411
O O11 0.814851 0.086847 0.784768
O O12 0.594989 0.887507 0.964936
O O13 0.178462 0.107550 0.441672
O O14 0.500000 0.000000 0.500000
O O15 0.690072 0.137262 0.893330
O O16 0.000000 0.000000 0.000000
O O17 0.500000 0.500000 0.500000
O O18 0.000000 0.500000 0.000000
#
# Coordination Sequence:
#
# PCOD9002187 Si02
#       8
#     2   2   2   2   2   2   2   2
#     4  10  21  36  60  89 113 147 199 243 277 342
#     4  10  21  38  61  88 115 150 199 239 286 343
#     4  10  21  36  58  90 113 146 202 239 279 344
#     4  10  21  37  60  88 117 149 195 244 286 340
#     4  11  19  36  62  84 111 152 195 229 284 339
#     4  11  23  39  58  86 123 153 184 241 296 344
#     4  11  19  38  63  82 109 154 199 235 282 340
#     4  11  23  39  58  83 124 156 183 239 294 338
#
# _framework density 20.673352999999999
#
# number of rings (size 3 to 8) (size 9 to 14) (size 15 to 20)
#    0.000    1.500    5.000    1.500    1.750    4.500 
#    0.000    1.250    0.000    0.000    0.000    0.000 
#    0.000    0.000    0.000    0.000    0.000    0.000 
#
# Total GULP energy -89361.826713 kJ/mol
# GULP energy per Si atom -5585.114170 kJ/mol
# Density = 2.062630 g / cm^3
# Si number density = 20.673353 Si / 1000 Ang^3
#
#
#
# Elastic Constant Matrix: (Units=GPa)
#
#
# Indices 1 2 3 4 5 6 
#
# 1 57.3650 19.0999 5.3065 -0.3757 19.2511 24.1453
# 2 19.0999 115.3628 37.4807 5.2126 14.3426 41.2684
# 3 5.3065 37.4807 64.3158 -9.7765 10.7972 6.6673
# 4 -0.3757 5.2126 -9.7765 44.6920 7.2305 8.2699
# 5 19.2511 14.3426 10.7972 7.2305 26.9184 6.9465
# 6 24.1453 41.2684 6.6673 8.2699 6.9465 30.9059
#
#
#
# Elastic Compliance Matrix: (Units=1/GPa)
#
#
# Indices 1 2 3 4 5 6 
#
# 1 0.042822 0.012609 0.000751 0.012466 -0.028782 -0.047320
# 2 0.012609 0.024889 -0.009190 0.004127 -0.009352 -0.040105
# 3 0.000751 -0.009190 0.022365 0.005962 -0.008037 0.007071
# 4 0.012466 0.004127 0.005962 0.029774 -0.016115 -0.020881
# 5 -0.028782 -0.009352 -0.008037 -0.016115 0.063358 0.026779
# 6 -0.047320 -0.040105 0.007071 -0.020881 0.026779 0.120921
#
#
# Mechanical properties :
#
#
# Convention : Reuss Voigt Hill
#
# Bulk Modulus (GPa) = 10.16092 40.09086 25.12589
# Shear Modulus (GPa) = 15.21632 32.18036 23.69834
#
# Velocity S-wave (km/s) = 2.71594 3.94967 3.38941
# Velocity P-wave (km/s) = 3.84197 6.34307 5.24382
#
# Compressibility (1/GPa) = 0.09841624
#
# Stress axis : x y z
#
# Youngs Moduli (GPa) = 23.35223 40.17767 44.71360
#
# Poissons Ratio (x) = -0.50660 -0.03358
# Poissons Ratio (y) = -0.29445 0.41093
# Poissons Ratio (z) = -0.01754 0.36924
#
# Static dielectric constant tensor:
#      x y z
#    x 1.776520 0.028660 -0.010620 
#    y 0.028660 1.751630 0.013680 
#    z -0.010620 0.013680 1.729460 
# 
# From -- ./inp_files/37819.got.cif
#   From: 2010.05.17/outbox.cif.g08.bks.cpg/sg2_19_cif.got.tgz:37819.got - 2010.06.03 11:33:40.
