data_PCOD9002447
_publ_section_title
;
Structure prediction by ZEFSAII (Michael W. Deem and Ramdas Pophale) SiO2 
 PCOD9002447
Probable space group: P -1
;
_chemical_formula_sum "Si O2"
_cell_formula_units_Z 16
_cell_length_a 29.350106
_cell_length_b 5.883231
_cell_length_c 4.989909
_cell_angle_alpha 98.767247
_cell_angle_beta 80.541211
_cell_angle_gamma 123.335553
_cell_volume 708.052011
_symmetry_space_group_name_H-M "P -1"
_symmetry_group_IT_number 2
_symmetry_cell_setting 'triclinic'
loop_
_space_group_symop_operation_xyz
x,y,z
-x,-y,-z
loop_
_atom_site_type_symbol
_atom_site_label
_atom_site_fract_x
_atom_site_fract_y
_atom_site_fract_z
Si Si1 0.111768 0.043139 0.495320
Si Si2 0.587308 0.118357 0.528207
Si Si3 0.204197 0.674211 0.514307
Si Si4 0.622236 0.622783 0.909522
Si Si5 0.846978 0.279532 0.937387
Si Si6 0.060169 0.088704 0.043684
Si Si7 0.328316 0.016939 0.601707
Si Si8 0.520588 0.260953 0.217914
O O1 0.164103 0.350031 0.533390
O O2 0.067452 0.038924 0.336198
O O3 0.132374 0.881575 0.279065
O O4 0.083010 0.951399 0.795976
O O5 0.635694 0.101227 0.352534
O O6 0.558817 0.237651 0.396234
O O7 0.536556 0.817135 0.608503
O O8 0.614582 0.336782 0.781297
O O9 0.197256 0.723070 0.220345
O O10 0.266068 0.792863 0.557810
O O11 0.180608 0.809658 0.760391
O O12 0.561269 0.529381 0.057359
O O13 0.664053 0.772330 0.138510
O O14 0.643370 0.818336 0.668835
O O15 0.898727 0.586897 0.974438
O O16 0.000000 0.000000 0.000000
O O17 0.500000 0.000000 0.000000
#
# Coordination Sequence:
#
# PCOD9002447 Si02
#       8
#     2   2   2   2   2   2   2   2
#     4  10  21  39  62  87 121 175 205 239 320 354
#     4  10  23  44  63  92 125 159 198 256 309 387
#     4  10  23  41  57  88 117 156 213 263 294 360
#     4  11  24  43  60  95 121 154 201 253 310 386
#     4  10  21  41  63  84 125 166 210 252 301 367
#     4  10  21  36  60  98 133 156 207 261 292 361
#     4  12  26  39  66  90 120 159 209 258 322 363
#     4   9  20  43  65  87 129 157 195 251 311 387
#
# _framework density 22.597211000000001
#
# number of rings (size 3 to 8) (size 9 to 14) (size 15 to 20)
#    0.000    1.750    1.250    1.875    3.500    4.000 
#    0.000    0.000    0.000    0.000    0.000    0.000 
#    0.000    0.000    0.000    0.000    0.000    0.000 
#
# Total GULP energy -89372.038196 kJ/mol
# GULP energy per Si atom -5585.752387 kJ/mol
# Density = 2.254578 g / cm^3
# Si number density = 22.597211 Si / 1000 Ang^3
#
#
#
# Elastic Constant Matrix: (Units=GPa)
#
#
# Indices 1 2 3 4 5 6 
#
# 1 110.1383 22.9993 32.0350 19.1573 15.8090 26.2295
# 2 22.9993 4.6543 43.4782 3.5259 11.7434 -5.9390
# 3 32.0350 43.4782 123.2382 6.8515 9.4948 19.8114
# 4 19.1573 3.5259 6.8515 40.8211 -2.7240 7.5288
# 5 15.8090 11.7434 9.4948 -2.7240 44.7824 11.9911
# 6 26.2295 -5.9390 19.8114 7.5288 11.9911 12.0976
#
#
#
# Elastic Compliance Matrix: (Units=1/GPa)
#
#
# Indices 1 2 3 4 5 6 
#
# 1 0.010608 0.009538 -0.005161 -0.004913 -0.004938 -0.001912
# 2 0.009538 -0.008809 0.007969 0.005562 0.011854 -0.053266
# 3 -0.005161 0.007969 0.005073 -0.001789 -0.004859 0.012725
# 4 -0.004913 0.005562 -0.001789 0.027666 0.003513 -0.004389
# 5 -0.004938 0.011854 -0.004859 0.003513 0.022105 0.000388
# 6 -0.001912 -0.053266 0.012725 -0.004389 0.000388 0.042167
#
#
# Mechanical properties :
#
#
# Convention : Reuss Voigt Hill
#
# Bulk Modulus (GPa) = 31.68332 48.33952 40.01142
# Shear Modulus (GPa) = 59.07370 28.84144 43.95757
#
# Velocity S-wave (km/s) = 5.11847 3.57645 4.41530
# Velocity P-wave (km/s) = 6.99879 6.20426 6.61347
#
# Compressibility (1/GPa) = 0.03156234
#
# Stress axis : x y z
#
# Youngs Moduli (GPa) = 94.27046 -113.52313 197.12465
#
# Poissons Ratio (x) = 1.08277 1.01743
# Poissons Ratio (y) = -0.89914 -1.57082
# Poissons Ratio (z) = 0.48656 0.90463
#
# Static dielectric constant tensor:
#      x y z
#    x 1.858770 -0.038250 -0.031190 
#    y -0.038250 1.835400 -0.025180 
#    z -0.031190 -0.025180 1.890650 
# 
# From -- ./inp_files/125943.got.cif
#   From: 2010.05.17/outbox.cif.g08.bks.cpg/sg2_63_cif.got.tgz:125943.got - 2010.06.03 11:33:40.
