data_PCOD9002299
_publ_section_title
;
Structure prediction by ZEFSAII (Michael W. Deem and Ramdas Pophale) SiO2 
 PCOD9002299
Probable space group: P -1
;
_chemical_formula_sum "Si O2"
_cell_formula_units_Z 16
_cell_length_a 19.822764
_cell_length_b 9.409676
_cell_length_c 8.655876
_cell_angle_alpha 87.142023
_cell_angle_beta 152.118407
_cell_angle_gamma 96.666354
_cell_volume 745.078079
_symmetry_space_group_name_H-M "P -1"
_symmetry_group_IT_number 2
_symmetry_cell_setting 'triclinic'
loop_
_space_group_symop_operation_xyz
x,y,z
-x,-y,-z
loop_
_atom_site_type_symbol
_atom_site_label
_atom_site_fract_x
_atom_site_fract_y
_atom_site_fract_z
Si Si1 0.974999 0.390191 0.259063
Si Si2 0.106423 0.807020 0.180632
Si Si3 0.364112 0.444825 0.062652
Si Si4 0.651478 0.612972 0.308033
Si Si5 0.813643 0.871504 0.755786
Si Si6 0.017289 0.158750 0.595129
Si Si7 0.199483 0.686140 0.677057
Si Si8 0.304462 0.497114 0.269284
O O1 0.044089 0.276562 0.508197
O O2 0.073196 0.545191 0.436721
O O3 0.933507 0.315920 0.018124
O O4 0.824266 0.414312 0.032631
O O5 0.205022 0.748473 0.512807
O O6 0.182887 0.957702 0.256606
O O7 0.952935 0.836126 0.941131
O O8 0.318414 0.402585 0.148213
O O9 0.531073 0.421191 0.388565
O O10 0.292423 0.387065 0.756251
O O11 0.343279 0.614887 0.007652
O O12 0.669752 0.779115 0.392954
O O13 0.731793 0.559305 0.625568
O O14 0.500000 0.500000 0.000000
O O15 0.859604 0.831205 0.023494
O O16 0.866221 0.192523 0.365265
O O17 0.000000 0.000000 0.500000
#
# Coordination Sequence:
#
# PCOD9002299 Si02
#       8
#     2   2   2   2   2   2   2   2
#     4  12  21  37  63  98 123 167 217 268 320 389
#     4  10  21  36  59  91 134 166 207 266 340 382
#     4  10  21  38  59  93 125 164 213 271 320 370
#     4  10  21  39  64  92 123 174 225 265 320 382
#     4  10  21  39  57  92 136 172 206 264 335 402
#     4  11  22  37  57  93 136 165 201 262 337 388
#     4  11  22  36  61  95 126 162 222 268 313 391
#     4  10  21  37  62  90 127 163 214 270 318 382
#
# _framework density 21.474259
#
# number of rings (size 3 to 8) (size 9 to 14) (size 15 to 20)
#    0.000    1.500    2.500    3.750    1.750    0.000 
#    0.000    0.000    0.000   12.000    0.000   17.500 
#    0.000    0.000    0.000    0.000    0.000    0.000 
#
# Total GULP energy -89111.913865 kJ/mol
# GULP energy per Si atom -5569.494617 kJ/mol
# Density = 2.142538 g / cm^3
# Si number density = 21.474259 Si / 1000 Ang^3
#
#
#
# Elastic Constant Matrix: (Units=GPa)
#
#
# Indices 1 2 3 4 5 6 
#
# 1 91.7331 27.2409 20.5963 2.0802 -36.5482 -4.4352
# 2 27.2409 101.7323 33.4594 -0.4068 -1.8195 -3.6645
# 3 20.5963 33.4594 79.5476 3.2811 -11.3356 5.4648
# 4 2.0802 -0.4068 3.2811 30.3744 -1.0379 -16.3101
# 5 -36.5482 -1.8195 -11.3356 -1.0379 45.6166 -3.7989
# 6 -4.4352 -3.6645 5.4648 -16.3101 -3.7989 33.4595
#
#
#
# Elastic Compliance Matrix: (Units=1/GPa)
#
#
# Indices 1 2 3 4 5 6 
#
# 1 0.018482 -0.004043 -0.001397 0.001943 0.014748 0.004857
# 2 -0.004043 0.012586 -0.005021 0.002064 -0.003751 0.002243
# 3 -0.001397 -0.005021 0.015887 -0.004439 0.002090 -0.005256
# 4 0.001943 0.002064 -0.004439 0.046447 0.003613 0.024260
# 5 0.014748 -0.003751 0.002090 0.003613 0.034766 0.006911
# 6 0.004857 0.002243 -0.005256 0.024260 0.006911 0.044245
#
#
# Mechanical properties :
#
#
# Convention : Reuss Voigt Hill
#
# Bulk Modulus (GPa) = 38.41280 48.40067 43.40673
# Shear Modulus (GPa) = 24.75119 34.67120 29.71119
#
# Velocity S-wave (km/s) = 3.39868 4.02250 3.72368
# Velocity P-wave (km/s) = 5.77304 6.64544 6.22454
#
# Compressibility (1/GPa) = 0.02603299
#
# Stress axis : x y z
#
# Youngs Moduli (GPa) = 54.10605 79.45628 62.94646
#
# Poissons Ratio (x) = 0.32124 0.08793
# Poissons Ratio (y) = 0.21875 0.31603
# Poissons Ratio (z) = 0.07558 0.39892
#
# Static dielectric constant tensor:
#      x y z
#    x 1.874030 0.033470 0.003270 
#    y 0.033470 1.778430 0.006010 
#    z 0.003270 0.006010 1.824910 
# 
# From -- ./inp_files/342717.got.cif
#   From: 2010.05.17/outbox.cif.g08.bks.cpg/sg2_172_cif.got.tgz:342717.got - 2010.06.03 11:33:40.
