data_PCOD9002616
_publ_section_title
;
Structure prediction by ZEFSAII (Michael W. Deem and Ramdas Pophale) SiO2 
 PCOD9002616
Probable space group: P -1
;
_chemical_formula_sum "Si O2"
_cell_formula_units_Z 16
_cell_length_a 24.434351
_cell_length_b 21.873950
_cell_length_c 9.262094
_cell_angle_alpha 30.201357
_cell_angle_beta 38.654069
_cell_angle_gamma 18.509621
_cell_volume 767.089517
_symmetry_space_group_name_H-M "P -1"
_symmetry_group_IT_number 2
_symmetry_cell_setting 'triclinic'
loop_
_space_group_symop_operation_xyz
x,y,z
-x,-y,-z
loop_
_atom_site_type_symbol
_atom_site_label
_atom_site_fract_x
_atom_site_fract_y
_atom_site_fract_z
Si Si1 0.989098 0.720012 0.235610
Si Si2 0.527948 0.091935 0.838192
Si Si3 0.794043 0.141048 0.588442
Si Si4 0.638390 0.062465 0.382674
Si Si5 0.935028 0.129560 0.080269
Si Si6 0.272012 0.607273 0.306775
Si Si7 0.606505 0.847509 0.444484
Si Si8 0.454960 0.544001 0.280211
O O1 0.185935 0.433333 0.387745
O O2 0.834940 0.814771 0.413368
O O3 0.006024 0.802695 0.157810
O O4 0.912681 0.885695 0.917295
O O5 0.343640 0.386193 0.634397
O O6 0.639476 0.037073 0.604778
O O7 0.500000 0.000000 0.000000
O O8 0.598948 0.969556 0.098570
O O9 0.890898 0.130312 0.325367
O O10 0.640846 0.285871 0.496279
O O11 0.692421 0.313989 0.585630
O O12 0.497722 0.139390 0.443838
O O13 0.576487 0.274284 0.043704
O O14 0.769013 0.324559 0.915977
O O15 0.087967 0.862549 0.241828
O O16 0.414272 0.523870 0.258029
O O17 0.500000 0.000000 0.500000
#
# Coordination Sequence:
#
# PCOD9002616 Si02
#       8
#     2   2   2   2   2   2   2   2
#     4  11  23  43  69  98 134 175 227 271 338 389
#     4  10  23  43  64  90 125 183 215 261 329 389
#     4  10  21  36  62  93 137 172 205 265 344 402
#     4  10  22  45  67  92 137 172 219 277 333 395
#     4  11  22  38  62 103 131 169 208 280 339 389
#     4  11  23  39  65  97 134 159 226 268 330 397
#     4  11  26  44  70  94 128 181 228 273 320 389
#     4  10  21  40  64 101 130 171 215 271 347 392
#
# _framework density 20.858059999999998
#
# number of rings (size 3 to 8) (size 9 to 14) (size 15 to 20)
#    0.000    1.500    2.500    3.375    1.750    6.000 
#    0.000    0.000    0.000    0.000    0.000    0.000 
#    0.000    0.000    0.000    0.000    0.000    0.000 
#
# Total GULP energy -89347.343122 kJ/mol
# GULP energy per Si atom -5584.208945 kJ/mol
# Density = 2.081059 g / cm^3
# Si number density = 20.858060 Si / 1000 Ang^3
#
#
#
# Elastic Constant Matrix: (Units=GPa)
#
#
# Indices 1 2 3 4 5 6 
#
# 1 92.5792 17.3424 45.5442 -9.6161 24.9788 -8.1508
# 2 17.3424 120.3453 55.1232 -16.4546 13.8994 -11.3734
# 3 45.5442 55.1232 125.6233 -14.6587 32.6651 5.9250
# 4 -9.6161 -16.4546 -14.6587 49.3087 1.8768 4.0018
# 5 24.9788 13.8994 32.6651 1.8768 38.2221 -7.3537
# 6 -8.1508 -11.3734 5.9250 4.0018 -7.3537 25.6012
#
#
#
# Elastic Compliance Matrix: (Units=1/GPa)
#
#
# Indices 1 2 3 4 5 6 
#
# 1 0.014852 0.001215 -0.004463 0.001829 -0.005574 0.004414
# 2 0.001215 0.011649 -0.006065 0.001689 0.001439 0.007115
# 3 -0.004463 -0.006065 0.015988 0.003203 -0.010901 -0.011447
# 4 0.001829 0.001689 0.003203 0.022799 -0.006603 -0.004869
# 5 -0.005574 0.001439 -0.010901 -0.006603 0.041692 0.014395
# 6 0.004414 0.007115 -0.011447 -0.004869 0.014395 0.051172
#
#
# Mechanical properties :
#
#
# Convention : Reuss Voigt Hill
#
# Bulk Modulus (GPa) = 41.90468 63.84085 52.87276
# Shear Modulus (GPa) = 27.06606 37.32894 32.19750
#
# Velocity S-wave (km/s) = 3.60617 4.23503 3.93319
# Velocity P-wave (km/s) = 6.12155 7.38835 6.78458
#
# Compressibility (1/GPa) = 0.02386368
#
# Stress axis : x y z
#
# Youngs Moduli (GPa) = 67.33016 85.84063 62.54834
#
# Poissons Ratio (x) = -0.10430 0.27916
# Poissons Ratio (y) = -0.08181 0.37934
# Poissons Ratio (z) = 0.30050 0.52061
#
# Static dielectric constant tensor:
#      x y z
#    x 1.788470 -0.033030 0.013450 
#    y -0.033030 1.790230 0.013650 
#    z 0.013450 0.013650 1.737880 
# 
# From -- ./inp_files/355249.got.cif
#   From: 2010.05.17/outbox.cif.g08.bks.cpg/sg2_178_cif.got.tgz:355249.got - 2010.06.03 11:33:40.
