data_PCOD9002199
_publ_section_title
;
Structure prediction by ZEFSAII (Michael W. Deem and Ramdas Pophale) SiO2 
 PCOD9002199
Probable space group: P -1
;
_chemical_formula_sum "Si O2"
_cell_formula_units_Z 14
_cell_length_a 5.143462
_cell_length_b 4.951420
_cell_length_c 21.382354
_cell_angle_alpha 80.177118
_cell_angle_beta 74.341007
_cell_angle_gamma 91.893684
_cell_volume 514.857489
_symmetry_space_group_name_H-M "P -1"
_symmetry_group_IT_number 2
_symmetry_cell_setting 'triclinic'
loop_
_space_group_symop_operation_xyz
x,y,z
-x,-y,-z
loop_
_atom_site_type_symbol
_atom_site_label
_atom_site_fract_x
_atom_site_fract_y
_atom_site_fract_z
Si Si1 0.149283 0.359840 0.223087
Si Si2 0.271955 0.228949 0.359402
Si Si3 0.158944 0.665108 0.537366
Si Si4 0.464629 0.267493 0.600485
Si Si5 0.038749 0.157376 0.926522
Si Si6 0.758154 0.239619 0.146365
Si Si7 0.669540 0.071054 0.864831
O O1 0.165961 0.251664 0.295877
O O2 0.399032 0.212001 0.177642
O O3 0.234043 0.684502 0.200516
O O4 0.855979 0.306977 0.210702
O O5 0.368945 0.522387 0.371348
O O6 0.021893 0.122482 0.425471
O O7 0.509338 0.027101 0.359555
O O8 0.214689 0.444012 0.596008
O O9 0.422762 0.766186 0.476571
O O10 0.000000 0.500000 0.500000
O O11 0.339566 0.018741 0.889045
O O12 0.729597 0.235991 0.921556
O O13 0.949732 0.929160 0.874733
O O14 0.000000 0.000000 0.000000
O O15 0.820528 0.528276 0.096177
#
# Coordination Sequence:
#
# PCOD9002199 Si02
#       7
#     2   2   2   2   2   2   2
#     4  10  22  39  58  85 118 156 207 254 299 367
#     4  11  22  39  60  86 119 157 203 259 311 365
#     4   9  21  39  61  86 120 156 195 251 316 377
#     4  10  22  38  60  89 117 154 202 251 314 381
#     4  10  21  36  58  91 121 151 201 251 296 364
#     4  10  21  38  60  83 118 163 195 242 310 357
#     4  10  21  39  59  83 120 161 202 250 304 365
#
# _framework density 27.191990000000001
#
# number of rings (size 3 to 8) (size 9 to 14) (size 15 to 20)
#    0.000    2.000    0.000    2.571    0.000    9.714 
#    0.000    7.143    0.000    0.000    0.000    0.000 
#    0.000    0.000    0.000    0.000    0.000    0.000 
#
# Total GULP energy -78072.530343 kJ/mol
# GULP energy per Si atom -5576.609310 kJ/mol
# Density = 2.713010 g / cm^3
# Si number density = 27.191990 Si / 1000 Ang^3
#
#
#
# Elastic Constant Matrix: (Units=GPa)
#
#
# Indices 1 2 3 4 5 6 
#
# 1 241.1235 45.6137 54.5079 0.7159 36.5330 14.0175
# 2 45.6137 183.5879 34.5453 -12.1750 2.8391 6.1551
# 3 54.5079 34.5453 104.4236 -31.6162 19.6588 4.3182
# 4 0.7159 -12.1750 -31.6162 39.2047 -11.3232 8.1831
# 5 36.5330 2.8391 19.6588 -11.3232 39.6252 7.2548
# 6 14.0175 6.1551 4.3182 8.1831 7.2548 47.7505
#
#
#
# Elastic Compliance Matrix: (Units=1/GPa)
#
#
# Indices 1 2 3 4 5 6 
#
# 1 0.005816 -0.001091 -0.003075 -0.004440 -0.005072 0.000243
# 2 -0.001091 0.006063 -0.001256 0.001602 0.001817 -0.000898
# 3 -0.003075 -0.001256 0.015647 0.012544 -0.000819 -0.002376
# 4 -0.004440 0.001602 0.012544 0.041262 0.011158 -0.008804
# 5 -0.005072 0.001817 -0.000819 0.011158 0.034442 -0.005816
# 6 0.000243 -0.000898 -0.002376 -0.008804 -0.005816 0.023594
#
#
# Mechanical properties :
#
#
# Convention : Reuss Voigt Hill
#
# Bulk Modulus (GPa) = 59.94147 88.71873 74.33010
# Shear Modulus (GPa) = 34.90949 51.61397 43.26173
#
# Velocity S-wave (km/s) = 3.58692 4.36148 3.99303
# Velocity P-wave (km/s) = 6.26469 7.61978 6.97522
#
# Compressibility (1/GPa) = 0.01668294
#
# Stress axis : x y z
#
# Youngs Moduli (GPa) = 171.93512 164.94625 63.90940
#
# Poissons Ratio (x) = 0.17990 0.19650
# Poissons Ratio (y) = 0.18752 0.08028
# Poissons Ratio (z) = 0.52864 0.20720
#
# Static dielectric constant tensor:
#      x y z
#    x 2.270170 0.019410 -0.090450 
#    y 0.019410 2.174540 0.067290 
#    z -0.090450 0.067290 2.090180 
# 
# From -- ./inp_files/580660.got.cif
#   From: 2010.05.17/outbox.cif.g08.bks.cpg/sg2_291_cif.got.tgz:580660.got - 2010.06.03 11:33:40.
