data_PCOD9002607
_publ_section_title
;
Structure prediction by ZEFSAII (Michael W. Deem and Ramdas Pophale) SiO2 
 PCOD9002607
Probable space group: P -1
;
_chemical_formula_sum "Si O2"
_cell_formula_units_Z 16
_cell_length_a 8.622392
_cell_length_b 9.396047
_cell_length_c 12.375160
_cell_angle_alpha 92.885627
_cell_angle_beta 56.660467
_cell_angle_gamma 101.586921
_cell_volume 818.312134
_symmetry_space_group_name_H-M "P -1"
_symmetry_group_IT_number 2
_symmetry_cell_setting 'triclinic'
loop_
_space_group_symop_operation_xyz
x,y,z
-x,-y,-z
loop_
_atom_site_type_symbol
_atom_site_label
_atom_site_fract_x
_atom_site_fract_y
_atom_site_fract_z
Si Si1 0.193780 0.829315 0.851800
Si Si2 0.281240 0.903097 0.580167
Si Si3 0.989073 0.905876 0.392940
Si Si4 0.794960 0.870673 0.043670
Si Si5 0.443421 0.669776 0.903524
Si Si6 0.104981 0.666840 0.447457
Si Si7 0.579125 0.373868 0.842660
Si Si8 0.690577 0.963249 0.873838
O O1 0.230591 0.817875 0.709921
O O2 0.307339 0.731286 0.875097
O O3 0.249934 0.004588 0.856502
O O4 0.978263 0.800102 0.978534
O O5 0.204001 0.778646 0.511052
O O6 0.500000 0.000000 0.500000
O O7 0.157630 0.028605 0.619916
O O8 0.954224 0.743333 0.444666
O O9 0.000000 0.000000 0.500000
O O10 0.192795 0.935381 0.256153
O O11 0.610591 0.747777 0.099313
O O12 0.827687 0.957132 0.920976
O O13 0.519681 0.525659 0.844307
O O14 0.625118 0.802275 0.846232
O O15 0.357515 0.638018 0.056753
O O16 0.270613 0.655320 0.300712
O O17 0.000000 0.500000 0.500000
O O18 0.500000 0.000000 0.000000
#
# Coordination Sequence:
#
# PCOD9002607 Si02
#       8
#     2   2   2   2   2   2   2   2
#     4  11  22  38  62  95 130 164 215 271 338 386
#     4  11  25  43  66  99 133 176 218 272 331 400
#     4  10  23  40  66  93 127 179 224 268 324 397
#     4  10  21  36  62  92 127 162 211 276 325 392
#     4  10  23  36  67  92 126 168 209 277 325 393
#     4  11  26  44  68  94 130 175 224 272 321 396
#     4  10  23  42  60  93 127 168 222 265 329 390
#     4  11  19  37  65  95 123 164 228 269 318 380
#
# _framework density 19.552443
#
# number of rings (size 3 to 8) (size 9 to 14) (size 15 to 20)
#    0.000    1.500    2.500    2.250    7.000    1.500 
#    0.000    3.750    0.000    0.000    0.000    0.000 
#    0.000    0.000    0.000    0.000    0.000    0.000 
#
# Total GULP energy -89068.365186 kJ/mol
# GULP energy per Si atom -5566.772824 kJ/mol
# Density = 1.950794 g / cm^3
# Si number density = 19.552443 Si / 1000 Ang^3
#
#
#
# Elastic Constant Matrix: (Units=GPa)
#
#
# Indices 1 2 3 4 5 6 
#
# 1 106.4896 48.0195 52.3990 0.3790 9.3004 -25.1666
# 2 48.0195 129.0314 60.3006 -4.5374 0.7496 -17.8556
# 3 52.3990 60.3006 94.6755 5.9717 8.3174 -14.6972
# 4 0.3790 -4.5374 5.9717 27.9865 1.4393 0.7805
# 5 9.3004 0.7496 8.3174 1.4393 25.6700 -5.9211
# 6 -25.1666 -17.8556 -14.6972 0.7805 -5.9211 31.3378
#
#
#
# Elastic Compliance Matrix: (Units=1/GPa)
#
#
# Indices 1 2 3 4 5 6 
#
# 1 0.015127 -0.001715 -0.005921 0.000643 -0.001689 0.008059
# 2 -0.001715 0.012011 -0.006725 0.003178 0.002914 0.002784
# 3 -0.005921 -0.006725 0.018678 -0.004804 -0.003527 -0.000374
# 4 0.000643 0.003178 -0.004804 0.037350 -0.001109 -0.001066
# 5 -0.001689 0.002914 -0.003527 -0.001109 0.042223 0.006655
# 6 0.008059 0.002784 -0.000374 -0.001066 0.006655 0.041077
#
#
# Mechanical properties :
#
#
# Convention : Reuss Voigt Hill
#
# Bulk Modulus (GPa) = 58.50152 72.40386 65.45269
# Shear Modulus (GPa) = 24.88963 28.29735 26.59349
#
# Velocity S-wave (km/s) = 3.57174 3.80841 3.69197
# Velocity P-wave (km/s) = 6.85529 7.51329 7.19182
#
# Compressibility (1/GPa) = 0.01709357
#
# Stress axis : x y z
#
# Youngs Moduli (GPa) = 66.10579 83.25492 53.53955
#
# Poissons Ratio (x) = 0.14277 0.31701
# Poissons Ratio (y) = 0.11336 0.36007
# Poissons Ratio (z) = 0.39142 0.55992
#
# Static dielectric constant tensor:
#      x y z
#    x 1.746790 -0.008100 0.020830 
#    y -0.008100 1.666390 0.051900 
#    z 0.020830 0.051900 1.693190 
# 
# From -- ./inp_files/379051.got.cif
#   From: 2010.05.17/outbox.cif.g08.bks.cpg/sg2_190_cif.got.tgz:379051.got - 2010.06.03 11:33:40.
