data_PCOD9002485
_publ_section_title
;
Structure prediction by ZEFSAII (Michael W. Deem and Ramdas Pophale) SiO2 
 PCOD9002485
Probable space group: P -1
;
_chemical_formula_sum "Si O2"
_cell_formula_units_Z 14
_cell_length_a 9.957407
_cell_length_b 20.022399
_cell_length_c 6.625559
_cell_angle_alpha 49.230011
_cell_angle_beta 131.569580
_cell_angle_gamma 141.361964
_cell_volume 590.847029
_symmetry_space_group_name_H-M "P -1"
_symmetry_group_IT_number 2
_symmetry_cell_setting 'triclinic'
loop_
_space_group_symop_operation_xyz
x,y,z
-x,-y,-z
loop_
_atom_site_type_symbol
_atom_site_label
_atom_site_fract_x
_atom_site_fract_y
_atom_site_fract_z
Si Si1 0.467987 0.126005 0.868106
Si Si2 0.336126 0.389336 0.925293
Si Si3 0.211313 0.654699 0.978377
Si Si4 0.009042 0.441358 0.434163
Si Si5 0.895758 0.713158 0.480701
Si Si6 0.741681 0.115172 0.828467
Si Si7 0.147697 0.180592 0.386411
O O1 0.236688 0.109098 0.630463
O O2 0.421511 0.015692 0.132764
O O3 0.604093 0.230983 0.949201
O O4 0.600963 0.146050 0.751986
O O5 0.102563 0.376026 0.729034
O O6 0.328942 0.369459 0.717256
O O7 0.500000 0.500000 0.000000
O O8 0.324396 0.292190 0.212367
O O9 0.982195 0.646320 0.790202
O O10 0.210399 0.638535 0.768254
O O11 0.183212 0.550306 0.254185
O O12 0.000000 0.500000 0.500000
O O13 0.861285 0.774660 0.495308
O O14 0.103866 0.808693 0.355821
O O15 0.912644 0.125631 0.145454
#
# Coordination Sequence:
#
# PCOD9002485 Si02
#       7
#     2   2   2   2   2   2   2
#     4  11  23  42  69  92 128 172 213 263 315 386
#     4  10  22  39  59  93 126 164 211 260 316 379
#     4  10  21  38  58  94 122 163 212 252 315 375
#     4  10  21  36  61  87 123 165 202 258 311 370
#     4  10  22  41  64  88 134 168 203 275 315 370
#     4  10  24  45  62  96 130 166 215 265 320 370
#     4  11  22  43  65  92 130 166 212 265 318 375
#
# _framework density 23.694796
#
# number of rings (size 3 to 8) (size 9 to 14) (size 15 to 20)
#    0.000    1.714    1.429    2.143    4.000    2.857 
#    5.143    0.000    0.000    0.000    0.000    0.000 
#    0.000    0.000    0.000    0.000    0.000    0.000 
#
# Total GULP energy -78171.183982 kJ/mol
# GULP energy per Si atom -5583.655999 kJ/mol
# Density = 2.364087 g / cm^3
# Si number density = 23.694796 Si / 1000 Ang^3
#
#
#
# Elastic Constant Matrix: (Units=GPa)
#
#
# Indices 1 2 3 4 5 6 
#
# 1 89.2109 9.1551 28.5178 6.5023 8.4241 -27.1542
# 2 9.1551 116.6943 8.5306 0.4783 -9.8588 -20.7037
# 3 28.5178 8.5306 59.2025 3.8484 -6.0324 -11.2528
# 4 6.5023 0.4783 3.8484 34.4221 -5.0526 0.5990
# 5 8.4241 -9.8588 -6.0324 -5.0526 25.9786 -1.6904
# 6 -27.1542 -20.7037 -11.2528 0.5990 -1.6904 35.0610
#
#
#
# Elastic Compliance Matrix: (Units=1/GPa)
#
#
# Indices 1 2 3 4 5 6 
#
# 1 0.017894 0.000588 -0.006963 -0.003868 -0.007188 0.011691
# 2 0.000588 0.010034 -0.000086 0.000243 0.004070 0.006545
# 3 -0.006963 -0.000086 0.021336 -0.000030 0.007288 0.001756
# 4 -0.003868 0.000243 -0.000030 0.030884 0.007148 -0.003045
# 5 -0.007188 0.004070 0.007288 0.007148 0.045533 0.001249
# 6 0.011691 0.006545 0.001756 -0.003045 0.001249 0.042116
#
#
# Mechanical properties :
#
#
# Convention : Reuss Voigt Hill
#
# Bulk Modulus (GPa) = 27.51710 39.72384 33.62047
# Shear Modulus (GPa) = 25.92918 33.68593 29.80756
#
# Velocity S-wave (km/s) = 3.31161 3.77458 3.55065
# Velocity P-wave (km/s) = 5.12452 5.98313 5.57039
#
# Compressibility (1/GPa) = 0.03634104
#
# Stress axis : x y z
#
# Youngs Moduli (GPa) = 55.88447 99.66534 46.86906
#
# Poissons Ratio (x) = -0.05859 0.32636
# Poissons Ratio (y) = -0.03285 0.00403
# Poissons Ratio (z) = 0.38913 0.00857
#
# Static dielectric constant tensor:
#      x y z
#    x 1.928730 0.038320 -0.031080 
#    y 0.038320 1.985440 0.019680 
#    z -0.031080 0.019680 1.919590 
# 
# From -- ./inp_files/46869.got.cif
#   From: 2010.05.17/outbox.cif.g08.bks.cpg/sg2_24_cif.got.tgz:46869.got - 2010.06.03 11:33:40.
