data_PCOD9002391
_publ_section_title
;
Structure prediction by ZEFSAII (Michael W. Deem and Ramdas Pophale) SiO2 
 PCOD9002391
Probable space group: P -1
;
_chemical_formula_sum "Si O2"
_cell_formula_units_Z 12
_cell_length_a 22.367989
_cell_length_b 5.988879
_cell_length_c 6.164246
_cell_angle_alpha 93.221670
_cell_angle_beta 112.579311
_cell_angle_gamma 46.483233
_cell_volume 525.513204
_symmetry_space_group_name_H-M "P -1"
_symmetry_group_IT_number 2
_symmetry_cell_setting 'triclinic'
loop_
_space_group_symop_operation_xyz
x,y,z
-x,-y,-z
loop_
_atom_site_type_symbol
_atom_site_label
_atom_site_fract_x
_atom_site_fract_y
_atom_site_fract_z
Si Si1 0.889065 0.552603 0.415872
Si Si2 0.059808 0.233305 0.879898
Si Si3 0.717981 0.678289 0.211732
Si Si4 0.613732 0.262158 0.408526
Si Si5 0.222008 0.832970 0.383478
Si Si6 0.559944 0.045805 0.693508
O O1 0.909497 0.650557 0.238996
O O2 0.817884 0.529172 0.270485
O O3 0.988562 0.249204 0.653085
O O4 0.836358 0.848539 0.529314
O O5 0.000000 0.500000 0.000000
O O6 0.151836 0.911519 0.109484
O O7 0.738272 0.454165 0.418723
O O8 0.658308 0.030609 0.250944
O O9 0.650581 0.746360 0.938834
O O10 0.691980 0.241949 0.597675
O O11 0.594090 0.129207 0.559011
O O12 0.517040 0.631947 0.250885
O O13 0.500000 0.000000 0.500000
#
# Coordination Sequence:
#
# PCOD9002391 Si02
#       6
#     2   2   2   2   2   2
#     4   9  20  38  60  85 119 157 193 240 292 350
#     4   9  18  38  61  85 119 156 192 236 294 351
#     4  11  23  39  61  89 119 156 201 246 296 351
#     4  10  23  41  60  85 120 160 196 245 298 350
#     4  10  21  36  60  89 118 153 196 244 292 349
#     4  11  24  40  61  88 119 158 202 247 297 352
#
# _framework density 22.834817999999999
#
# number of rings (size 3 to 8) (size 9 to 14) (size 15 to 20)
#    0.000    2.000    0.000    2.500    0.000   11.333 
#    0.000    7.500    0.000    0.000    0.000    0.000 
#    0.000    0.000    0.000    0.000    0.000    0.000 
#
# Total GULP energy -67108.959985 kJ/mol
# GULP energy per Si atom -5592.413332 kJ/mol
# Density = 2.278285 g / cm^3
# Si number density = 22.834818 Si / 1000 Ang^3
#
#
#
# Elastic Constant Matrix: (Units=GPa)
#
#
# Indices 1 2 3 4 5 6 
#
# 1 178.1026 36.8368 84.9353 -14.8356 30.3267 -14.4856
# 2 36.8368 51.9700 39.4275 -5.5882 21.9238 -6.7677
# 3 84.9353 39.4275 181.4709 -37.3393 47.9424 2.2864
# 4 -14.8356 -5.5882 -37.3393 38.9956 -9.7775 -1.5387
# 5 30.3267 21.9238 47.9424 -9.7775 34.8578 0.2996
# 6 -14.4856 -6.7677 2.2864 -1.5387 0.2996 28.8685
#
#
#
# Elastic Compliance Matrix: (Units=1/GPa)
#
#
# Indices 1 2 3 4 5 6 
#
# 1 0.008056 -0.002345 -0.002961 -0.000359 -0.001595 0.003725
# 2 -0.002345 0.028829 -0.001922 -0.001890 -0.014029 0.005779
# 3 -0.002961 -0.001922 0.011387 0.006923 -0.009916 -0.002366
# 4 -0.000359 -0.001890 0.006923 0.032134 0.000989 0.000531
# 5 -0.001595 -0.014029 -0.009916 0.000989 0.052847 -0.003800
# 6 0.003725 0.005779 -0.002366 0.000531 -0.003800 0.038119
#
#
# Mechanical properties :
#
#
# Convention : Reuss Voigt Hill
#
# Bulk Modulus (GPa) = 29.56919 81.54917 55.55918
# Shear Modulus (GPa) = 25.36788 37.23398 31.30093
#
# Velocity S-wave (km/s) = 3.33668 4.04242 3.70639
# Velocity P-wave (km/s) = 5.27464 7.58805 6.53453
#
# Compressibility (1/GPa) = 0.03381899
#
# Stress axis : x y z
#
# Youngs Moduli (GPa) = 124.12760 34.68682 87.81638
#
# Poissons Ratio (x) = 0.08134 0.25998
# Poissons Ratio (y) = 0.29108 0.16874
# Poissons Ratio (z) = 0.36748 0.06665
#
# Static dielectric constant tensor:
#      x y z
#    x 1.803220 -0.024460 0.043960 
#    y -0.024460 1.882560 0.016630 
#    z 0.043960 0.016630 1.844260 
# 
# From -- ./inp_files/3047.got.cif
#   From: 2010.05.17/outbox.cif.g08.bks.cpg/sg2_2_cif.got.tgz:3047.got - 2010.06.03 11:33:40.
