data_PCOD9002868
_publ_section_title
;
Structure prediction by ZEFSAII (Michael W. Deem and Ramdas Pophale) SiO2 
 PCOD9002868
Probable space group: P -1
;
_chemical_formula_sum "Si O2"
_cell_formula_units_Z 14
_cell_length_a 6.479296
_cell_length_b 8.933723
_cell_length_c 24.574239
_cell_angle_alpha 38.140030
_cell_angle_beta 46.159947
_cell_angle_gamma 55.174846
_cell_volume 632.529199
_symmetry_space_group_name_H-M "P -1"
_symmetry_group_IT_number 2
_symmetry_cell_setting 'triclinic'
loop_
_space_group_symop_operation_xyz
x,y,z
-x,-y,-z
loop_
_atom_site_type_symbol
_atom_site_label
_atom_site_fract_x
_atom_site_fract_y
_atom_site_fract_z
Si Si1 0.241694 0.407535 0.023354
Si Si2 0.179096 0.250415 0.551180
Si Si3 0.269216 0.463626 0.627421
Si Si4 0.149099 0.729188 0.049898
Si Si5 0.915923 0.093073 0.751583
Si Si6 0.364159 0.476498 0.736072
Si Si7 0.173462 0.189442 0.446954
O O1 0.242928 0.633619 0.000409
O O2 0.149178 0.171036 0.140079
O O3 0.541882 0.323185 0.962947
O O4 0.000000 0.500000 0.000000
O O5 0.473815 0.362954 0.484191
O O6 0.192440 0.127428 0.524668
O O7 0.000000 0.500000 0.500000
O O8 0.017568 0.105641 0.667076
O O9 0.276509 0.483130 0.686169
O O10 0.192515 0.186397 0.708364
O O11 0.023497 0.573700 0.600435
O O12 0.910606 0.567743 0.165521
O O13 0.000000 0.000000 0.000000
O O14 0.610789 0.257607 0.763402
O O15 0.514727 0.727344 0.650401
O O16 0.000000 0.000000 0.500000
#
# Coordination Sequence:
#
# PCOD9002868 Si02
#       7
#     2   2   2   2   2   2   2
#     4  11  28  47  72 110 136 180 250 293 357 429
#     4  11  20  39  63  97 136 179 231 278 344 422
#     4  10  21  36  66  97 134 181 226 279 350 420
#     4  11  25  49  74  98 145 185 231 307 359 413
#     4  11  22  40  68 100 137 183 235 288 349 420
#     4  10  22  42  67  99 136 188 232 277 364 418
#     4  10  23  39  61  98 140 178 229 283 342 420
#
# _framework density 22.133365000000001
#
# number of rings (size 3 to 8) (size 9 to 14) (size 15 to 20)
#    0.000    1.429    5.714    0.429    2.000    7.429 
#    0.000    0.000    0.000    0.000    0.000    0.000 
#    0.000    0.000    0.000    0.000    0.000    0.000 
#
# Total GULP energy -77965.172835 kJ/mol
# GULP energy per Si atom -5568.940917 kJ/mol
# Density = 2.208299 g / cm^3
# Si number density = 22.133365 Si / 1000 Ang^3
#
#
#
# Elastic Constant Matrix: (Units=GPa)
#
#
# Indices 1 2 3 4 5 6 
#
# 1 120.5189 42.7626 51.8268 5.2022 -14.5489 -16.0446
# 2 42.7626 99.9867 42.3634 0.6636 -9.4553 -15.9767
# 3 51.8268 42.3634 147.0032 11.4121 -29.2513 -6.9151
# 4 5.2022 0.6636 11.4121 31.4883 -4.8990 -10.7992
# 5 -14.5489 -9.4553 -29.2513 -4.8990 34.4585 -6.4697
# 6 -16.0446 -15.9767 -6.9151 -10.7992 -6.4697 43.8616
#
#
#
# Elastic Compliance Matrix: (Units=1/GPa)
#
#
# Indices 1 2 3 4 5 6 
#
# 1 0.011096 -0.002982 -0.002468 0.000558 0.002429 0.003079
# 2 -0.002982 0.013104 -0.002458 0.002766 0.001429 0.004187
# 3 -0.002468 -0.002458 0.009813 -0.002045 0.006358 0.000183
# 4 0.000558 0.002766 -0.002045 0.037153 0.006608 0.011011
# 5 0.002429 0.001429 0.006358 0.006608 0.038602 0.009732
# 6 0.003079 0.004187 0.000183 0.011011 0.009732 0.029626
#
#
# Mechanical properties :
#
#
# Convention : Reuss Voigt Hill
#
# Bulk Modulus (GPa) = 54.95306 71.26825 63.11066
# Shear Modulus (GPa) = 31.00278 37.33207 34.16743
#
# Velocity S-wave (km/s) = 3.74669 4.11139 3.93327
# Velocity P-wave (km/s) = 6.60295 7.40320 7.01450
#
# Compressibility (1/GPa) = 0.01819735
#
# Stress axis : x y z
#
# Youngs Moduli (GPa) = 90.12433 76.31262 101.90045
#
# Poissons Ratio (x) = 0.22756 0.25145
# Poissons Ratio (y) = 0.26874 0.25052
# Poissons Ratio (z) = 0.22239 0.18761
#
# Static dielectric constant tensor:
#      x y z
#    x 2.433090 -0.281290 -0.428420 
#    y -0.281290 2.158130 0.112960 
#    z -0.428420 0.112960 2.102030 
# 
# From -- ./inp_files/106160.got.cif
#   From: 2010.05.17/outbox.cif.g08.bks.cpg/sg2_54_cif.got.tgz:106160.got - 2010.06.03 11:33:40.
