data_PCOD9002644
_publ_section_title
;
Structure prediction by ZEFSAII (Michael W. Deem and Ramdas Pophale) SiO2 
 PCOD9002644
Probable space group: P -1
;
_chemical_formula_sum "Si O2"
_cell_formula_units_Z 16
_cell_length_a 9.424990
_cell_length_b 8.806912
_cell_length_c 13.824677
_cell_angle_alpha 56.431491
_cell_angle_beta 115.935859
_cell_angle_gamma 78.605092
_cell_volume 696.482256
_symmetry_space_group_name_H-M "P -1"
_symmetry_group_IT_number 2
_symmetry_cell_setting 'triclinic'
loop_
_space_group_symop_operation_xyz
x,y,z
-x,-y,-z
loop_
_atom_site_type_symbol
_atom_site_label
_atom_site_fract_x
_atom_site_fract_y
_atom_site_fract_z
Si Si1 0.286512 0.284985 0.931335
Si Si2 0.174628 0.250772 0.109806
Si Si3 0.051593 0.918457 0.933264
Si Si4 0.696693 0.325573 0.181148
Si Si5 0.424171 0.525874 0.576511
Si Si6 0.039061 0.150447 0.670532
Si Si7 0.353670 0.189784 0.758740
Si Si8 0.414159 0.390579 0.231683
O O1 0.211467 0.538630 0.834399
O O2 0.305711 0.258062 0.832143
O O3 0.172284 0.253281 0.990764
O O4 0.503718 0.081868 0.103469
O O5 0.349400 0.238466 0.221401
O O6 0.121118 0.077884 0.173798
O O7 0.000000 0.500000 0.000000
O O8 0.082666 0.078033 0.822774
O O9 0.240424 0.658351 0.070817
O O10 0.000000 0.000000 0.000000
O O11 0.606904 0.319140 0.256723
O O12 0.854032 0.084574 0.270152
O O13 0.500000 0.500000 0.000000
O O14 0.500000 0.500000 0.500000
O O15 0.460325 0.293245 0.708653
O O16 0.529218 0.612312 0.639708
O O17 0.191386 0.689994 0.463308
O O18 0.152941 0.252988 0.632188
#
# Coordination Sequence:
#
# PCOD9002644 Si02
#       8
#     2   2   2   2   2   2   2   2
#     4  11  21  38  73 107 134 172 235 301 346 415
#     4  10  21  36  63 104 142 172 221 294 355 409
#     4  11  22  38  69 103 138 178 234 289 351 409
#     4  12  19  41  70 105 136 171 229 299 354 411
#     4  12  29  48  68  99 148 193 239 289 355 431
#     4  12  25  44  70 101 142 188 232 289 352 430
#     4  11  24  43  72 102 137 185 239 284 356 418
#     4  11  22  43  66  96 137 185 234 290 347 414
#
# _framework density 22.972587999999998
#
# number of rings (size 3 to 8) (size 9 to 14) (size 15 to 20)
#    0.000    0.750    5.000    2.625    5.250    1.500 
#    0.000    0.625    0.000    0.000    0.000    0.000 
#    0.000    0.000    0.000    0.000    0.000    0.000 
#
# Total GULP energy -89222.994396 kJ/mol
# GULP energy per Si atom -5576.437150 kJ/mol
# Density = 2.292030 g / cm^3
# Si number density = 22.972588 Si / 1000 Ang^3
#
#
#
# Elastic Constant Matrix: (Units=GPa)
#
#
# Indices 1 2 3 4 5 6 
#
# 1 93.8598 39.0613 10.2859 3.1990 -15.8109 5.5439
# 2 39.0613 102.9507 32.0507 3.3439 -9.5164 -3.3332
# 3 10.2859 32.0507 38.4509 -4.1452 7.2018 -3.6440
# 4 3.1990 3.3439 -4.1452 38.5463 -10.7189 -1.3323
# 5 -15.8109 -9.5164 7.2018 -10.7189 33.3045 -3.9486
# 6 5.5439 -3.3332 -3.6440 -1.3323 -3.9486 50.6010
#
#
#
# Elastic Compliance Matrix: (Units=1/GPa)
#
#
# Indices 1 2 3 4 5 6 
#
# 1 0.013575 -0.004378 -0.001072 0.000605 0.005453 -0.001411
# 2 -0.004378 0.016005 -0.013146 -0.000977 0.005137 0.000962
# 3 -0.001072 -0.013146 0.039860 0.002215 -0.012024 0.001242
# 4 0.000605 -0.000977 0.002215 0.028759 0.008961 0.001485
# 5 0.005453 0.005137 -0.012024 0.008961 0.039830 0.002219
# 6 -0.001411 0.000962 0.001242 0.001485 0.002219 0.020282
#
#
# Mechanical properties :
#
#
# Convention : Reuss Voigt Hill
#
# Bulk Modulus (GPa) = 31.00930 44.22857 37.61894
# Shear Modulus (GPa) = 24.24216 34.74794 29.49505
#
# Velocity S-wave (km/s) = 3.25201 3.89341 3.58708
# Velocity P-wave (km/s) = 5.25628 6.28539 5.79373
#
# Compressibility (1/GPa) = 0.03224839
#
# Stress axis : x y z
#
# Youngs Moduli (GPa) = 73.66487 62.48078 25.08764
#
# Poissons Ratio (x) = 0.27356 0.02689
# Poissons Ratio (y) = 0.32253 0.32980
# Poissons Ratio (z) = 0.07895 0.82137
#
# Static dielectric constant tensor:
#      x y z
#    x 1.901470 0.014880 0.012750 
#    y 0.014880 1.908170 0.043980 
#    z 0.012750 0.043980 1.859730 
# 
# From -- ./inp_files/494424.got.cif
#   From: 2010.05.17/outbox.cif.g08.bks.cpg/sg2_248_cif.got.tgz:494424.got - 2010.06.03 11:33:40.
