data_PCOD9002713
_publ_section_title
;
Structure prediction by ZEFSAII (Michael W. Deem and Ramdas Pophale) SiO2 
 PCOD9002713
Probable space group: P -1
;
_chemical_formula_sum "Si O2"
_cell_formula_units_Z 12
_cell_length_a 14.109498
_cell_length_b 10.713597
_cell_length_c 10.898251
_cell_angle_alpha 43.209700
_cell_angle_beta 27.890458
_cell_angle_gamma 39.163785
_cell_volume 481.363096
_symmetry_space_group_name_H-M "P -1"
_symmetry_group_IT_number 2
_symmetry_cell_setting 'triclinic'
loop_
_space_group_symop_operation_xyz
x,y,z
-x,-y,-z
loop_
_atom_site_type_symbol
_atom_site_label
_atom_site_fract_x
_atom_site_fract_y
_atom_site_fract_z
Si Si1 0.066364 0.326560 0.224771
Si Si2 0.060996 0.994820 0.633677
Si Si3 0.850463 0.448523 0.805717
Si Si4 0.268842 0.532191 0.675587
Si Si5 0.256139 0.079412 0.588934
Si Si6 0.389990 0.767460 0.873442
O O1 0.806110 0.454976 0.391894
O O2 0.159805 0.416881 0.163613
O O3 0.095988 0.110028 0.392200
O O4 0.201783 0.362723 0.931074
O O5 0.114283 0.763900 0.720108
O O6 0.224291 0.009586 0.541406
O O7 0.816323 0.122217 0.877150
O O8 0.000000 0.500000 0.500000
O O9 0.014497 0.221056 0.817401
O O10 0.638387 0.429064 0.001919
O O11 0.500000 0.500000 0.500000
O O12 0.399508 0.210429 0.325597
O O13 0.363178 0.895556 0.688175
#
# Coordination Sequence:
#
# PCOD9002713 Si02
#       6
#     2   2   2   2   2   2
#     4  11  24  44  67  95 130 173 217 267 327 382
#     4  11  22  44  66  92 131 170 218 272 322 383
#     4  11  20  39  61  94 132 162 202 262 320 386
#     4  11  27  45  67  93 127 172 224 276 322 379
#     4  10  21  36  63  96 129 170 210 257 323 391
#     4  10  21  37  62  95 131 169 208 262 322 388
#
# _framework density 24.929207000000002
#
# number of rings (size 3 to 8) (size 9 to 14) (size 15 to 20)
#    0.000    1.333    3.333    4.500    0.000    9.333 
#    0.000    0.000    0.000    0.000    0.000    0.000 
#    0.000    0.000    0.000    0.000    0.000    0.000 
#
# Total GULP energy -67015.519135 kJ/mol
# GULP energy per Si atom -5584.626595 kJ/mol
# Density = 2.487247 g / cm^3
# Si number density = 24.929207 Si / 1000 Ang^3
#
#
#
# Elastic Constant Matrix: (Units=GPa)
#
#
# Indices 1 2 3 4 5 6 
#
# 1 120.2159 16.6735 62.2321 -16.8854 -47.4224 6.8454
# 2 16.6735 65.3380 36.1152 -25.9217 -5.7497 8.9130
# 3 62.2321 36.1152 140.6198 -35.5152 -33.4898 -6.2430
# 4 -16.8854 -25.9217 -35.5152 38.7574 -4.1953 -8.4213
# 5 -47.4224 -5.7497 -33.4898 -4.1953 62.3468 -13.8560
# 6 6.8454 8.9130 -6.2430 -8.4213 -13.8560 34.6819
#
#
#
# Elastic Compliance Matrix: (Units=1/GPa)
#
#
# Indices 1 2 3 4 5 6 
#
# 1 0.014397 0.000728 -0.002291 0.006342 0.010745 0.002392
# 2 0.000728 0.021880 -0.002750 0.011947 0.001264 -0.002856
# 3 -0.002291 -0.002750 0.015448 0.014882 0.009857 0.011491
# 4 0.006342 0.011947 0.014882 0.057242 0.022492 0.021242
# 5 0.010745 0.001264 0.009857 0.022492 0.035339 0.018909
# 6 0.002392 -0.002856 0.011491 0.021242 0.018909 0.043876
#
#
# Mechanical properties :
#
#
# Convention : Reuss Voigt Hill
#
# Bulk Modulus (GPa) = 23.20286 61.80171 42.50228
# Shear Modulus (GPa) = 23.67707 41.23409 32.45558
#
# Velocity S-wave (km/s) = 3.08518 4.07141 3.61211
# Velocity P-wave (km/s) = 4.69242 6.85175 5.87220
#
# Compressibility (1/GPa) = 0.04309813
#
# Stress axis : x y z
#
# Youngs Moduli (GPa) = 69.45905 45.70403 64.73388
#
# Poissons Ratio (x) = -0.03328 0.14833
# Poissons Ratio (y) = -0.05058 0.17803
# Poissons Ratio (z) = 0.15915 0.12569
#
# Static dielectric constant tensor:
#      x y z
#    x 2.051770 -0.018650 -0.023860 
#    y -0.018650 2.038890 0.027720 
#    z -0.023860 0.027720 1.977510 
# 
# From -- ./inp_files/276383.got.cif
#   From: 2010.05.17/outbox.cif.g08.bks.cpg/sg2_139_cif.got.tgz:276383.got - 2010.06.03 11:33:40.
