data_PCOD9002994
_publ_section_title
;
Structure prediction by ZEFSAII (Michael W. Deem and Ramdas Pophale) SiO2 
 PCOD9002994
Probable space group: P -1
;
_chemical_formula_sum "Si O2"
_cell_formula_units_Z 16
_cell_length_a 9.192868
_cell_length_b 9.706265
_cell_length_c 16.513859
_cell_angle_alpha 51.234806
_cell_angle_beta 65.129796
_cell_angle_gamma 44.276532
_cell_volume 801.044422
_symmetry_space_group_name_H-M "P -1"
_symmetry_group_IT_number 2
_symmetry_cell_setting 'triclinic'
loop_
_space_group_symop_operation_xyz
x,y,z
-x,-y,-z
loop_
_atom_site_type_symbol
_atom_site_label
_atom_site_fract_x
_atom_site_fract_y
_atom_site_fract_z
Si Si1 0.310630 0.390563 0.261381
Si Si2 0.534111 0.532306 0.573278
Si Si3 0.937410 0.058910 0.627857
Si Si4 0.242273 0.039500 0.439336
Si Si5 0.435353 0.853184 0.043006
Si Si6 0.433077 0.745042 0.902028
Si Si7 0.968242 0.070652 0.886372
Si Si8 0.665245 0.386739 0.250054
O O1 0.250050 0.243728 0.363389
O O2 0.401638 0.298540 0.183891
O O3 0.129758 0.665425 0.197856
O O4 0.500073 0.349820 0.280040
O O5 0.500000 0.500000 0.500000
O O6 0.766827 0.301987 0.621818
O O7 0.381816 0.543750 0.669085
O O8 0.463260 0.786732 0.499195
O O9 0.076832 0.082822 0.527203
O O10 0.829032 0.990403 0.619799
O O11 0.099608 0.845058 0.725915
O O12 0.210957 0.939873 0.095613
O O13 0.602664 0.594661 0.132800
O O14 0.427325 0.852481 0.947957
O O15 0.500000 0.000000 0.000000
O O16 0.500000 0.500000 0.000000
O O17 0.201927 0.900313 0.860807
O O18 0.000000 0.000000 0.000000
#
# Coordination Sequence:
#
# PCOD9002994 Si02
#       8
#     2   2   2   2   2   2   2   2
#     4  11  22  37  60  88 116 153 202 239 291 356
#     4   9  19  37  58  78 114 150 184 236 294 349
#     4   9  19  37  59  80 116 148 186 243 303 345
#     4   9  20  37  58  85 110 150 193 239 291 356
#     4  10  22  39  60  91 124 153 199 255 291 344
#     4  11  20  41  63  80 120 168 196 235 299 354
#     4   9  19  37  60  80 118 160 195 242 293 341
#     4  10  21  37  56  85 116 149 190 248 287 343
#
# _framework density 19.973922000000002
#
# number of rings (size 3 to 8) (size 9 to 14) (size 15 to 20)
#    0.000    2.250    3.750    0.750    0.000    9.000 
#    0.000    1.875    0.000    0.000    0.000    0.000 
#    0.000    0.000    0.000    0.000    0.000    0.000 
#
# Total GULP energy -89249.851328 kJ/mol
# GULP energy per Si atom -5578.115708 kJ/mol
# Density = 1.992846 g / cm^3
# Si number density = 19.973922 Si / 1000 Ang^3
#
#
#
# Elastic Constant Matrix: (Units=GPa)
#
#
# Indices 1 2 3 4 5 6 
#
# 1 87.1330 49.0492 48.0672 -37.1479 -4.1341 1.3055
# 2 49.0492 95.7336 26.9378 -26.2011 1.4575 -20.4760
# 3 48.0672 26.9378 80.7759 -27.9206 1.6760 -1.7502
# 4 -37.1479 -26.2011 -27.9206 47.9211 3.2901 14.3645
# 5 -4.1341 1.4575 1.6760 3.2901 37.1238 -11.3048
# 6 1.3055 -20.4760 -1.7502 14.3645 -11.3048 38.3703
#
#
#
# Elastic Compliance Matrix: (Units=1/GPa)
#
#
# Indices 1 2 3 4 5 6 
#
# 1 0.029456 -0.011258 -0.008526 0.015957 -0.001515 -0.013819
# 2 -0.011258 0.017935 0.000107 -0.002379 0.001705 0.011351
# 3 -0.008526 0.000107 0.019295 0.005362 -0.002788 -0.001602
# 4 0.015957 -0.002379 0.005362 0.041429 -0.007958 -0.019422
# 5 -0.001515 0.001705 -0.002788 -0.007958 0.031522 0.013100
# 6 -0.013819 0.011351 -0.001602 -0.019422 0.013100 0.043647
#
#
# Mechanical properties :
#
#
# Convention : Reuss Voigt Hill
#
# Bulk Modulus (GPa) = 36.58970 56.86121 46.72546
# Shear Modulus (GPa) = 21.57516 33.98891 27.78203
#
# Velocity S-wave (km/s) = 3.29015 4.12960 3.73354
# Velocity P-wave (km/s) = 5.72643 7.16014 6.48304
#
# Compressibility (1/GPa) = 0.02733009
#
# Stress axis : x y z
#
# Youngs Moduli (GPa) = 33.94910 55.75835 51.82795
#
# Poissons Ratio (x) = 0.62772 0.44189
# Poissons Ratio (y) = 0.38220 -0.00553
# Poissons Ratio (z) = 0.28946 -0.00595
#
# Static dielectric constant tensor:
#      x y z
#    x 1.725890 -0.007590 0.051970 
#    y -0.007590 1.755640 0.040580 
#    z 0.051970 0.040580 1.738860 
# 
# From -- ./inp_files/495213.got.cif
#   From: 2010.05.17/outbox.cif.g08.bks.cpg/sg2_248_cif.got.tgz:495213.got - 2010.06.03 11:33:40.
