data_PCOD9002786
_publ_section_title
;
Structure prediction by ZEFSAII (Michael W. Deem and Ramdas Pophale) SiO2 
 PCOD9002786
Probable space group: P -1
;
_chemical_formula_sum "Si O2"
_cell_formula_units_Z 16
_cell_length_a 9.684128
_cell_length_b 17.503716
_cell_length_c 8.849063
_cell_angle_alpha 136.962133
_cell_angle_beta 101.590382
_cell_angle_gamma 48.612530
_cell_volume 640.752036
_symmetry_space_group_name_H-M "P -1"
_symmetry_group_IT_number 2
_symmetry_cell_setting 'triclinic'
loop_
_space_group_symop_operation_xyz
x,y,z
-x,-y,-z
loop_
_atom_site_type_symbol
_atom_site_label
_atom_site_fract_x
_atom_site_fract_y
_atom_site_fract_z
Si Si1 0.685130 0.423820 0.051836
Si Si2 0.794069 0.694269 0.794693
Si Si3 0.240627 0.235482 0.561089
Si Si4 0.851635 0.902038 0.445697
Si Si5 0.700119 0.994293 0.205725
Si Si6 0.425060 0.758612 0.679452
Si Si7 0.227817 0.411895 0.072260
Si Si8 0.695319 0.223355 0.001389
O O1 0.908499 0.297007 0.821139
O O2 0.500000 0.500000 0.000000
O O3 0.583133 0.589700 0.361445
O O4 0.748655 0.295262 0.010623
O O5 0.574078 0.763655 0.797429
O O6 0.795082 0.680677 0.956108
O O7 0.000000 0.500000 0.500000
O O8 0.818586 0.807512 0.919827
O O9 0.278011 0.106457 0.490462
O O10 0.439581 0.123281 0.327370
O O11 0.992764 0.381262 0.655618
O O12 0.243735 0.349961 0.820533
O O13 0.744188 0.989346 0.384704
O O14 0.846595 0.024218 0.705615
O O15 0.744236 0.071360 0.218958
O O16 0.320381 0.753044 0.786797
O O17 0.446901 0.342954 0.065071
#
# Coordination Sequence:
#
# PCOD9002786 Si02
#       8
#     2   2   2   2   2   2   2   2
#     4  12  27  49  72  97 130 182 240 287 333 400
#     4  11  22  39  61  98 141 178 215 274 346 413
#     4  11  21  36  67 102 139 170 220 274 339 399
#     4  12  24  42  72 104 133 178 229 285 340 407
#     4  12  23  41  68 103 140 179 220 275 342 422
#     4  11  26  43  69  97 137 182 226 279 345 404
#     4  10  21  36  64  98 133 178 215 272 338 401
#     4  11  24  47  67 100 139 181 230 287 334 393
#
# _framework density 24.970658
#
# number of rings (size 3 to 8) (size 9 to 14) (size 15 to 20)
#    0.000    0.750    2.500    6.000    3.500    1.000 
#    0.000    3.750    0.000    0.000    0.000    0.000 
#    0.000    0.000    0.000    0.000    0.000    0.000 
#
# Total GULP energy -89646.740194 kJ/mol
# GULP energy per Si atom -5602.921262 kJ/mol
# Density = 2.491382 g / cm^3
# Si number density = 24.970658 Si / 1000 Ang^3
#
#
#
# Elastic Constant Matrix: (Units=GPa)
#
#
# Indices 1 2 3 4 5 6 
#
# 1 59.3924 21.3066 6.0632 -1.8306 -12.0596 9.4737
# 2 21.3066 99.6056 22.8533 -4.1106 1.3783 28.9474
# 3 6.0632 22.8533 139.3524 9.5658 -6.9686 2.5160
# 4 -1.8306 -4.1106 9.5658 34.3625 5.2483 1.2970
# 5 -12.0596 1.3783 -6.9686 5.2483 29.2348 0.5968
# 6 9.4737 28.9474 2.5160 1.2970 0.5968 39.0194
#
#
#
# Elastic Compliance Matrix: (Units=1/GPa)
#
#
# Indices 1 2 3 4 5 6 
#
# 1 0.020332 -0.003948 0.000293 -0.000737 0.008819 -0.002137
# 2 -0.003948 0.014397 -0.002385 0.003031 -0.003224 -0.009620
# 3 0.000293 -0.002385 0.007861 -0.002903 0.002603 0.001248
# 4 -0.000737 0.003031 -0.002903 0.031365 -0.006712 -0.002823
# 5 0.008819 -0.003224 0.002603 -0.006712 0.039827 -0.000304
# 6 -0.002137 -0.009620 0.001248 -0.002823 -0.000304 0.033302
#
#
# Mechanical properties :
#
#
# Convention : Reuss Voigt Hill
#
# Bulk Modulus (GPa) = 32.77523 44.31072 38.54297
# Shear Modulus (GPa) = 29.52749 37.06515 33.29632
#
# Velocity S-wave (km/s) = 3.44246 3.85690 3.65556
# Velocity P-wave (km/s) = 5.38096 6.13334 5.76943
#
# Compressibility (1/GPa) = 0.03051085
#
# Stress axis : x y z
#
# Youngs Moduli (GPa) = 49.18246 69.46086 127.20565
#
# Poissons Ratio (x) = 0.27423 -0.03727
# Poissons Ratio (y) = 0.19417 0.30336
# Poissons Ratio (z) = -0.01441 0.16565
#
# Static dielectric constant tensor:
#      x y z
#    x 1.976350 -0.016820 -0.008090 
#    y -0.016820 2.038000 0.007950 
#    z -0.008090 0.007950 1.948090 
# 
# From -- ./inp_files/280130.got.cif
#   From: 2010.05.17/outbox.cif.g08.bks.cpg/sg2_141_cif.got.tgz:280130.got - 2010.06.03 11:33:40.
