data_PCOD9002437
_publ_section_title
;
Structure prediction by ZEFSAII (Michael W. Deem and Ramdas Pophale) SiO2 
 PCOD9002437
Probable space group: P -1
;
_chemical_formula_sum "Si O2"
_cell_formula_units_Z 12
_cell_length_a 8.816142
_cell_length_b 11.858768
_cell_length_c 4.825857
_cell_angle_alpha 110.435645
_cell_angle_beta 65.931612
_cell_angle_gamma 111.862298
_cell_volume 415.792099
_symmetry_space_group_name_H-M "P -1"
_symmetry_group_IT_number 2
_symmetry_cell_setting 'triclinic'
loop_
_space_group_symop_operation_xyz
x,y,z
-x,-y,-z
loop_
_atom_site_type_symbol
_atom_site_label
_atom_site_fract_x
_atom_site_fract_y
_atom_site_fract_z
Si Si1 0.885381 0.633134 0.610701
Si Si2 0.548751 0.669888 0.587624
Si Si3 0.669444 0.385323 0.794220
Si Si4 0.974449 0.203549 0.809335
Si Si5 0.839384 0.950348 0.865125
Si Si6 0.521560 0.865904 0.412603
O O1 0.712259 0.644809 0.589743
O O2 0.825532 0.493002 0.656258
O O3 0.025374 0.682948 0.304540
O O4 0.910009 0.872608 0.511737
O O5 0.500624 0.612783 0.268631
O O6 0.560684 0.815471 0.638588
O O7 0.382307 0.611288 0.847732
O O8 0.651645 0.239400 0.626381
O O9 0.053869 0.274477 0.092840
O O10 0.812617 0.083484 0.890401
O O11 0.000000 0.000000 0.000000
O O12 0.686263 0.870302 0.101397
O O13 0.500000 0.000000 0.500000
#
# Coordination Sequence:
#
# PCOD9002437 Si02
#       6
#     2   2   2   2   2   2
#     4  12  20  38  64 104 135 170 220 285 349 389
#     4  10  21  36  60  95 130 177 211 276 339 392
#     4  10  22  38  64  94 138 174 221 278 338 401
#     4  11  24  36  67  99 135 175 216 285 339 401
#     4  11  22  44  65 101 135 179 227 276 337 397
#     4  10  25  45  69  98 136 183 230 273 332 404
#
# _framework density 28.860576999999999
#
# number of rings (size 3 to 8) (size 9 to 14) (size 15 to 20)
#    1.000    0.333    1.667    5.000    0.000    2.000 
#    0.000    2.500    0.000    2.000    0.000    0.000 
#    0.000    0.000    0.000    0.000    0.000    0.000 
#
# Total GULP energy -67102.326757 kJ/mol
# GULP energy per Si atom -5591.860563 kJ/mol
# Density = 2.879489 g / cm^3
# Si number density = 28.860577 Si / 1000 Ang^3
#
#
#
# Elastic Constant Matrix: (Units=GPa)
#
#
# Indices 1 2 3 4 5 6 
#
# 1 102.7262 28.9201 52.5353 -15.6580 4.5684 14.3917
# 2 28.9201 287.6853 33.6715 -54.2933 8.0609 3.9769
# 3 52.5353 33.6715 138.8993 -31.7589 39.7822 3.9185
# 4 -15.6580 -54.2933 -31.7589 70.9065 11.7272 3.5381
# 5 4.5684 8.0609 39.7822 11.7272 50.2267 -5.1352
# 6 14.3917 3.9769 3.9185 3.5381 -5.1352 41.6008
#
#
#
# Elastic Compliance Matrix: (Units=1/GPa)
#
#
# Indices 1 2 3 4 5 6 
#
# 1 0.013159 -0.000822 -0.005795 -0.000698 0.003335 -0.003457
# 2 -0.000822 0.004266 0.000830 0.003870 -0.002253 -0.000809
# 3 -0.005795 0.000830 0.015137 0.008510 -0.013779 -0.001925
# 4 -0.000698 0.003870 0.008510 0.023126 -0.013160 -0.004521
# 5 0.003335 -0.002253 -0.013779 -0.013160 0.034542 0.005743
# 6 -0.003457 -0.000809 -0.001925 -0.004521 0.005743 0.026586
#
#
# Mechanical properties :
#
#
# Convention : Reuss Voigt Hill
#
# Bulk Modulus (GPa) = 47.64715 84.39605 66.02160
# Shear Modulus (GPa) = 36.93133 60.15905 48.54519
#
# Velocity S-wave (km/s) = 3.58109 4.57055 4.10574
# Velocity P-wave (km/s) = 5.80037 7.56039 6.73809
#
# Compressibility (1/GPa) = 0.02098762
#
# Stress axis : x y z
#
# Youngs Moduli (GPa) = 75.99185 234.40154 66.06421
#
# Poissons Ratio (x) = 0.19267 0.38285
# Poissons Ratio (y) = 0.06246 -0.05481
# Poissons Ratio (z) = 0.44038 -0.19449
#
# Static dielectric constant tensor:
#      x y z
#    x 2.422740 -0.015290 -0.016090 
#    y -0.015290 2.470840 0.027730 
#    z -0.016090 0.027730 2.228030 
# 
# From -- ./inp_files/67024.got.cif
#   From: 2010.05.17/outbox.cif.g08.bks.cpg/sg2_34_cif.got.tgz:67024.got - 2010.06.03 11:33:40.
