data_PCOD9002029
_publ_section_title
;
Structure prediction by ZEFSAII (Michael W. Deem and Ramdas Pophale) SiO2 
 PCOD9002029
Probable space group: P -1
;
_chemical_formula_sum "Si O2"
_cell_formula_units_Z 16
_cell_length_a 13.782088
_cell_length_b 14.036058
_cell_length_c 7.805428
_cell_angle_alpha 99.733076
_cell_angle_beta 53.971030
_cell_angle_gamma 140.979800
_cell_volume 634.079391
_symmetry_space_group_name_H-M "P -1"
_symmetry_group_IT_number 2
_symmetry_cell_setting 'triclinic'
loop_
_space_group_symop_operation_xyz
x,y,z
-x,-y,-z
loop_
_atom_site_type_symbol
_atom_site_label
_atom_site_fract_x
_atom_site_fract_y
_atom_site_fract_z
Si Si1 0.646811 0.453979 0.379616
Si Si2 0.560023 0.902663 0.829368
Si Si3 0.796445 0.779433 0.817486
Si Si4 0.247626 0.170570 0.482509
Si Si5 0.300665 0.487747 0.285961
Si Si6 0.878320 0.252858 0.108267
Si Si7 0.510790 0.142555 0.508542
Si Si8 0.126881 0.712023 0.267686
O O1 0.422692 0.338339 0.482396
O O2 0.731510 0.564174 0.496183
O O3 0.571874 0.296180 0.478258
O O4 0.861482 0.592054 0.069992
O O5 0.619661 0.831316 0.736047
O O6 0.542834 0.921884 0.653396
O O7 0.756659 0.103497 0.764925
O O8 0.322639 0.769086 0.124334
O O9 0.831084 0.819182 0.590625
O O10 0.747638 0.632082 0.833374
O O11 0.571434 0.685747 0.062992
O O12 0.019653 0.968820 0.739196
O O13 0.117851 0.447362 0.437404
O O14 0.732159 0.231517 0.359026
O O15 0.711772 0.045597 0.215998
O O16 0.907546 0.319621 0.910022
#
# Coordination Sequence:
#
# PCOD9002029 Si02
#       8
#     2   2   2   2   2   2   2   2
#     4  10  21  36  56  88 114 146 191 246 284 334
#     4   9  17  32  56  83 113 146 182 229 285 339
#     4  10  22  40  60  76 112 156 194 234 284 342
#     4  10  21  39  58  84 111 150 193 236 287 340
#     4  10  21  39  58  84 111 150 193 236 287 340
#     4   9  18  33  54  83 119 155 186 226 286 346
#     4   9  18  33  54  83 119 155 186 226 286 346
#     4   9  17  32  56  83 113 146 182 229 285 339
#
# _framework density 25.233431
#
# number of rings (size 3 to 8) (size 9 to 14) (size 15 to 20)
#    0.000    2.500    1.250    0.375    0.000    4.000 
#    4.500    0.625    0.000    0.000    0.000    0.000 
#    0.000    0.000    0.000    0.000    0.000    0.000 
#
# Total GULP energy -89294.240612 kJ/mol
# GULP energy per Si atom -5580.890038 kJ/mol
# Density = 2.517600 g / cm^3
# Si number density = 25.233431 Si / 1000 Ang^3
#
#
#
# Elastic Constant Matrix: (Units=GPa)
#
#
# Indices 1 2 3 4 5 6 
#
# 1 39.3370 20.1839 16.2911 -14.6319 -3.3450 1.4089
# 2 20.1839 77.5818 34.0779 -13.6288 -14.7929 1.4519
# 3 16.2911 34.0779 125.8140 -35.5170 -32.0564 1.7332
# 4 -14.6319 -13.6288 -35.5170 28.1167 16.1823 -8.5042
# 5 -3.3450 -14.7929 -32.0564 16.1823 31.2157 -11.9549
# 6 1.4089 1.4519 1.7332 -8.5042 -11.9549 30.7992
#
#
#
# Elastic Compliance Matrix: (Units=1/GPa)
#
#
# Indices 1 2 3 4 5 6 
#
# 1 0.036620 -0.008010 0.001353 0.022947 -0.009957 0.001097
# 2 -0.008010 0.016869 -0.002671 -0.002529 0.006261 0.001453
# 3 0.001353 -0.002671 0.015017 0.015276 0.009042 0.006947
# 4 0.022947 -0.002529 0.015276 0.081054 -0.020186 0.012755
# 5 -0.009957 0.006261 0.009042 -0.020186 0.060395 0.017520
# 6 0.001097 0.001453 0.006947 0.012755 0.017520 0.042281
#
#
# Mechanical properties :
#
#
# Convention : Reuss Voigt Hill
#
# Bulk Modulus (GPa) = 20.05941 42.64874 31.35407
# Shear Modulus (GPa) = 17.39087 29.50498 23.44792
#
# Velocity S-wave (km/s) = 2.62811 3.42319 3.05165
# Velocity P-wave (km/s) = 4.14440 5.70637 4.98692
#
# Compressibility (1/GPa) = 0.04985192
#
# Stress axis : x y z
#
# Youngs Moduli (GPa) = 27.30755 59.28088 66.59143
#
# Poissons Ratio (x) = 0.47482 -0.09013
# Poissons Ratio (y) = 0.21872 0.17784
# Poissons Ratio (z) = -0.03696 0.15832
#
# Static dielectric constant tensor:
#      x y z
#    x 2.020860 0.010440 -0.023680 
#    y 0.010440 2.013130 -0.016380 
#    z -0.023680 -0.016380 2.050880 
# 
# From -- ./inp_files/315381.got.cif
#   From: 2010.05.17/outbox.cif.g08.bks.cpg/sg2_158_cif.got.tgz:315381.got - 2010.06.03 11:33:40.
