data_PCOD9002659
_publ_section_title
;
Structure prediction by ZEFSAII (Michael W. Deem and Ramdas Pophale) SiO2 
 PCOD9002659
Probable space group: P -1
;
_chemical_formula_sum "Si O2"
_cell_formula_units_Z 14
_cell_length_a 18.119217
_cell_length_b 5.217898
_cell_length_c 9.733504
_cell_angle_alpha 108.556450
_cell_angle_beta 82.600142
_cell_angle_gamma 123.082270
_cell_volume 729.806617
_symmetry_space_group_name_H-M "P -1"
_symmetry_group_IT_number 2
_symmetry_cell_setting 'triclinic'
loop_
_space_group_symop_operation_xyz
x,y,z
-x,-y,-z
loop_
_atom_site_type_symbol
_atom_site_label
_atom_site_fract_x
_atom_site_fract_y
_atom_site_fract_z
Si Si1 0.528877 0.685465 0.202664
Si Si2 0.257828 0.305358 0.622728
Si Si3 0.098680 0.707029 0.457703
Si Si4 0.183499 0.303834 0.366168
Si Si5 0.649232 0.401511 0.792953
Si Si6 0.409768 0.171275 0.500985
Si Si7 0.622551 0.289301 0.098368
O O1 0.423721 0.508375 0.197400
O O2 0.569409 0.907834 0.366668
O O3 0.565244 0.452714 0.156600
O O4 0.566325 0.928831 0.107349
O O5 0.238669 0.457659 0.521672
O O6 0.331048 0.232737 0.544009
O O7 0.294213 0.514417 0.785923
O O8 0.165380 0.964508 0.599519
O O9 0.135637 0.486276 0.372103
O O10 0.000000 0.500000 0.500000
O O11 0.114190 0.939769 0.366060
O O12 0.253960 0.345300 0.244338
O O13 0.614092 0.088278 0.653735
O O14 0.648948 0.323955 0.939527
O O15 0.500000 0.500000 0.500000
#
# Coordination Sequence:
#
# PCOD9002659 Si02
#       7
#     2   2   2   2   2   2   2
#     4  11  24  39  54  81 121 167 203 231 286 338
#     4   9  21  37  59  85 118 150 202 225 298 347
#     4  10  21  38  65  89 113 143 194 247 297 356
#     4  10  21  36  63  88 113 144 197 242 297 340
#     4  12  21  38  58  87 120 156 204 249 285 333
#     4  11  21  38  60  86 119 161 201 249 283 333
#     4  11  25  37  57  83 123 163 197 239 284 346
#
# _framework density 19.183164000000001
#
# number of rings (size 3 to 8) (size 9 to 14) (size 15 to 20)
#    0.857    0.571    1.429    5.143    2.000    4.571 
#    0.000    0.000    0.000    1.714    0.000    0.000 
#    0.000    0.000    0.000    0.000    0.000    0.000 
#
# Total GULP energy -78213.317966 kJ/mol
# GULP energy per Si atom -5586.665569 kJ/mol
# Density = 1.913950 g / cm^3
# Si number density = 19.183164 Si / 1000 Ang^3
#
#
#
# Elastic Constant Matrix: (Units=GPa)
#
#
# Indices 1 2 3 4 5 6 
#
# 1 45.8823 17.1933 2.1169 -2.6499 -9.8026 17.0659
# 2 17.1933 65.0387 1.7004 -15.3458 -13.7642 10.9161
# 3 2.1169 1.7004 100.8048 -3.6646 2.9352 8.3495
# 4 -2.6499 -15.3458 -3.6646 28.1930 3.2376 -4.7320
# 5 -9.8026 -13.7642 2.9352 3.2376 21.9123 -9.4927
# 6 17.0659 10.9161 8.3495 -4.7320 -9.4927 42.3623
#
#
#
# Elastic Compliance Matrix: (Units=1/GPa)
#
#
# Indices 1 2 3 4 5 6 
#
# 1 0.028211 -0.005299 -0.000015 -0.002402 0.005761 -0.008974
# 2 -0.005299 0.021118 -0.000155 0.009884 0.009429 -0.000060
# 3 -0.000015 -0.000155 0.010247 0.001145 -0.002708 -0.002453
# 4 -0.002402 0.009884 0.001145 0.041234 0.000112 0.002826
# 5 0.005761 0.009429 -0.002708 0.000112 0.058323 0.008865
# 6 -0.008974 -0.000060 -0.002453 0.002826 0.008865 0.030022
#
#
# Mechanical properties :
#
#
# Convention : Reuss Voigt Hill
#
# Bulk Modulus (GPa) = 20.56000 28.19411 24.37705
# Shear Modulus (GPa) = 23.11543 31.20787 27.16165
#
# Velocity S-wave (km/s) = 3.47506 4.03778 3.76694
# Velocity P-wave (km/s) = 5.18096 6.03883 5.62627
#
# Compressibility (1/GPa) = 0.04863813
#
# Stress axis : x y z
#
# Youngs Moduli (GPa) = 35.44693 47.35337 97.59200
#
# Poissons Ratio (x) = 0.25091 0.00145
# Poissons Ratio (y) = 0.18782 0.01515
# Poissons Ratio (z) = 0.00053 0.00735
#
# Static dielectric constant tensor:
#      x y z
#    x 1.661530 -0.013590 0.023110 
#    y -0.013590 1.714690 -0.001380 
#    z 0.023110 -0.001380 1.702500 
# 
# From -- ./inp_files/35501.got.cif
#   From: 2010.05.17/outbox.cif.g08.bks.cpg/sg2_18_cif.got.tgz:35501.got - 2010.06.03 11:33:40.
