data_PCOD9002287
_publ_section_title
;
Structure prediction by ZEFSAII (Michael W. Deem and Ramdas Pophale) SiO2 
 PCOD9002287
Probable space group: P -1
;
_chemical_formula_sum "Si O2"
_cell_formula_units_Z 14
_cell_length_a 19.668463
_cell_length_b 8.971348
_cell_length_c 9.338847
_cell_angle_alpha 99.534078
_cell_angle_beta 113.317118
_cell_angle_gamma 135.420901
_cell_volume 764.349266
_symmetry_space_group_name_H-M "P -1"
_symmetry_group_IT_number 2
_symmetry_cell_setting 'triclinic'
loop_
_space_group_symop_operation_xyz
x,y,z
-x,-y,-z
loop_
_atom_site_type_symbol
_atom_site_label
_atom_site_fract_x
_atom_site_fract_y
_atom_site_fract_z
Si Si1 0.909369 0.969419 0.833703
Si Si2 0.663931 0.468071 0.746944
Si Si3 0.842302 0.305845 0.099661
Si Si4 0.673250 0.126172 0.663072
Si Si5 0.023722 0.886593 0.418661
Si Si6 0.837715 0.988299 0.184730
Si Si7 0.936494 0.534048 0.763511
O O1 0.745994 0.665429 0.702937
O O2 0.932635 0.003939 0.690543
O O3 0.000000 0.000000 0.000000
O O4 0.973567 0.235829 0.994023
O O5 0.686855 0.327320 0.749168
O O6 0.493871 0.199564 0.556187
O O7 0.741380 0.695826 0.975640
O O8 0.879766 0.530194 0.238661
O O9 0.000763 0.522402 0.216535
O O10 0.789559 0.074679 0.118202
O O11 0.739527 0.148450 0.853580
O O12 0.772357 0.267178 0.629123
O O13 0.142893 0.008065 0.632268
O O14 0.000000 0.000000 0.500000
O O15 0.998749 0.265483 0.289246
#
# Coordination Sequence:
#
# PCOD9002287 Si02
#       7
#     2   2   2   2   2   2   2
#     4  11  19  37  60  87 115 144 203 234 280 338
#     4  10  22  36  59  89 115 153 192 244 281 336
#     4  10  21  36  59  90 115 147 199 234 291 333
#     4  11  19  35  62  87 117 147 196 244 285 328
#     4  12  22  34  61  86 118 151 189 241 286 339
#     4   9  22  37  54  87 117 150 191 230 290 341
#     4   9  19  33  61  85 110 146 192 246 271 334
#
# _framework density 18.316234000000001
#
# number of rings (size 3 to 8) (size 9 to 14) (size 15 to 20)
#    0.857    0.857    2.857    3.429    0.000    0.571 
#    0.000    0.000    3.143    4.286    0.000    0.000 
#    0.000    0.000    0.000    0.000    0.000    0.000 
#
# Total GULP energy -77998.072119 kJ/mol
# GULP energy per Si atom -5571.290866 kJ/mol
# Density = 1.827455 g / cm^3
# Si number density = 18.316234 Si / 1000 Ang^3
#
#
#
# Elastic Constant Matrix: (Units=GPa)
#
#
# Indices 1 2 3 4 5 6 
#
# 1 61.3613 23.4467 27.8796 0.9040 3.1478 4.5130
# 2 23.4467 85.8306 50.9660 -8.8381 2.5316 6.9910
# 3 27.8796 50.9660 86.7000 -16.0539 -0.3669 12.6765
# 4 0.9040 -8.8381 -16.0539 32.5872 8.9723 4.2722
# 5 3.1478 2.5316 -0.3669 8.9723 34.4908 4.0100
# 6 4.5130 6.9910 12.6765 4.2722 4.0100 27.0514
#
#
#
# Elastic Compliance Matrix: (Units=1/GPa)
#
#
# Indices 1 2 3 4 5 6 
#
# 1 0.019914 -0.002429 -0.005828 -0.003976 -0.000757 0.000777
# 2 -0.002429 0.018273 -0.009956 0.000439 -0.001396 0.000486
# 3 -0.005828 -0.009956 0.022250 0.009523 -0.000003 -0.008385
# 4 -0.003976 0.000439 0.009523 0.039166 -0.008733 -0.008804
# 5 -0.000757 -0.001396 -0.000003 -0.008733 0.031767 -0.002841
# 6 0.000777 0.000486 -0.008385 -0.008804 -0.002841 0.042452
#
#
# Mechanical properties :
#
#
# Convention : Reuss Voigt Hill
#
# Bulk Modulus (GPa) = 41.65116 48.71959 45.18537
# Shear Modulus (GPa) = 22.90911 27.59920 25.25415
#
# Velocity S-wave (km/s) = 3.54044 3.88598 3.71723
# Velocity P-wave (km/s) = 6.28509 6.84042 6.56863
#
# Compressibility (1/GPa) = 0.02400894
#
# Stress axis : x y z
#
# Youngs Moduli (GPa) = 50.21690 54.72453 44.94334
#
# Poissons Ratio (x) = 0.13294 0.26195
# Poissons Ratio (y) = 0.12199 0.44747
# Poissons Ratio (z) = 0.29269 0.54486
#
# Static dielectric constant tensor:
#      x y z
#    x 1.683570 -0.026980 -0.001700 
#    y -0.026980 1.683190 -0.014210 
#    z -0.001700 -0.014210 1.613150 
# 
# From -- ./inp_files/341156.got.cif
#   From: 2010.05.17/outbox.cif.g08.bks.cpg/sg2_171_cif.got.tgz:341156.got - 2010.06.03 11:33:40.
