data_PCOD9002998
_publ_section_title
;
Structure prediction by ZEFSAII (Michael W. Deem and Ramdas Pophale) SiO2 
 PCOD9002998
Probable space group: P -1
;
_chemical_formula_sum "Si O2"
_cell_formula_units_Z 16
_cell_length_a 6.541094
_cell_length_b 7.739340
_cell_length_c 13.652865
_cell_angle_alpha 79.166373
_cell_angle_beta 93.862010
_cell_angle_gamma 98.239084
_cell_volume 671.253207
_symmetry_space_group_name_H-M "P -1"
_symmetry_group_IT_number 2
_symmetry_cell_setting 'triclinic'
loop_
_space_group_symop_operation_xyz
x,y,z
-x,-y,-z
loop_
_atom_site_type_symbol
_atom_site_label
_atom_site_fract_x
_atom_site_fract_y
_atom_site_fract_z
Si Si1 0.069242 0.015574 0.190117
Si Si2 0.980611 0.266648 0.477974
Si Si3 0.359650 0.864886 0.370755
Si Si4 0.662918 0.628745 0.792352
Si Si5 0.352320 0.494829 0.401808
Si Si6 0.311968 0.570072 0.927762
Si Si7 0.106158 0.691667 0.085990
Si Si8 0.195930 0.007889 0.646756
O O1 0.200211 0.945264 0.290127
O O2 0.093494 0.880525 0.116836
O O3 0.845445 0.992477 0.238240
O O4 0.178635 0.217673 0.165884
O O5 0.759098 0.215193 0.528133
O O6 0.111802 0.452748 0.432191
O O7 0.131605 0.176098 0.565954
O O8 0.945854 0.158390 0.387365
O O9 0.414580 0.688795 0.338580
O O10 0.567645 0.993982 0.373161
O O11 0.637337 0.639041 0.673162
O O12 0.434299 0.636978 0.827433
O O13 0.761346 0.446552 0.839246
O O14 0.500000 0.500000 0.500000
O O15 0.124925 0.414312 0.918003
O O16 0.500000 0.500000 0.000000
O O17 0.212801 0.706823 0.980439
#
# Coordination Sequence:
#
# PCOD9002998 Si02
#       8
#     2   2   2   2   2   2   2   2
#     4  11  24  40  67  97 135 175 220 270 331 400
#     4  10  21  38  55  82 124 167 228 276 321 384
#     4  11  23  38  61  88 125 182 221 272 332 376
#     4  11  24  44  64 100 137 172 224 275 324 401
#     4  12  23  40  62  93 133 178 229 279 325 380
#     4   9  22  45  75 102 132 168 214 270 337 406
#     4  10  22  45  72  99 133 173 210 273 340 396
#     4  10  21  37  56  86 125 168 222 277 320 380
#
# _framework density 23.836013000000001
#
# number of rings (size 3 to 8) (size 9 to 14) (size 15 to 20)
#    0.000    1.500    3.750    0.750    1.750    2.500 
#    2.250    5.625    0.000    0.000    0.000    0.000 
#    0.000    0.000    0.000    0.000    0.000    0.000 
#
# Total GULP energy -89256.357483 kJ/mol
# GULP energy per Si atom -5578.522343 kJ/mol
# Density = 2.378176 g / cm^3
# Si number density = 23.836013 Si / 1000 Ang^3
#
#
#
# Elastic Constant Matrix: (Units=GPa)
#
#
# Indices 1 2 3 4 5 6 
#
# 1 110.6895 22.2776 55.0959 11.3914 -27.3998 22.4890
# 2 22.2776 87.8633 43.1238 20.3005 -8.2949 15.3184
# 3 55.0959 43.1238 111.2758 29.4902 -34.4127 10.7806
# 4 11.3914 20.3005 29.4902 35.1587 -9.3788 -1.0480
# 5 -27.3998 -8.2949 -34.4127 -9.3788 40.9917 -9.9982
# 6 22.4890 15.3184 10.7806 -1.0480 -9.9982 31.7861
#
#
#
# Elastic Compliance Matrix: (Units=1/GPa)
#
#
# Indices 1 2 3 4 5 6 
#
# 1 0.013870 0.000698 -0.005600 0.000390 0.003023 -0.007286
# 2 0.000698 0.016423 -0.005555 -0.006444 -0.004323 -0.008096
# 3 -0.005600 -0.005555 0.018770 -0.008013 0.009812 0.003095
# 4 0.000390 -0.006444 -0.008013 0.039867 0.003276 0.007892
# 5 0.003023 -0.004323 0.009812 0.003276 0.036532 0.008216
# 6 -0.007286 -0.008096 0.003095 0.007892 0.008216 0.042312
#
#
# Mechanical properties :
#
#
# Convention : Reuss Voigt Hill
#
# Bulk Modulus (GPa) = 35.52614 61.20258 48.36436
# Shear Modulus (GPa) = 25.24343 34.20938 29.72640
#
# Velocity S-wave (km/s) = 3.25783 3.79251 3.53529
# Velocity P-wave (km/s) = 5.39333 6.70147 6.08267
#
# Compressibility (1/GPa) = 0.02814829
#
# Stress axis : x y z
#
# Youngs Moduli (GPa) = 72.09839 60.89017 53.27574
#
# Poissons Ratio (x) = -0.04248 0.29837
# Poissons Ratio (y) = -0.05029 0.29593
# Poissons Ratio (z) = 0.40378 0.33822
#
# Static dielectric constant tensor:
#      x y z
#    x 1.969820 -0.091590 -0.047000 
#    y -0.091590 1.942940 -0.000430 
#    z -0.047000 -0.000430 1.992370 
# 
# From -- ./inp_files/480552.got.cif
#   From: 2010.05.17/outbox.cif.g08.bks.cpg/sg2_241_cif.got.tgz:480552.got - 2010.06.03 11:33:40.
