data_PCOD9002736
_publ_section_title
;
Structure prediction by ZEFSAII (Michael W. Deem and Ramdas Pophale) SiO2 
 PCOD9002736
Probable space group: P -1
;
_chemical_formula_sum "Si O2"
_cell_formula_units_Z 16
_cell_length_a 11.589657
_cell_length_b 17.597359
_cell_length_c 9.617361
_cell_angle_alpha 135.134003
_cell_angle_beta 106.006589
_cell_angle_gamma 111.042197
_cell_volume 765.605463
_symmetry_space_group_name_H-M "P -1"
_symmetry_group_IT_number 2
_symmetry_cell_setting 'triclinic'
loop_
_space_group_symop_operation_xyz
x,y,z
-x,-y,-z
loop_
_atom_site_type_symbol
_atom_site_label
_atom_site_fract_x
_atom_site_fract_y
_atom_site_fract_z
Si Si1 0.671881 0.063316 0.054811
Si Si2 0.228128 0.076935 0.166361
Si Si3 0.153295 0.937476 0.236808
Si Si4 0.771273 0.334214 0.273895
Si Si5 0.364448 0.730135 0.146931
Si Si6 0.990576 0.621804 0.944045
Si Si7 0.893791 0.625918 0.225941
Si Si8 0.862205 0.846422 0.539759
O O1 0.705655 0.164876 0.065733
O O2 0.887635 0.217345 0.412858
O O3 0.500000 0.000000 0.000000
O O4 0.608444 0.893176 0.785053
O O5 0.089692 0.905765 0.011683
O O6 0.285471 0.220575 0.467752
O O7 0.087956 0.007639 0.900724
O O8 0.393732 0.078373 0.492970
O O9 0.144479 0.055938 0.437989
O O10 0.027350 0.761032 0.056249
O O11 0.000000 0.500000 0.500000
O O12 0.639626 0.286878 0.043987
O O13 0.807107 0.424161 0.545388
O O14 0.205318 0.709931 0.110937
O O15 0.270722 0.560056 0.977344
O O16 0.936312 0.602787 0.061191
O O17 0.826374 0.701118 0.284994
#
# Coordination Sequence:
#
# PCOD9002736 Si02
#       8
#     2   2   2   2   2   2   2   2
#     4  11  22  34  62  90 125 151 195 248 306 347
#     4   8  17  37  58  88 112 155 201 241 280 357
#     4  10  21  36  64  85 114 156 205 245 275 362
#     4  10  21  39  57  86 120 163 189 230 308 364
#     4  11  23  37  61  88 123 153 202 240 302 352
#     4  11  23  37  59  89 124 154 192 243 315 344
#     4  11  23  38  58  88 123 157 192 253 294 352
#     4   8  19  37  61  84 113 161 206 234 290 345
#
# _framework density 20.898491
#
# number of rings (size 3 to 8) (size 9 to 14) (size 15 to 20)
#    0.750    1.250    2.500    2.250    5.250    1.000 
#    0.000    0.000    0.000    0.750    0.000    0.000 
#    0.000    0.000    0.000    0.000    0.000    0.000 
#
# Total GULP energy -89120.302910 kJ/mol
# GULP energy per Si atom -5570.018932 kJ/mol
# Density = 2.085093 g / cm^3
# Si number density = 20.898491 Si / 1000 Ang^3
#
#
#
# Elastic Constant Matrix: (Units=GPa)
#
#
# Indices 1 2 3 4 5 6 
#
# 1 129.0758 36.4274 26.9140 4.3672 -20.4100 -14.7213
# 2 36.4274 68.5050 24.6176 -6.1561 -3.1880 -16.5241
# 3 26.9140 24.6176 66.2209 -12.4526 -4.8792 -3.6093
# 4 4.3672 -6.1561 -12.4526 28.5731 1.8144 -5.4356
# 5 -20.4100 -3.1880 -4.8792 1.8144 24.2056 0.2877
# 6 -14.7213 -16.5241 -3.6093 -5.4356 0.2877 32.3302
#
#
#
# Elastic Compliance Matrix: (Units=1/GPa)
#
#
# Indices 1 2 3 4 5 6 
#
# 1 0.011363 -0.004522 -0.003000 -0.004239 0.008678 0.001738
# 2 -0.004522 0.021277 -0.004799 0.005082 -0.002468 0.009156
# 3 -0.003000 -0.004799 0.019586 0.007889 0.000198 -0.000308
# 4 -0.004239 0.005082 0.007889 0.042119 -0.004575 0.008670
# 5 0.008678 -0.002468 0.000198 -0.004575 0.048670 0.001510
# 6 0.001738 0.009156 -0.000308 0.008670 0.001510 0.037812
#
#
# Mechanical properties :
#
#
# Convention : Reuss Voigt Hill
#
# Bulk Modulus (GPa) = 36.25340 48.85775 42.55558
# Shear Modulus (GPa) = 23.29228 28.74462 26.01845
#
# Velocity S-wave (km/s) = 3.34210 3.71272 3.53227
# Velocity P-wave (km/s) = 5.68136 6.46594 6.08631
#
# Compressibility (1/GPa) = 0.02758362
#
# Stress axis : x y z
#
# Youngs Moduli (GPa) = 88.00507 46.99902 51.05759
#
# Poissons Ratio (x) = 0.21253 0.15318
# Poissons Ratio (y) = 0.39796 0.24502
# Poissons Ratio (z) = 0.26403 0.22554
#
# Static dielectric constant tensor:
#      x y z
#    x 1.832520 0.007260 -0.041690 
#    y 0.007260 1.758590 -0.053580 
#    z -0.041690 -0.053580 1.807070 
# 
# From -- ./inp_files/278420.got.cif
#   From: 2010.05.17/outbox.cif.g08.bks.cpg/sg2_140_cif.got.tgz:278420.got - 2010.06.03 11:33:40.
