data_PCOD9002450
_publ_section_title
;
Structure prediction by ZEFSAII (Michael W. Deem and Ramdas Pophale) SiO2 
 PCOD9002450
Probable space group: P -1
;
_chemical_formula_sum "Si O2"
_cell_formula_units_Z 15
_cell_length_a 11.557294
_cell_length_b 11.632993
_cell_length_c 12.009602
_cell_angle_alpha 122.091750
_cell_angle_beta 91.498546
_cell_angle_gamma 38.658036
_cell_volume 579.865314
_symmetry_space_group_name_H-M "P -1"
_symmetry_group_IT_number 2
_symmetry_cell_setting 'triclinic'
loop_
_space_group_symop_operation_xyz
x,y,z
-x,-y,-z
loop_
_atom_site_type_symbol
_atom_site_label
_atom_site_fract_x
_atom_site_fract_y
_atom_site_fract_z
Si Si1 0.000000 0.500000 0.500000
Si Si2 0.218530 0.492357 0.332284
Si Si3 0.582670 0.794479 0.479430
Si Si4 0.567538 0.677029 0.968644
Si Si5 0.700294 0.531240 0.124326
Si Si6 0.959222 0.049201 0.361088
Si Si7 0.149831 0.907017 0.059525
Si Si8 0.711489 0.058776 0.280178
O O1 0.924690 0.478682 0.595136
O O2 0.819204 0.591972 0.462072
O O3 0.318061 0.348108 0.136399
O O4 0.042680 0.819418 0.490741
O O5 0.476758 0.275630 0.297296
O O6 0.672618 0.593659 0.284249
O O7 0.334410 0.003751 0.656879
O O8 0.500000 0.000000 0.500000
O O9 0.297242 0.889957 0.031056
O O10 0.519091 0.786976 0.149211
O O11 0.788884 0.320759 0.802417
O O12 0.640452 0.434365 0.073171
O O13 0.004196 0.242143 0.936763
O O14 0.714079 0.200218 0.419139
O O15 0.970867 0.106420 0.268414
O O16 0.000000 0.000000 0.000000
#
# Coordination Sequence:
#
# PCOD9002450 Si02
#       8
#     1   2   2   2   2   2   2   2
#     4  10  28  46  64 102 132 178 244 272 342 418
#     4  11  22  42  65  94 138 176 228 284 334 416
#     4  11  26  47  73  95 138 187 231 289 341 411
#     4  10  21  39  62 104 134 175 224 277 356 407
#     4  10  23  43  65  99 140 173 227 287 339 416
#     4  10  21  36  66  97 134 175 219 286 343 409
#     4  10  21  36  61 101 139 173 218 276 356 412
#     4   9  22  43  64 104 130 172 232 275 356 403
#
# _framework density 25.868079000000002
#
# number of rings (size 3 to 8) (size 9 to 14) (size 15 to 20)
#    0.000    2.133    0.000    4.000    9.333    2.667 
#    2.400    1.333    0.000    0.000    0.000    0.000 
#    0.000    0.000    0.000    0.000    0.000    0.000 
#
# Total GULP energy -83556.725236 kJ/mol
# GULP energy per Si atom -5570.448349 kJ/mol
# Density = 2.580920 g / cm^3
# Si number density = 25.868079 Si / 1000 Ang^3
#
#
#
# Elastic Constant Matrix: (Units=GPa)
#
#
# Indices 1 2 3 4 5 6 
#
# 1 85.5838 9.1512 7.1575 -0.8146 -37.0757 -4.4737
# 2 9.1512 79.9683 26.9817 -36.0335 -11.6793 -8.5076
# 3 7.1575 26.9817 69.1230 -31.7218 -20.0551 -6.1089
# 4 -0.8146 -36.0335 -31.7218 47.4298 1.7111 -4.0880
# 5 -37.0757 -11.6793 -20.0551 1.7111 41.1615 -11.0793
# 6 -4.4737 -8.5076 -6.1089 -4.0880 -11.0793 47.7475
#
#
#
# Elastic Compliance Matrix: (Units=1/GPa)
#
#
# Indices 1 2 3 4 5 6 
#
# 1 0.025247 0.004690 0.011659 0.011757 0.032849 0.013322
# 2 0.004690 0.023515 0.006305 0.022540 0.016014 0.011082
# 3 0.011659 0.006305 0.034811 0.028534 0.032551 0.016666
# 4 0.011757 0.022540 0.028534 0.058127 0.034315 0.021708
# 5 0.032849 0.016014 0.032551 0.034315 0.081456 0.031935
# 6 0.013322 0.011082 0.016666 0.021708 0.031935 0.035567
#
#
# Mechanical properties :
#
#
# Convention : Reuss Voigt Hill
#
# Bulk Modulus (GPa) = 7.75918 35.69512 21.72715
# Shear Modulus (GPa) = 19.50266 40.02675 29.76471
#
# Velocity S-wave (km/s) = 2.74875 3.93789 3.39578
# Velocity P-wave (km/s) = 3.61666 5.87408 4.87776
#
# Compressibility (1/GPa) = 0.12887959
#
# Stress axis : x y z
#
# Youngs Moduli (GPa) = 39.60926 42.52565 28.72690
#
# Poissons Ratio (x) = -0.19943 -0.33492
# Poissons Ratio (y) = -0.18576 -0.18113
# Poissons Ratio (z) = -0.46179 -0.26813
#
# Static dielectric constant tensor:
#      x y z
#    x 1.197230 -0.187520 -1.075930 
#    y -0.187520 2.076570 -0.227540 
#    z -1.075930 -0.227540 0.398710 
# 
# From -- ./inp_files/426332.got.cif
#   From: 2010.05.17/outbox.cif.g08.bks.cpg/sg2_214_cif.got.tgz:426332.got - 2010.06.03 11:33:40.
