data_PCOD9002863
_publ_section_title
;
Structure prediction by ZEFSAII (Michael W. Deem and Ramdas Pophale) SiO2 
 PCOD9002863
Probable space group: P -1
;
_chemical_formula_sum "Si O2"
_cell_formula_units_Z 16
_cell_length_a 9.363907
_cell_length_b 7.781949
_cell_length_c 10.153862
_cell_angle_alpha 84.968213
_cell_angle_beta 74.021859
_cell_angle_gamma 112.525165
_cell_volume 641.323262
_symmetry_space_group_name_H-M "P -1"
_symmetry_group_IT_number 2
_symmetry_cell_setting 'triclinic'
loop_
_space_group_symop_operation_xyz
x,y,z
-x,-y,-z
loop_
_atom_site_type_symbol
_atom_site_label
_atom_site_fract_x
_atom_site_fract_y
_atom_site_fract_z
Si Si1 0.286970 0.531515 0.067596
Si Si2 0.112050 0.942464 0.380292
Si Si3 0.574669 0.842847 0.492200
Si Si4 0.490757 0.568897 0.775383
Si Si5 0.754259 0.314140 0.514658
Si Si6 0.958403 0.428442 0.700933
Si Si7 0.769775 0.839574 0.201953
Si Si8 0.846772 0.903866 0.911815
O O1 0.397758 0.509721 0.161374
O O2 0.162076 0.615467 0.143742
O O3 0.173212 0.313464 0.066064
O O4 0.403872 0.637201 0.909694
O O5 0.422414 0.272795 0.369410
O O6 0.201521 0.074756 0.226478
O O7 0.002844 0.742632 0.348796
O O8 0.000000 0.000000 0.500000
O O9 0.417640 0.683852 0.462270
O O10 0.721294 0.903993 0.346392
O O11 0.500000 0.000000 0.500000
O O12 0.762766 0.115916 0.566038
O O13 0.338052 0.387091 0.762815
O O14 0.849143 0.446977 0.605146
O O15 0.871484 0.388260 0.353077
O O16 0.736954 0.913545 0.061744
O O17 0.967016 0.936665 0.136325
#
# Coordination Sequence:
#
# PCOD9002863 Si02
#       8
#     2   2   2   2   2   2   2   2
#     4  10  21  43  69  97 128 172 229 267 323 393
#     4  10  21  36  66  95 126 167 218 275 325 381
#     4  12  27  41  63  96 140 170 217 270 340 392
#     4  10  24  43  68  96 131 179 215 270 335 395
#     4   9  22  39  55  96 127 167 215 265 326 389
#     4   9  20  37  66  91 129 165 220 274 314 389
#     4  10  24  45  62  96 130 173 218 273 328 399
#     4  10  23  40  69  93 127 172 225 270 327 382
#
# _framework density 24.948415000000001
#
# number of rings (size 3 to 8) (size 9 to 14) (size 15 to 20)
#    0.750    1.250    0.000    1.875    7.000    2.000 
#    0.000    1.250    0.000    0.000    0.000    0.000 
#    0.000    0.000    0.000    0.000    0.000    0.000 
#
# Total GULP energy -89150.152452 kJ/mol
# GULP energy per Si atom -5571.884528 kJ/mol
# Density = 2.489163 g / cm^3
# Si number density = 24.948415 Si / 1000 Ang^3
#
#
#
# Elastic Constant Matrix: (Units=GPa)
#
#
# Indices 1 2 3 4 5 6 
#
# 1 66.6215 11.2125 48.3116 0.7692 7.2309 2.3846
# 2 11.2125 78.7138 34.0562 -3.9907 1.5894 -1.8555
# 3 48.3116 34.0562 243.3011 -4.2873 -1.7016 -31.6155
# 4 0.7692 -3.9907 -4.2873 33.2052 0.1593 -1.4077
# 5 7.2309 1.5894 -1.7016 0.1593 37.5084 3.5964
# 6 2.3846 -1.8555 -31.6155 -1.4077 3.5964 29.2985
#
#
#
# Elastic Compliance Matrix: (Units=1/GPa)
#
#
# Indices 1 2 3 4 5 6 
#
# 1 0.019004 -0.000914 -0.004487 -0.001373 -0.003236 -0.006115
# 2 -0.000914 0.013684 -0.001832 0.001392 -0.000405 -0.000919
# 3 -0.004487 -0.001832 0.006174 0.000970 0.000558 0.006889
# 4 -0.001373 0.001392 0.000970 0.030557 -0.000142 0.002733
# 5 -0.003236 -0.000405 0.000558 -0.000142 0.027572 -0.002551
# 6 -0.006115 -0.000919 0.006889 0.002733 -0.002551 0.042450
#
#
# Mechanical properties :
#
#
# Convention : Reuss Voigt Hill
#
# Bulk Modulus (GPa) = 40.99024 63.97745 52.48384
# Shear Modulus (GPa) = 30.85700 39.67282 35.26491
#
# Velocity S-wave (km/s) = 3.52068 3.99205 3.76375
# Velocity P-wave (km/s) = 5.74392 6.85187 6.32221
#
# Compressibility (1/GPa) = 0.02439605
#
# Stress axis : x y z
#
# Youngs Moduli (GPa) = 52.62089 73.07795 161.97687
#
# Poissons Ratio (x) = 0.06680 0.72680
# Poissons Ratio (y) = 0.04810 0.29668
# Poissons Ratio (z) = 0.23611 0.13385
#
# Static dielectric constant tensor:
#      x y z
#    x 2.086880 0.180150 0.108290 
#    y 0.180150 2.302470 0.083790 
#    z 0.108290 0.083790 2.084820 
# 
# From -- ./inp_files/419537.got.cif
#   From: 2010.05.17/outbox.cif.g08.bks.cpg/sg2_210_cif.got.tgz:419537.got - 2010.06.03 11:33:40.
