data_PCOD9002001
_publ_section_title
;
Structure prediction by ZEFSAII (Michael W. Deem and Ramdas Pophale) SiO2 
 PCOD9002001
Probable space group: P -1
;
_chemical_formula_sum "Si O2"
_cell_formula_units_Z 16
_cell_length_a 25.723203
_cell_length_b 5.751538
_cell_length_c 27.068312
_cell_angle_alpha 65.987781
_cell_angle_beta 10.777254
_cell_angle_gamma 63.765523
_cell_volume 662.739675
_symmetry_space_group_name_H-M "P -1"
_symmetry_group_IT_number 2
_symmetry_cell_setting 'triclinic'
loop_
_space_group_symop_operation_xyz
x,y,z
-x,-y,-z
loop_
_atom_site_type_symbol
_atom_site_label
_atom_site_fract_x
_atom_site_fract_y
_atom_site_fract_z
Si Si1 0.297259 0.030314 0.139048
Si Si2 0.004647 0.250830 0.812700
Si Si3 0.116825 0.292197 0.193043
Si Si4 0.749328 0.651295 0.185026
Si Si5 0.482089 0.990070 0.704447
Si Si6 0.815717 0.739690 0.620932
Si Si7 0.645792 0.967216 0.666216
Si Si8 0.478372 0.170695 0.456076
O O1 0.996991 0.962364 0.438505
O O2 0.237074 0.288256 0.137367
O O3 0.499170 0.813616 0.933470
O O4 0.500000 0.000000 0.000000
O O5 0.229342 0.010422 0.595459
O O6 0.181188 0.274312 0.695102
O O7 0.970107 0.456573 0.782334
O O8 0.691423 0.231911 0.123256
O O9 0.851941 0.163116 0.456884
O O10 0.360245 0.101564 0.950254
O O11 0.573674 0.429696 0.361233
O O12 0.754986 0.750268 0.114411
O O13 0.654052 0.939833 0.275368
O O14 0.000000 0.500000 0.000000
O O15 0.566086 0.941913 0.686752
O O16 0.000000 0.500000 0.500000
O O17 0.789250 0.717926 0.588229
O O18 0.500000 0.000000 0.500000
#
# Coordination Sequence:
#
# PCOD9002001 Si02
#       8
#     2   2   2   2   2   2   2   2
#     4  10  21  36  56  83 116 156 205 258 320 383
#     4  11  24  41  63  95 127 166 215 266 326 394
#     4  10  21  38  59  85 119 162 207 261 325 393
#     4  11  24  43  68 101 137 178 225 277 334 398
#     4  11  24  41  63  95 127 166 215 266 326 394
#     4  10  21  36  56  83 116 156 205 258 320 383
#     4  10  21  38  59  85 119 162 207 261 325 393
#     4  11  24  43  68 101 137 178 225 277 334 398
#
# _framework density 24.142209000000001
#
# number of rings (size 3 to 8) (size 9 to 14) (size 15 to 20)
#    0.000    1.500    0.000    4.500    0.000    7.000 
#    0.000    0.000    0.000    0.000    0.000    0.000 
#    0.000    0.000    0.000    0.000    0.000    0.000 
#
# Total GULP energy -89103.912392 kJ/mol
# GULP energy per Si atom -5568.994525 kJ/mol
# Density = 2.408726 g / cm^3
# Si number density = 24.142209 Si / 1000 Ang^3
#
#
#
# Elastic Constant Matrix: (Units=GPa)
#
#
# Indices 1 2 3 4 5 6 
#
# 1 170.8089 44.9486 26.2143 1.1937 -39.7414 -41.3893
# 2 44.9486 81.6344 15.3796 2.7695 -5.5228 -38.3468
# 3 26.2143 15.3796 112.3291 -8.5648 7.0130 4.9888
# 4 1.1937 2.7695 -8.5648 39.6241 -7.3584 -2.8404
# 5 -39.7414 -5.5228 7.0130 -7.3584 62.8818 16.7953
# 6 -41.3893 -38.3468 4.9888 -2.8404 16.7953 58.6585
#
#
#
# Elastic Compliance Matrix: (Units=1/GPa)
#
#
# Indices 1 2 3 4 5 6 
#
# 1 0.008754 -0.002542 -0.002095 0.000578 0.004710 0.003372
# 2 -0.002542 0.019640 -0.002561 -0.001542 -0.002994 0.012046
# 3 -0.002095 -0.002561 0.010137 0.001900 -0.001526 -0.003486
# 4 0.000578 -0.001542 0.001900 0.026304 0.003204 -0.000406
# 5 0.004710 -0.002994 -0.001526 0.003204 0.020271 -0.004153
# 6 0.003372 0.012046 -0.003486 -0.000406 -0.004153 0.028768
#
#
# Mechanical properties :
#
#
# Convention : Reuss Voigt Hill
#
# Bulk Modulus (GPa) = 41.43424 59.76195 50.59809
# Shear Modulus (GPa) = 36.67958 50.78155 43.73057
#
# Velocity S-wave (km/s) = 3.90207 4.59130 4.26064
# Velocity P-wave (km/s) = 6.12383 7.27424 6.72368
#
# Compressibility (1/GPa) = 0.02413463
#
# Stress axis : x y z
#
# Youngs Moduli (GPa) = 114.23546 50.91564 98.64965
#
# Poissons Ratio (x) = 0.12943 0.20663
# Poissons Ratio (y) = 0.29040 0.25269
# Poissons Ratio (z) = 0.23928 0.13042
#
# Static dielectric constant tensor:
#      x y z
#    x 2.021200 0.002790 -0.017960 
#    y 0.002790 2.037900 0.044440 
#    z -0.017960 0.044440 1.961350 
# 
# From -- ./inp_files/614809.got.cif
#   From: 2010.05.17/outbox.cif.g08.bks.cpg/sg2_308_cif.got.tgz:614809.got - 2010.06.03 11:33:40.
