data_PCOD9002079
_publ_section_title
;
Structure prediction by ZEFSAII (Michael W. Deem and Ramdas Pophale) SiO2 
 PCOD9002079
Probable space group: P -1
;
_chemical_formula_sum "Si O2"
_cell_formula_units_Z 16
_cell_length_a 5.704348
_cell_length_b 4.900608
_cell_length_c 25.239333
_cell_angle_alpha 92.716708
_cell_angle_beta 80.548753
_cell_angle_gamma 98.237804
_cell_volume 688.595213
_symmetry_space_group_name_H-M "P -1"
_symmetry_group_IT_number 2
_symmetry_cell_setting 'triclinic'
loop_
_space_group_symop_operation_xyz
x,y,z
-x,-y,-z
loop_
_atom_site_type_symbol
_atom_site_label
_atom_site_fract_x
_atom_site_fract_y
_atom_site_fract_z
Si Si1 0.507771 0.260186 0.284634
Si Si2 0.352766 0.217856 0.659254
Si Si3 0.950758 0.730409 0.928425
Si Si4 0.981699 0.757940 0.540635
Si Si5 0.097138 0.800162 0.254263
Si Si6 0.270977 0.775446 0.015368
Si Si7 0.551333 0.409433 0.437102
Si Si8 0.042468 0.722067 0.801990
O O1 0.464336 0.552551 0.312932
O O2 0.700341 0.324980 0.231170
O O3 0.618226 0.089257 0.326380
O O4 0.301816 0.031627 0.269471
O O5 0.384413 0.322194 0.599390
O O6 0.093258 0.263657 0.691842
O O7 0.729384 0.500766 0.952771
O O8 0.013684 0.695461 0.865145
O O9 0.901498 0.040364 0.945019
O O10 0.160675 0.686712 0.961387
O O11 0.213582 0.749685 0.569592
O O12 0.000000 0.500000 0.500000
O O13 0.711952 0.737986 0.573915
O O14 0.000000 0.000000 0.500000
O O15 0.141014 0.513300 0.223441
O O16 0.983946 0.970616 0.213426
O O17 0.500000 0.000000 0.000000
O O18 0.500000 0.500000 0.500000
#
# Coordination Sequence:
#
# PCOD9002079 Si02
#       8
#     2   2   2   2   2   2   2   2
#     4  10  22  41  61  87 120 154 203 251 315 373
#     4  10  23  39  62  90 119 161 200 253 312 378
#     4  10  21  36  57  85 120 153 203 249 294 360
#     4  10  22  40  62  88 127 161 206 258 309 371
#     4  10  21  40  61  84 122 151 200 253 312 367
#     4  10  21  38  56  83 122 162 197 243 299 360
#     4  10  23  43  65  96 130 168 215 265 322 395
#     4  10  21  37  59  90 114 154 200 254 302 364
#
# _framework density 23.235714999999999
#
# number of rings (size 3 to 8) (size 9 to 14) (size 15 to 20)
#    0.000    2.000    0.000    2.250    1.750    6.000 
#    2.250    0.000    0.000    0.000    0.000    0.000 
#    0.000    0.000    0.000    0.000    0.000    0.000 
#
# Total GULP energy -89317.816197 kJ/mol
# GULP energy per Si atom -5582.363512 kJ/mol
# Density = 2.318283 g / cm^3
# Si number density = 23.235715 Si / 1000 Ang^3
#
#
#
# Elastic Constant Matrix: (Units=GPa)
#
#
# Indices 1 2 3 4 5 6 
#
# 1 104.7627 11.1206 22.6810 -3.8130 -2.5422 20.1663
# 2 11.1206 136.6720 25.2311 -15.0047 -0.9339 6.4220
# 3 22.6810 25.2311 157.1838 -13.6853 -7.4119 15.9365
# 4 -3.8130 -15.0047 -13.6853 35.6871 5.6919 2.7892
# 5 -2.5422 -0.9339 -7.4119 5.6919 14.6607 -3.9959
# 6 20.1663 6.4220 15.9365 2.7892 -3.9959 44.1151
#
#
#
# Elastic Compliance Matrix: (Units=1/GPa)
#
#
# Indices 1 2 3 4 5 6 
#
# 1 0.010703 -0.000370 -0.000944 0.001032 -0.000297 -0.004590
# 2 -0.000370 0.007909 -0.000904 0.003266 -0.001559 -0.001004
# 3 -0.000944 -0.000904 0.007118 0.002077 0.002038 -0.001955
# 4 0.001032 0.003266 0.002077 0.032693 -0.012593 -0.004905
# 5 -0.000297 -0.001559 0.002038 -0.012593 0.075969 0.007303
# 6 -0.004590 -0.001004 -0.001955 -0.004905 0.007303 0.026590
#
#
# Mechanical properties :
#
#
# Convention : Reuss Voigt Hill
#
# Bulk Modulus (GPa) = 46.95705 57.40931 52.18318
# Shear Modulus (GPa) = 28.98293 41.53163 35.25728
#
# Velocity S-wave (km/s) = 3.53561 4.23236 3.89958
# Velocity P-wave (km/s) = 6.07620 6.97458 6.54083
#
# Compressibility (1/GPa) = 0.02129606
#
# Stress axis : x y z
#
# Youngs Moduli (GPa) = 93.43291 126.44188 140.48172
#
# Poissons Ratio (x) = 0.04674 0.13258
# Poissons Ratio (y) = 0.03454 0.12693
# Poissons Ratio (z) = 0.08818 0.11424
#
# Static dielectric constant tensor:
#      x y z
#    x 2.010740 0.018460 0.034040 
#    y 0.018460 1.900140 0.026790 
#    z 0.034040 0.026790 1.827230 
# 
# From -- ./inp_files/120943.got.cif
#   From: 2010.05.17/outbox.cif.g08.bks.cpg/sg2_61_cif.got.tgz:120943.got - 2010.06.03 11:33:40.
