data_PCOD9002820
_publ_section_title
;
Structure prediction by ZEFSAII (Michael W. Deem and Ramdas Pophale) SiO2 
 PCOD9002820
Probable space group: P -1
;
_chemical_formula_sum "Si O2"
_cell_formula_units_Z 14
_cell_length_a 11.480324
_cell_length_b 12.125224
_cell_length_c 11.787028
_cell_angle_alpha 42.202740
_cell_angle_beta 35.792587
_cell_angle_gamma 67.362904
_cell_volume 538.481760
_symmetry_space_group_name_H-M "P -1"
_symmetry_group_IT_number 2
_symmetry_cell_setting 'triclinic'
loop_
_space_group_symop_operation_xyz
x,y,z
-x,-y,-z
loop_
_atom_site_type_symbol
_atom_site_label
_atom_site_fract_x
_atom_site_fract_y
_atom_site_fract_z
Si Si1 0.141736 0.684973 0.831300
Si Si2 0.648961 0.706407 0.657315
Si Si3 0.342584 0.950027 0.287267
Si Si4 0.416107 0.351621 0.505942
Si Si5 0.606502 0.771861 0.138241
Si Si6 0.890099 0.225482 0.720351
Si Si7 0.177580 0.678515 0.061722
O O1 0.182474 0.866867 0.587924
O O2 0.392153 0.703980 0.625469
O O3 0.074731 0.679033 0.019585
O O4 0.000000 0.500000 0.000000
O O5 0.686994 0.675411 0.518238
O O6 0.909587 0.823916 0.418066
O O7 0.500000 0.500000 0.000000
O O8 0.461776 0.770201 0.761066
O O9 0.370338 0.778213 0.344951
O O10 0.253975 0.041681 0.197006
O O11 0.620476 0.107128 0.978215
O O12 0.540845 0.578983 0.269025
O O13 0.302123 0.240699 0.800263
O O14 0.848863 0.209622 0.899925
O O15 0.027360 0.449688 0.394944
#
# Coordination Sequence:
#
# PCOD9002820 Si02
#       7
#     2   2   2   2   2   2   2
#     4  10  22  40  61  88 128 168 205 264 319 372
#     4   9  19  37  59  92 124 160 210 256 298 380
#     4  10  22  37  60  96 124 159 214 263 312 368
#     4   9  19  37  61  86 121 165 207 247 313 379
#     4   9  20  36  60  88 123 155 209 263 299 372
#     4  10  21  36  65  92 121 170 206 257 315 370
#     4   9  21  37  61  93 124 166 212 246 316 384
#
# _framework density 25.999023999999999
#
# number of rings (size 3 to 8) (size 9 to 14) (size 15 to 20)
#    0.000    2.571    0.000    0.000   12.000    1.714 
#    0.000    8.571    0.000    0.000    0.000    0.000 
#    0.000    0.000    0.000    0.000    0.000    0.000 
#
# Total GULP energy -78102.820812 kJ/mol
# GULP energy per Si atom -5578.772915 kJ/mol
# Density = 2.593985 g / cm^3
# Si number density = 25.999024 Si / 1000 Ang^3
#
#
#
# Elastic Constant Matrix: (Units=GPa)
#
#
# Indices 1 2 3 4 5 6 
#
# 1 170.9483 26.6444 74.6447 17.5626 35.6437 8.7411
# 2 26.6444 60.0947 29.5054 9.7709 15.4793 -5.9882
# 3 74.6447 29.5054 111.9071 8.3578 27.5783 11.3689
# 4 17.5626 9.7709 8.3578 28.6882 2.4625 6.3975
# 5 35.6437 15.4793 27.5783 2.4625 64.3640 3.1167
# 6 8.7411 -5.9882 11.3689 6.3975 3.1167 32.1911
#
#
#
# Elastic Compliance Matrix: (Units=1/GPa)
#
#
# Indices 1 2 3 4 5 6 
#
# 1 0.009017 -0.000174 -0.005062 -0.003831 -0.002652 0.000325
# 2 -0.000174 0.022009 -0.005165 -0.007343 -0.003077 0.007723
# 3 -0.005062 -0.005165 0.014527 0.001891 -0.002014 -0.004897
# 4 -0.003831 -0.007343 0.001891 0.041069 0.001959 -0.009345
# 5 -0.002652 -0.003077 -0.002014 0.001959 0.018598 -0.001331
# 6 0.000325 0.007723 -0.004897 -0.009345 -0.001331 0.036128
#
#
# Mechanical properties :
#
#
# Convention : Reuss Voigt Hill
#
# Bulk Modulus (GPa) = 40.40172 67.17101 53.78636
# Shear Modulus (GPa) = 29.34261 39.19236 34.26748
#
# Velocity S-wave (km/s) = 3.36312 3.88681 3.63441
# Velocity P-wave (km/s) = 5.53662 6.78492 6.19230
#
# Compressibility (1/GPa) = 0.02475142
#
# Stress axis : x y z
#
# Youngs Moduli (GPa) = 110.90017 45.43520 68.83764
#
# Poissons Ratio (x) = 0.00792 0.34846
# Poissons Ratio (y) = 0.01932 0.35552
# Poissons Ratio (z) = 0.56138 0.23466
#
# Static dielectric constant tensor:
#      x y z
#    x 2.117850 0.019340 -0.003850 
#    y 0.019340 2.083250 -0.003660 
#    z -0.003850 -0.003660 2.095850 
# 
# From -- ./inp_files/432414.got.cif
#   From: 2010.05.17/outbox.cif.g08.bks.cpg/sg2_217_cif.got.tgz:432414.got - 2010.06.03 11:33:40.
