data_PCOD9002111
_publ_section_title
;
Structure prediction by ZEFSAII (Michael W. Deem and Ramdas Pophale) SiO2 
 PCOD9002111
Probable space group: P -1
;
_chemical_formula_sum "Si O2"
_cell_formula_units_Z 16
_cell_length_a 5.254154
_cell_length_b 10.621617
_cell_length_c 14.638744
_cell_angle_alpha 79.770953
_cell_angle_beta 56.060679
_cell_angle_gamma 77.606130
_cell_volume 660.289716
_symmetry_space_group_name_H-M "P -1"
_symmetry_group_IT_number 2
_symmetry_cell_setting 'triclinic'
loop_
_space_group_symop_operation_xyz
x,y,z
-x,-y,-z
loop_
_atom_site_type_symbol
_atom_site_label
_atom_site_fract_x
_atom_site_fract_y
_atom_site_fract_z
Si Si1 0.943924 0.850997 0.041710
Si Si2 0.508811 0.281162 0.380432
Si Si3 0.422876 0.139408 0.044707
Si Si4 0.754707 0.893631 0.416157
Si Si5 0.227479 0.223480 0.259495
Si Si6 0.717684 0.494381 0.868776
Si Si7 0.448035 0.436786 0.740376
Si Si8 0.541875 0.159751 0.703253
O O1 0.866112 0.794743 0.966124
O O2 0.652366 0.846453 0.164620
O O3 0.270046 0.791657 0.028151
O O4 0.000000 0.000000 0.000000
O O5 0.293376 0.241282 0.508669
O O6 0.416280 0.207825 0.317140
O O7 0.481820 0.431353 0.338901
O O8 0.861386 0.233862 0.345412
O O9 0.335682 0.126124 0.168842
O O10 0.500000 0.000000 0.000000
O O11 0.663899 0.885938 0.330103
O O12 0.109175 0.913539 0.357072
O O13 0.500000 0.000000 0.500000
O O14 0.285263 0.358983 0.185684
O O15 0.601300 0.424818 0.811574
O O16 0.076980 0.445847 0.824728
O O17 0.500000 0.500000 0.000000
O O18 0.562685 0.312362 0.672436
#
# Coordination Sequence:
#
# PCOD9002111 Si02
#       8
#     2   2   2   2   2   2   2   2
#     4  10  23  39  59  90 129 166 209 257 321 389
#     4  10  23  45  66  95 130 170 228 273 336 395
#     4  10  21  36  57  90 123 170 215 255 315 381
#     4  12  28  47  71  97 129 178 226 284 339 395
#     4  10  21  37  63  93 129 174 215 267 324 394
#     4  10  21  36  61  94 138 178 213 261 323 398
#     4  10  23  41  66 100 133 173 220 274 334 397
#     4  12  26  45  70 100 135 170 224 286 331 395
#
# _framework density 24.231784999999999
#
# number of rings (size 3 to 8) (size 9 to 14) (size 15 to 20)
#    0.000    1.500    0.000    3.750    3.500    7.000 
#    0.000    0.000    0.000    0.000    0.000    0.000 
#    0.000    0.000    0.000    0.000    0.000    0.000 
#
# Total GULP energy -89591.976211 kJ/mol
# GULP energy per Si atom -5599.498513 kJ/mol
# Density = 2.417663 g / cm^3
# Si number density = 24.231785 Si / 1000 Ang^3
#
#
#
# Elastic Constant Matrix: (Units=GPa)
#
#
# Indices 1 2 3 4 5 6 
#
# 1 143.4340 1.4466 8.0448 -10.0978 -2.7766 14.3964
# 2 1.4466 63.6016 -0.2751 -0.2456 3.7547 -8.3161
# 3 8.0448 -0.2751 42.1199 -22.3051 -19.2950 -5.9435
# 4 -10.0978 -0.2456 -22.3051 40.3648 8.2027 -2.5473
# 5 -2.7766 3.7547 -19.2950 8.2027 38.6870 6.2465
# 6 14.3964 -8.3161 -5.9435 -2.5473 6.2465 25.1402
#
#
#
# Elastic Compliance Matrix: (Units=1/GPa)
#
#
# Indices 1 2 3 4 5 6 
#
# 1 0.007638 -0.000880 -0.001652 0.000563 0.000518 -0.005127
# 2 -0.000880 0.016835 0.000673 0.001261 -0.002767 0.007047
# 3 -0.001652 0.000673 0.043858 0.021277 0.015593 0.009819
# 4 0.000563 0.001261 0.021277 0.036952 0.001316 0.008542
# 5 0.000518 -0.002767 0.015593 0.001316 0.034620 -0.005994
# 6 -0.005127 0.007047 0.009819 0.008542 -0.005994 0.049720
#
#
# Mechanical properties :
#
#
# Convention : Reuss Voigt Hill
#
# Bulk Modulus (GPa) = 15.47684 29.73200 22.60442
# Shear Modulus (GPa) = 23.26890 36.83435 30.05162
#
# Velocity S-wave (km/s) = 3.10217 3.90306 3.52543
# Velocity P-wave (km/s) = 4.38545 5.71036 5.09119
#
# Compressibility (1/GPa) = 0.06461268
#
# Stress axis : x y z
#
# Youngs Moduli (GPa) = 130.93003 59.39872 22.80077
#
# Poissons Ratio (x) = 0.05225 0.03768
# Poissons Ratio (y) = 0.11517 -0.01534
# Poissons Ratio (z) = 0.21635 -0.03996
#
# Static dielectric constant tensor:
#      x y z
#    x 2.041320 -0.093470 0.024820 
#    y -0.093470 2.076010 -0.029300 
#    z 0.024820 -0.029300 1.867910 
# 
# From -- ./inp_files/482173.got.cif
#   From: 2010.05.17/outbox.cif.g08.bks.cpg/sg2_242_cif.got.tgz:482173.got - 2010.06.03 11:33:40.
