data_PCOD9002074
_publ_section_title
;
Structure prediction by ZEFSAII (Michael W. Deem and Ramdas Pophale) SiO2 
 PCOD9002074
Probable space group: P -1
;
_chemical_formula_sum "Si O2"
_cell_formula_units_Z 16
_cell_length_a 17.803807
_cell_length_b 7.160503
_cell_length_c 7.629635
_cell_angle_alpha 63.835405
_cell_angle_beta 105.185217
_cell_angle_gamma 62.687519
_cell_volume 630.667193
_symmetry_space_group_name_H-M "P -1"
_symmetry_group_IT_number 2
_symmetry_cell_setting 'triclinic'
loop_
_space_group_symop_operation_xyz
x,y,z
-x,-y,-z
loop_
_atom_site_type_symbol
_atom_site_label
_atom_site_fract_x
_atom_site_fract_y
_atom_site_fract_z
Si Si1 0.287943 0.342775 0.305163
Si Si2 0.075370 0.530804 0.945982
Si Si3 0.458067 0.405250 0.812421
Si Si4 0.020612 0.891140 0.254121
Si Si5 0.417609 0.062594 0.155485
Si Si6 0.336360 0.905921 0.742986
Si Si7 0.194994 0.445501 0.756178
Si Si8 0.186813 0.864205 0.839956
O O1 0.328350 0.160558 0.578971
O O2 0.179862 0.407255 0.169629
O O3 0.378627 0.149941 0.294207
O O4 0.251768 0.645346 0.132053
O O5 0.001797 0.862536 0.749234
O O6 0.124845 0.407552 0.837630
O O7 0.000000 0.500000 0.000000
O O8 0.438185 0.247014 0.998255
O O9 0.364874 0.730338 0.651987
O O10 0.564856 0.317864 0.982134
O O11 0.486989 0.257339 0.702651
O O12 0.929952 0.902644 0.262108
O O13 0.134563 0.606459 0.477267
O O14 0.000000 0.000000 0.000000
O O15 0.313359 0.167270 0.948766
O O16 0.236708 0.976455 0.738178
O O17 0.194645 0.661025 0.784598
#
# Coordination Sequence:
#
# PCOD9002074 Si02
#       8
#     2   2   2   2   2   2   2   2
#     4   9  20  35  59  82 115 145 193 229 285 335
#     4   9  19  34  56  83 108 147 190 224 270 349
#     4  10  21  37  59  83 114 151 189 236 290 331
#     4  10  21  36  57  85 116 148 185 228 290 333
#     4   9  19  40  56  82 120 145 187 241 282 332
#     4  11  21  36  62  86 109 152 193 232 286 336
#     4   9  18  36  61  77 112 155 183 222 292 333
#     4   9  19  40  55  86 119 148 186 238 273 348
#
# _framework density 25.369958
#
# number of rings (size 3 to 8) (size 9 to 14) (size 15 to 20)
#    0.000    3.000    2.500    1.500    3.500    3.000 
#    4.500    0.625    0.000    0.000    0.000    0.000 
#    0.000    0.000    0.000    0.000    0.000    0.000 
#
# Total GULP energy -89353.217673 kJ/mol
# GULP energy per Si atom -5584.576105 kJ/mol
# Density = 2.531222 g / cm^3
# Si number density = 25.369958 Si / 1000 Ang^3
#
#
#
# Elastic Constant Matrix: (Units=GPa)
#
#
# Indices 1 2 3 4 5 6 
#
# 1 135.0066 28.7095 17.3418 -0.1281 -14.0097 -25.8932
# 2 28.7095 69.8750 -6.7982 -12.7393 2.7620 -16.3243
# 3 17.3418 -6.7982 81.3381 -1.1770 -4.7139 -9.1332
# 4 -0.1281 -12.7393 -1.1770 28.4832 -6.3783 -1.9677
# 5 -14.0097 2.7620 -4.7139 -6.3783 25.5572 -4.2033
# 6 -25.8932 -16.3243 -9.1332 -1.9677 -4.2033 35.7796
#
#
#
# Elastic Compliance Matrix: (Units=1/GPa)
#
#
# Indices 1 2 3 4 5 6 
#
# 1 0.010163 -0.002916 -0.001265 0.000687 0.006901 0.006550
# 2 -0.002916 0.019473 0.003350 0.009550 0.000652 0.008231
# 3 -0.001265 0.003350 0.013575 0.003034 0.002961 0.004593
# 4 0.000687 0.009550 0.003034 0.042880 0.012154 0.009415
# 5 0.006901 0.000652 0.002961 0.012154 0.048461 0.012409
# 6 0.006550 0.008231 0.004593 0.009415 0.012409 0.039592
#
#
# Mechanical properties :
#
#
# Convention : Reuss Voigt Hill
#
# Bulk Modulus (GPa) = 24.06841 40.52512 32.29676
# Shear Modulus (GPa) = 26.36338 34.42844 30.39591
#
# Velocity S-wave (km/s) = 3.22709 3.68782 3.46512
# Velocity P-wave (km/s) = 4.83664 5.84309 5.36352
#
# Compressibility (1/GPa) = 0.04154824
#
# Stress axis : x y z
#
# Youngs Moduli (GPa) = 98.39963 51.35187 73.66370
#
# Poissons Ratio (x) = 0.14974 0.09319
# Poissons Ratio (y) = 0.28693 -0.24674
# Poissons Ratio (z) = 0.12449 -0.17200
#
# Static dielectric constant tensor:
#      x y z
#    x 1.987860 0.021380 0.035630 
#    y 0.021380 2.162180 0.048330 
#    z 0.035630 0.048330 2.023410 
# 
# From -- ./inp_files/328424.got.cif
#   From: 2010.05.17/outbox.cif.g08.bks.cpg/sg2_165_cif.got.tgz:328424.got - 2010.06.03 11:33:40.
