data_PCOD9002451
_publ_section_title
;
Structure prediction by ZEFSAII (Michael W. Deem and Ramdas Pophale) SiO2 
 PCOD9002451
Probable space group: P -1
;
_chemical_formula_sum "Si O2"
_cell_formula_units_Z 15
_cell_length_a 11.119430
_cell_length_b 8.618130
_cell_length_c 12.211371
_cell_angle_alpha 112.117829
_cell_angle_beta 37.156349
_cell_angle_gamma 124.536909
_cell_volume 575.515279
_symmetry_space_group_name_H-M "P -1"
_symmetry_group_IT_number 2
_symmetry_cell_setting 'triclinic'
loop_
_space_group_symop_operation_xyz
x,y,z
-x,-y,-z
loop_
_atom_site_type_symbol
_atom_site_label
_atom_site_fract_x
_atom_site_fract_y
_atom_site_fract_z
Si Si1 0.640701 0.324098 0.727952
Si Si2 0.500000 0.500000 0.000000
Si Si3 0.879444 0.088038 0.724401
Si Si4 0.935909 0.744166 0.583435
Si Si5 0.814720 0.590589 0.015092
Si Si6 0.593479 0.175382 0.121739
Si Si7 0.306337 0.791446 0.701572
Si Si8 0.668346 0.839814 0.300632
O O1 0.718453 0.558224 0.742139
O O2 0.509497 0.252613 0.693984
O O3 0.855127 0.293765 0.557271
O O4 0.515314 0.289475 0.924107
O O5 0.290172 0.412660 0.028549
O O6 0.060264 0.235607 0.545970
O O7 0.964045 0.940038 0.662437
O O8 0.655021 0.958319 0.780083
O O9 0.787499 0.170531 0.905672
O O10 0.062888 0.608688 0.832921
O O11 0.644735 0.393227 0.143472
O O12 0.841340 0.764881 0.121062
O O13 0.616500 0.116022 0.211134
O O14 0.512073 0.763439 0.499810
O O15 0.259110 0.937420 0.699817
#
# Coordination Sequence:
#
# PCOD9002451 Si02
#       8
#     2   1   2   2   2   2   2   2
#     4  10  21  38  65  96 127 168 216 282 319 400
#     4  10  22  40  68 100 130 164 224 276 332 388
#     4  10  22  41  62  94 133 170 214 279 328 396
#     4  10  21  36  61 102 126 167 218 265 343 387
#     4  11  24  45  70 102 130 183 222 281 334 406
#     4  11  24  45  65  95 135 175 225 274 338 397
#     4  11  25  45  67  97 138 182 222 280 335 406
#     4  10  24  45  65  99 137 174 231 272 335 400
#
# _framework density 26.063597999999999
#
# number of rings (size 3 to 8) (size 9 to 14) (size 15 to 20)
#    0.000    1.600    0.000    4.000    5.600    6.933 
#    9.600    0.000    0.000    0.000    0.000    0.000 
#    0.000    0.000    0.000    0.000    0.000    0.000 
#
# Total GULP energy -83783.553673 kJ/mol
# GULP energy per Si atom -5585.570245 kJ/mol
# Density = 2.600428 g / cm^3
# Si number density = 26.063598 Si / 1000 Ang^3
#
#
#
# Elastic Constant Matrix: (Units=GPa)
#
#
# Indices 1 2 3 4 5 6 
#
# 1 59.9668 -6.4907 23.8600 3.2342 -9.1904 3.5919
# 2 -6.4907 55.0983 11.4515 -4.6727 0.1810 -6.6092
# 3 23.8600 11.4515 145.9976 12.3006 2.3077 7.4152
# 4 3.2342 -4.6727 12.3006 45.8536 -2.8250 4.4696
# 5 -9.1904 0.1810 2.3077 -2.8250 35.8748 4.4026
# 6 3.5919 -6.6092 7.4152 4.4696 4.4026 30.3056
#
#
#
# Elastic Compliance Matrix: (Units=1/GPa)
#
#
# Indices 1 2 3 4 5 6 
#
# 1 0.019229 0.002779 -0.003388 0.000329 0.005361 -0.001671
# 2 0.002779 0.019648 -0.002388 0.002066 0.000417 0.004175
# 3 -0.003388 -0.002388 0.007862 -0.002045 -0.001333 -0.001548
# 4 0.000329 0.002066 -0.002045 0.022964 0.002360 -0.002818
# 5 0.005361 0.000417 -0.001333 0.002360 0.030124 -0.004943
# 6 -0.001671 0.004175 -0.001548 -0.002818 -0.004943 0.035618
#
#
# Mechanical properties :
#
#
# Convention : Reuss Voigt Hill
#
# Bulk Modulus (GPa) = 24.54284 35.41160 29.97722
# Shear Modulus (GPa) = 32.25377 37.88958 35.07167
#
# Velocity S-wave (km/s) = 3.52163 3.81692 3.67225
# Velocity P-wave (km/s) = 5.09635 5.74816 5.43204
#
# Compressibility (1/GPa) = 0.04074508
#
# Stress axis : x y z
#
# Youngs Moduli (GPa) = 52.00548 50.89681 127.18791
#
# Poissons Ratio (x) = -0.14145 0.43092
# Poissons Ratio (y) = -0.14453 0.30371
# Poissons Ratio (z) = 0.17620 0.12154
#
# Static dielectric constant tensor:
#      x y z
#    x 2.035670 -0.073930 -0.009950 
#    y -0.073930 2.180760 0.010190 
#    z -0.009950 0.010190 2.175360 
# 
# From -- ./inp_files/261450.got.cif
#   From: 2010.05.17/outbox.cif.g08.bks.cpg/sg2_131_cif.got.tgz:261450.got - 2010.06.03 11:33:40.
