data_PCOD9002809
_publ_section_title
;
Structure prediction by ZEFSAII (Michael W. Deem and Ramdas Pophale) SiO2 
 PCOD9002809
Probable space group: P -1
;
_chemical_formula_sum "Si O2"
_cell_formula_units_Z 12
_cell_length_a 12.583574
_cell_length_b 6.758981
_cell_length_c 8.821607
_cell_angle_alpha 51.255731
_cell_angle_beta 102.043473
_cell_angle_gamma 68.735402
_cell_volume 436.545943
_symmetry_space_group_name_H-M "P -1"
_symmetry_group_IT_number 2
_symmetry_cell_setting 'triclinic'
loop_
_space_group_symop_operation_xyz
x,y,z
-x,-y,-z
loop_
_atom_site_type_symbol
_atom_site_label
_atom_site_fract_x
_atom_site_fract_y
_atom_site_fract_z
Si Si1 0.826118 0.762932 0.953100
Si Si2 0.630960 0.664704 0.617487
Si Si3 0.473264 0.792558 0.192651
Si Si4 0.876696 0.249757 0.680772
Si Si5 0.160074 0.825338 0.827732
Si Si6 0.281267 0.825335 0.563174
O O1 0.886629 0.385898 0.151019
O O2 0.692238 0.974827 0.924714
O O3 0.906704 0.914317 0.917405
O O4 0.767348 0.883274 0.705694
O O5 0.552740 0.672008 0.438170
O O6 0.771847 0.549902 0.619531
O O7 0.715205 0.403863 0.904643
O O8 0.500000 0.000000 0.500000
O O9 0.550034 0.464233 0.269610
O O10 0.500000 0.000000 0.000000
O O11 0.785780 0.320116 0.470413
O O12 0.022098 0.145565 0.714750
O O13 0.222874 0.898812 0.677475
#
# Coordination Sequence:
#
# PCOD9002809 Si02
#       6
#     2   2   2   2   2   2
#     4  10  21  36  65  88 120 153 212 238 295 355
#     4  11  22  37  62  91 121 160 198 249 304 350
#     4  11  19  39  61  90 115 161 201 247 291 356
#     4   9  23  38  62  89 123 159 200 246 291 364
#     4  12  20  41  62  90 126 156 195 249 309 348
#     4   9  21  35  63  90 117 156 204 245 290 357
#
# _framework density 27.488513999999999
#
# number of rings (size 3 to 8) (size 9 to 14) (size 15 to 20)
#    1.000    0.667    3.333    2.000    0.000    0.000 
#    0.000    2.500    0.000    3.000    0.000    0.000 
#    0.000    0.000    0.000    0.000    0.000    0.000 
#
# Total GULP energy -66971.337374 kJ/mol
# GULP energy per Si atom -5580.944781 kJ/mol
# Density = 2.742595 g / cm^3
# Si number density = 27.488514 Si / 1000 Ang^3
#
#
#
# Elastic Constant Matrix: (Units=GPa)
#
#
# Indices 1 2 3 4 5 6 
#
# 1 91.3316 93.0913 46.7287 9.1495 -14.9771 -34.7126
# 2 93.0913 205.2029 40.8188 15.4867 -10.0433 -62.0317
# 3 46.7287 40.8188 80.0814 19.9229 -25.2989 -16.1059
# 4 9.1495 15.4867 19.9229 46.6636 -9.2465 -9.6039
# 5 -14.9771 -10.0433 -25.2989 -9.2465 55.8791 -6.5848
# 6 -34.7126 -62.0317 -16.1059 -9.6039 -6.5848 67.7301
#
#
#
# Elastic Compliance Matrix: (Units=1/GPa)
#
#
# Indices 1 2 3 4 5 6 
#
# 1 0.027218 -0.009325 -0.010718 0.003402 0.001743 0.003512
# 2 -0.009325 0.010418 0.001588 -0.001177 0.000489 0.005021
# 3 -0.010718 0.001588 0.021635 -0.006249 0.006271 0.000830
# 4 0.003402 -0.001177 -0.006249 0.024889 0.002336 0.002936
# 5 0.001743 0.000489 0.006271 0.002336 0.022305 0.005332
# 6 0.003512 0.005021 0.000830 0.002936 0.005332 0.022295
#
#
# Mechanical properties :
#
#
# Convention : Reuss Voigt Hill
#
# Bulk Modulus (GPa) = 44.72234 81.98816 63.35525
# Shear Modulus (GPa) = 28.88130 47.11971 38.00050
#
# Velocity S-wave (km/s) = 3.24492 4.14473 3.72212
# Velocity P-wave (km/s) = 5.50855 7.26610 6.44749
#
# Compressibility (1/GPa) = 0.02236019
#
# Stress axis : x y z
#
# Youngs Moduli (GPa) = 36.74101 95.98567 46.22213
#
# Poissons Ratio (x) = 0.89508 0.49541
# Poissons Ratio (y) = 0.34262 -0.07340
# Poissons Ratio (z) = 0.39379 -0.15243
#
# Static dielectric constant tensor:
#      x y z
#    x 2.354600 0.126570 -0.015290 
#    y 0.126570 2.112970 -0.043670 
#    z -0.015290 -0.043670 2.079540 
# 
# From -- ./inp_files/291548.got.cif
#   From: 2010.05.17/outbox.cif.g08.bks.cpg/sg2_146_cif.got.tgz:291548.got - 2010.06.03 11:33:40.
