data_PCOD9002968
_publ_section_title
;
Structure prediction by ZEFSAII (Michael W. Deem and Ramdas Pophale) SiO2 
 PCOD9002968
Probable space group: P -1
;
_chemical_formula_sum "Si O2"
_cell_formula_units_Z 16
_cell_length_a 16.543302
_cell_length_b 5.367296
_cell_length_c 25.894440
_cell_angle_alpha 117.792531
_cell_angle_beta 155.935464
_cell_angle_gamma 72.130523
_cell_volume 783.049187
_symmetry_space_group_name_H-M "P -1"
_symmetry_group_IT_number 2
_symmetry_cell_setting 'triclinic'
loop_
_space_group_symop_operation_xyz
x,y,z
-x,-y,-z
loop_
_atom_site_type_symbol
_atom_site_label
_atom_site_fract_x
_atom_site_fract_y
_atom_site_fract_z
Si Si1 0.857178 0.593046 0.119701
Si Si2 0.811997 0.116492 0.217468
Si Si3 0.278667 0.367249 0.526231
Si Si4 0.845839 0.943318 0.797900
Si Si5 0.609824 0.261654 0.026759
Si Si6 0.280406 0.042999 0.388362
Si Si7 0.106733 0.594527 0.980816
Si Si8 0.474577 0.998865 0.305630
O O1 0.730831 0.293289 0.046965
O O2 0.784538 0.545420 0.013809
O O3 0.809628 0.840969 0.151665
O O4 0.108015 0.727592 0.273584
O O5 0.792708 0.340694 0.183832
O O6 0.032878 0.242351 0.386195
O O7 0.592480 0.034793 0.112494
O O8 0.290728 0.251434 0.463454
O O9 0.406471 0.215271 0.622563
O O10 0.377691 0.723019 0.613961
O O11 0.626509 0.878516 0.693368
O O12 0.955233 0.305011 0.894234
O O13 0.803956 0.859694 0.704812
O O14 0.982853 0.783628 0.895333
O O15 0.500000 0.500000 0.000000
O O16 0.500000 0.000000 0.500000
O O17 0.277317 0.810615 0.138081
#
# Coordination Sequence:
#
# PCOD9002968 Si02
#       8
#     2   2   2   2   2   2   2   2
#     4   9  21  34  59  85 115 156 194 249 291 344
#     4   9  20  36  59  93 115 148 188 249 308 366
#     4  11  25  37  61  87 124 156 195 245 306 367
#     4  11  23  39  61  83 117 164 212 254 288 332
#     4   9  18  35  61  88 117 146 189 242 314 352
#     4  10  21  37  55  89 125 155 193 243 307 355
#     4  11  24  40  60  84 118 162 217 249 277 340
#     4  12  24  41  58  83 121 170 205 244 290 345
#
# _framework density 20.432943000000002
#
# number of rings (size 3 to 8) (size 9 to 14) (size 15 to 20)
#    0.000    1.750    1.250    2.250   12.250    1.500 
#    0.000    0.000    0.000    1.500    0.000    0.000 
#    0.000    0.000    0.000    0.000    0.000    0.000 
#
# Total GULP energy -89136.281625 kJ/mol
# GULP energy per Si atom -5571.017602 kJ/mol
# Density = 2.038644 g / cm^3
# Si number density = 20.432943 Si / 1000 Ang^3
#
#
#
# Elastic Constant Matrix: (Units=GPa)
#
#
# Indices 1 2 3 4 5 6 
#
# 1 61.6966 10.9181 29.1064 3.0794 22.2630 17.6477
# 2 10.9181 103.5186 46.4286 -15.1104 -2.6558 22.6377
# 3 29.1064 46.4286 89.0406 -23.4343 11.6586 15.9518
# 4 3.0794 -15.1104 -23.4343 33.9967 3.2177 -2.6240
# 5 22.2630 -2.6558 11.6586 3.2177 33.7030 2.4017
# 6 17.6477 22.6377 15.9518 -2.6240 2.4017 18.0391
#
#
#
# Elastic Compliance Matrix: (Units=1/GPa)
#
#
# Indices 1 2 3 4 5 6 
#
# 1 0.034838 0.005691 -0.008193 -0.007225 -0.016703 -0.032806
# 2 0.005691 0.016801 -0.007017 0.000392 0.001421 -0.020579
# 3 -0.008193 -0.007017 0.021358 0.012724 -0.003765 0.000286
# 4 -0.007225 0.000392 0.012724 0.039461 -0.003475 0.001526
# 5 -0.016703 0.001421 -0.003765 -0.003475 0.041606 0.011841
# 6 -0.032806 -0.020579 0.000286 0.001526 0.011841 0.111747
#
#
# Mechanical properties :
#
#
# Convention : Reuss Voigt Hill
#
# Bulk Modulus (GPa) = 18.53225 47.46243 32.99734
# Shear Modulus (GPa) = 16.51063 28.33461 22.42262
#
# Velocity S-wave (km/s) = 2.84569 3.72790 3.31626
# Velocity P-wave (km/s) = 4.45945 6.46595 5.55406
#
# Compressibility (1/GPa) = 0.05395999
#
# Stress axis : x y z
#
# Youngs Moduli (GPa) = 28.70434 59.52056 46.81983
#
# Poissons Ratio (x) = -0.33875 0.38359
# Poissons Ratio (y) = -0.16337 0.32854
# Poissons Ratio (z) = 0.23517 0.41766
#
# Static dielectric constant tensor:
#      x y z
#    x 1.798150 -0.027210 0.018200 
#    y -0.027210 2.044200 0.012460 
#    z 0.018200 0.012460 1.737100 
# 
# From -- ./inp_files/108727.got.cif
#   From: 2010.05.17/outbox.cif.g08.bks.cpg/sg2_55_cif.got.tgz:108727.got - 2010.06.03 11:33:40.
