data_PCOD9002642
_publ_section_title
;
Structure prediction by ZEFSAII (Michael W. Deem and Ramdas Pophale) SiO2 
 PCOD9002642
Probable space group: P -1
;
_chemical_formula_sum "Si O2"
_cell_formula_units_Z 14
_cell_length_a 5.203467
_cell_length_b 25.454438
_cell_length_c 14.315615
_cell_angle_alpha 158.553464
_cell_angle_beta 113.601104
_cell_angle_gamma 68.867097
_cell_volume 634.879562
_symmetry_space_group_name_H-M "P -1"
_symmetry_group_IT_number 2
_symmetry_cell_setting 'triclinic'
loop_
_space_group_symop_operation_xyz
x,y,z
-x,-y,-z
loop_
_atom_site_type_symbol
_atom_site_label
_atom_site_fract_x
_atom_site_fract_y
_atom_site_fract_z
Si Si1 0.409292 0.847899 0.282026
Si Si2 0.113068 0.967871 0.860796
Si Si3 0.575196 0.743360 0.806586
Si Si4 0.954593 0.618979 0.494185
Si Si5 0.455274 0.217894 0.402747
Si Si6 0.557698 0.936210 0.653868
Si Si7 0.176840 0.308167 0.048614
O O1 0.457332 0.859414 0.418997
O O2 0.619453 0.739845 0.084258
O O3 0.081411 0.803752 0.149434
O O4 0.500000 0.000000 0.500000
O O5 0.217618 0.805365 0.605815
O O6 0.886113 0.982594 0.772363
O O7 0.340212 0.099951 0.112801
O O8 0.000000 0.000000 0.000000
O O9 0.798402 0.673548 0.654743
O O10 0.254511 0.703056 0.662474
O O11 0.630522 0.678647 0.809807
O O12 0.597405 0.915960 0.107663
O O13 0.728659 0.649166 0.429184
O O14 0.030019 0.454551 0.243724
O O15 0.441950 0.161160 0.413546
#
# Coordination Sequence:
#
# PCOD9002642 Si02
#       7
#     2   2   2   2   2   2   2
#     4  12  27  48  72  94 134 182 234 283 319 390
#     4   9  17  34  57  94 133 165 215 272 330 384
#     4  12  24  41  73 102 137 175 220 288 340 391
#     4  12  25  43  69 103 143 176 213 275 350 415
#     4  10  21  36  62  99 137 171 213 279 340 397
#     4  11  24  38  69 100 134 171 236 272 339 382
#     4  12  27  48  68 101 136 182 229 269 337 406
#
# _framework density 22.051424999999998
#
# number of rings (size 3 to 8) (size 9 to 14) (size 15 to 20)
#    0.000    0.857    2.857    5.571    4.000    0.000 
#    0.000    1.429    0.000    0.000    0.000    0.000 
#    0.000    0.000    0.000    0.000    0.000    0.000 
#
# Total GULP energy -78097.740194 kJ/mol
# GULP energy per Si atom -5578.410014 kJ/mol
# Density = 2.200123 g / cm^3
# Si number density = 22.051425 Si / 1000 Ang^3
#
#
#
# Elastic Constant Matrix: (Units=GPa)
#
#
# Indices 1 2 3 4 5 6 
#
# 1 105.2011 6.9676 19.3502 -8.6071 -24.1986 -2.9320
# 2 6.9676 138.4041 33.9163 12.3706 -25.4968 0.9792
# 3 19.3502 33.9163 42.1940 5.1814 -23.3334 6.3911
# 4 -8.6071 12.3706 5.1814 32.9744 -6.6081 -6.4687
# 5 -24.1986 -25.4968 -23.3334 -6.6081 37.3867 -0.8576
# 6 -2.9320 0.9792 6.3911 -6.4687 -0.8576 35.2895
#
#
#
# Elastic Compliance Matrix: (Units=1/GPa)
#
#
# Indices 1 2 3 4 5 6 
#
# 1 0.012338 0.001121 -0.003426 0.005416 0.007634 0.002793
# 2 0.001121 0.009399 -0.006407 -0.001493 0.002891 0.000789
# 3 -0.003426 -0.006407 0.042673 -0.002865 0.019359 -0.007890
# 4 0.005416 -0.001493 -0.002865 0.035707 0.007188 0.007730
# 5 0.007634 0.002891 0.019359 0.007188 0.047001 -0.000492
# 6 0.002793 0.000789 -0.007890 0.007730 -0.000492 0.031381
#
#
# Mechanical properties :
#
#
# Convention : Reuss Voigt Hill
#
# Bulk Modulus (GPa) = 21.28239 45.14083 33.21161
# Shear Modulus (GPa) = 23.63093 36.16779 29.89936
#
# Velocity S-wave (km/s) = 3.27712 4.05428 3.68624
# Velocity P-wave (km/s) = 4.89812 6.51394 5.76294
#
# Compressibility (1/GPa) = 0.04698720
#
# Stress axis : x y z
#
# Youngs Moduli (GPa) = 81.04787 106.39170 23.43380
#
# Poissons Ratio (x) = -0.11925 0.08029
# Poissons Ratio (y) = -0.09084 0.15013
# Poissons Ratio (z) = 0.27768 0.68161
#
# Static dielectric constant tensor:
#      x y z
#    x 1.997240 -0.033770 0.043930 
#    y -0.033770 1.874530 0.075380 
#    z 0.043930 0.075380 1.834010 
# 
# From -- ./inp_files/486195.got.cif
#   From: 2010.05.17/outbox.cif.g08.bks.cpg/sg2_244_cif.got.tgz:486195.got - 2010.06.03 11:33:40.
