data_PCOD9002296
_publ_section_title
;
Structure prediction by ZEFSAII (Michael W. Deem and Ramdas Pophale) SiO2 
 PCOD9002296
Probable space group: P -1
;
_chemical_formula_sum "Si O2"
_cell_formula_units_Z 16
_cell_length_a 9.482995
_cell_length_b 10.582809
_cell_length_c 12.625463
_cell_angle_alpha 136.702470
_cell_angle_beta 88.685061
_cell_angle_gamma 110.191138
_cell_volume 762.523952
_symmetry_space_group_name_H-M "P -1"
_symmetry_group_IT_number 2
_symmetry_cell_setting 'triclinic'
loop_
_space_group_symop_operation_xyz
x,y,z
-x,-y,-z
loop_
_atom_site_type_symbol
_atom_site_label
_atom_site_fract_x
_atom_site_fract_y
_atom_site_fract_z
Si Si1 0.645258 0.399970 0.229700
Si Si2 0.569620 0.644705 0.983719
Si Si3 0.548227 0.743331 0.655855
Si Si4 0.905979 0.456992 0.118262
Si Si5 0.466414 0.019796 0.682795
Si Si6 0.237697 0.859588 0.391016
Si Si7 0.104625 0.266803 0.894718
Si Si8 0.159404 0.137823 0.406907
O O1 0.534286 0.440195 0.171926
O O2 0.525715 0.242263 0.222556
O O3 0.760290 0.332115 0.123944
O O4 0.773917 0.621417 0.415518
O O5 0.500000 0.500000 0.000000
O O6 0.563489 0.853717 0.146865
O O7 0.750882 0.682882 0.997688
O O8 0.500000 0.500000 0.500000
O O9 0.736082 0.859068 0.695089
O O10 0.473269 0.822244 0.613350
O O11 0.843422 0.577331 0.112203
O O12 0.072062 0.645517 0.275872
O O13 0.964591 0.310739 0.969399
O O14 0.636609 0.159427 0.704270
O O15 0.331516 0.946639 0.550966
O O16 0.198834 0.027965 0.437551
O O17 0.025070 0.024085 0.712822
#
# Coordination Sequence:
#
# PCOD9002296 Si02
#       8
#     2   2   2   2   2   2   2   2
#     4  11  23  38  64  88 121 165 207 245 303 368
#     4  12  23  37  61  95 128 153 202 257 311 357
#     4   9  21  42  62  85 120 168 210 246 296 370
#     4  10  21  36  59  91 123 159 198 248 314 364
#     4  10  21  37  61  93 122 160 204 255 303 364
#     4   9  19  35  62  90 123 152 199 256 318 355
#     4  10  22  38  60  87 130 155 196 258 313 354
#     4   9  20  39  64  87 117 162 204 250 303 365
#
# _framework density 20.982949000000001
#
# number of rings (size 3 to 8) (size 9 to 14) (size 15 to 20)
#    0.000    2.000    1.250    1.500    7.000    5.500 
#    0.000    1.250    0.000    0.000    0.000    0.000 
#    0.000    0.000    0.000    0.000    0.000    0.000 
#
# Total GULP energy -89298.736404 kJ/mol
# GULP energy per Si atom -5581.171025 kJ/mol
# Density = 2.093519 g / cm^3
# Si number density = 20.982949 Si / 1000 Ang^3
#
#
#
# Elastic Constant Matrix: (Units=GPa)
#
#
# Indices 1 2 3 4 5 6 
#
# 1 80.9448 26.4344 11.8160 -5.9009 11.2890 10.4391
# 2 26.4344 87.9344 14.3395 -6.9110 6.2650 15.3957
# 3 11.8160 14.3395 51.9249 7.0883 9.8188 2.9566
# 4 -5.9009 -6.9110 7.0883 26.8089 -0.9119 -11.5511
# 5 11.2890 6.2650 9.8188 -0.9119 31.5067 -3.1891
# 6 10.4391 15.3957 2.9566 -11.5511 -3.1891 15.8114
#
#
#
# Elastic Compliance Matrix: (Units=1/GPa)
#
#
# Indices 1 2 3 4 5 6 
#
# 1 0.015229 -0.002431 -0.000984 -0.001364 -0.005682 -0.009645
# 2 -0.002431 0.015122 -0.001687 -0.003072 -0.003289 -0.015712
# 3 -0.000984 -0.001687 0.024147 -0.013182 -0.008594 -0.013587
# 4 -0.001364 -0.003072 -0.013182 0.064169 0.012713 0.055800
# 5 -0.005682 -0.003289 -0.008594 0.012713 0.040101 0.025937
# 6 -0.009645 -0.015712 -0.013587 0.055800 0.025937 0.133449
#
#
# Mechanical properties :
#
#
# Convention : Reuss Voigt Hill
#
# Bulk Modulus (GPa) = 22.57698 36.22044 29.39871
# Shear Modulus (GPa) = 15.76372 26.03969 20.90170
#
# Velocity S-wave (km/s) = 2.74389 3.52659 3.15957
# Velocity P-wave (km/s) = 4.56307 5.82081 5.22989
#
# Compressibility (1/GPa) = 0.04429291
#
# Stress axis : x y z
#
# Youngs Moduli (GPa) = 65.66558 66.13015 41.41383
#
# Poissons Ratio (x) = 0.16077 0.04076
# Poissons Ratio (y) = 0.15964 0.06985
# Poissons Ratio (z) = 0.06463 0.11154
#
# Static dielectric constant tensor:
#      x y z
#    x 1.775960 0.037480 -0.044340 
#    y 0.037480 1.756410 -0.018090 
#    z -0.044340 -0.018090 1.814940 
# 
# From -- ./inp_files/500998.got.cif
#   From: 2010.05.17/outbox.cif.g08.bks.cpg/sg2_251_cif.got.tgz:500998.got - 2010.06.03 11:33:40.
