data_PCOD9002467
_publ_section_title
;
Structure prediction by ZEFSAII (Michael W. Deem and Ramdas Pophale) SiO2 
 PCOD9002467
Probable space group: P -1
;
_chemical_formula_sum "Si O2"
_cell_formula_units_Z 14
_cell_length_a 23.064953
_cell_length_b 5.105552
_cell_length_c 5.431596
_cell_angle_alpha 119.027355
_cell_angle_beta 75.327950
_cell_angle_gamma 94.268045
_cell_volume 540.150527
_symmetry_space_group_name_H-M "P -1"
_symmetry_group_IT_number 2
_symmetry_cell_setting 'triclinic'
loop_
_space_group_symop_operation_xyz
x,y,z
-x,-y,-z
loop_
_atom_site_type_symbol
_atom_site_label
_atom_site_fract_x
_atom_site_fract_y
_atom_site_fract_z
Si Si1 0.427680 0.250370 0.881026
Si Si2 0.780204 0.373770 0.644452
Si Si3 0.547562 0.362147 0.576302
Si Si4 0.889943 0.266979 0.808456
Si Si5 0.931543 0.934665 0.102619
Si Si6 0.260043 0.203051 0.459391
Si Si7 0.674992 0.380502 0.067856
O O1 0.500749 0.231516 0.767483
O O2 0.392246 0.496714 0.863724
O O3 0.410170 0.920926 0.678174
O O4 0.418726 0.371230 0.218376
O O5 0.822529 0.352211 0.825285
O O6 0.794903 0.615505 0.537211
O O7 0.769549 0.030788 0.426354
O O8 0.714588 0.505120 0.857486
O O9 0.500000 0.500000 0.500000
O O10 0.921913 0.579745 0.949805
O O11 0.895102 0.087016 0.978130
O O12 0.915638 0.081081 0.454737
O O13 0.000000 0.000000 0.000000
O O14 0.298586 0.452619 0.654066
O O15 0.302566 0.964354 0.148764
#
# Coordination Sequence:
#
# PCOD9002467 Si02
#       7
#     2   2   2   2   2   2   2
#     4  10  21  39  57  88 119 157 207 261 320 390
#     4  10  26  41  66  97 130 176 222 273 339 406
#     4  10  21  36  61  86 120 157 208 255 322 389
#     4  12  26  43  76 100 147 186 238 294 356 416
#     4  12  26  47  72 108 143 190 239 295 351 418
#     4  10  24  39  64  87 133 162 222 265 327 406
#     4  10  24  39  63  90 130 167 218 269 332 400
#
# _framework density 25.918702
#
# number of rings (size 3 to 8) (size 9 to 14) (size 15 to 20)
#    0.857    0.571    0.000    4.286    6.000    2.286 
#    0.000    0.000    0.000    0.000    0.000    0.000 
#    0.000    0.000    0.000    0.000    0.000    0.000 
#
# Total GULP energy -78179.888471 kJ/mol
# GULP energy per Si atom -5584.277748 kJ/mol
# Density = 2.585971 g / cm^3
# Si number density = 25.918702 Si / 1000 Ang^3
#
#
#
# Elastic Constant Matrix: (Units=GPa)
#
#
# Indices 1 2 3 4 5 6 
#
# 1 82.1165 -3.6291 19.8729 3.8058 2.9605 -9.2735
# 2 -3.6291 111.4825 50.5133 14.7227 7.3373 -29.1684
# 3 19.8729 50.5133 179.6812 33.9225 20.8915 -0.9468
# 4 3.8058 14.7227 33.9225 34.3233 8.3089 2.1470
# 5 2.9605 7.3373 20.8915 8.3089 45.2145 -6.4704
# 6 -9.2735 -29.1684 -0.9468 2.1470 -6.4704 43.8161
#
#
#
# Elastic Compliance Matrix: (Units=1/GPa)
#
#
# Indices 1 2 3 4 5 6 
#
# 1 0.013363 0.002712 -0.002085 -0.001001 0.000507 0.004712
# 2 0.002712 0.013669 -0.003569 -0.003584 0.001339 0.009970
# 3 -0.002085 -0.003569 0.008102 -0.005491 -0.002409 -0.002729
# 4 -0.001001 -0.003584 -0.005491 0.037620 -0.004476 -0.005221
# 5 0.000507 0.001339 -0.002409 -0.004476 0.024486 0.004782
# 6 0.004712 0.009970 -0.002729 -0.005221 0.004782 0.031360
#
#
# Mechanical properties :
#
#
# Convention : Reuss Voigt Hill
#
# Bulk Modulus (GPa) = 34.19034 56.31048 45.25041
# Shear Modulus (GPa) = 34.66559 45.10565 39.88562
#
# Velocity S-wave (km/s) = 3.66112 4.17618 3.92710
# Velocity P-wave (km/s) = 5.57599 6.71022 6.16923
#
# Compressibility (1/GPa) = 0.02924803
#
# Stress axis : x y z
#
# Youngs Moduli (GPa) = 74.83573 73.15708 123.42838
#
# Poissons Ratio (x) = -0.19837 0.25738
# Poissons Ratio (y) = -0.20293 0.44053
# Poissons Ratio (z) = 0.15605 0.26111
#
# Static dielectric constant tensor:
#      x y z
#    x 2.070520 0.055740 -0.051440 
#    y 0.055740 2.160940 -0.117250 
#    z -0.051440 -0.117250 2.194060 
# 
# From -- ./inp_files/121917.got.cif
#   From: 2010.05.17/outbox.cif.g08.bks.cpg/sg2_61_cif.got.tgz:121917.got - 2010.06.03 11:33:40.
