data_PCOD9002179
_publ_section_title
;
Structure prediction by ZEFSAII (Michael W. Deem and Ramdas Pophale) SiO2 
 PCOD9002179
Probable space group: P -1
;
_chemical_formula_sum "Si O2"
_cell_formula_units_Z 14
_cell_length_a 6.281247
_cell_length_b 4.950537
_cell_length_c 25.062825
_cell_angle_alpha 93.897823
_cell_angle_beta 64.094929
_cell_angle_gamma 77.759266
_cell_volume 673.564633
_symmetry_space_group_name_H-M "P -1"
_symmetry_group_IT_number 2
_symmetry_cell_setting 'triclinic'
loop_
_space_group_symop_operation_xyz
x,y,z
-x,-y,-z
loop_
_atom_site_type_symbol
_atom_site_label
_atom_site_fract_x
_atom_site_fract_y
_atom_site_fract_z
Si Si1 0.591893 0.152052 0.541621
Si Si2 0.060137 0.276634 0.630009
Si Si3 0.993416 0.754784 0.566495
Si Si4 0.763239 0.378749 0.772300
Si Si5 0.533980 0.033884 0.165759
Si Si6 0.657261 0.986734 0.929721
Si Si7 0.046463 0.600587 0.132108
O O1 0.341578 0.295698 0.601759
O O2 0.763725 0.329047 0.498685
O O3 0.500000 0.000000 0.500000
O O4 0.771280 0.927574 0.557025
O O5 0.943185 0.493157 0.598666
O O6 0.918892 0.353112 0.701509
O O7 0.046389 0.971075 0.607678
O O8 0.527334 0.650962 0.800789
O O9 0.917199 0.417118 0.808280
O O10 0.672663 0.102866 0.789382
O O11 0.497006 0.051928 0.106251
O O12 0.790432 0.817556 0.148879
O O13 0.746248 0.263783 0.913099
O O14 0.105874 0.284978 0.099139
O O15 0.500000 0.000000 0.000000
#
# Coordination Sequence:
#
# PCOD9002179 Si02
#       7
#     2   2   2   2   2   2   2
#     4   9  21  39  59  82 113 145 180 228 284 337
#     4  11  22  37  57  83 110 143 187 232 276 328
#     4  10  22  38  58  83 111 144 182 228 284 337
#     4  10  22  37  55  81 111 145 191 232 268 329
#     4  10  21  39  57  79 115 152 185 228 278 325
#     4  10  21  36  58  89 115 142 189 232 269 330
#     4  10  21  38  58  80 114 154 181 224 284 322
#
# _framework density 20.784936999999999
#
# number of rings (size 3 to 8) (size 9 to 14) (size 15 to 20)
#    0.000    2.000    0.000    2.571    0.000   10.857 
#    0.000    0.000    0.000    0.000    0.000    0.000 
#    0.000    0.000    0.000    0.000    0.000    0.000 
#
# Total GULP energy -78244.021681 kJ/mol
# GULP energy per Si atom -5588.858691 kJ/mol
# Density = 2.073763 g / cm^3
# Si number density = 20.784937 Si / 1000 Ang^3
#
#
#
# Elastic Constant Matrix: (Units=GPa)
#
#
# Indices 1 2 3 4 5 6 
#
# 1 68.9392 -3.5557 41.7800 4.3225 1.4867 -30.3243
# 2 -3.5557 86.7549 23.5515 -1.6458 2.6271 -7.8005
# 3 41.7800 23.5515 158.8872 -8.9613 -14.2709 -7.3124
# 4 4.3225 -1.6458 -8.9613 20.8765 -2.9874 -2.3208
# 5 1.4867 2.6271 -14.2709 -2.9874 11.1819 -1.8584
# 6 -30.3243 -7.8005 -7.3124 -2.3208 -1.8584 33.1129
#
#
#
# Elastic Compliance Matrix: (Units=1/GPa)
#
#
# Indices 1 2 3 4 5 6 
#
# 1 0.037013 0.007939 -0.011908 -0.011523 -0.019875 0.031213
# 2 0.007939 0.014202 -0.004855 -0.003056 -0.009947 0.008772
# 3 -0.011908 -0.004855 0.012038 0.009153 0.019258 -0.007668
# 4 -0.011523 -0.003056 0.009153 0.057689 0.028747 -0.003595
# 5 -0.019875 -0.009947 0.019258 0.028747 0.125465 -0.007235
# 6 0.031213 0.008772 -0.007668 -0.003595 -0.007235 0.058499
#
#
# Mechanical properties :
#
#
# Convention : Reuss Voigt Hill
#
# Bulk Modulus (GPa) = 21.92728 48.68143 35.30436
# Shear Modulus (GPa) = 14.80368 29.88797 22.34583
#
# Velocity S-wave (km/s) = 2.67166 3.79616 3.28242
# Velocity P-wave (km/s) = 4.48214 6.53351 5.60251
#
# Compressibility (1/GPa) = 0.04560528
#
# Stress axis : x y z
#
# Youngs Moduli (GPa) = 27.01786 70.41246 83.07242
#
# Poissons Ratio (x) = -0.55903 0.98922
# Poissons Ratio (y) = -0.21450 0.40331
# Poissons Ratio (z) = 0.32173 0.34185
#
# Static dielectric constant tensor:
#      x y z
#    x 1.766000 0.001200 -0.006470 
#    y 0.001200 1.756650 0.008580 
#    z -0.006470 0.008580 1.696610 
# 
# From -- ./inp_files/580724.got.cif
#   From: 2010.05.17/outbox.cif.g08.bks.cpg/sg2_291_cif.got.tgz:580724.got - 2010.06.03 11:33:40.
