data_PCOD9002988
_publ_section_title
;
Structure prediction by ZEFSAII (Michael W. Deem and Ramdas Pophale) SiO2 
 PCOD9002988
Probable space group: P -1
;
_chemical_formula_sum "Si O2"
_cell_formula_units_Z 15
_cell_length_a 16.482794
_cell_length_b 7.990801
_cell_length_c 14.997866
_cell_angle_alpha 114.843679
_cell_angle_beta 153.937067
_cell_angle_gamma 50.126661
_cell_volume 590.759789
_symmetry_space_group_name_H-M "P -1"
_symmetry_group_IT_number 2
_symmetry_cell_setting 'triclinic'
loop_
_space_group_symop_operation_xyz
x,y,z
-x,-y,-z
loop_
_atom_site_type_symbol
_atom_site_label
_atom_site_fract_x
_atom_site_fract_y
_atom_site_fract_z
Si Si1 0.731230 0.981342 0.235789
Si Si2 0.161208 0.000903 0.987099
Si Si3 0.494450 0.650406 0.389962
Si Si4 0.387572 0.781463 0.507486
Si Si5 0.089990 0.320336 0.394442
Si Si6 0.600981 0.486443 0.001397
Si Si7 0.000000 0.500000 0.500000
Si Si8 0.037914 0.312168 0.778945
O O1 0.875564 0.791542 0.414632
O O2 0.868556 0.878210 0.252477
O O3 0.500000 0.000000 0.000000
O O4 0.616537 0.256665 0.202670
O O5 0.270965 0.757555 0.983568
O O6 0.302168 0.889722 0.194117
O O7 0.871741 0.156003 0.751832
O O8 0.175512 0.168751 0.974033
O O9 0.509564 0.731478 0.520882
O O10 0.449471 0.463055 0.326157
O O11 0.750390 0.478256 0.552245
O O12 0.279454 0.036614 0.500008
O O13 0.964570 0.480234 0.217351
O O14 0.839049 0.470527 0.243953
O O15 0.206000 0.389293 0.590975
O O16 0.500000 0.500000 0.000000
#
# Coordination Sequence:
#
# PCOD9002988 Si02
#       8
#     2   2   2   2   2   2   1   2
#     4  11  21  39  56  81 121 155 185 234 285 339
#     4  10  21  37  61  85 112 154 192 232 286 346
#     4  10  21  39  61  86 111 153 192 242 283 336
#     4   9  21  41  60  83 120 145 191 243 287 328
#     4  10  22  40  57  85 118 151 190 236 285 343
#     4  11  21  36  59  83 117 153 189 234 288 335
#     4  10  22  36  62  84 114 152 192 220 286 348
#     4  10  21  37  56  84 119 146 192 239 284 332
#
# _framework density 25.391033
#
# number of rings (size 3 to 8) (size 9 to 14) (size 15 to 20)
#    0.000    1.867    4.000    0.400    1.867    4.800 
#    0.000    2.000    0.000    0.000    0.000    0.000 
#    0.000    0.000    0.000    0.000    0.000    0.000 
#
# Total GULP energy -83638.747380 kJ/mol
# GULP energy per Si atom -5575.916492 kJ/mol
# Density = 2.533324 g / cm^3
# Si number density = 25.391033 Si / 1000 Ang^3
#
#
#
# Elastic Constant Matrix: (Units=GPa)
#
#
# Indices 1 2 3 4 5 6 
#
# 1 135.3509 22.2172 42.8830 -8.1060 -12.2610 -3.6517
# 2 22.2172 95.6976 14.5177 -35.9259 -10.0368 -12.6318
# 3 42.8830 14.5177 96.2832 -24.3838 -23.2785 15.7476
# 4 -8.1060 -35.9259 -24.3838 42.5344 15.4679 -3.9186
# 5 -12.2610 -10.0368 -23.2785 15.4679 57.2444 -23.0518
# 6 -3.6517 -12.6318 15.7476 -3.9186 -23.0518 41.0784
#
#
#
# Elastic Compliance Matrix: (Units=1/GPa)
#
#
# Indices 1 2 3 4 5 6 
#
# 1 0.009207 -0.002043 -0.004571 -0.002928 0.001571 0.002545
# 2 -0.002043 0.017596 0.001411 0.015209 0.002047 0.007288
# 3 -0.004571 0.001411 0.015346 0.008141 0.001633 -0.004162
# 4 -0.002928 0.015209 0.008141 0.042569 -0.005162 0.002460
# 5 0.001571 0.002047 0.001633 -0.005162 0.025946 0.014210
# 6 0.002545 0.007288 -0.004162 0.002460 0.014210 0.036615
#
#
# Mechanical properties :
#
#
# Convention : Reuss Voigt Hill
#
# Bulk Modulus (GPa) = 31.50065 54.06304 42.78184
# Shear Modulus (GPa) = 29.71501 44.68570 37.20035
#
# Velocity S-wave (km/s) = 3.42467 4.19967 3.83181
# Velocity P-wave (km/s) = 5.29820 6.69736 6.03845
#
# Compressibility (1/GPa) = 0.03174538
#
# Stress axis : x y z
#
# Youngs Moduli (GPa) = 108.61040 56.83169 65.16247
#
# Poissons Ratio (x) = 0.11608 0.29783
# Poissons Ratio (y) = 0.22184 -0.09195
# Poissons Ratio (z) = 0.49641 -0.08020
#
# Static dielectric constant tensor:
#      x y z
#    x 2.101450 0.116280 -0.003990 
#    y 0.116280 2.088750 0.071090 
#    z -0.003990 0.071090 2.093940 
# 
# From -- ./inp_files/456991.got.cif
#   From: 2010.05.17/outbox.cif.g08.bks.cpg/sg2_229_cif.got.tgz:456991.got - 2010.06.03 11:33:40.
