data_PCOD9002424
_publ_section_title
;
Structure prediction by ZEFSAII (Michael W. Deem and Ramdas Pophale) SiO2 
 PCOD9002424
Probable space group: P -1
;
_chemical_formula_sum "Si O2"
_cell_formula_units_Z 12
_cell_length_a 13.693714
_cell_length_b 4.811660
_cell_length_c 11.830580
_cell_angle_alpha 119.992750
_cell_angle_beta 137.829800
_cell_angle_gamma 68.650297
_cell_volume 453.207809
_symmetry_space_group_name_H-M "P -1"
_symmetry_group_IT_number 2
_symmetry_cell_setting 'triclinic'
loop_
_space_group_symop_operation_xyz
x,y,z
-x,-y,-z
loop_
_atom_site_type_symbol
_atom_site_label
_atom_site_fract_x
_atom_site_fract_y
_atom_site_fract_z
Si Si1 0.911621 0.818608 0.517160
Si Si2 0.500000 0.000000 0.500000
Si Si3 0.668515 0.491062 0.117207
Si Si4 0.189861 0.853521 0.295085
Si Si5 0.816324 0.830399 0.131408
Si Si6 0.802430 0.840683 0.855847
Si Si7 0.500000 0.500000 0.500000
O O1 0.759857 0.777656 0.314339
O O2 0.000000 0.500000 0.500000
O O3 0.865980 0.868595 0.618408
O O4 0.027221 0.111921 0.662517
O O5 0.367691 0.833925 0.443052
O O6 0.511275 0.607333 0.395028
O O7 0.727354 0.535560 0.048112
O O8 0.725139 0.150926 0.139264
O O9 0.500000 0.500000 0.000000
O O10 0.147408 0.498007 0.221136
O O11 0.147291 0.898580 0.137510
O O12 0.838024 0.834878 0.015778
O O13 0.624643 0.831676 0.683142
#
# Coordination Sequence:
#
# PCOD9002424 Si02
#       7
#     2   1   2   2   2   2   1
#     4  10  25  46  68  96 137 183 226 273 334 405
#     4   8  16  32  52  86 118 158 204 260 322 368
#     4  11  25  44  70  98 129 180 234 280 328 393
#     4  10  21  37  62  93 130 169 216 269 330 397
#     4  11  24  44  67  96 139 175 221 281 339 406
#     4  10  21  36  60  93 125 166 210 268 337 387
#     4   8  16  30  50  82 122 154 194 248 318 382
#
# _framework density 26.477919
#
# number of rings (size 3 to 8) (size 9 to 14) (size 15 to 20)
#    0.000    2.000    0.000    2.000    0.000   14.667 
#    0.000    0.000    0.000    0.000    0.000    0.000 
#    0.000    0.000    0.000    0.000    0.000    0.000 
#
# Total GULP energy -66812.951922 kJ/mol
# GULP energy per Si atom -5567.745993 kJ/mol
# Density = 2.641765 g / cm^3
# Si number density = 26.477919 Si / 1000 Ang^3
#
#
#
# Elastic Constant Matrix: (Units=GPa)
#
#
# Indices 1 2 3 4 5 6 
#
# 1 131.4317 69.3879 49.1072 -2.1401 7.8430 7.7568
# 2 69.3879 165.3279 33.0306 -5.2478 6.8332 35.9333
# 3 49.1072 33.0306 128.7000 -24.2297 2.6035 -21.2497
# 4 -2.1401 -5.2478 -24.2297 30.7055 -1.2232 2.8478
# 5 7.8430 6.8332 2.6035 -1.2232 48.0974 -5.7392
# 6 7.7568 35.9333 -21.2497 2.8478 -5.7392 72.5937
#
#
#
# Elastic Compliance Matrix: (Units=1/GPa)
#
#
# Indices 1 2 3 4 5 6 
#
# 1 0.011131 -0.003865 -0.003846 -0.002931 -0.001178 -0.000380
# 2 -0.003865 0.009029 -0.001489 0.000481 -0.001108 -0.004598
# 3 -0.003846 -0.001489 0.011928 0.008521 0.000932 0.004379
# 4 -0.002931 0.000481 0.008521 0.039108 0.001077 0.001120
# 5 -0.001178 -0.001108 0.000932 0.001077 0.021428 0.002599
# 6 -0.000380 -0.004598 0.004379 0.001120 0.002599 0.017535
#
#
# Mechanical properties :
#
#
# Convention : Reuss Voigt Hill
#
# Bulk Modulus (GPa) = 73.05600 80.94567 77.00084
# Shear Modulus (GPa) = 37.55983 48.54159 43.05071
#
# Velocity S-wave (km/s) = 3.77043 4.28633 4.03663
# Velocity P-wave (km/s) = 6.82686 7.42524 7.13233
#
# Compressibility (1/GPa) = 0.01368813
#
# Stress axis : x y z
#
# Youngs Moduli (GPa) = 89.83921 110.75834 83.83721
#
# Poissons Ratio (x) = 0.42808 0.32244
# Poissons Ratio (y) = 0.34723 0.12480
# Poissons Ratio (z) = 0.34553 0.16488
#
# Static dielectric constant tensor:
#      x y z
#    x 2.152000 0.018770 0.044010 
#    y 0.018770 2.340060 -0.201770 
#    z 0.044010 -0.201770 2.245040 
# 
# From -- ./inp_files/37884.got.cif
#   From: 2010.05.17/outbox.cif.g08.bks.cpg/sg2_19_cif.got.tgz:37884.got - 2010.06.03 11:33:40.
