data_PCOD9002671
_publ_section_title
;
Structure prediction by ZEFSAII (Michael W. Deem and Ramdas Pophale) SiO2 
 PCOD9002671
Probable space group: P -1
;
_chemical_formula_sum "Si O2"
_cell_formula_units_Z 16
_cell_length_a 9.551410
_cell_length_b 13.469714
_cell_length_c 28.452308
_cell_angle_alpha 153.197959
_cell_angle_beta 148.461789
_cell_angle_gamma 42.317197
_cell_volume 859.828063
_symmetry_space_group_name_H-M "P -1"
_symmetry_group_IT_number 2
_symmetry_cell_setting 'triclinic'
loop_
_space_group_symop_operation_xyz
x,y,z
-x,-y,-z
loop_
_atom_site_type_symbol
_atom_site_label
_atom_site_fract_x
_atom_site_fract_y
_atom_site_fract_z
Si Si1 0.068578 0.282313 0.902578
Si Si2 0.077979 0.778669 0.904758
Si Si3 0.852842 0.179540 0.376645
Si Si4 0.406968 0.287947 0.913978
Si Si5 0.656299 0.619588 0.347495
Si Si6 0.530449 0.497412 0.649649
Si Si7 0.339441 0.017173 0.384684
Si Si8 0.576531 0.212888 0.080532
O O1 0.155112 0.327630 0.892366
O O2 0.322771 0.208482 0.971264
O O3 0.811917 0.105077 0.753823
O O4 0.000000 0.500000 0.000000
O O5 0.163444 0.800954 0.884122
O O6 0.827610 0.603167 0.768701
O O7 0.343020 0.729249 0.987480
O O8 0.000000 0.000000 0.000000
O O9 0.679142 0.351290 0.372009
O O10 0.027460 0.300230 0.519576
O O11 0.095168 0.103968 0.381716
O O12 0.670244 0.947163 0.233764
O O13 0.500000 0.500000 0.000000
O O14 0.538616 0.519315 0.321246
O O15 0.610224 0.433084 0.215384
O O16 0.503185 0.835872 0.381290
O O17 0.510397 0.245453 0.519166
O O18 0.500000 0.000000 0.000000
#
# Coordination Sequence:
#
# PCOD9002671 Si02
#       8
#     2   2   2   2   2   2   2   2
#     4  10  21  41  59  89 119 151 203 245 299 358
#     4  11  23  42  61  89 121 156 204 245 306 356
#     4  10  21  38  60  91 121 156 208 242 297 355
#     4  10  23  37  63  87 119 155 199 250 297 356
#     4  11  22  38  64  90 119 160 206 246 300 359
#     4  11  22  38  65  87 123 160 201 256 292 354
#     4  10  21  36  63  90 119 156 206 241 299 357
#     4  11  25  40  63  89 121 161 197 251 302 359
#
# _framework density 18.608371000000002
#
# number of rings (size 3 to 8) (size 9 to 14) (size 15 to 20)
#    0.000    1.500    2.500    3.750   10.500    1.000 
#    0.000    2.500    0.000    0.000    0.000    0.000 
#    0.000    0.000    0.000    0.000    0.000    0.000 
#
# Total GULP energy -89166.282675 kJ/mol
# GULP energy per Si atom -5572.892667 kJ/mol
# Density = 1.856602 g / cm^3
# Si number density = 18.608371 Si / 1000 Ang^3
#
#
#
# Elastic Constant Matrix: (Units=GPa)
#
#
# Indices 1 2 3 4 5 6 
#
# 1 80.4677 34.8293 53.7728 16.1264 6.2059 4.8297
# 2 34.8293 104.2414 48.7634 13.1457 7.8198 4.3035
# 3 53.7728 48.7634 180.6000 17.5038 12.5171 11.9844
# 4 16.1264 13.1457 17.5038 39.6065 -0.7817 2.1104
# 5 6.2059 7.8198 12.5171 -0.7817 33.0373 2.3311
# 6 4.8297 4.3035 11.9844 2.1104 2.3311 22.4997
#
#
#
# Elastic Compliance Matrix: (Units=1/GPa)
#
#
# Indices 1 2 3 4 5 6 
#
# 1 0.017370 -0.003417 -0.003719 -0.004286 -0.001106 -0.000578
# 2 -0.003417 0.011979 -0.001930 -0.001750 -0.001489 -0.000211
# 3 -0.003719 -0.001930 0.007549 -0.001074 -0.001547 -0.002592
# 4 -0.004286 -0.001750 -0.001074 0.028152 0.002367 -0.001059
# 5 -0.001106 -0.001489 -0.001547 0.002367 0.031623 -0.002152
# 6 -0.000578 -0.000211 -0.002592 -0.001059 -0.002152 0.046313
#
#
# Mechanical properties :
#
#
# Convention : Reuss Voigt Hill
#
# Bulk Modulus (GPa) = 53.28801 71.11557 62.20179
# Shear Modulus (GPa) = 29.87340 34.22493 32.04917
#
# Velocity S-wave (km/s) = 4.01106 4.29327 4.15456
# Velocity P-wave (km/s) = 7.08168 7.92945 7.51752
#
# Compressibility (1/GPa) = 0.01876595
#
# Stress axis : x y z
#
# Youngs Moduli (GPa) = 57.56912 83.48118 132.46934
#
# Poissons Ratio (x) = 0.28524 0.49266
# Poissons Ratio (y) = 0.19670 0.25570
# Poissons Ratio (z) = 0.21410 0.16114
#
# Static dielectric constant tensor:
#      x y z
#    x 1.654790 -0.006870 -0.016420 
#    y -0.006870 1.610190 0.012110 
#    z -0.016420 0.012110 1.721230 
# 
# From -- ./inp_files/283276.got.cif
#   From: 2010.05.17/outbox.cif.g08.bks.cpg/sg2_142_cif.got.tgz:283276.got - 2010.06.03 11:33:40.
