data_PCOD9002891
_publ_section_title
;
Structure prediction by ZEFSAII (Michael W. Deem and Ramdas Pophale) SiO2 
 PCOD9002891
Probable space group: P -1
;
_chemical_formula_sum "Si O2"
_cell_formula_units_Z 12
_cell_length_a 12.640370
_cell_length_b 5.358039
_cell_length_c 11.906636
_cell_angle_alpha 98.041187
_cell_angle_beta 51.483032
_cell_angle_gamma 71.799431
_cell_volume 535.300395
_symmetry_space_group_name_H-M "P -1"
_symmetry_group_IT_number 2
_symmetry_cell_setting 'triclinic'
loop_
_space_group_symop_operation_xyz
x,y,z
-x,-y,-z
loop_
_atom_site_type_symbol
_atom_site_label
_atom_site_fract_x
_atom_site_fract_y
_atom_site_fract_z
Si Si1 0.732557 0.196207 0.897518
Si Si2 0.029335 0.745875 0.550840
Si Si3 0.491552 0.179892 0.907394
Si Si4 0.690517 0.840471 0.356635
Si Si5 0.294977 0.629407 0.527854
Si Si6 0.402813 0.895915 0.787351
O O1 0.630948 0.235045 0.852623
O O2 0.903710 0.926956 0.743434
O O3 0.670598 0.139040 0.051786
O O4 0.683419 0.533779 0.964809
O O5 0.000000 0.500000 0.500000
O O6 0.200857 0.619291 0.481891
O O7 0.741985 0.044945 0.400170
O O8 0.000000 0.000000 0.500000
O O9 0.515046 0.013040 0.765989
O O10 0.500000 0.000000 0.000000
O O11 0.748677 0.524465 0.352762
O O12 0.716450 0.876312 0.210381
O O13 0.500000 0.000000 0.500000
O O14 0.517851 0.581691 0.634233
#
# Coordination Sequence:
#
# PCOD9002891 Si02
#       6
#     2   2   2   2   2   2
#     4  10  23  38  62  93 126 164 217 263 315 385
#     4  12  28  45  66  93 135 174 206 259 336 387
#     4   9  20  36  61  92 125 157 219 263 317 364
#     4  10  22  41  65  97 127 166 216 267 316 369
#     4  11  24  42  64  97 130 165 216 265 315 382
#     4  10  21  36  68  88 122 165 213 267 314 365
#
# _framework density 22.41732
#
# number of rings (size 3 to 8) (size 9 to 14) (size 15 to 20)
#    0.000    1.667    0.000    4.000   18.667    0.000 
#    0.000    1.667    0.000    0.000    0.000    0.000 
#    0.000    0.000    0.000    0.000    0.000    0.000 
#
# Total GULP energy -66926.741586 kJ/mol
# GULP energy per Si atom -5577.228466 kJ/mol
# Density = 2.236630 g / cm^3
# Si number density = 22.417320 Si / 1000 Ang^3
#
#
#
# Elastic Constant Matrix: (Units=GPa)
#
#
# Indices 1 2 3 4 5 6 
#
# 1 79.1756 31.2422 -2.4614 -9.5404 20.1398 10.6671
# 2 31.2422 131.3727 32.7781 -16.1187 6.7312 5.9721
# 3 -2.4614 32.7781 85.1369 -9.9464 8.4526 -1.3604
# 4 -9.5404 -16.1187 -9.9464 34.8749 -8.0796 9.7852
# 5 20.1398 6.7312 8.4526 -8.0796 26.8974 4.0925
# 6 10.6671 5.9721 -1.3604 9.7852 4.0925 34.5711
#
#
#
# Elastic Compliance Matrix: (Units=1/GPa)
#
#
# Indices 1 2 3 4 5 6 
#
# 1 0.018395 -0.004157 0.003589 0.002348 -0.012548 -0.003996
# 2 -0.004157 0.009942 -0.003874 0.003670 0.003251 -0.002011
# 3 0.003589 -0.003874 0.014120 0.001836 -0.005644 0.000266
# 4 0.002348 0.003670 0.001836 0.037530 0.010012 -0.013094
# 5 -0.012548 0.003251 -0.005644 0.010012 0.051429 -0.005834
# 6 -0.003996 -0.002011 0.000266 -0.013094 -0.005834 0.034914
#
#
# Mechanical properties :
#
#
# Convention : Reuss Voigt Hill
#
# Bulk Modulus (GPa) = 29.78642 46.53364 38.16003
# Shear Modulus (GPa) = 26.82313 34.87708 30.85011
#
# Velocity S-wave (km/s) = 3.46285 3.94865 3.71370
# Velocity P-wave (km/s) = 5.41337 6.44920 5.95385
#
# Compressibility (1/GPa) = 0.03357235
#
# Stress axis : x y z
#
# Youngs Moduli (GPa) = 54.36187 100.57928 70.82053
#
# Poissons Ratio (x) = 0.41814 -0.25415
# Poissons Ratio (y) = 0.22600 0.27437
# Poissons Ratio (z) = -0.19509 0.38966
#
# Static dielectric constant tensor:
#      x y z
#    x 1.888320 0.048350 0.000440 
#    y 0.048350 1.954810 -0.003580 
#    z 0.000440 -0.003580 1.901230 
# 
# From -- ./inp_files/410707.got.cif
#   From: 2010.05.17/outbox.cif.g08.bks.cpg/sg2_206_cif.got.tgz:410707.got - 2010.06.03 11:33:40.
