data_PCOD9002358
_publ_section_title
;
Structure prediction by ZEFSAII (Michael W. Deem and Ramdas Pophale) SiO2 
 PCOD9002358
Probable space group: P -1
;
_chemical_formula_sum "Si O2"
_cell_formula_units_Z 16
_cell_length_a 17.560985
_cell_length_b 9.791711
_cell_length_c 11.479042
_cell_angle_alpha 118.618134
_cell_angle_beta 126.071490
_cell_angle_gamma 31.315649
_cell_volume 827.866755
_symmetry_space_group_name_H-M "P -1"
_symmetry_group_IT_number 2
_symmetry_cell_setting 'triclinic'
loop_
_space_group_symop_operation_xyz
x,y,z
-x,-y,-z
loop_
_atom_site_type_symbol
_atom_site_label
_atom_site_fract_x
_atom_site_fract_y
_atom_site_fract_z
Si Si1 0.346707 0.605468 0.944523
Si Si2 0.413302 0.766043 0.581195
Si Si3 0.769577 0.664852 0.884068
Si Si4 0.592653 0.718617 0.925726
Si Si5 0.548244 0.979597 0.406483
Si Si6 0.892852 0.841780 0.131058
Si Si7 0.211603 0.595049 0.608641
Si Si8 0.847574 0.047672 0.434110
O O1 0.303806 0.557858 0.777462
O O2 0.198835 0.922805 0.946041
O O3 0.500000 0.500000 0.000000
O O4 0.373496 0.450622 0.011050
O O5 0.500000 0.500000 0.500000
O O6 0.495682 0.747137 0.755246
O O7 0.417680 0.887262 0.533660
O O8 0.247724 0.929148 0.552133
O O9 0.745620 0.581394 0.937949
O O10 0.598704 0.883642 0.752241
O O11 0.919355 0.417588 0.836612
O O12 0.812808 0.779062 0.016581
O O13 0.500000 0.000000 0.000000
O O14 0.500000 0.000000 0.500000
O O15 0.717712 0.668735 0.424751
O O16 0.864340 0.943734 0.278722
O O17 0.236039 0.672848 0.549252
O O18 0.023197 0.845670 0.556482
#
# Coordination Sequence:
#
# PCOD9002358 Si02
#       8
#     2   2   2   2   2   2   2   2
#     4  11  21  36  61  89 116 154 206 246 291 358
#     4  11  24  39  61  90 123 159 198 250 303 355
#     4  10  22  39  60  87 120 156 204 250 301 355
#     4  11  22  40  64  88 121 162 202 249 299 355
#     4  11  22  38  59  84 118 157 200 245 299 359
#     4  10  21  38  61  87 118 160 199 249 301 356
#     4  10  21  36  60  86 115 158 199 244 294 357
#     4  10  21  40  60  85 124 159 196 243 308 362
#
# _framework density 19.326781
#
# number of rings (size 3 to 8) (size 9 to 14) (size 15 to 20)
#    0.000    1.500    0.000    6.750    0.000    7.000 
#    0.000    2.500    0.000    0.000    0.000    0.000 
#    0.000    0.000    0.000    0.000    0.000    0.000 
#
# Total GULP energy -89193.049307 kJ/mol
# GULP energy per Si atom -5574.565582 kJ/mol
# Density = 1.928279 g / cm^3
# Si number density = 19.326781 Si / 1000 Ang^3
#
#
#
# Elastic Constant Matrix: (Units=GPa)
#
#
# Indices 1 2 3 4 5 6 
#
# 1 156.9063 44.0470 30.7405 -12.9191 2.8167 22.5202
# 2 44.0470 102.0127 19.3387 -3.6622 -0.4790 24.2733
# 3 30.7405 19.3387 57.5155 -4.5708 0.9814 11.2230
# 4 -12.9191 -3.6622 -4.5708 28.3697 6.7914 -1.7162
# 5 2.8167 -0.4790 0.9814 6.7914 24.3275 0.6491
# 6 22.5202 24.2733 11.2230 -1.7162 0.6491 36.8568
#
#
#
# Elastic Compliance Matrix: (Units=1/GPa)
#
#
# Indices 1 2 3 4 5 6 
#
# 1 0.008235 -0.002323 -0.002854 0.003256 -0.001728 -0.002451
# 2 -0.002323 0.012664 -0.001806 -0.000304 0.000847 -0.006400
# 3 -0.002854 -0.001806 0.020290 0.001769 -0.000934 -0.003146
# 4 0.003256 -0.000304 0.001769 0.039722 -0.011536 -0.000275
# 5 -0.001728 0.000847 -0.000934 -0.011536 0.044595 -0.000540
# 6 -0.002451 -0.006400 -0.003146 -0.000275 -0.000540 0.033799
#
#
# Mechanical properties :
#
#
# Convention : Reuss Voigt Hill
#
# Bulk Modulus (GPa) = 36.73407 56.07632 46.40520
# Shear Modulus (GPa) = 27.42033 32.73134 30.07583
#
# Velocity S-wave (km/s) = 3.77075 4.11977 3.94912
# Velocity P-wave (km/s) = 6.16491 7.19082 6.69754
#
# Compressibility (1/GPa) = 0.02722268
#
# Stress axis : x y z
#
# Youngs Moduli (GPa) = 121.42799 78.96405 49.28592
#
# Poissons Ratio (x) = 0.18342 0.14066
# Poissons Ratio (y) = 0.28205 0.08903
# Poissons Ratio (z) = 0.34656 0.14264
#
# Static dielectric constant tensor:
#      x y z
#    x 1.683120 0.022030 -0.034880 
#    y 0.022030 1.672040 0.042640 
#    z -0.034880 0.042640 1.679270 
# 
# From -- ./inp_files/462360.got.cif
#   From: 2010.05.17/outbox.cif.g08.bks.cpg/sg2_232_cif.got.tgz:462360.got - 2010.06.03 11:33:40.
