data_PCOD9002086
_publ_section_title
;
Structure prediction by ZEFSAII (Michael W. Deem and Ramdas Pophale) SiO2 
 PCOD9002086
Probable space group: P -1
;
_chemical_formula_sum "Si O2"
_cell_formula_units_Z 12
_cell_length_a 25.732945
_cell_length_b 5.100053
_cell_length_c 16.001628
_cell_angle_alpha 110.301067
_cell_angle_beta 16.861144
_cell_angle_gamma 118.695052
_cell_volume 479.191829
_symmetry_space_group_name_H-M "P -1"
_symmetry_group_IT_number 2
_symmetry_cell_setting 'triclinic'
loop_
_space_group_symop_operation_xyz
x,y,z
-x,-y,-z
loop_
_atom_site_type_symbol
_atom_site_label
_atom_site_fract_x
_atom_site_fract_y
_atom_site_fract_z
Si Si1 0.087014 0.357234 0.732863
Si Si2 0.654191 0.132941 0.469924
Si Si3 0.883021 0.340020 0.575653
Si Si4 0.850049 0.652891 0.971288
Si Si5 0.294632 0.424656 0.253737
Si Si6 0.482347 0.366059 0.631647
O O1 0.273520 0.640213 0.534292
O O2 0.155713 0.462139 0.543634
O O3 0.869512 0.299035 0.099858
O O4 0.033519 0.978747 0.774731
O O5 0.483391 0.169801 0.687270
O O6 0.566536 0.745383 0.571922
O O7 0.702554 0.383302 0.813642
O O8 0.000000 0.500000 0.500000
O O9 0.805825 0.956437 0.658700
O O10 0.062478 0.491447 0.244448
O O11 0.660486 0.406344 0.296776
O O12 0.732302 0.779605 0.106016
O O13 0.500000 0.500000 0.000000
#
# Coordination Sequence:
#
# PCOD9002086 Si02
#       6
#     2   2   2   2   2   2
#     4   9  21  38  59  84 117 153 189 235 291 345
#     4  10  21  36  57  86 117 150 189 233 284 346
#     4  11  24  42  63  87 118 156 199 246 295 347
#     4   9  21  38  59  84 117 153 189 235 291 345
#     4  11  24  42  63  87 118 156 199 246 295 347
#     4  10  21  36  57  86 117 150 189 233 284 346
#
# _framework density 25.042162999999999
#
# number of rings (size 3 to 8) (size 9 to 14) (size 15 to 20)
#    0.000    2.000    0.000    2.000    0.000   20.000 
#    0.000    0.000    0.000    0.000    0.000    0.000 
#    0.000    0.000    0.000    0.000    0.000    0.000 
#
# Total GULP energy -67061.410005 kJ/mol
# GULP energy per Si atom -5588.450834 kJ/mol
# Density = 2.498517 g / cm^3
# Si number density = 25.042163 Si / 1000 Ang^3
#
#
#
# Elastic Constant Matrix: (Units=GPa)
#
#
# Indices 1 2 3 4 5 6 
#
# 1 148.9135 83.0018 20.3036 15.1587 -9.4828 23.2656
# 2 83.0018 128.1472 21.3748 -6.8934 -8.0225 26.6891
# 3 20.3036 21.3748 36.0920 -1.9198 3.3468 13.2780
# 4 15.1587 -6.8934 -1.9198 21.2415 4.9693 -10.1468
# 5 -9.4828 -8.0225 3.3468 4.9693 14.5959 -1.7111
# 6 23.2656 26.6891 13.2780 -10.1468 -1.7111 55.6056
#
#
#
# Elastic Compliance Matrix: (Units=1/GPa)
#
#
# Indices 1 2 3 4 5 6 
#
# 1 0.015636 -0.008771 -0.004122 -0.019427 0.012368 -0.004512
# 2 -0.008771 0.014643 -0.002827 0.010543 -0.000683 -0.000781
# 3 -0.004122 -0.002827 0.035126 0.006532 -0.015046 -0.004578
# 4 -0.019427 0.010543 0.006532 0.080067 -0.033816 0.015078
# 5 0.012368 -0.000683 -0.015046 -0.033816 0.090592 -0.004637
# 6 -0.004512 -0.000781 -0.004578 0.015078 -0.004637 0.023948
#
#
# Mechanical properties :
#
#
# Convention : Reuss Voigt Hill
#
# Bulk Modulus (GPa) = 29.44048 62.50147 45.97098
# Shear Modulus (GPa) = 16.51396 30.85342 23.68369
#
# Velocity S-wave (km/s) = 2.57075 3.51388 3.07865
# Velocity P-wave (km/s) = 4.53802 6.44017 5.57088
#
# Compressibility (1/GPa) = 0.03396684
#
# Stress axis : x y z
#
# Youngs Moduli (GPa) = 63.95359 68.29154 28.46862
#
# Poissons Ratio (x) = 0.59900 0.11734
# Poissons Ratio (y) = 0.56095 0.08047
# Poissons Ratio (z) = 0.26360 0.19303
#
# Static dielectric constant tensor:
#      x y z
#    x 2.037190 -0.082040 -0.053040 
#    y -0.082040 2.039210 0.082490 
#    z -0.053040 0.082490 2.058860 
# 
# From -- ./inp_files/34614.got.cif
#   From: 2010.05.17/outbox.cif.g08.bks.cpg/sg2_18_cif.got.tgz:34614.got - 2010.06.03 11:33:40.
