data_PCOD9002590
_publ_section_title
;
Structure prediction by ZEFSAII (Michael W. Deem and Ramdas Pophale) SiO2 
 PCOD9002590
Probable space group: P -1
;
_chemical_formula_sum "Si O2"
_cell_formula_units_Z 10
_cell_length_a 8.245108
_cell_length_b 6.483939
_cell_length_c 11.073563
_cell_angle_alpha 106.655562
_cell_angle_beta 120.549672
_cell_angle_gamma 55.385054
_cell_volume 419.578007
_symmetry_space_group_name_H-M "P -1"
_symmetry_group_IT_number 2
_symmetry_cell_setting 'triclinic'
loop_
_space_group_symop_operation_xyz
x,y,z
-x,-y,-z
loop_
_atom_site_type_symbol
_atom_site_label
_atom_site_fract_x
_atom_site_fract_y
_atom_site_fract_z
Si Si1 0.912232 0.952120 0.834076
Si Si2 0.776570 0.755953 0.431580
Si Si3 0.370927 0.734776 0.903057
Si Si4 0.386847 0.744188 0.418010
Si Si5 0.445802 0.065762 0.169477
O O1 0.746594 0.852984 0.789218
O O2 0.128618 0.778409 0.808891
O O3 0.771478 0.205849 0.747259
O O4 0.000000 0.000000 0.000000
O O5 0.592234 0.745765 0.438387
O O6 0.000000 0.500000 0.500000
O O7 0.760917 0.011153 0.514361
O O8 0.669118 0.833127 0.270262
O O9 0.490454 0.738877 0.826497
O O10 0.500000 0.500000 0.000000
O O11 0.358914 0.966421 0.011579
O O12 0.500000 0.500000 0.500000
#
# Coordination Sequence:
#
# PCOD9002590 Si02
#       5
#     2   2   2   2   2
#     4   9  20  40  61  88 125 160 208 262 316 367
#     4  10  23  40  63  91 129 168 208 261 320 375
#     4  10  21  36  62  90 118 162 211 252 313 384
#     4  10  23  42  63  94 127 167 217 257 316 389
#     4   9  21  40  55  89 126 156 207 258 314 370
#
# _framework density 23.833473000000001
#
# number of rings (size 3 to 8) (size 9 to 14) (size 15 to 20)
#    0.000    2.400    0.000    0.000    5.600    6.400 
#    0.000    0.000    0.000    0.000    0.000    0.000 
#    0.000    0.000    0.000    0.000    0.000    0.000 
#
# Total GULP energy -55772.843786 kJ/mol
# GULP energy per Si atom -5577.284379 kJ/mol
# Density = 2.377923 g / cm^3
# Si number density = 23.833473 Si / 1000 Ang^3
#
#
#
# Elastic Constant Matrix: (Units=GPa)
#
#
# Indices 1 2 3 4 5 6 
#
# 1 175.8539 58.0829 33.7512 -49.0456 -0.6011 4.7226
# 2 58.0829 120.2626 50.6566 -50.1906 3.4288 -5.7009
# 3 33.7512 50.6566 146.0756 -39.9474 4.8354 -0.0909
# 4 -49.0456 -50.1906 -39.9474 49.9821 -0.8409 -4.8436
# 5 -0.6011 3.4288 4.8354 -0.8409 29.4182 -23.7040
# 6 4.7226 -5.7009 -0.0909 -4.8436 -23.7040 31.8117
#
#
#
# Elastic Compliance Matrix: (Units=1/GPa)
#
#
# Indices 1 2 3 4 5 6 
#
# 1 0.007929 -0.001083 0.000464 0.007075 0.000447 0.000040
# 2 -0.001083 0.016056 -0.001431 0.015118 0.007691 0.011067
# 3 0.000464 -0.001431 0.008953 0.006097 -0.001538 -0.000517
# 4 0.007075 0.015118 0.006097 0.049271 0.015476 0.020710
# 5 0.000447 0.007691 -0.001538 0.015476 0.091974 0.072197
# 6 0.000040 0.011067 -0.000517 0.020710 0.072197 0.090361
#
#
# Mechanical properties :
#
#
# Convention : Reuss Voigt Hill
#
# Bulk Modulus (GPa) = 34.67785 80.79705 57.73745
# Shear Modulus (GPa) = 17.96907 42.22249 30.09578
#
# Velocity S-wave (km/s) = 2.74878 4.21356 3.55738
# Velocity P-wave (km/s) = 4.96548 7.59252 6.41492
#
# Compressibility (1/GPa) = 0.02883685
#
# Stress axis : x y z
#
# Youngs Moduli (GPa) = 126.12201 62.28347 111.69504
#
# Poissons Ratio (x) = 0.06744 -0.05177
# Poissons Ratio (y) = 0.13657 0.15983
# Poissons Ratio (z) = -0.05846 0.08913
#
# Static dielectric constant tensor:
#      x y z
#    x 1.986560 -0.027220 -0.049710 
#    y -0.027220 1.967420 0.077220 
#    z -0.049710 0.077220 1.973910 
# 
# From -- ./inp_files/19390.got.cif
#   From: 2010.05.17/outbox.cif.g08.bks.cpg/sg2_10_cif.got.tgz:19390.got - 2010.06.03 11:33:40.
