data_PCOD9002411
_publ_section_title
;
Structure prediction by ZEFSAII (Michael W. Deem and Ramdas Pophale) SiO2 
 PCOD9002411
Probable space group: P -1
;
_chemical_formula_sum "Si O2"
_cell_formula_units_Z 16
_cell_length_a 11.818069
_cell_length_b 9.363073
_cell_length_c 9.435030
_cell_angle_alpha 96.591882
_cell_angle_beta 120.299107
_cell_angle_gamma 63.798851
_cell_volume 800.896898
_symmetry_space_group_name_H-M "P -1"
_symmetry_group_IT_number 2
_symmetry_cell_setting 'triclinic'
loop_
_space_group_symop_operation_xyz
x,y,z
-x,-y,-z
loop_
_atom_site_type_symbol
_atom_site_label
_atom_site_fract_x
_atom_site_fract_y
_atom_site_fract_z
Si Si1 0.624508 0.852580 0.283955
Si Si2 0.631888 0.093794 0.547685
Si Si3 0.816113 0.263573 0.632419
Si Si4 0.699961 0.033807 0.913532
Si Si5 0.978867 0.576877 0.838497
Si Si6 0.324890 0.375006 0.473761
Si Si7 0.891048 0.185085 0.991633
Si Si8 0.126680 0.229149 0.789437
O O1 0.463259 0.909584 0.124818
O O2 0.671430 0.681875 0.369356
O O3 0.747015 0.847042 0.254531
O O4 0.609454 0.969355 0.419569
O O5 0.750638 0.139122 0.555484
O O6 0.686673 0.028935 0.733607
O O7 0.479756 0.254659 0.489719
O O8 0.707934 0.440708 0.533226
O O9 0.829287 0.271915 0.812671
O O10 0.977398 0.213808 0.667541
O O11 0.765359 0.161474 0.995127
O O12 0.806492 0.865070 0.032176
O O13 0.811624 0.635476 0.691440
O O14 0.077349 0.419055 0.790407
O O15 0.000000 0.500000 0.000000
O O16 0.031591 0.715663 0.878349
O O17 0.000000 0.000000 0.000000
#
# Coordination Sequence:
#
# PCOD9002411 Si02
#       8
#     2   2   2   2   2   2   2   2
#     4  11  25  38  59  89 123 168 188 243 296 356
#     4  10  23  36  64  90 116 160 198 242 299 345
#     4  10  21  36  60  92 116 155 193 256 294 341
#     4  10  21  40  61  88 121 156 203 247 284 349
#     4  11  22  36  64  92 112 158 192 247 296 346
#     4  10  21  39  60  85 125 150 204 238 294 360
#     4  11  20  34  62  93 114 142 202 255 288 337
#     4  11  23  41  60  88 126 153 204 240 297 352
#
# _framework density 19.977602000000001
#
# number of rings (size 3 to 8) (size 9 to 14) (size 15 to 20)
#    0.000    1.500    3.750    2.250    8.750    2.500 
#    0.000    1.875    0.000    0.000    0.000    0.000 
#    0.000    0.000    0.000    0.000    0.000    0.000 
#
# Total GULP energy -89340.675193 kJ/mol
# GULP energy per Si atom -5583.792200 kJ/mol
# Density = 1.993213 g / cm^3
# Si number density = 19.977602 Si / 1000 Ang^3
#
#
#
# Elastic Constant Matrix: (Units=GPa)
#
#
# Indices 1 2 3 4 5 6 
#
# 1 135.3496 46.8615 14.2728 3.2874 12.5441 1.2720
# 2 46.8615 78.2502 24.9512 -22.5510 6.3054 15.5498
# 3 14.2728 24.9512 36.8668 -16.6030 11.8173 -3.0132
# 4 3.2874 -22.5510 -16.6030 31.6569 4.6989 9.6566
# 5 12.5441 6.3054 11.8173 4.6989 26.6420 3.1957
# 6 1.2720 15.5498 -3.0132 9.6566 3.1957 35.1549
#
#
#
# Elastic Compliance Matrix: (Units=1/GPa)
#
#
# Indices 1 2 3 4 5 6 
#
# 1 0.012082 -0.012218 -0.001325 -0.013122 -0.000919 0.008542
# 2 -0.012218 0.036539 -0.007107 0.031469 -0.002323 -0.024762
# 3 -0.001325 -0.007107 0.052452 0.025492 -0.025819 0.003032
# 4 -0.013122 0.031469 0.025492 0.081831 -0.023215 -0.031627
# 5 -0.000919 -0.002323 -0.025819 -0.023215 0.054027 0.000314
# 6 0.008542 -0.024762 0.003032 -0.031627 0.000314 0.048008
#
#
# Mechanical properties :
#
#
# Convention : Reuss Voigt Hill
#
# Bulk Modulus (GPa) = 16.72999 46.95972 31.84486
# Shear Modulus (GPa) = 14.44407 29.64951 22.04679
#
# Velocity S-wave (km/s) = 2.69181 3.85663 3.32561
# Velocity P-wave (km/s) = 4.24896 6.58701 5.54267
#
# Compressibility (1/GPa) = 0.05977289
#
# Stress axis : x y z
#
# Youngs Moduli (GPa) = 82.76928 27.36774 19.06518
#
# Poissons Ratio (x) = 0.33437 0.02527
# Poissons Ratio (y) = 1.01126 0.13549
# Poissons Ratio (z) = 0.10969 0.19450
#
# Static dielectric constant tensor:
#      x y z
#    x 1.751870 0.002600 0.017050 
#    y 0.002600 1.704870 -0.011300 
#    z 0.017050 -0.011300 1.705670 
# 
# From -- ./inp_files/244715.got.cif
#   From: 2010.05.17/outbox.cif.g08.bks.cpg/sg2_123_cif.got.tgz:244715.got - 2010.06.03 11:33:40.
