data_PCOD9002811
_publ_section_title
;
Structure prediction by ZEFSAII (Michael W. Deem and Ramdas Pophale) SiO2 
 PCOD9002811
Probable space group: P -1
;
_chemical_formula_sum "Si O2"
_cell_formula_units_Z 14
_cell_length_a 21.797524
_cell_length_b 10.637188
_cell_length_c 7.132276
_cell_angle_alpha 136.767414
_cell_angle_beta 133.261526
_cell_angle_gamma 32.666256
_cell_volume 599.684458
_symmetry_space_group_name_H-M "P -1"
_symmetry_group_IT_number 2
_symmetry_cell_setting 'triclinic'
loop_
_space_group_symop_operation_xyz
x,y,z
-x,-y,-z
loop_
_atom_site_type_symbol
_atom_site_label
_atom_site_fract_x
_atom_site_fract_y
_atom_site_fract_z
Si Si1 0.120484 0.684617 0.253047
Si Si2 0.309058 0.149763 0.150190
Si Si3 0.646035 0.211522 0.609681
Si Si4 0.273777 0.289139 0.645840
Si Si5 0.034649 0.796324 0.619668
Si Si6 0.211614 0.925583 0.608498
Si Si7 0.535240 0.727567 0.942873
O O1 0.208351 0.390085 0.071057
O O2 0.065638 0.726948 0.387734
O O3 0.201092 0.746441 0.494378
O O4 0.014589 0.920839 0.160542
O O5 0.305867 0.255905 0.456205
O O6 0.267816 0.002163 0.929609
O O7 0.434268 0.960164 0.113499
O O8 0.603383 0.456963 0.893603
O O9 0.532270 0.270810 0.366458
O O10 0.723497 0.931169 0.546820
O O11 0.713274 0.191179 0.548622
O O12 0.149982 0.568567 0.719820
O O13 0.374287 0.256419 0.917292
O O14 0.923113 0.837043 0.467313
#
# Coordination Sequence:
#
# PCOD9002811 Si02
#       7
#     2   2   2   2   2   2   2
#     4   8  17  36  57  87 114 152 185 233 281 339
#     4  10  21  36  65  89 110 152 197 236 290 327
#     4  10  23  40  59  82 117 159 191 231 296 339
#     4  11  22  37  59  93 117 145 190 247 289 337
#     4   8  18  38  58  86 121 146 192 231 289 340
#     4   9  19  38  59  85 117 154 191 226 280 357
#     4  10  23  42  57  81 116 158 198 233 282 350
#
# _framework density 23.345611999999999
#
# number of rings (size 3 to 8) (size 9 to 14) (size 15 to 20)
#    0.857    1.714    0.000    0.857    0.000   11.429 
#    2.571    0.714    0.000    0.000    0.000    0.000 
#    0.000    0.000    0.000    0.000    0.000    0.000 
#
# Total GULP energy -78075.345360 kJ/mol
# GULP energy per Si atom -5576.810383 kJ/mol
# Density = 2.329248 g / cm^3
# Si number density = 23.345612 Si / 1000 Ang^3
#
#
#
# Elastic Constant Matrix: (Units=GPa)
#
#
# Indices 1 2 3 4 5 6 
#
# 1 74.0228 48.0133 23.5730 -1.3098 10.5401 -22.8597
# 2 48.0133 140.3304 11.6503 31.4650 -3.1128 -16.5576
# 3 23.5730 11.6503 33.5389 8.2852 2.4660 -12.0769
# 4 -1.3098 31.4650 8.2852 36.7713 -3.4894 5.6403
# 5 10.5401 -3.1128 2.4660 -3.4894 28.3911 0.7420
# 6 -22.8597 -16.5576 -12.0769 5.6403 0.7420 42.5266
#
#
#
# Elastic Compliance Matrix: (Units=1/GPa)
#
#
# Indices 1 2 3 4 5 6 
#
# 1 0.029310 -0.011075 -0.017475 0.012835 -0.009129 0.004938
# 2 -0.011075 0.013968 0.007461 -0.014257 0.003153 0.003440
# 3 -0.017475 0.007461 0.047645 -0.019157 0.000562 0.009573
# 4 0.012835 -0.014257 -0.019157 0.045849 0.001237 -0.010194
# 5 -0.009129 0.003153 0.000562 0.001237 0.039174 -0.004368
# 6 0.004938 0.003440 0.009573 -0.010194 -0.004368 0.031655
#
#
# Mechanical properties :
#
#
# Convention : Reuss Voigt Hill
#
# Bulk Modulus (GPa) = 20.51521 46.04060 33.27790
# Shear Modulus (GPa) = 18.79506 32.51485 25.65495
#
# Velocity S-wave (km/s) = 2.84047 3.73602 3.31859
# Velocity P-wave (km/s) = 4.42316 6.19472 5.38233
#
# Compressibility (1/GPa) = 0.04874431
#
# Stress axis : x y z
#
# Youngs Moduli (GPa) = 34.11839 71.59036 20.98874
#
# Poissons Ratio (x) = 0.79287 0.36677
# Poissons Ratio (y) = 0.37786 -0.15659
# Poissons Ratio (z) = 0.59621 -0.53411
#
# Static dielectric constant tensor:
#      x y z
#    x 1.843620 0.056450 -0.053980 
#    y 0.056450 1.982310 -0.004660 
#    z -0.053980 -0.004660 1.887810 
# 
# From -- ./inp_files/353267.got.cif
#   From: 2010.05.17/outbox.cif.g08.bks.cpg/sg2_177_cif.got.tgz:353267.got - 2010.06.03 11:33:40.
