data_PCOD9002776
_publ_section_title
;
Structure prediction by ZEFSAII (Michael W. Deem and Ramdas Pophale) SiO2 
 PCOD9002776
Probable space group: P -1
;
_chemical_formula_sum "Si O2"
_cell_formula_units_Z 14
_cell_length_a 9.509488
_cell_length_b 22.325779
_cell_length_c 11.248979
_cell_angle_alpha 28.565903
_cell_angle_beta 141.473411
_cell_angle_gamma 147.993982
_cell_volume 598.576791
_symmetry_space_group_name_H-M "P -1"
_symmetry_group_IT_number 2
_symmetry_cell_setting 'triclinic'
loop_
_space_group_symop_operation_xyz
x,y,z
-x,-y,-z
loop_
_atom_site_type_symbol
_atom_site_label
_atom_site_fract_x
_atom_site_fract_y
_atom_site_fract_z
Si Si1 0.924453 0.990886 0.712698
Si Si2 0.578921 0.880717 0.332145
Si Si3 0.692800 0.281282 0.243368
Si Si4 0.784888 0.229864 0.145782
Si Si5 0.441091 0.373190 0.087248
Si Si6 0.082807 0.660751 0.226422
Si Si7 0.733655 0.048655 0.808574
O O1 0.131906 0.001397 0.733538
O O2 0.929374 0.142940 0.431796
O O3 0.620342 0.856439 0.729914
O O4 0.047554 0.973828 0.945750
O O5 0.610077 0.765247 0.629530
O O6 0.360782 0.782166 0.259379
O O7 0.451604 0.945799 0.219837
O O8 0.790950 0.322097 0.102678
O O9 0.673417 0.400171 0.103032
O O10 0.833693 0.203249 0.535704
O O11 0.475694 0.093868 0.158587
O O12 0.885179 0.313530 0.939993
O O13 0.500000 0.500000 0.000000
O O14 0.170667 0.332280 0.913863
O O15 0.000000 0.500000 0.500000
#
# Coordination Sequence:
#
# PCOD9002776 Si02
#       7
#     2   2   2   2   2   2   2
#     4  11  20  37  65  95 131 168 198 255 322 375
#     4  11  22  37  63 101 124 160 218 261 304 372
#     4  10  25  40  61  97 134 159 208 258 317 380
#     4  11  24  40  60  97 132 164 205 261 315 378
#     4  11  23  44  68  86 122 173 217 262 309 361
#     4  12  24  42  68  89 122 167 221 264 300 368
#     4  10  21  36  64  94 134 161 205 249 319 378
#
# _framework density 23.388812000000001
#
# number of rings (size 3 to 8) (size 9 to 14) (size 15 to 20)
#    0.000    1.143    4.286    3.000    2.000    4.000 
#    0.000    1.429    0.000    0.000    0.000    0.000 
#    0.000    0.000    0.000    0.000    0.000    0.000 
#
# Total GULP energy -78324.702946 kJ/mol
# GULP energy per Si atom -5594.621639 kJ/mol
# Density = 2.333558 g / cm^3
# Si number density = 23.388812 Si / 1000 Ang^3
#
#
#
# Elastic Constant Matrix: (Units=GPa)
#
#
# Indices 1 2 3 4 5 6 
#
# 1 138.5415 30.4818 42.1216 -9.2569 -18.6281 -19.1162
# 2 30.4818 81.5716 37.0030 4.8296 0.2808 -3.1263
# 3 42.1216 37.0030 178.1502 21.3903 -0.4760 -4.3028
# 4 -9.2569 4.8296 21.3903 39.9102 -2.4133 1.1078
# 5 -18.6281 0.2808 -0.4760 -2.4133 23.9858 0.4010
# 6 -19.1162 -3.1263 -4.3028 1.1078 0.4010 38.3389
#
#
#
# Elastic Compliance Matrix: (Units=1/GPa)
#
#
# Indices 1 2 3 4 5 6 
#
# 1 0.010691 -0.003073 -0.002293 0.004477 0.008667 0.004603
# 2 -0.003073 0.014445 -0.002116 -0.001478 -0.002738 -0.000521
# 3 -0.002293 -0.002116 0.007083 -0.004184 -0.002030 -0.000379
# 4 0.004477 -0.001478 -0.004184 0.028876 0.006304 0.000742
# 5 0.008667 -0.002738 -0.002030 0.006304 0.048995 0.003176
# 6 0.004603 -0.000521 -0.000379 0.000742 0.003176 0.028239
#
#
# Mechanical properties :
#
#
# Convention : Reuss Voigt Hill
#
# Bulk Modulus (GPa) = 57.95786 68.60844 63.28315
# Shear Modulus (GPa) = 31.43803 39.69079 35.56441
#
# Velocity S-wave (km/s) = 3.67024 4.12393 3.90368
# Velocity P-wave (km/s) = 6.54178 7.21619 6.88724
#
# Compressibility (1/GPa) = 0.01725391
#
# Stress axis : x y z
#
# Youngs Moduli (GPa) = 93.53846 69.23045 141.19184
#
# Poissons Ratio (x) = 0.21278 0.32368
# Poissons Ratio (y) = 0.28749 0.29876
# Poissons Ratio (z) = 0.21444 0.14649
#
# Static dielectric constant tensor:
#      x y z
#    x 1.959310 -0.045780 0.004560 
#    y -0.045780 1.896760 -0.012040 
#    z 0.004560 -0.012040 1.896380 
# 
# From -- ./inp_files/406176.got.cif
#   From: 2010.05.17/outbox.cif.g08.bks.cpg/sg2_204_cif.got.tgz:406176.got - 2010.06.03 11:33:40.
