data_PCOD9002470
_publ_section_title
;
Structure prediction by ZEFSAII (Michael W. Deem and Ramdas Pophale) SiO2 
 PCOD9002470
Probable space group: P -1
;
_chemical_formula_sum "Si O2"
_cell_formula_units_Z 16
_cell_length_a 11.759229
_cell_length_b 22.591568
_cell_length_c 6.404125
_cell_angle_alpha 80.663895
_cell_angle_beta 65.078964
_cell_angle_gamma 29.037496
_cell_volume 661.669410
_symmetry_space_group_name_H-M "P -1"
_symmetry_group_IT_number 2
_symmetry_cell_setting 'triclinic'
loop_
_space_group_symop_operation_xyz
x,y,z
-x,-y,-z
loop_
_atom_site_type_symbol
_atom_site_label
_atom_site_fract_x
_atom_site_fract_y
_atom_site_fract_z
Si Si1 0.573589 0.693908 0.690116
Si Si2 0.474804 0.089168 0.708500
Si Si3 0.242842 0.686644 0.411374
Si Si4 0.060224 0.651308 0.323184
Si Si5 0.056763 0.540313 0.174911
Si Si6 0.962915 0.121810 0.837374
Si Si7 0.750093 0.935390 0.972002
Si Si8 0.768724 0.499944 0.368003
O O1 0.776759 0.588230 0.787540
O O2 0.604299 0.622258 0.556504
O O3 0.737818 0.674194 0.445463
O O4 0.252249 0.837889 0.944546
O O5 0.192129 0.225104 0.715042
O O6 0.548838 0.065275 0.911536
O O7 0.448632 0.027176 0.774094
O O8 0.733284 0.012990 0.439170
O O9 0.207810 0.647596 0.296536
O O10 0.215187 0.759435 0.254351
O O11 0.522250 0.565896 0.411794
O O12 0.972224 0.806496 0.714941
O O13 0.217712 0.530904 0.139859
O O14 0.021594 0.630527 0.579154
O O15 0.059319 0.543587 0.926499
O O16 0.056342 0.114979 0.980312
#
# Coordination Sequence:
#
# PCOD9002470 Si02
#       8
#     2   2   2   2   2   2   2   2
#     4  10  21  42  65  90 113 155 219 252 287 351
#     4  10  23  37  58  90 123 162 203 239 300 363
#     4  11  22  36  59  96 125 155 197 242 305 371
#     4  11  25  38  57  93 131 161 191 241 307 376
#     4  10  23  41  63  86 122 163 200 252 299 350
#     4  11  20  38  64  90 118 156 204 258 292 343
#     4  10  21  36  61  86 123 162 202 246 292 350
#     4  11  22  39  61  93 122 162 195 247 309 354
#
# _framework density 24.181258
#
# number of rings (size 3 to 8) (size 9 to 14) (size 15 to 20)
#    0.000    1.500    3.750    1.125    5.250    0.500 
#    0.000    0.625    0.000    1.500    0.000    0.000 
#    0.000    0.000    0.000    0.000    0.000    0.000 
#
# Total GULP energy -89201.384381 kJ/mol
# GULP energy per Si atom -5575.086524 kJ/mol
# Density = 2.412622 g / cm^3
# Si number density = 24.181258 Si / 1000 Ang^3
#
#
#
# Elastic Constant Matrix: (Units=GPa)
#
#
# Indices 1 2 3 4 5 6 
#
# 1 51.8399 8.5824 9.0183 -0.8544 4.2421 -7.4115
# 2 8.5824 82.6048 43.7727 -18.3364 2.1790 -14.3438
# 3 9.0183 43.7727 123.5399 -15.3380 -8.8271 -13.4978
# 4 -0.8544 -18.3364 -15.3380 37.4251 -14.0534 1.8120
# 5 4.2421 2.1790 -8.8271 -14.0534 34.9572 -0.3179
# 6 -7.4115 -14.3438 -13.4978 1.8120 -0.3179 25.6931
#
#
#
# Elastic Compliance Matrix: (Units=1/GPa)
#
#
# Indices 1 2 3 4 5 6 
#
# 1 0.020607 -0.001080 -0.001094 -0.002054 -0.003491 0.004868
# 2 -0.001080 0.017105 -0.004432 0.006451 0.000598 0.006462
# 3 -0.001094 -0.004432 0.010864 0.003908 0.004748 0.002701
# 4 -0.002054 0.006451 0.003908 0.037254 0.015835 0.002631
# 5 -0.003491 0.000598 0.004748 0.015835 0.036568 0.001157
# 6 0.004868 0.006462 0.002701 0.002631 0.001157 0.045180
#
#
# Mechanical properties :
#
#
# Convention : Reuss Voigt Hill
#
# Bulk Modulus (GPa) = 28.27693 42.30349 35.29021
# Shear Modulus (GPa) = 25.96332 32.72248 29.34290
#
# Velocity S-wave (km/s) = 3.28029 3.68260 3.48725
# Velocity P-wave (km/s) = 5.10550 5.96778 5.55340
#
# Compressibility (1/GPa) = 0.03536452
#
# Stress axis : x y z
#
# Youngs Moduli (GPa) = 48.52696 58.46275 92.04363
#
# Poissons Ratio (x) = 0.06311 0.10072
# Poissons Ratio (y) = 0.05239 0.40795
# Poissons Ratio (z) = 0.05310 0.25912
#
# Static dielectric constant tensor:
#      x y z
#    x 1.972730 0.005170 -0.002590 
#    y 0.005170 1.952720 0.052040 
#    z -0.002590 0.052040 1.975830 
# 
# From -- ./inp_files/84282.got.cif
#   From: 2010.05.17/outbox.cif.g08.bks.cpg/sg2_43_cif.got.tgz:84282.got - 2010.06.03 11:33:40.
