data_PCOD9002220
_publ_section_title
;
Structure prediction by ZEFSAII (Michael W. Deem and Ramdas Pophale) SiO2 
 PCOD9002220
Probable space group: P -1
;
_chemical_formula_sum "Si O2"
_cell_formula_units_Z 16
_cell_length_a 5.414648
_cell_length_b 14.202046
_cell_length_c 15.525941
_cell_angle_alpha 38.251189
_cell_angle_beta 71.667410
_cell_angle_gamma 58.676633
_cell_volume 621.443903
_symmetry_space_group_name_H-M "P -1"
_symmetry_group_IT_number 2
_symmetry_cell_setting 'triclinic'
loop_
_space_group_symop_operation_xyz
x,y,z
-x,-y,-z
loop_
_atom_site_type_symbol
_atom_site_label
_atom_site_fract_x
_atom_site_fract_y
_atom_site_fract_z
Si Si1 0.218928 0.342997 0.937226
Si Si2 0.294308 0.958585 0.446316
Si Si3 0.395678 0.342535 0.255763
Si Si4 0.516613 0.724629 0.423795
Si Si5 0.831363 0.897390 0.005964
Si Si6 0.465606 0.810862 0.812920
Si Si7 0.028200 0.133246 0.732435
Si Si8 0.645355 0.426669 0.747113
O O1 0.414622 0.352959 0.829405
O O2 0.923292 0.520534 0.841510
O O3 0.166639 0.181097 0.033624
O O4 0.393924 0.300840 0.037678
O O5 0.558910 0.826053 0.574277
O O6 0.335062 0.855051 0.427560
O O7 0.309348 0.130639 0.296913
O O8 0.000000 0.000000 0.500000
O O9 0.600222 0.283451 0.191100
O O10 0.455739 0.448376 0.247955
O O11 0.293383 0.748169 0.355057
O O12 0.637632 0.538281 0.586918
O O13 0.773026 0.774320 0.336941
O O14 0.984337 0.019967 0.892616
O O15 0.037660 0.727850 0.157928
O O16 0.500000 0.000000 0.000000
O O17 0.207245 0.990521 0.742979
#
# Coordination Sequence:
#
# PCOD9002220 Si02
#       8
#     2   2   2   2   2   2   2   2
#     4  11  24  44  64  99 137 176 231 283 350 417
#     4  10  21  36  58  94 129 188 240 274 319 396
#     4  10  23  37  61  92 136 185 228 268 334 398
#     4  10  24  41  71  94 148 183 227 288 347 402
#     4  11  25  48  75  98 130 174 230 295 357 424
#     4  11  22  39  63  96 139 182 229 281 326 399
#     4  11  23  46  68 106 135 187 233 287 344 412
#     4  10  24  43  66 101 136 185 223 281 350 411
#
# _framework density 25.746490000000001
#
# number of rings (size 3 to 8) (size 9 to 14) (size 15 to 20)
#    0.000    1.500    1.250    3.000   10.500    1.000 
#    0.000    1.250    0.000    0.000    0.000    0.000 
#    0.000    0.000    0.000    0.000    0.000    0.000 
#
# Total GULP energy -89636.210658 kJ/mol
# GULP energy per Si atom -5602.263166 kJ/mol
# Density = 2.568789 g / cm^3
# Si number density = 25.746490 Si / 1000 Ang^3
#
#
#
# Elastic Constant Matrix: (Units=GPa)
#
#
# Indices 1 2 3 4 5 6 
#
# 1 110.4316 26.1323 65.6470 -0.0759 -6.1156 -14.7199
# 2 26.1323 108.5649 18.1479 11.2167 -10.1111 15.6430
# 3 65.6470 18.1479 179.3789 8.1781 -2.9143 -12.5005
# 4 -0.0759 11.2167 8.1781 23.4550 -7.9410 -7.0658
# 5 -6.1156 -10.1111 -2.9143 -7.9410 47.4498 8.7957
# 6 -14.7199 15.6430 -12.5005 -7.0658 8.7957 36.3962
#
#
#
# Elastic Compliance Matrix: (Units=1/GPa)
#
#
# Indices 1 2 3 4 5 6 
#
# 1 0.013495 -0.004050 -0.004311 0.005615 0.000303 0.006735
# 2 -0.004050 0.012572 -0.000028 -0.007930 0.002534 -0.009203
# 3 -0.004311 -0.000028 0.007294 -0.002632 -0.000631 0.000416
# 4 0.005615 -0.007930 -0.002632 0.053307 0.005224 0.013862
# 5 0.000303 0.002534 -0.000631 0.005224 0.023577 -0.005867
# 6 0.006735 -0.009203 0.000416 0.013862 -0.005867 0.038406
#
#
# Mechanical properties :
#
#
# Convention : Reuss Voigt Hill
#
# Bulk Modulus (GPa) = 60.30416 68.69220 64.49818
# Shear Modulus (GPa) = 29.24721 40.69009 34.96865
#
# Velocity S-wave (km/s) = 3.37407 3.97975 3.68936
# Velocity P-wave (km/s) = 6.21709 6.91781 6.57679
#
# Compressibility (1/GPa) = 0.01658260
#
# Stress axis : x y z
#
# Youngs Moduli (GPa) = 74.10404 79.54149 137.10091
#
# Poissons Ratio (x) = 0.32214 0.59098
# Poissons Ratio (y) = 0.30012 0.00389
# Poissons Ratio (z) = 0.31943 0.00226
#
# Static dielectric constant tensor:
#      x y z
#    x 2.043150 0.058070 -0.001640 
#    y 0.058070 2.048560 0.007240 
#    z -0.001640 0.007240 1.989630 
# 
# From -- ./inp_files/138736.got.cif
#   From: 2010.05.17/outbox.cif.g08.bks.cpg/sg2_70_cif.got.tgz:138736.got - 2010.06.03 11:33:40.
