data_PCOD9002759
_publ_section_title
;
Structure prediction by ZEFSAII (Michael W. Deem and Ramdas Pophale) SiO2 
 PCOD9002759
Probable space group: P -1
;
_chemical_formula_sum "Si O2"
_cell_formula_units_Z 16
_cell_length_a 13.364835
_cell_length_b 13.736403
_cell_length_c 13.689413
_cell_angle_alpha 127.087783
_cell_angle_beta 31.475025
_cell_angle_gamma 145.881582
_cell_volume 688.961088
_symmetry_space_group_name_H-M "P -1"
_symmetry_group_IT_number 2
_symmetry_cell_setting 'triclinic'
loop_
_space_group_symop_operation_xyz
x,y,z
-x,-y,-z
loop_
_atom_site_type_symbol
_atom_site_label
_atom_site_fract_x
_atom_site_fract_y
_atom_site_fract_z
Si Si1 0.839204 0.547267 0.295396
Si Si2 0.447799 0.876718 0.052818
Si Si3 0.355430 0.278673 0.402928
Si Si4 0.279876 0.740316 0.317467
Si Si5 0.639258 0.359364 0.553923
Si Si6 0.065193 0.077072 0.340259
Si Si7 0.780009 0.062112 0.382185
Si Si8 0.645038 0.684571 0.046753
O O1 0.683873 0.426628 0.254820
O O2 0.798589 0.673746 0.399028
O O3 0.657321 0.419699 0.465350
O O4 0.169608 0.670509 0.116619
O O5 0.347536 0.854688 0.233835
O O6 0.746759 0.949437 0.860754
O O7 0.500000 0.000000 0.000000
O O8 0.291378 0.257326 0.329213
O O9 0.194371 0.086621 0.470342
O O10 0.279915 0.830960 0.464093
O O11 0.510247 0.742513 0.144651
O O12 0.964804 0.527696 0.429965
O O13 0.444196 0.343821 0.782823
O O14 0.495334 0.156875 0.539296
O O15 0.954334 0.089391 0.345361
O O16 0.009617 0.163073 0.163898
O O17 0.500000 0.500000 0.000000
#
# Coordination Sequence:
#
# PCOD9002759 Si02
#       8
#     2   2   2   2   2   2   2   2
#     4  10  21  39  61  94 133 173 225 280 334 405
#     4  11  22  38  64  96 137 179 223 277 337 405
#     4  10  21  36  64  91 130 178 220 278 341 397
#     4  11  26  48  70 102 143 181 227 291 345 407
#     4  11  24  44  72 101 139 182 232 284 347 407
#     4  11  21  39  64  95 130 179 230 269 343 411
#     4  12  25  47  72 102 139 181 233 287 346 415
#     4  12  26  49  76 102 137 182 232 289 351 410
#
# _framework density 23.223371
#
# number of rings (size 3 to 8) (size 9 to 14) (size 15 to 20)
#    0.000    1.000    5.000    2.250    1.750    1.000 
#    2.250    1.250    0.000    0.000    0.000    0.000 
#    0.000    0.000    0.000    0.000    0.000    0.000 
#
# Total GULP energy -89404.966042 kJ/mol
# GULP energy per Si atom -5587.810378 kJ/mol
# Density = 2.317051 g / cm^3
# Si number density = 23.223371 Si / 1000 Ang^3
#
#
#
# Elastic Constant Matrix: (Units=GPa)
#
#
# Indices 1 2 3 4 5 6 
#
# 1 135.8413 27.9466 30.1997 0.9066 7.3053 4.7802
# 2 27.9466 117.2698 48.7902 1.4771 9.0364 5.9157
# 3 30.1997 48.7902 91.4242 2.5989 7.4172 -1.9708
# 4 0.9066 1.4771 2.5989 32.0917 -5.7119 2.1753
# 5 7.3053 9.0364 7.4172 -5.7119 31.3985 8.0975
# 6 4.7802 5.9157 -1.9708 2.1753 8.0975 30.4891
#
#
#
# Elastic Compliance Matrix: (Units=1/GPa)
#
#
# Indices 1 2 3 4 5 6 
#
# 1 0.008109 -0.000927 -0.002131 -0.000104 -0.000881 -0.000988
# 2 -0.000927 0.011307 -0.005675 -0.000102 -0.001176 -0.002096
# 3 -0.002131 -0.005675 0.014987 -0.001556 -0.002515 0.003183
# 4 -0.000104 -0.000102 -0.001556 0.032938 0.007553 -0.004421
# 5 -0.000881 -0.001176 -0.002515 0.007553 0.036980 -0.010157
# 6 -0.000988 -0.002096 0.003183 -0.004421 -0.010157 0.036579
#
#
# Mechanical properties :
#
#
# Convention : Reuss Voigt Hill
#
# Bulk Modulus (GPa) = 59.03922 62.04535 60.54229
# Shear Modulus (GPa) = 30.48590 34.63579 32.56085
#
# Velocity S-wave (km/s) = 3.62709 3.86608 3.74849
# Velocity P-wave (km/s) = 6.55885 6.83400 6.69784
#
# Compressibility (1/GPa) = 0.01693789
#
# Stress axis : x y z
#
# Youngs Moduli (GPa) = 123.32373 88.44192 66.72340
#
# Poissons Ratio (x) = 0.08198 0.14217
# Poissons Ratio (y) = 0.11431 0.37864
# Poissons Ratio (z) = 0.26277 0.50189
#
# Static dielectric constant tensor:
#      x y z
#    x 1.860180 0.000070 0.017100 
#    y 0.000070 1.916580 0.005340 
#    z 0.017100 0.005340 1.896360 
# 
# From -- ./inp_files/534366.got.cif
#   From: 2010.05.17/outbox.cif.g08.bks.cpg/sg2_268_cif.got.tgz:534366.got - 2010.06.03 11:33:40.
