data_PCOD9002094
_publ_section_title
;
Structure prediction by ZEFSAII (Michael W. Deem and Ramdas Pophale) SiO2 
 PCOD9002094
Probable space group: P -1
;
_chemical_formula_sum "Si O2"
_cell_formula_units_Z 14
_cell_length_a 16.477687
_cell_length_b 7.392873
_cell_length_c 6.842325
_cell_angle_alpha 58.067091
_cell_angle_beta 68.449998
_cell_angle_gamma 58.192993
_cell_volume 596.602199
_symmetry_space_group_name_H-M "P -1"
_symmetry_group_IT_number 2
_symmetry_cell_setting 'triclinic'
loop_
_space_group_symop_operation_xyz
x,y,z
-x,-y,-z
loop_
_atom_site_type_symbol
_atom_site_label
_atom_site_fract_x
_atom_site_fract_y
_atom_site_fract_z
Si Si1 0.246833 0.653787 0.102213
Si Si2 0.006704 0.689755 0.637835
Si Si3 0.497804 0.862684 0.319047
Si Si4 0.846912 0.680481 0.543072
Si Si5 0.056434 0.023450 0.125947
Si Si6 0.342123 0.235171 0.488245
Si Si7 0.450507 0.501591 0.837140
O O1 0.182308 0.506468 0.204986
O O2 0.169448 0.919641 0.038450
O O3 0.298195 0.517616 0.335284
O O4 0.335378 0.599019 0.910970
O O5 0.899474 0.777379 0.593621
O O6 0.073792 0.437030 0.630870
O O7 0.053160 0.844249 0.399033
O O8 0.998107 0.733018 0.850818
O O9 0.600333 0.842459 0.318675
O O10 0.473608 0.681910 0.579587
O O11 0.505822 0.753089 0.161508
O O12 0.417128 0.111566 0.317608
O O13 0.746484 0.828964 0.441263
O O14 0.000000 0.000000 0.000000
O O15 0.500000 0.500000 0.000000
#
# Coordination Sequence:
#
# PCOD9002094 Si02
#       7
#     2   2   2   2   2   2   2
#     4   9  20  38  56  82 120 145 190 237 283 327
#     4   9  18  37  60  78 115 153 181 233 288 324
#     4  10  22  37  62  83 111 155 194 223 294 340
#     4   8  17  36  59  79 110 154 181 229 286 330
#     4  10  21  36  57  87 113 149 192 230 281 344
#     4   9  19  40  55  84 115 146 193 233 275 347
#     4  11  21  39  58  86 116 150 187 245 276 336
#
# _framework density 23.466221999999998
#
# number of rings (size 3 to 8) (size 9 to 14) (size 15 to 20)
#    0.857    1.714    1.429    0.000    0.000    4.000 
#    0.000    7.857    0.000    0.000    0.000    0.000 
#    0.000    0.000    0.000    0.000    0.000    0.000 
#
# Total GULP energy -78029.395783 kJ/mol
# GULP energy per Si atom -5573.528270 kJ/mol
# Density = 2.341281 g / cm^3
# Si number density = 23.466222 Si / 1000 Ang^3
#
#
#
# Elastic Constant Matrix: (Units=GPa)
#
#
# Indices 1 2 3 4 5 6 
#
# 1 132.2165 33.7991 38.2368 26.3599 8.9407 -19.6741
# 2 33.7991 93.9682 29.6007 23.0134 25.3346 -11.8218
# 3 38.2368 29.6007 96.8082 31.8583 14.0139 2.5683
# 4 26.3599 23.0134 31.8583 40.1295 14.6457 3.0235
# 5 8.9407 25.3346 14.0139 14.6457 35.2649 -3.2105
# 6 -19.6741 -11.8218 2.5683 3.0235 -3.2105 36.5379
#
#
#
# Elastic Compliance Matrix: (Units=1/GPa)
#
#
# Indices 1 2 3 4 5 6 
#
# 1 0.010439 -0.001540 -0.002368 -0.005325 0.002151 0.005919
# 2 -0.001540 0.015314 -0.001795 -0.003715 -0.008004 0.003856
# 3 -0.002368 -0.001795 0.014864 -0.008850 -0.000543 -0.002216
# 4 -0.005325 -0.003715 -0.008850 0.042050 -0.010644 -0.007862
# 5 0.002151 -0.008004 -0.000543 -0.010644 0.038459 0.002867
# 6 0.005919 0.003856 -0.002216 -0.007862 0.002867 0.032862
#
#
# Mechanical properties :
#
#
# Convention : Reuss Voigt Hill
#
# Bulk Modulus (GPa) = 34.23569 58.47403 46.35486
# Shear Modulus (GPa) = 28.55008 37.14356 32.84682
#
# Velocity S-wave (km/s) = 3.49183 3.98282 3.74538
# Velocity P-wave (km/s) = 5.55681 6.79139 6.20488
#
# Compressibility (1/GPa) = 0.02920929
#
# Stress axis : x y z
#
# Youngs Moduli (GPa) = 95.79708 65.29870 67.27728
#
# Poissons Ratio (x) = 0.10056 0.15934
# Poissons Ratio (y) = 0.14752 0.12079
# Poissons Ratio (z) = 0.22688 0.11724
#
# Static dielectric constant tensor:
#      x y z
#    x 1.875370 0.032350 -0.040230 
#    y 0.032350 2.040330 -0.089960 
#    z -0.040230 -0.089960 1.942850 
# 
# From -- ./inp_files/103822.got.cif
#   From: 2010.05.17/outbox.cif.g08.bks.cpg/sg2_52_cif.got.tgz:103822.got - 2010.06.03 11:33:40.
