data_PCOD9002707
_publ_section_title
;
Structure prediction by ZEFSAII (Michael W. Deem and Ramdas Pophale) SiO2 
 PCOD9002707
Probable space group: P -1
;
_chemical_formula_sum "Si O2"
_cell_formula_units_Z 15
_cell_length_a 10.817960
_cell_length_b 12.619946
_cell_length_c 9.634903
_cell_angle_alpha 97.669366
_cell_angle_beta 110.814544
_cell_angle_gamma 139.063674
_cell_volume 607.901686
_symmetry_space_group_name_H-M "P -1"
_symmetry_group_IT_number 2
_symmetry_cell_setting 'triclinic'
loop_
_space_group_symop_operation_xyz
x,y,z
-x,-y,-z
loop_
_atom_site_type_symbol
_atom_site_label
_atom_site_fract_x
_atom_site_fract_y
_atom_site_fract_z
Si Si1 0.603641 0.023319 0.858544
Si Si2 0.500000 0.000000 0.500000
Si Si3 0.863429 0.093995 0.470215
Si Si4 0.121726 0.521779 0.211590
Si Si5 0.005112 0.622784 0.581169
Si Si6 0.680566 0.880560 0.060212
Si Si7 0.194326 0.258094 0.869627
Si Si8 0.846736 0.533078 0.072757
O O1 0.319074 0.857884 0.779416
O O2 0.546087 0.967801 0.663105
O O3 0.700929 0.985030 0.969629
O O4 0.822690 0.269762 0.010993
O O5 0.645687 0.001554 0.463172
O O6 0.056634 0.327412 0.541309
O O7 0.024841 0.128026 0.639055
O O8 0.789641 0.992716 0.274383
O O9 0.172430 0.502561 0.373905
O O10 0.261601 0.583081 0.139160
O O11 0.104324 0.640007 0.237777
O O12 0.000000 0.500000 0.500000
O O13 0.806935 0.854178 0.069715
O O14 0.372034 0.645030 0.932066
O O15 0.500000 0.500000 0.000000
O O16 0.098949 0.304699 0.900182
#
# Coordination Sequence:
#
# PCOD9002707 Si02
#       8
#     2   1   2   2   2   2   2   2
#     4  11  22  41  62 100 129 174 210 266 340 392
#     4  10  24  36  66 100 138 148 212 284 332 384
#     4  11  22  41  63  99 127 172 218 269 332 383
#     4  11  20  38  64  93 131 165 205 272 343 383
#     4  11  22  33  61  95 131 159 214 276 325 397
#     4  11  22  41  69  87 132 178 222 256 313 408
#     4  10  23  41  64  92 129 181 224 262 308 396
#     4  10  21  36  63  95 127 166 210 265 331 378
#
# _framework density 24.675042000000001
#
# number of rings (size 3 to 8) (size 9 to 14) (size 15 to 20)
#    0.000    1.333    2.667    4.000    1.867    6.400 
#    0.000    2.667    0.000    1.600    0.000    0.000 
#    0.000    0.000    0.000    0.000    0.000    0.000 
#
# Total GULP energy -83640.266237 kJ/mol
# GULP energy per Si atom -5576.017749 kJ/mol
# Density = 2.461888 g / cm^3
# Si number density = 24.675042 Si / 1000 Ang^3
#
#
#
# Elastic Constant Matrix: (Units=GPa)
#
#
# Indices 1 2 3 4 5 6 
#
# 1 91.0040 40.4348 36.8105 -14.8387 2.5326 -30.5271
# 2 40.4348 96.2081 25.4885 -28.5390 -0.2923 -23.8051
# 3 36.8105 25.4885 118.6238 -20.8786 -11.9851 -9.3049
# 4 -14.8387 -28.5390 -20.8786 54.4661 -4.7991 1.0016
# 5 2.5326 -0.2923 -11.9851 -4.7991 45.8000 -4.9706
# 6 -30.5271 -23.8051 -9.3049 1.0016 -4.9706 50.2842
#
#
#
# Elastic Compliance Matrix: (Units=1/GPa)
#
#
# Indices 1 2 3 4 5 6 
#
# 1 0.017025 -0.004021 -0.003777 0.000852 -0.001040 0.007613
# 2 -0.004021 0.015408 -0.000323 0.006896 0.001480 0.004802
# 3 -0.003777 -0.000323 0.010534 0.003132 0.003266 -0.000236
# 4 0.000852 0.006896 0.003132 0.023659 0.003758 0.004262
# 5 -0.001040 0.001480 0.003266 0.003758 0.023466 0.002918
# 6 0.007613 0.004802 -0.000236 0.004262 0.002918 0.026942
#
#
# Mechanical properties :
#
#
# Convention : Reuss Voigt Hill
#
# Bulk Modulus (GPa) = 37.41847 56.81151 47.11499
# Shear Modulus (GPa) = 35.16548 43.65019 39.40784
#
# Velocity S-wave (km/s) = 3.77920 4.21051 4.00067
# Velocity P-wave (km/s) = 5.85155 6.83460 6.36209
#
# Compressibility (1/GPa) = 0.02672477
#
# Stress axis : x y z
#
# Youngs Moduli (GPa) = 58.73840 64.90028 94.92958
#
# Poissons Ratio (x) = 0.26099 0.35854
# Poissons Ratio (y) = 0.23621 0.03065
# Poissons Ratio (z) = 0.22185 0.02095
#
# Static dielectric constant tensor:
#      x y z
#    x 2.034000 0.004150 -0.019710 
#    y 0.004150 1.854160 -0.120650 
#    z -0.019710 -0.120650 1.736570 
# 
# From -- ./inp_files/262584.got.cif
#   From: 2010.05.17/outbox.cif.g08.bks.cpg/sg2_132_cif.got.tgz:262584.got - 2010.06.03 11:33:40.
