data_PCOD9002312
_publ_section_title
;
Structure prediction by ZEFSAII (Michael W. Deem and Ramdas Pophale) SiO2 
 PCOD9002312
Probable space group: P -1
;
_chemical_formula_sum "Si O2"
_cell_formula_units_Z 14
_cell_length_a 11.656878
_cell_length_b 9.655579
_cell_length_c 6.570821
_cell_angle_alpha 107.935208
_cell_angle_beta 95.735580
_cell_angle_gamma 121.758446
_cell_volume 566.028619
_symmetry_space_group_name_H-M "P -1"
_symmetry_group_IT_number 2
_symmetry_cell_setting 'triclinic'
loop_
_space_group_symop_operation_xyz
x,y,z
-x,-y,-z
loop_
_atom_site_type_symbol
_atom_site_label
_atom_site_fract_x
_atom_site_fract_y
_atom_site_fract_z
Si Si1 0.952590 0.638022 0.662912
Si Si2 0.892466 0.056261 0.494170
Si Si3 0.374721 0.046493 0.844740
Si Si4 0.528976 0.417037 0.152874
Si Si5 0.307852 0.723144 0.438717
Si Si6 0.198354 0.822063 0.096744
Si Si7 0.312486 0.413854 0.369289
O O1 0.833238 0.424682 0.519879
O O2 0.853010 0.696024 0.758504
O O3 0.254920 0.059304 0.716594
O O4 0.062212 0.676797 0.873457
O O5 0.846100 0.078028 0.717428
O O6 0.023971 0.753472 0.526199
O O7 0.000000 0.000000 0.500000
O O8 0.516211 0.243422 0.998470
O O9 0.389417 0.914795 0.647901
O O10 0.398174 0.348950 0.254854
O O11 0.312684 0.953093 0.008186
O O12 0.500000 0.500000 0.000000
O O13 0.665865 0.562666 0.373767
O O14 0.252931 0.739146 0.221387
O O15 0.380519 0.618966 0.396170
#
# Coordination Sequence:
#
# PCOD9002312 Si02
#       7
#     2   2   2   2   2   2   2
#     4   9  21  38  60  90 123 156 200 236 292 363
#     4  10  23  34  59  92 127 159 197 242 293 360
#     4  10  24  39  59  91 123 153 202 248 294 357
#     4  11  25  44  64  85 116 160 204 254 300 344
#     4   9  21  40  61  91 123 157 195 245 296 359
#     4  10  21  36  59  92 124 161 187 243 303 352
#     4   9  24  41  63  89 116 156 206 247 288 364
#
# _framework density 24.733730000000001
#
# number of rings (size 3 to 8) (size 9 to 14) (size 15 to 20)
#    0.857    1.429    0.000    0.429    6.000   12.571 
#    0.000    1.429    0.000    0.000    0.000    0.000 
#    0.000    0.000    0.000    0.000    0.000    0.000 
#
# Total GULP energy -78265.692415 kJ/mol
# GULP energy per Si atom -5590.406601 kJ/mol
# Density = 2.467744 g / cm^3
# Si number density = 24.733730 Si / 1000 Ang^3
#
#
#
# Elastic Constant Matrix: (Units=GPa)
#
#
# Indices 1 2 3 4 5 6 
#
# 1 83.8241 9.7522 32.4483 -8.8935 1.8067 -21.4901
# 2 9.7522 67.8871 36.2136 -2.6368 1.3488 -10.8769
# 3 32.4483 36.2136 117.7295 -17.6793 9.8628 -1.2385
# 4 -8.8935 -2.6368 -17.6793 36.0649 -5.1850 6.9588
# 5 1.8067 1.3488 9.8628 -5.1850 32.2158 -5.6539
# 6 -21.4901 -10.8769 -1.2385 6.9588 -5.6539 38.3396
#
#
#
# Elastic Compliance Matrix: (Units=1/GPa)
#
#
# Indices 1 2 3 4 5 6 
#
# 1 0.016150 0.001937 -0.005129 0.000057 0.002307 0.009766
# 2 0.001937 0.019122 -0.006898 -0.002576 0.002026 0.007054
# 3 -0.005129 -0.006898 0.013058 0.005251 -0.003611 -0.005896
# 4 0.000057 -0.002576 0.005251 0.031632 0.002554 -0.005894
# 5 0.002307 0.002026 -0.003611 0.002554 0.033434 0.006218
# 6 0.009766 0.007054 -0.005896 -0.005894 0.006218 0.035354
#
#
# Mechanical properties :
#
#
# Convention : Reuss Voigt Hill
#
# Bulk Modulus (GPa) = 35.52366 47.36321 41.44343
# Shear Modulus (GPa) = 28.04052 34.05917 31.04984
#
# Velocity S-wave (km/s) = 3.37069 3.71487 3.54696
# Velocity P-wave (km/s) = 5.43529 6.13116 5.79368
#
# Compressibility (1/GPa) = 0.02815025
#
# Stress axis : x y z
#
# Youngs Moduli (GPa) = 61.92009 52.29678 76.57867
#
# Poissons Ratio (x) = -0.10130 0.39277
# Poissons Ratio (y) = -0.11995 0.52824
# Poissons Ratio (z) = 0.31758 0.36074
#
# Static dielectric constant tensor:
#      x y z
#    x 2.022970 0.004840 -0.022720 
#    y 0.004840 1.974160 0.024440 
#    z -0.022720 0.024440 1.935300 
# 
# From -- ./inp_files/105400.got.cif
#   From: 2010.05.17/outbox.cif.g08.bks.cpg/sg2_53_cif.got.tgz:105400.got - 2010.06.03 11:33:40.
