data_PCOD9002025
_publ_section_title
;
Structure prediction by ZEFSAII (Michael W. Deem and Ramdas Pophale) SiO2 
 PCOD9002025
Probable space group: P -1
;
_chemical_formula_sum "Si O2"
_cell_formula_units_Z 14
_cell_length_a 4.829369
_cell_length_b 23.171433
_cell_length_c 5.485669
_cell_angle_alpha 93.403762
_cell_angle_beta 96.069646
_cell_angle_gamma 69.575811
_cell_volume 571.882937
_symmetry_space_group_name_H-M "P -1"
_symmetry_group_IT_number 2
_symmetry_cell_setting 'triclinic'
loop_
_space_group_symop_operation_xyz
x,y,z
-x,-y,-z
loop_
_atom_site_type_symbol
_atom_site_label
_atom_site_fract_x
_atom_site_fract_y
_atom_site_fract_z
Si Si1 0.807672 0.066500 0.092640
Si Si2 0.989360 0.441330 0.823493
Si Si3 0.216048 0.126206 0.289707
Si Si4 0.992599 0.234209 0.913134
Si Si5 0.389640 0.628129 0.961110
Si Si6 0.504391 0.556404 0.472173
Si Si7 0.583919 0.174612 0.716053
O O1 0.750801 0.115561 0.881342
O O2 0.478918 0.075059 0.152729
O O3 0.986417 0.091525 0.318584
O O4 0.000000 0.000000 0.000000
O O5 0.687099 0.489708 0.630927
O O6 0.257740 0.387095 0.993445
O O7 0.216479 0.430442 0.607165
O O8 0.000000 0.500000 0.000000
O O9 0.400421 0.150288 0.502949
O O10 0.048660 0.185651 0.125941
O O11 0.799729 0.301729 0.994490
O O12 0.814723 0.208948 0.687151
O O13 0.321338 0.225639 0.853107
O O14 0.285277 0.590547 0.164317
O O15 0.340850 0.602350 0.685796
#
# Coordination Sequence:
#
# PCOD9002025 Si02
#       7
#     2   2   2   2   2   2   2
#     4  10  21  36  56  87 119 151 199 247 296 364
#     4  10  24  40  62  93 120 160 207 247 311 374
#     4  10  21  37  58  82 114 157 194 244 305 354
#     4  10  22  38  57  83 114 153 201 250 302 367
#     4  11  23  41  62  89 126 161 204 264 314 365
#     4  11  24  42  65  94 127 164 208 255 310 378
#     4  10  21  38  58  83 116 155 202 248 302 367
#
# _framework density 24.480535
#
# number of rings (size 3 to 8) (size 9 to 14) (size 15 to 20)
#    0.000    1.714    0.000    3.429    0.000    8.000 
#    0.000    2.857    0.000    0.000    0.000    0.000 
#    0.000    0.000    0.000    0.000    0.000    0.000 
#
# Total GULP energy -78057.992599 kJ/mol
# GULP energy per Si atom -5575.570900 kJ/mol
# Density = 2.442482 g / cm^3
# Si number density = 24.480535 Si / 1000 Ang^3
#
#
#
# Elastic Constant Matrix: (Units=GPa)
#
#
# Indices 1 2 3 4 5 6 
#
# 1 169.2104 83.3009 40.7076 1.4426 19.3533 -10.0645
# 2 83.3009 107.9647 33.9032 45.9500 10.7383 -61.6720
# 3 40.7076 33.9032 111.6887 9.8796 26.5763 -1.1941
# 4 1.4426 45.9500 9.8796 25.9957 -7.3032 0.4991
# 5 19.3533 10.7383 26.5763 -7.3032 53.3974 3.2651
# 6 -10.0645 -61.6720 -1.1941 0.4991 3.2651 31.8535
#
#
#
# Elastic Compliance Matrix: (Units=1/GPa)
#
#
# Indices 1 2 3 4 5 6 
#
# 1 0.005862 0.002548 -0.001678 -0.005153 -0.002941 0.007104
# 2 0.002548 -0.007638 -0.001098 0.015222 0.004139 -0.014687
# 3 -0.001678 -0.001098 0.011478 -0.003786 -0.005302 -0.001624
# 4 -0.005153 0.015222 -0.003786 0.012982 0.000790 0.027416
# 5 -0.002941 0.004139 -0.005302 0.000790 0.021422 0.004678
# 6 0.007104 -0.014687 -0.001624 0.027416 0.004678 0.004233
#
#
# Mechanical properties :
#
#
# Convention : Reuss Voigt Hill
#
# Bulk Modulus (GPa) = 108.18428 78.29856 93.24142
# Shear Modulus (GPa) = 96.37816 37.64612 67.01214
#
# Velocity S-wave (km/s) = 6.28130 3.92573 5.23766
# Velocity P-wave (km/s) = 9.84349 7.25272 8.64570
#
# Compressibility (1/GPa) = 0.00924349
#
# Stress axis : x y z
#
# Youngs Moduli (GPa) = 170.58219 -130.92701 87.12562
#
# Poissons Ratio (x) = 0.33354 0.14623
# Poissons Ratio (y) = -0.43456 0.09570
# Poissons Ratio (z) = 0.28631 -0.14382
#
# Static dielectric constant tensor:
#      x y z
#    x 1.990800 -0.040710 0.040580 
#    y -0.040710 1.926410 -0.103400 
#    z 0.040580 -0.103400 2.335850 
# 
# From -- ./inp_files/12525.got.cif
#   From: 2010.05.17/outbox.cif.g08.bks.cpg/sg2_7_cif.got.tgz:12525.got - 2010.06.03 11:33:40.
