data_PCOD9002500
_publ_section_title
;
Structure prediction by ZEFSAII (Michael W. Deem and Ramdas Pophale) SiO2 
 PCOD9002500
Probable space group: P -1
;
_chemical_formula_sum "Si O2"
_cell_formula_units_Z 16
_cell_length_a 10.169347
_cell_length_b 15.242416
_cell_length_c 5.063275
_cell_angle_alpha 81.058520
_cell_angle_beta 71.308051
_cell_angle_gamma 82.685214
_cell_volume 731.880832
_symmetry_space_group_name_H-M "P -1"
_symmetry_group_IT_number 2
_symmetry_cell_setting 'triclinic'
loop_
_space_group_symop_operation_xyz
x,y,z
-x,-y,-z
loop_
_atom_site_type_symbol
_atom_site_label
_atom_site_fract_x
_atom_site_fract_y
_atom_site_fract_z
Si Si1 0.683734 0.996178 0.129397
Si Si2 0.672872 0.404075 0.166652
Si Si3 0.150722 0.955497 0.494770
Si Si4 0.711491 0.228629 0.538013
Si Si5 0.855145 0.529166 0.715985
Si Si6 0.483676 0.302860 0.013693
Si Si7 0.283498 0.414610 0.721671
Si Si8 0.532976 0.857846 0.583193
O O1 0.799508 0.025675 0.249026
O O2 0.639338 0.901653 0.302573
O O3 0.546621 0.064695 0.224071
O O4 0.741436 0.003440 0.796069
O O5 0.772818 0.441462 0.863459
O O6 0.527876 0.380110 0.143753
O O7 0.657463 0.488275 0.332600
O O8 0.737866 0.317089 0.318424
O O9 0.165798 0.848916 0.483761
O O10 0.000000 0.000000 0.500000
O O11 0.635730 0.259457 0.843110
O O12 0.589322 0.181192 0.488879
O O13 0.771603 0.593886 0.531241
O O14 0.000000 0.500000 0.500000
O O15 0.845403 0.575809 0.987570
O O16 0.397019 0.343029 0.803763
O O17 0.409263 0.224644 0.238057
#
# Coordination Sequence:
#
# PCOD9002500 Si02
#       8
#     2   2   2   2   2   2   2   2
#     4  10  21  40  63  88 118 162 198 247 308 361
#     4   9  22  36  61  89 120 162 196 245 304 356
#     4  11  23  41  63  88 121 165 207 242 292 367
#     4  10  21  36  61  89 125 154 197 251 307 352
#     4  10  22  42  60  82 116 167 206 240 291 355
#     4  11  20  37  59  95 128 146 202 255 310 356
#     4  10  23  37  64  88 116 160 200 247 301 352
#     4   9  21  35  61  91 122 156 195 250 316 363
#
# _framework density 21.861481999999999
#
# number of rings (size 3 to 8) (size 9 to 14) (size 15 to 20)
#    0.750    1.250    1.250    1.875    5.250    2.500 
#    0.000    2.500    0.000    0.000    0.000    0.000 
#    0.000    0.000    0.000    0.000    0.000    0.000 
#
# Total GULP energy -89368.869289 kJ/mol
# GULP energy per Si atom -5585.554331 kJ/mol
# Density = 2.181172 g / cm^3
# Si number density = 21.861482 Si / 1000 Ang^3
#
#
#
# Elastic Constant Matrix: (Units=GPa)
#
#
# Indices 1 2 3 4 5 6 
#
# 1 31.3420 18.0987 8.2791 -5.0496 1.5246 -15.9329
# 2 18.0987 102.6589 22.6614 -25.2104 -4.0407 -20.7090
# 3 8.2791 22.6614 98.6899 -19.4926 -1.2734 -2.6883
# 4 -5.0496 -25.2104 -19.4926 44.3687 -3.4388 0.8826
# 5 1.5246 -4.0407 -1.2734 -3.4388 28.5734 2.6098
# 6 -15.9329 -20.7090 -2.6883 0.8826 2.6098 31.2772
#
#
#
# Elastic Compliance Matrix: (Units=1/GPa)
#
#
# Indices 1 2 3 4 5 6 
#
# 1 0.045622 -0.002988 -0.002283 0.001701 -0.004709 0.021411
# 2 -0.002988 0.013787 -0.001321 0.006946 0.002237 0.007111
# 3 -0.002283 -0.001321 0.011419 0.004113 0.001054 -0.001260
# 4 0.001701 0.006946 0.004113 0.028711 0.004104 0.004666
# 5 -0.004709 0.002237 0.001054 0.004104 0.036470 -0.003986
# 6 0.021411 0.007111 -0.001260 0.004666 -0.003986 0.047680
#
#
# Mechanical properties :
#
#
# Convention : Reuss Voigt Hill
#
# Bulk Modulus (GPa) = 17.34744 36.75214 27.04979
# Shear Modulus (GPa) = 23.13885 33.08732 28.11308
#
# Velocity S-wave (km/s) = 3.25688 3.89459 3.58992
# Velocity P-wave (km/s) = 4.70058 6.08865 5.43908
#
# Compressibility (1/GPa) = 0.05764540
#
# Stress axis : x y z
#
# Youngs Moduli (GPa) = 21.91943 72.52981 87.57133
#
# Poissons Ratio (x) = 0.21671 0.19991
# Poissons Ratio (y) = 0.06549 0.11567
# Poissons Ratio (z) = 0.05004 0.09580
#
# Static dielectric constant tensor:
#      x y z
#    x 1.797020 0.002610 0.019240 
#    y 0.002610 1.849070 0.040370 
#    z 0.019240 0.040370 1.843000 
# 
# From -- ./inp_files/80144.got.cif
#   From: 2010.05.17/outbox.cif.g08.bks.cpg/sg2_41_cif.got.tgz:80144.got - 2010.06.03 11:33:40.
