data_PCOD9002493
_publ_section_title
;
Structure prediction by ZEFSAII (Michael W. Deem and Ramdas Pophale) SiO2 
 PCOD9002493
Probable space group: P -1
;
_chemical_formula_sum "Si O2"
_cell_formula_units_Z 16
_cell_length_a 21.251675
_cell_length_b 8.436841
_cell_length_c 5.457852
_cell_angle_alpha 67.432818
_cell_angle_beta 54.829451
_cell_angle_gamma 53.701806
_cell_volume 643.339772
_symmetry_space_group_name_H-M "P -1"
_symmetry_group_IT_number 2
_symmetry_cell_setting 'triclinic'
loop_
_space_group_symop_operation_xyz
x,y,z
-x,-y,-z
loop_
_atom_site_type_symbol
_atom_site_label
_atom_site_fract_x
_atom_site_fract_y
_atom_site_fract_z
Si Si1 0.630704 0.830217 0.480706
Si Si2 0.108946 0.549296 0.692605
Si Si3 0.272343 0.332047 0.153824
Si Si4 0.937508 0.667021 0.724971
Si Si5 0.603188 0.472368 0.675207
Si Si6 0.900634 0.067465 0.590909
Si Si7 0.268990 0.731273 0.846388
Si Si8 0.435970 0.736428 0.688394
O O1 0.680178 0.808803 0.639386
O O2 0.596321 0.671800 0.678878
O O3 0.562763 0.060144 0.462215
O O4 0.689898 0.764478 0.137004
O O5 0.168503 0.431839 0.394802
O O6 0.126657 0.728644 0.609615
O O7 0.005993 0.652415 0.792527
O O8 0.126287 0.396822 0.960461
O O9 0.287993 0.519489 0.030374
O O10 0.000000 0.500000 0.500000
O O11 0.899933 0.884028 0.569838
O O12 0.704190 0.323546 0.462838
O O13 0.538174 0.562254 0.531107
O O14 0.576803 0.336856 0.972516
O O15 0.830014 0.120729 0.938229
O O16 0.000000 0.000000 0.500000
O O17 0.342993 0.782178 0.746287
#
# Coordination Sequence:
#
# PCOD9002493 Si02
#       8
#     2   2   2   2   2   2   2   2
#     4  11  24  42  65  98 131 174 219 270 332 391
#     4   9  21  39  57  85 124 164 208 266 323 386
#     4  10  23  42  65  93 134 173 218 273 327 390
#     4  10  21  36  61  88 121 161 211 267 325 385
#     4  10  23  44  61  96 133 171 219 274 331 393
#     4   9  20  40  60  88 124 165 212 263 327 390
#     4  10  21  42  66  92 130 175 220 274 329 394
#     4  11  23  39  67  95 128 175 219 273 330 394
#
# _framework density 24.870218000000001
#
# number of rings (size 3 to 8) (size 9 to 14) (size 15 to 20)
#    0.000    2.000    1.250    0.750    5.250    0.500 
#    0.000    4.375    0.000    0.000    0.000    0.000 
#    0.000    0.000    0.000    0.000    0.000    0.000 
#
# Total GULP energy -89152.412429 kJ/mol
# GULP energy per Si atom -5572.025777 kJ/mol
# Density = 2.481361 g / cm^3
# Si number density = 24.870218 Si / 1000 Ang^3
#
#
#
# Elastic Constant Matrix: (Units=GPa)
#
#
# Indices 1 2 3 4 5 6 
#
# 1 72.9205 0.9909 8.0337 -2.7168 -9.1651 -15.4356
# 2 0.9909 66.7980 35.0665 -10.3413 -4.0690 2.6264
# 3 8.0337 35.0665 107.4696 -3.0785 -17.5975 5.6670
# 4 -2.7168 -10.3413 -3.0785 33.7372 -7.9685 -15.5222
# 5 -9.1651 -4.0690 -17.5975 -7.9685 31.3804 2.5924
# 6 -15.4356 2.6264 5.6670 -15.5222 2.5924 24.0304
#
#
#
# Elastic Compliance Matrix: (Units=1/GPa)
#
#
# Indices 1 2 3 4 5 6 
#
# 1 0.019536 0.002296 -0.001832 0.013090 0.006609 0.020472
# 2 0.002296 0.019494 -0.006401 0.008845 0.001324 0.006424
# 3 -0.001832 -0.006401 0.012684 -0.002123 0.005659 -0.005450
# 4 0.013090 0.008845 -0.002123 0.056317 0.014548 0.042750
# 5 0.006609 0.001324 0.005659 0.014548 0.040190 0.007827
# 6 0.020472 0.006424 -0.005450 0.042750 0.007827 0.082117
#
#
# Mechanical properties :
#
#
# Convention : Reuss Voigt Hill
#
# Bulk Modulus (GPa) = 25.10052 37.26336 31.18194
# Shear Modulus (GPa) = 19.57015 31.36940 25.46977
#
# Velocity S-wave (km/s) = 2.80820 3.55536 3.20364
# Velocity P-wave (km/s) = 4.54193 5.64534 5.12343
#
# Compressibility (1/GPa) = 0.03983981
#
# Stress axis : x y z
#
# Youngs Moduli (GPa) = 51.18778 51.29767 78.84148
#
# Poissons Ratio (x) = -0.11778 0.14443
# Poissons Ratio (y) = -0.11753 0.50466
# Poissons Ratio (z) = 0.09377 0.32836
#
# Static dielectric constant tensor:
#      x y z
#    x 2.144700 0.046100 -0.023670 
#    y 0.046100 1.977610 0.014920 
#    z -0.023670 0.014920 2.015150 
# 
# From -- ./inp_files/49167.got.cif
#   From: 2010.05.17/outbox.cif.g08.bks.cpg/sg2_25_cif.got.tgz:49167.got - 2010.06.03 11:33:40.
