data_PCOD9002109
_publ_section_title
;
Structure prediction by ZEFSAII (Michael W. Deem and Ramdas Pophale) SiO2 
 PCOD9002109
Probable space group: P -1
;
_chemical_formula_sum "Si O2"
_cell_formula_units_Z 16
_cell_length_a 25.258122
_cell_length_b 9.631348
_cell_length_c 24.199723
_cell_angle_alpha 153.338726
_cell_angle_beta 16.259905
_cell_angle_gamma 144.508359
_cell_volume 693.391727
_symmetry_space_group_name_H-M "P -1"
_symmetry_group_IT_number 2
_symmetry_cell_setting 'triclinic'
loop_
_space_group_symop_operation_xyz
x,y,z
-x,-y,-z
loop_
_atom_site_type_symbol
_atom_site_label
_atom_site_fract_x
_atom_site_fract_y
_atom_site_fract_z
Si Si1 0.417769 0.764394 0.129344
Si Si2 0.595398 0.148554 0.520274
Si Si3 0.857691 0.427077 0.908894
Si Si4 0.986793 0.700424 0.527582
Si Si5 0.229289 0.501465 0.615268
Si Si6 0.888580 0.545387 0.800588
Si Si7 0.500526 0.355888 0.112431
Si Si8 0.408884 0.722415 0.617571
O O1 0.196560 0.763956 0.338895
O O2 0.381287 0.142702 0.315120
O O3 0.500000 0.500000 0.000000
O O4 0.551440 0.607920 0.886802
O O5 0.741535 0.213153 0.351187
O O6 0.621096 0.361991 0.623233
O O7 0.579435 0.816472 0.445198
O O8 0.368520 0.316788 0.781580
O O9 0.974668 0.440203 0.738346
O O10 0.004032 0.492193 0.831211
O O11 0.832875 0.073787 0.816807
O O12 0.982059 0.536749 0.414158
O O13 0.000000 0.500000 0.500000
O O14 0.294917 0.562076 0.632265
O O15 0.726912 0.358094 0.893065
O O16 0.753032 0.931074 0.076121
O O17 0.500000 0.000000 0.000000
O O18 0.500000 0.500000 0.500000
#
# Coordination Sequence:
#
# PCOD9002109 Si02
#       8
#     2   2   2   2   2   2   2   2
#     4  10  22  33  54  89 122 158 192 253 308 355
#     4  10  22  39  65  89 122 166 203 257 305 364
#     4   9  21  40  60  92 123 157 205 257 308 366
#     4  10  21  36  57  89 124 158 201 246 316 371
#     4  11  22  39  63  91 121 162 215 247 304 377
#     4   9  21  38  60  85 124 166 198 256 308 356
#     4   9  16  33  55  85 116 151 193 238 308 353
#     4  10  23  40  63  89 122 163 209 254 307 368
#
# _framework density 23.074978999999999
#
# number of rings (size 3 to 8) (size 9 to 14) (size 15 to 20)
#    0.000    2.500    1.250    0.750    7.000    3.000 
#    2.250    0.000    0.000    6.750    0.000    0.000 
#    0.000    0.000    0.000    0.000    0.000    0.000 
#
# Total GULP energy -89338.195625 kJ/mol
# GULP energy per Si atom -5583.637227 kJ/mol
# Density = 2.302246 g / cm^3
# Si number density = 23.074979 Si / 1000 Ang^3
#
#
#
# Elastic Constant Matrix: (Units=GPa)
#
#
# Indices 1 2 3 4 5 6 
#
# 1 160.2049 62.7749 21.8926 17.7511 -0.8037 -6.4190
# 2 62.7749 93.9690 35.6980 13.0841 0.9099 -0.9418
# 3 21.8926 35.6980 60.3386 2.4572 -7.9728 4.3633
# 4 17.7511 13.0841 2.4572 39.4672 -10.6579 -5.1011
# 5 -0.8037 0.9099 -7.9728 -10.6579 21.8727 11.6295
# 6 -6.4190 -0.9418 4.3633 -5.1011 11.6295 49.2073
#
#
#
# Elastic Compliance Matrix: (Units=1/GPa)
#
#
# Indices 1 2 3 4 5 6 
#
# 1 0.008666 -0.005423 -0.000074 -0.002269 -0.001159 0.001072
# 2 -0.005423 0.019012 -0.010318 -0.005220 -0.008361 0.002006
# 3 -0.000074 -0.010318 0.024850 0.005234 0.014900 -0.005389
# 4 -0.002269 -0.005220 0.005234 0.032637 0.018989 -0.001964
# 5 -0.001159 -0.008361 0.014900 0.018989 0.069228 -0.016025
# 6 0.001072 0.002006 -0.005389 -0.001964 -0.016025 0.024562
#
#
# Mechanical properties :
#
#
# Convention : Reuss Voigt Hill
#
# Bulk Modulus (GPa) = 47.85147 61.69374 54.77261
# Shear Modulus (GPa) = 22.98324 35.05259 29.01791
#
# Velocity S-wave (km/s) = 3.15941 3.90176 3.55004
# Velocity P-wave (km/s) = 5.83880 6.86240 6.37119
#
# Compressibility (1/GPa) = 0.02089800
#
# Stress axis : x y z
#
# Youngs Moduli (GPa) = 115.39841 52.59827 40.24200
#
# Poissons Ratio (x) = 0.28524 0.00298
# Poissons Ratio (y) = 0.62579 0.41521
# Poissons Ratio (z) = 0.00854 0.54270
#
# Static dielectric constant tensor:
#      x y z
#    x 2.122430 -0.049420 -0.016000 
#    y -0.049420 1.886630 0.042640 
#    z -0.016000 0.042640 2.015020 
# 
# From -- ./inp_files/614045.got.cif
#   From: 2010.05.17/outbox.cif.g08.bks.cpg/sg2_308_cif.got.tgz:614045.got - 2010.06.03 11:33:40.
