data_PCOD9002022
_publ_section_title
;
Structure prediction by ZEFSAII (Michael W. Deem and Ramdas Pophale) SiO2 
 PCOD9002022
Probable space group: P -1
;
_chemical_formula_sum "Si O2"
_cell_formula_units_Z 16
_cell_length_a 12.518310
_cell_length_b 9.302620
_cell_length_c 9.749302
_cell_angle_alpha 61.417820
_cell_angle_beta 46.560497
_cell_angle_gamma 86.415653
_cell_volume 657.672852
_symmetry_space_group_name_H-M "P -1"
_symmetry_group_IT_number 2
_symmetry_cell_setting 'triclinic'
loop_
_space_group_symop_operation_xyz
x,y,z
-x,-y,-z
loop_
_atom_site_type_symbol
_atom_site_label
_atom_site_fract_x
_atom_site_fract_y
_atom_site_fract_z
Si Si1 0.146939 0.846924 0.677398
Si Si2 0.110410 0.403931 0.651705
Si Si3 0.711041 0.424673 0.319789
Si Si4 0.622916 0.727042 0.160637
Si Si5 0.342570 0.531286 0.150455
Si Si6 0.442176 0.105467 0.113305
Si Si7 0.060380 0.954327 0.175636
Si Si8 0.028297 0.309455 0.372449
O O1 0.205678 0.700592 0.755826
O O2 0.012873 0.749989 0.720879
O O3 0.305570 0.982033 0.393332
O O4 0.071203 0.963627 0.772071
O O5 0.160478 0.438577 0.748949
O O6 0.263091 0.432594 0.408078
O O7 0.973066 0.211319 0.821396
O O8 0.069354 0.569292 0.567409
O O9 0.649820 0.545290 0.227237
O O10 0.551816 0.308973 0.604453
O O11 0.631306 0.790348 0.968743
O O12 0.762261 0.885288 0.050354
O O13 0.208321 0.440955 0.195946
O O14 0.500000 0.500000 0.000000
O O15 0.403908 0.745428 0.014740
O O16 0.500000 0.000000 0.000000
O O17 0.027036 0.860509 0.399116
#
# Coordination Sequence:
#
# PCOD9002022 Si02
#       8
#     2   2   2   2   2   2   2   2
#     4  11  22  38  61  90 120 147 197 244 294 343
#     4  10  21  39  58  83 122 155 190 237 292 348
#     4  10  23  43  60  83 115 162 197 238 285 352
#     4  11  23  38  64  85 115 156 204 235 286 349
#     4  11  22  33  54  89 123 146 183 239 300 339
#     4  12  21  36  63  92 112 153 197 243 282 346
#     4  11  22  34  61  89 120 149 191 248 294 339
#     4  10  21  36  56  86 121 154 185 235 292 348
#
# _framework density 24.328206000000002
#
# number of rings (size 3 to 8) (size 9 to 14) (size 15 to 20)
#    0.000    1.250    3.750    4.125    3.500    1.000 
#    0.000    0.000    0.000    3.000    0.000    0.000 
#    0.000    0.000    0.000    0.000    0.000    0.000 
#
# Total GULP energy -89621.198898 kJ/mol
# GULP energy per Si atom -5601.324931 kJ/mol
# Density = 2.427283 g / cm^3
# Si number density = 24.328206 Si / 1000 Ang^3
#
#
#
# Elastic Constant Matrix: (Units=GPa)
#
#
# Indices 1 2 3 4 5 6 
#
# 1 65.2568 15.3339 14.9080 -8.5229 -6.1674 -24.1473
# 2 15.3339 100.9632 12.8923 -14.8306 -3.7270 -16.2423
# 3 14.9080 12.8923 76.0658 -15.7401 -18.5071 5.7703
# 4 -8.5229 -14.8306 -15.7401 32.7436 6.6074 -6.2636
# 5 -6.1674 -3.7270 -18.5071 6.6074 39.5368 -15.2158
# 6 -24.1473 -16.2423 5.7703 -6.2636 -15.2158 46.1254
#
#
#
# Elastic Compliance Matrix: (Units=1/GPa)
#
#
# Indices 1 2 3 4 5 6 
#
# 1 0.023366 0.000660 -0.002703 0.006654 0.007565 0.016202
# 2 0.000660 0.011844 -0.000854 0.005856 0.002206 0.006146
# 3 -0.002703 -0.000854 0.016455 0.005424 0.005870 -0.001101
# 4 0.006654 0.005856 0.005424 0.039245 0.001712 0.010761
# 5 0.007565 0.002206 0.005870 0.001712 0.035248 0.015863
# 6 0.016202 0.006146 -0.001101 0.010761 0.015863 0.039158
#
#
# Mechanical properties :
#
#
# Convention : Reuss Voigt Hill
#
# Bulk Modulus (GPa) = 21.80083 36.50602 29.15343
# Shear Modulus (GPa) = 26.82395 36.95794 31.89095
#
# Velocity S-wave (km/s) = 3.32412 3.90184 3.62451
# Velocity P-wave (km/s) = 4.86967 5.94452 5.43374
#
# Compressibility (1/GPa) = 0.04586981
#
# Stress axis : x y z
#
# Youngs Moduli (GPa) = 42.79754 84.43233 60.77081
#
# Poissons Ratio (x) = -0.05569 0.16424
# Poissons Ratio (y) = -0.02823 0.05192
# Poissons Ratio (z) = 0.11567 0.07214
#
# Static dielectric constant tensor:
#      x y z
#    x 1.938120 -0.023740 0.021650 
#    y -0.023740 2.030770 -0.000120 
#    z 0.021650 -0.000120 1.964220 
# 
# From -- ./inp_files/445614.got.cif
#   From: 2010.05.17/outbox.cif.g08.bks.cpg/sg2_223_cif.got.tgz:445614.got - 2010.06.03 11:33:40.
