data_PCOD9002692
_publ_section_title
;
Structure prediction by ZEFSAII (Michael W. Deem and Ramdas Pophale) SiO2 
 PCOD9002692
Probable space group: P -1
;
_chemical_formula_sum "Si O2"
_cell_formula_units_Z 16
_cell_length_a 13.296661
_cell_length_b 21.252282
_cell_length_c 9.536120
_cell_angle_alpha 122.123910
_cell_angle_beta 30.408304
_cell_angle_gamma 142.995570
_cell_volume 703.558840
_symmetry_space_group_name_H-M "P -1"
_symmetry_group_IT_number 2
_symmetry_cell_setting 'triclinic'
loop_
_space_group_symop_operation_xyz
x,y,z
-x,-y,-z
loop_
_atom_site_type_symbol
_atom_site_label
_atom_site_fract_x
_atom_site_fract_y
_atom_site_fract_z
Si Si1 0.161243 0.890247 0.356593
Si Si2 0.835392 0.814181 0.390585
Si Si3 0.683501 0.628043 0.676886
Si Si4 0.787068 0.627445 0.139468
Si Si5 0.837801 0.388379 0.162993
Si Si6 0.012071 0.691705 0.621462
Si Si7 0.494021 0.963047 0.311198
Si Si8 0.946986 0.463456 0.679959
O O1 0.251910 0.935328 0.461411
O O2 0.910590 0.855508 0.511298
O O3 0.019208 0.764228 0.385027
O O4 0.500000 0.000000 0.000000
O O5 0.806393 0.716050 0.280956
O O6 0.487967 0.738749 0.667021
O O7 0.147682 0.932338 0.064241
O O8 0.570751 0.515224 0.621036
O O9 0.714483 0.635118 0.817354
O O10 0.394558 0.598202 0.943539
O O11 0.970084 0.625114 0.020694
O O12 0.936150 0.667693 0.849873
O O13 0.779559 0.420115 0.411543
O O14 0.000000 0.500000 0.000000
O O15 0.327808 0.834530 0.381795
O O16 0.068669 0.628749 0.409908
O O17 0.500000 0.000000 0.500000
O O18 0.000000 0.500000 0.500000
#
# Coordination Sequence:
#
# PCOD9002692 Si02
#       8
#     2   2   2   2   2   2   2   2
#     4   9  21  40  62  87 121 162 207 246 299 366
#     4  11  22  41  65  86 127 168 198 251 314 351
#     4  10  21  36  63  93 123 160 202 251 311 356
#     4  11  22  36  63  93 125 160 204 251 304 367
#     4  11  25  40  59  94 129 158 205 253 303 372
#     4  11  21  38  62  92 126 157 206 251 309 362
#     4  10  21  40  65  93 117 161 208 255 296 367
#     4  11  22  37  62  93 126 157 201 254 305 363
#
# _framework density 22.741522
#
# number of rings (size 3 to 8) (size 9 to 14) (size 15 to 20)
#    0.000    1.500    3.750    2.625    1.750    4.000 
#    0.000    4.375    0.000    8.250    0.000    0.000 
#    0.000    0.000    0.000    0.000    0.000    0.000 
#
# Total GULP energy -89317.689338 kJ/mol
# GULP energy per Si atom -5582.355584 kJ/mol
# Density = 2.268976 g / cm^3
# Si number density = 22.741522 Si / 1000 Ang^3
#
#
#
# Elastic Constant Matrix: (Units=GPa)
#
#
# Indices 1 2 3 4 5 6 
#
# 1 163.7749 22.6086 41.6344 -15.2732 7.9872 36.4081
# 2 22.6086 66.1576 22.4692 -19.3598 -5.2717 10.7294
# 3 41.6344 22.4692 62.2431 -28.5504 9.7411 3.6559
# 4 -15.2732 -19.3598 -28.5504 44.6898 2.1760 -1.0931
# 5 7.9872 -5.2717 9.7411 2.1760 36.2934 1.9542
# 6 36.4081 10.7294 3.6559 -1.0931 1.9542 47.6057
#
#
#
# Elastic Compliance Matrix: (Units=1/GPa)
#
#
# Indices 1 2 3 4 5 6 
#
# 1 0.008996 -0.000307 -0.006018 -0.001059 -0.000003 -0.006373
# 2 -0.000307 0.019246 -0.004983 0.004756 0.004119 -0.003780
# 3 -0.006018 -0.004983 0.030138 0.015560 -0.008644 0.004123
# 4 -0.001059 0.004756 0.015560 0.034262 -0.005282 -0.000454
# 5 -0.000003 0.004119 -0.008644 -0.005282 0.030878 -0.001651
# 6 -0.006373 -0.003780 0.004123 -0.000454 -0.001651 0.026473
#
#
# Mechanical properties :
#
#
# Convention : Reuss Voigt Hill
#
# Bulk Modulus (GPa) = 27.96094 51.73336 39.84715
# Shear Modulus (GPa) = 27.09590 39.41533 33.25562
#
# Velocity S-wave (km/s) = 3.45552 4.16767 3.82819
# Velocity P-wave (km/s) = 5.31438 6.77917 6.09097
#
# Compressibility (1/GPa) = 0.03576418
#
# Stress axis : x y z
#
# Youngs Moduli (GPa) = 111.15681 51.95943 33.18054
#
# Poissons Ratio (x) = 0.01595 0.19967
# Poissons Ratio (y) = 0.03413 0.16535
# Poissons Ratio (z) = 0.66890 0.25893
#
# Static dielectric constant tensor:
#      x y z
#    x 1.923540 -0.009750 -0.016570 
#    y -0.009750 1.898580 0.036330 
#    z -0.016570 0.036330 1.879940 
# 
# From -- ./inp_files/283121.got.cif
#   From: 2010.05.17/outbox.cif.g08.bks.cpg/sg2_142_cif.got.tgz:283121.got - 2010.06.03 11:33:40.
