data_PCOD9002826
_publ_section_title
;
Structure prediction by ZEFSAII (Michael W. Deem and Ramdas Pophale) SiO2 
 PCOD9002826
Probable space group: P -1
;
_chemical_formula_sum "Si O2"
_cell_formula_units_Z 16
_cell_length_a 19.497454
_cell_length_b 7.322803
_cell_length_c 7.791600
_cell_angle_alpha 109.891130
_cell_angle_beta 55.224397
_cell_angle_gamma 142.123483
_cell_volume 547.511926
_symmetry_space_group_name_H-M "P -1"
_symmetry_group_IT_number 2
_symmetry_cell_setting 'triclinic'
loop_
_space_group_symop_operation_xyz
x,y,z
-x,-y,-z
loop_
_atom_site_type_symbol
_atom_site_label
_atom_site_fract_x
_atom_site_fract_y
_atom_site_fract_z
Si Si1 0.062078 0.914166 0.496507
Si Si2 0.065136 0.954052 0.068780
Si Si3 0.359896 0.346975 0.633143
Si Si4 0.375922 0.040447 0.025415
Si Si5 0.710444 0.719706 0.930863
Si Si6 0.191162 0.506680 0.843900
Si Si7 0.177080 0.763190 0.508163
Si Si8 0.598360 0.272639 0.586876
O O1 0.205268 0.243101 0.320066
O O2 0.112279 0.827194 0.514895
O O3 0.994302 0.969800 0.713169
O O4 0.940258 0.604633 0.459540
O O5 0.153184 0.977194 0.069267
O O6 0.149221 0.220160 0.889421
O O7 0.945131 0.637000 0.047708
O O8 0.500000 0.500000 0.500000
O O9 0.367611 0.471466 0.482161
O O10 0.243718 0.982306 0.649643
O O11 0.358603 0.469344 0.854570
O O12 0.516665 0.186899 0.845408
O O13 0.275649 0.755725 0.948753
O O14 0.370175 0.249314 0.024845
O O15 0.304200 0.911990 0.268223
O O16 0.276443 0.638545 0.592631
O O17 0.500000 0.000000 0.500000
#
# Coordination Sequence:
#
# PCOD9002826 Si02
#       8
#     2   2   2   2   2   2   2   2
#     4  10  22  42  62  99 127 168 211 259 325 375
#     4  11  21  37  63  92 131 163 202 269 315 379
#     4  12  24  43  63  96 129 165 215 265 317 374
#     4  10  21  42  64  90 124 169 214 257 309 383
#     4  11  24  39  64  94 130 164 208 267 323 369
#     4  10  21  36  65  93 122 168 213 252 319 376
#     4  10  23  40  69  91 129 169 214 263 311 386
#     4  10  21  41  65  88 124 166 214 259 302 383
#
# _framework density 29.223108
#
# number of rings (size 3 to 8) (size 9 to 14) (size 15 to 20)
#    0.000    1.500    3.750    1.125    1.750    2.500 
#    2.250    0.000    0.000    3.750    0.000    0.000 
#    0.000    0.000    0.000    0.000    0.000    0.000 
#
# Total GULP energy -89362.163600 kJ/mol
# GULP energy per Si atom -5585.135225 kJ/mol
# Density = 2.915660 g / cm^3
# Si number density = 29.223108 Si / 1000 Ang^3
#
#
#
# Elastic Constant Matrix: (Units=GPa)
#
#
# Indices 1 2 3 4 5 6 
#
# 1 83.0182 9.6323 -16.4150 -15.9963 -12.6038 0.4618
# 2 9.6323 117.0836 6.6396 15.3509 -2.9294 2.5128
# 3 -16.4150 6.6396 189.3767 -3.6195 -4.1801 -8.6489
# 4 -15.9963 15.3509 -3.6195 47.3420 15.3915 -7.7206
# 5 -12.6038 -2.9294 -4.1801 15.3915 37.1628 -7.6792
# 6 0.4618 2.5128 -8.6489 -7.7206 -7.6792 40.9479
#
#
#
# Elastic Compliance Matrix: (Units=1/GPa)
#
#
# Indices 1 2 3 4 5 6 
#
# 1 0.013923 -0.001799 0.001509 0.004653 0.003184 0.001746
# 2 -0.001799 0.009369 -0.000588 -0.004422 0.001645 -0.001204
# 3 0.001509 -0.000588 0.005546 0.001064 0.000973 0.001574
# 4 0.004653 -0.004422 0.001064 0.027908 -0.009394 0.003944
# 5 0.003184 0.001645 0.000973 -0.009394 0.033047 0.004495
# 6 0.001746 -0.001204 0.001574 0.003944 0.004495 0.026394
#
#
# Mechanical properties :
#
#
# Convention : Reuss Voigt Hill
#
# Bulk Modulus (GPa) = 36.92471 43.24359 40.08415
# Shear Modulus (GPa) = 39.37976 51.06531 45.22253
#
# Velocity S-wave (km/s) = 3.67489 4.18476 3.93809
# Velocity P-wave (km/s) = 5.53799 6.17896 5.86723
#
# Compressibility (1/GPa) = 0.02708214
#
# Stress axis : x y z
#
# Youngs Moduli (GPa) = 71.82497 106.73554 180.32424
#
# Poissons Ratio (x) = 0.19200 -0.27208
# Poissons Ratio (y) = 0.12920 0.10596
# Poissons Ratio (z) = -0.10837 0.06272
#
# Static dielectric constant tensor:
#      x y z
#    x 2.360900 -0.014480 0.078810 
#    y -0.014480 2.424330 -0.020070 
#    z 0.078810 -0.020070 2.543540 
# 
# From -- ./inp_files/273493.got.cif
#   From: 2010.05.17/outbox.cif.g08.bks.cpg/sg2_137_cif.got.tgz:273493.got - 2010.06.03 11:33:40.
