data_PCOD9002559
_publ_section_title
;
Structure prediction by ZEFSAII (Michael W. Deem and Ramdas Pophale) SiO2 
 PCOD9002559
Probable space group: P -1
;
_chemical_formula_sum "Si O2"
_cell_formula_units_Z 16
_cell_length_a 7.582160
_cell_length_b 10.932965
_cell_length_c 16.244320
_cell_angle_alpha 119.658919
_cell_angle_beta 118.232529
_cell_angle_gamma 110.692060
_cell_volume 661.174738
_symmetry_space_group_name_H-M "P -1"
_symmetry_group_IT_number 2
_symmetry_cell_setting 'triclinic'
loop_
_space_group_symop_operation_xyz
x,y,z
-x,-y,-z
loop_
_atom_site_type_symbol
_atom_site_label
_atom_site_fract_x
_atom_site_fract_y
_atom_site_fract_z
Si Si1 0.879513 0.284107 0.111645
Si Si2 0.432358 0.188474 0.114900
Si Si3 0.545648 0.231547 0.340173
Si Si4 0.053157 0.990283 0.762179
Si Si5 0.808268 0.584845 0.626223
Si Si6 0.728097 0.211629 0.867507
Si Si7 0.213563 0.137350 0.671876
Si Si8 0.656463 0.621152 0.959252
O O1 0.689972 0.276486 0.134123
O O2 0.200919 0.451104 0.290542
O O3 0.828141 0.307140 0.014915
O O4 0.775142 0.064340 0.011472
O O5 0.528406 0.274983 0.257686
O O6 0.280760 0.246762 0.062821
O O7 0.813962 0.450365 0.525623
O O8 0.233085 0.104769 0.279763
O O9 0.519806 0.050433 0.270348
O O10 0.082409 0.845371 0.751728
O O11 0.012477 0.976577 0.651943
O O12 0.332460 0.252018 0.926729
O O13 0.500000 0.500000 0.500000
O O14 0.535518 0.220778 0.775704
O O15 0.051454 0.324478 0.940914
O O16 0.341865 0.365373 0.788749
O O17 0.000000 0.000000 0.500000
#
# Coordination Sequence:
#
# PCOD9002559 Si02
#       8
#     2   2   2   2   2   2   2   2
#     4  10  21  38  66 101 139 170 213 269 333 411
#     4  10  21  37  65 102 128 179 216 267 329 405
#     4   9  22  38  65 102 140 164 213 274 350 397
#     4  10  22  42  65  94 132 175 221 266 329 403
#     4  10  21  36  62 101 139 168 207 269 347 395
#     4  10  24  44  69  98 134 177 227 274 332 406
#     4  12  28  46  67  96 132 178 234 288 329 377
#     4  11  23  43  71  94 135 181 234 262 327 407
#
# _framework density 24.199349999999999
#
# number of rings (size 3 to 8) (size 9 to 14) (size 15 to 20)
#    0.000    1.750    1.250    1.500    8.750    4.000 
#    0.000    2.500    0.000    0.000    0.000    0.000 
#    0.000    0.000    0.000    0.000    0.000    0.000 
#
# Total GULP energy -89271.117565 kJ/mol
# GULP energy per Si atom -5579.444848 kJ/mol
# Density = 2.414427 g / cm^3
# Si number density = 24.199350 Si / 1000 Ang^3
#
#
#
# Elastic Constant Matrix: (Units=GPa)
#
#
# Indices 1 2 3 4 5 6 
#
# 1 68.0260 30.7143 29.7277 5.5726 7.4777 -1.6363
# 2 30.7143 79.5732 62.4799 -16.5531 -5.9529 -12.2932
# 3 29.7277 62.4799 191.7998 -27.9258 -13.8168 -18.0099
# 4 5.5726 -16.5531 -27.9258 41.0594 -2.3037 0.1107
# 5 7.4777 -5.9529 -13.8168 -2.3037 35.3662 -5.5062
# 6 -1.6363 -12.2932 -18.0099 0.1107 -5.5062 34.3873
#
#
#
# Elastic Compliance Matrix: (Units=1/GPa)
#
#
# Indices 1 2 3 4 5 6 
#
# 1 0.021819 -0.009677 -0.002676 -0.009156 -0.008691 -0.005185
# 2 -0.009677 0.022218 -0.003493 0.008213 0.005981 0.006584
# 3 -0.002676 -0.003493 0.008053 0.004646 0.003966 0.003462
# 4 -0.009156 0.008213 0.004646 0.032512 0.008207 0.006143
# 5 -0.008691 0.005981 0.003966 0.008207 0.034656 0.009324
# 6 -0.005185 0.006584 0.003462 0.006143 0.009324 0.034474
#
#
# Mechanical properties :
#
#
# Convention : Reuss Voigt Hill
#
# Bulk Modulus (GPa) = 49.01987 65.02698 57.02343
# Shear Modulus (GPa) = 26.01139 36.59438 31.30289
#
# Velocity S-wave (km/s) = 3.28209 3.89293 3.60049
# Velocity P-wave (km/s) = 5.88757 6.86558 6.39530
#
# Compressibility (1/GPa) = 0.02039989
#
# Stress axis : x y z
#
# Youngs Moduli (GPa) = 45.83065 45.00871 124.17119
#
# Poissons Ratio (x) = 0.43555 0.33223
# Poissons Ratio (y) = 0.44351 0.43371
# Poissons Ratio (z) = 0.12262 0.15721
#
# Static dielectric constant tensor:
#      x y z
#    x 2.055160 -0.006160 0.048960 
#    y -0.006160 2.009100 0.048000 
#    z 0.048960 0.048000 2.033050 
# 
# From -- ./inp_files/505497.got.cif
#   From: 2010.05.17/outbox.cif.g08.bks.cpg/sg2_253_cif.got.tgz:505497.got - 2010.06.03 11:33:40.
