data_PCOD9002495
_publ_section_title
;
Structure prediction by ZEFSAII (Michael W. Deem and Ramdas Pophale) SiO2 
 PCOD9002495
Probable space group: P -1
;
_chemical_formula_sum "Si O2"
_cell_formula_units_Z 16
_cell_length_a 12.822631
_cell_length_b 11.381254
_cell_length_c 18.871879
_cell_angle_alpha 47.847296
_cell_angle_beta 25.818920
_cell_angle_gamma 64.074423
_cell_volume 761.221520
_symmetry_space_group_name_H-M "P -1"
_symmetry_group_IT_number 2
_symmetry_cell_setting 'triclinic'
loop_
_space_group_symop_operation_xyz
x,y,z
-x,-y,-z
loop_
_atom_site_type_symbol
_atom_site_label
_atom_site_fract_x
_atom_site_fract_y
_atom_site_fract_z
Si Si1 0.791344 0.686318 0.733236
Si Si2 0.623313 0.717172 0.323352
Si Si3 0.710088 0.897293 0.482045
Si Si4 0.781440 0.024614 0.223503
Si Si5 0.997375 0.048689 0.383049
Si Si6 0.676501 0.312513 0.617264
Si Si7 0.875969 0.601328 0.485552
Si Si8 0.441708 0.944568 0.976309
O O1 0.953358 0.782228 0.668089
O O2 0.013650 0.650511 0.572398
O O3 0.500000 0.500000 0.000000
O O4 0.778570 0.848913 0.632579
O O5 0.500000 0.500000 0.500000
O O6 0.391185 0.697617 0.418532
O O7 0.661189 0.846051 0.316081
O O8 0.920455 0.823832 0.055279
O O9 0.421956 0.890324 0.680463
O O10 0.738148 0.716626 0.553532
O O11 0.782350 0.956730 0.331325
O O12 0.928317 0.046947 0.344219
O O13 0.295497 0.066590 0.203175
O O14 0.665567 0.462452 0.611998
O O15 0.451248 0.112827 0.863923
O O16 0.000000 0.500000 0.500000
O O17 0.155857 0.759765 0.213344
O O18 0.500000 0.000000 0.000000
#
# Coordination Sequence:
#
# PCOD9002495 Si02
#       8
#     2   2   2   2   2   2   2   2
#     4  10  21  39  57  90 128 166 204 254 316 399
#     4  11  24  46  68  95 126 176 232 277 333 400
#     4  11  22  43  68  99 130 174 219 282 343 381
#     4  10  25  46  69  93 133 171 227 288 332 389
#     4  10  21  36  61  88 125 162 209 255 318 390
#     4  11  23  38  63  90 123 174 212 261 329 393
#     4  12  22  37  62  97 135 165 210 264 325 401
#     4  11  20  38  58  93 129 164 207 256 324 400
#
# _framework density 21.018848999999999
#
# number of rings (size 3 to 8) (size 9 to 14) (size 15 to 20)
#    0.000    1.250    2.500    3.750    0.000    2.000 
#    0.000    9.375    0.000    0.000    0.000    0.000 
#    0.000    0.000    0.000    0.000    0.000    0.000 
#
# Total GULP energy -89175.167887 kJ/mol
# GULP energy per Si atom -5573.447993 kJ/mol
# Density = 2.097101 g / cm^3
# Si number density = 21.018849 Si / 1000 Ang^3
#
#
#
# Elastic Constant Matrix: (Units=GPa)
#
#
# Indices 1 2 3 4 5 6 
#
# 1 135.8399 59.1675 31.0499 -10.2494 6.6257 17.6874
# 2 59.1675 131.7448 60.3912 -1.1255 1.0406 10.8337
# 3 31.0499 60.3912 121.7971 -13.7568 4.7445 -12.5363
# 4 -10.2494 -1.1255 -13.7568 38.6958 -1.5664 1.7322
# 5 6.6257 1.0406 4.7445 -1.5664 24.9600 5.4054
# 6 17.6874 10.8337 -12.5363 1.7322 5.4054 34.3553
#
#
#
# Elastic Compliance Matrix: (Units=1/GPa)
#
#
# Indices 1 2 3 4 5 6 
#
# 1 0.009953 -0.003733 -0.000795 0.002379 -0.001286 -0.004154
# 2 -0.003733 0.012336 -0.005991 -0.002465 0.002416 -0.004410
# 3 -0.000795 -0.005991 0.012672 0.003662 -0.003289 0.007256
# 4 0.002379 -0.002465 0.003662 0.027757 0.000650 -0.000613
# 5 -0.001286 0.002416 -0.003289 0.000650 0.042715 -0.008053
# 6 -0.004154 -0.004410 0.007256 -0.000613 -0.008053 0.036583
#
#
# Mechanical properties :
#
#
# Convention : Reuss Voigt Hill
#
# Bulk Modulus (GPa) = 71.82956 76.73322 74.28139
# Shear Modulus (GPa) = 29.81609 35.52044 32.66827
#
# Velocity S-wave (km/s) = 3.77044 4.11534 3.94666
# Velocity P-wave (km/s) = 7.29404 7.69204 7.49568
#
# Compressibility (1/GPa) = 0.01392185
#
# Stress axis : x y z
#
# Youngs Moduli (GPa) = 100.47667 81.06384 78.91216
#
# Poissons Ratio (x) = 0.30263 0.06273
# Poissons Ratio (y) = 0.37511 0.47279
# Poissons Ratio (z) = 0.07987 0.48568
#
# Static dielectric constant tensor:
#      x y z
#    x 1.776000 -0.023250 0.029200 
#    y -0.023250 1.888370 0.040120 
#    z 0.029200 0.040120 1.747470 
# 
# From -- ./inp_files/567932.got.cif
#   From: 2010.05.17/outbox.cif.g08.bks.cpg/sg2_284_cif.got.tgz:567932.got - 2010.06.03 11:33:40.
