data_PCOD9002918
_publ_section_title
;
Structure prediction by ZEFSAII (Michael W. Deem and Ramdas Pophale) SiO2 
 PCOD9002918
Probable space group: P -1
;
_chemical_formula_sum "Si O2"
_cell_formula_units_Z 14
_cell_length_a 8.398964
_cell_length_b 9.158825
_cell_length_c 14.809143
_cell_angle_alpha 45.742896
_cell_angle_beta 41.008358
_cell_angle_gamma 52.259004
_cell_volume 526.444038
_symmetry_space_group_name_H-M "P -1"
_symmetry_group_IT_number 2
_symmetry_cell_setting 'triclinic'
loop_
_space_group_symop_operation_xyz
x,y,z
-x,-y,-z
loop_
_atom_site_type_symbol
_atom_site_label
_atom_site_fract_x
_atom_site_fract_y
_atom_site_fract_z
Si Si1 0.103316 0.671672 0.634158
Si Si2 0.668065 0.326608 0.117979
Si Si3 0.559541 0.045800 0.650272
Si Si4 0.921831 0.685757 0.323721
Si Si5 0.457815 0.701272 0.609913
Si Si6 0.184355 0.066461 0.030867
Si Si7 0.335390 0.206054 0.098802
O O1 0.234961 0.832900 0.452419
O O2 0.993491 0.522137 0.678541
O O3 0.326467 0.568681 0.651040
O O4 0.901836 0.784349 0.741369
O O5 0.646747 0.312247 0.241537
O O6 0.948844 0.214023 0.022922
O O7 0.484025 0.184978 0.219755
O O8 0.602116 0.565067 0.018594
O O9 0.291573 0.189241 0.704215
O O10 0.612839 0.073395 0.505987
O O11 0.753679 0.642758 0.499398
O O12 0.100868 0.848967 0.190404
O O13 0.254320 0.180141 0.041107
O O14 0.435690 0.984288 0.903871
#
# Coordination Sequence:
#
# PCOD9002918 Si02
#       7
#     2   2   2   2   2   2   2
#     4   9  17  32  55  83 105 144 180 217 268 324
#     4  11  18  35  59  83 107 140 176 230 270 308
#     4   7  16  28  55  80 102 134 181 218 261 314
#     4   8  17  32  57  76 106 147 180 215 268 322
#     4   8  16  28  58  79 105 137 179 219 268 312
#     4  10  21  37  52  81 112 143 180 217 267 324
#     4  11  23  33  57  83 110 140 182 221 267 319
#
# _framework density 26.593522
#
# number of rings (size 3 to 8) (size 9 to 14) (size 15 to 20)
#    1.714    0.857    1.429    2.571    2.000    0.571 
#    0.000    3.571    3.143    0.857    0.000    0.000 
#    0.000    0.000    0.000    0.000    0.000    0.000 
#
# Total GULP energy -78166.232292 kJ/mol
# GULP energy per Si atom -5583.302307 kJ/mol
# Density = 2.653299 g / cm^3
# Si number density = 26.593522 Si / 1000 Ang^3
#
#
#
# Elastic Constant Matrix: (Units=GPa)
#
#
# Indices 1 2 3 4 5 6 
#
# 1 52.2200 24.3678 6.8403 -10.3320 -5.9650 5.8350
# 2 24.3678 158.2835 67.5310 6.0633 -12.9401 7.5410
# 3 6.8403 67.5310 99.4471 -3.8085 -16.9459 8.7203
# 4 -10.3320 6.0633 -3.8085 47.8691 -1.8759 -12.2792
# 5 -5.9650 -12.9401 -16.9459 -1.8759 35.7107 -4.1505
# 6 5.8350 7.5410 8.7203 -12.2792 -4.1505 51.2251
#
#
#
# Elastic Compliance Matrix: (Units=1/GPa)
#
#
# Indices 1 2 3 4 5 6 
#
# 1 0.022431 -0.004306 0.002243 0.005522 0.003460 -0.000699
# 2 -0.004306 0.009873 -0.006547 -0.002866 -0.000466 -0.000573
# 3 0.002243 -0.006547 0.015434 0.002526 0.005357 -0.000880
# 4 0.005522 -0.002866 0.002526 0.024146 0.002977 0.005392
# 5 0.003460 -0.000466 0.005357 0.002977 0.031345 0.002016
# 6 -0.000699 -0.000573 -0.000880 0.005392 0.002016 0.021291
#
#
# Mechanical properties :
#
#
# Convention : Reuss Voigt Hill
#
# Bulk Modulus (GPa) = 32.76669 56.38099 44.57384
# Shear Modulus (GPa) = 32.91391 41.04174 36.97783
#
# Velocity S-wave (km/s) = 3.52187 3.93275 3.73296
# Velocity P-wave (km/s) = 5.37458 6.47063 5.94790
#
# Compressibility (1/GPa) = 0.03051879
#
# Stress axis : x y z
#
# Youngs Moduli (GPa) = 44.58130 101.28690 64.79286
#
# Poissons Ratio (x) = 0.43611 -0.14535
# Poissons Ratio (y) = 0.19195 0.42420
# Poissons Ratio (z) = -0.10001 0.66313
#
# Static dielectric constant tensor:
#      x y z
#    x 2.185180 -0.057410 0.074500 
#    y -0.057410 2.084380 -0.051160 
#    z 0.074500 -0.051160 2.167040 
# 
# From -- ./inp_files/593377.got.cif
#   From: 2010.05.17/outbox.cif.g08.bks.cpg/sg2_297_cif.got.tgz:593377.got - 2010.06.03 11:33:40.
