data_PCOD9002596
_publ_section_title
;
Structure prediction by ZEFSAII (Michael W. Deem and Ramdas Pophale) SiO2 
 PCOD9002596
Probable space group: P -1
;
_chemical_formula_sum "Si O2"
_cell_formula_units_Z 15
_cell_length_a 8.509615
_cell_length_b 11.097328
_cell_length_c 13.930236
_cell_angle_alpha 115.985235
_cell_angle_beta 77.803644
_cell_angle_gamma 51.819650
_cell_volume 679.578060
_symmetry_space_group_name_H-M "P -1"
_symmetry_group_IT_number 2
_symmetry_cell_setting 'triclinic'
loop_
_space_group_symop_operation_xyz
x,y,z
-x,-y,-z
loop_
_atom_site_type_symbol
_atom_site_label
_atom_site_fract_x
_atom_site_fract_y
_atom_site_fract_z
Si Si1 0.873570 0.135067 0.664667
Si Si2 0.365388 0.672989 0.904553
Si Si3 0.423444 0.098795 0.198825
Si Si4 0.961942 0.783340 0.564400
Si Si5 0.500000 0.500000 0.500000
Si Si6 0.789907 0.104750 0.199311
Si Si7 0.256511 0.327529 0.100865
Si Si8 0.183213 0.182404 0.622047
O O1 0.585111 0.406008 0.787562
O O2 0.092413 0.103361 0.656271
O O3 0.827863 0.021138 0.677323
O O4 0.000000 0.000000 0.500000
O O5 0.253251 0.770250 0.845076
O O6 0.525872 0.699264 0.923012
O O7 0.099103 0.840804 0.063524
O O8 0.204365 0.203122 0.341443
O O9 0.586970 0.117974 0.218160
O O10 0.271113 0.232326 0.164350
O O11 0.643087 0.835097 0.053659
O O12 0.944269 0.745358 0.443468
O O13 0.275326 0.582837 0.484765
O O14 0.728678 0.238000 0.343702
O O15 0.964218 0.596580 0.226996
O O16 0.500000 0.000000 0.500000
#
# Coordination Sequence:
#
# PCOD9002596 Si02
#       8
#     2   2   2   2   1   2   2   2
#     4   9  19  38  61  86 122 165 206 250 304 369
#     4   9  18  39  62  85 117 162 212 252 300 371
#     4  10  21  38  60  92 125 156 204 262 313 365
#     4  11  24  40  61  92 127 163 209 256 309 373
#     4  12  24  40  60  90 124 160 202 258 314 364
#     4  10  21  36  62  91 118 157 207 259 311 363
#     4   9  19  38  61  85 121 162 201 252 313 369
#     4  10  22  41  64  90 122 163 209 257 309 369
#
# _framework density 22.072520000000001
#
# number of rings (size 3 to 8) (size 9 to 14) (size 15 to 20)
#    0.000    2.133    0.000    4.000    0.000    7.467 
#    0.000    8.667    0.000    0.000    0.000    0.000 
#    0.000    0.000    0.000    0.000    0.000    0.000 
#
# Total GULP energy -83561.185716 kJ/mol
# GULP energy per Si atom -5570.745714 kJ/mol
# Density = 2.202228 g / cm^3
# Si number density = 22.072520 Si / 1000 Ang^3
#
#
#
# Elastic Constant Matrix: (Units=GPa)
#
#
# Indices 1 2 3 4 5 6 
#
# 1 40.7849 21.2119 33.1064 7.9058 -2.5170 -6.1066
# 2 21.2119 28.7116 18.5541 8.8101 -8.7788 2.5113
# 3 33.1064 18.5541 119.2902 22.5474 15.4670 0.7664
# 4 7.9058 8.8101 22.5474 37.7011 3.1535 -2.0116
# 5 -2.5170 -8.7788 15.4670 3.1535 46.4369 2.6213
# 6 -6.1066 2.5113 0.7664 -2.0116 2.6213 34.3384
#
#
#
# Elastic Compliance Matrix: (Units=1/GPa)
#
#
# Indices 1 2 3 4 5 6 
#
# 1 0.050950 -0.034227 -0.009399 0.003708 -0.001514 0.012106
# 2 -0.034227 0.068830 -0.000876 -0.010135 0.012853 -0.012676
# 3 -0.009399 -0.000876 0.012688 -0.005139 -0.004447 -0.001852
# 4 0.003708 -0.010135 -0.005139 0.031574 -0.002348 0.003544
# 5 -0.001514 0.012853 -0.004447 -0.002348 0.025704 -0.003210
# 6 0.012106 -0.012676 -0.001852 0.003544 -0.003210 0.032696
#
#
# Mechanical properties :
#
#
# Convention : Reuss Voigt Hill
#
# Bulk Modulus (GPa) = 23.00775 37.17017 30.08896
# Shear Modulus (GPa) = 15.34053 31.42289 23.38171
#
# Velocity S-wave (km/s) = 2.63916 3.77718 3.25824
# Velocity P-wave (km/s) = 4.44221 5.99161 5.27412
#
# Compressibility (1/GPa) = 0.04346361
#
# Stress axis : x y z
#
# Youngs Moduli (GPa) = 19.62715 14.52847 78.81769
#
# Poissons Ratio (x) = 0.49727 0.74079
# Poissons Ratio (y) = 0.67178 0.06906
# Poissons Ratio (z) = 0.18447 0.01273
#
# Static dielectric constant tensor:
#      x y z
#    x 1.806220 0.032550 -0.029600 
#    y 0.032550 1.886610 -0.010070 
#    z -0.029600 -0.010070 1.810240 
# 
# From -- ./inp_files/200314.got.cif
#   From: 2010.05.17/outbox.cif.g08.bks.cpg/sg2_101_cif.got.tgz:200314.got - 2010.06.03 11:33:40.
