data_PCOD9002825
_publ_section_title
;
Structure prediction by ZEFSAII (Michael W. Deem and Ramdas Pophale) SiO2 
 PCOD9002825
Probable space group: P -1
;
_chemical_formula_sum "Si O2"
_cell_formula_units_Z 14
_cell_length_a 14.248796
_cell_length_b 8.496671
_cell_length_c 18.615393
_cell_angle_alpha 108.478178
_cell_angle_beta 19.845681
_cell_angle_gamma 118.483279
_cell_volume 603.523300
_symmetry_space_group_name_H-M "P -1"
_symmetry_group_IT_number 2
_symmetry_cell_setting 'triclinic'
loop_
_space_group_symop_operation_xyz
x,y,z
-x,-y,-z
loop_
_atom_site_type_symbol
_atom_site_label
_atom_site_fract_x
_atom_site_fract_y
_atom_site_fract_z
Si Si1 0.285139 0.169163 0.970933
Si Si2 0.685236 0.029968 0.296203
Si Si3 0.999141 0.696160 0.686846
Si Si4 0.561658 0.124206 0.120774
Si Si5 0.099119 0.465247 0.000911
Si Si6 0.922978 0.866510 0.623572
Si Si7 0.762367 0.518378 0.580789
O O1 0.012287 0.038654 0.086598
O O2 0.169173 0.290028 0.118265
O O3 0.617692 0.337943 0.716622
O O4 0.311041 0.018977 0.981154
O O5 0.820556 0.245631 0.197270
O O6 0.500000 0.000000 0.500000
O O7 0.397391 0.853355 0.431060
O O8 0.966934 0.491611 0.661494
O O9 0.881393 0.769859 0.716283
O O10 0.355284 0.093718 0.193015
O O11 0.840681 0.356626 0.964868
O O12 0.293680 0.057908 0.369793
O O13 0.447845 0.480090 0.756043
O O14 0.000000 0.500000 0.000000
O O15 0.887614 0.713372 0.565463
#
# Coordination Sequence:
#
# PCOD9002825 Si02
#       7
#     2   2   2   2   2   2   2
#     4  10  22  38  63  89 122 159 207 255 306 363
#     4   9  21  40  61  90 124 158 204 254 305 367
#     4  11  21  37  64  87 120 162 206 250 304 368
#     4  10  21  38  60  87 127 156 201 265 300 362
#     4  10  21  36  65  93 118 166 209 247 318 370
#     4  10  21  39  60  85 124 163 203 252 309 359
#     4  10  22  39  61  89 122 162 207 255 300 365
#
# _framework density 23.197115
#
# number of rings (size 3 to 8) (size 9 to 14) (size 15 to 20)
#    0.000    2.000    1.429    1.286    2.000    2.286 
#    0.000    2.857   40.857    0.000    0.000    0.000 
#    0.000    0.000    0.000    0.000    0.000    0.000 
#
# Total GULP energy -78272.963871 kJ/mol
# GULP energy per Si atom -5590.925991 kJ/mol
# Density = 2.314432 g / cm^3
# Si number density = 23.197115 Si / 1000 Ang^3
#
#
#
# Elastic Constant Matrix: (Units=GPa)
#
#
# Indices 1 2 3 4 5 6 
#
# 1 108.9559 22.6595 18.2264 9.8086 -18.7060 -12.6276
# 2 22.6595 97.7224 18.0733 10.1308 -3.0000 -7.6635
# 3 18.2264 18.0733 56.1459 1.2168 -6.8953 2.9654
# 4 9.8086 10.1308 1.2168 34.3650 -0.1029 -4.9001
# 5 -18.7060 -3.0000 -6.8953 -0.1029 33.0576 8.2741
# 6 -12.6276 -7.6635 2.9654 -4.9001 8.2741 36.5496
#
#
#
# Elastic Compliance Matrix: (Units=1/GPa)
#
#
# Indices 1 2 3 4 5 6 
#
# 1 0.011295 -0.001556 -0.002609 -0.002327 0.005119 0.002317
# 2 -0.001556 0.011623 -0.003421 -0.002569 -0.001067 0.002074
# 3 -0.002609 -0.003421 0.020385 0.000472 0.003466 -0.003994
# 4 -0.002327 -0.002569 0.000472 0.030963 -0.002171 0.003262
# 5 0.005119 -0.001067 0.003466 -0.002171 0.035536 -0.007072
# 6 0.002317 0.002074 -0.003994 0.003262 -0.007072 0.030958
#
#
# Mechanical properties :
#
#
# Convention : Reuss Voigt Hill
#
# Bulk Modulus (GPa) = 35.54869 42.30471 38.92670
# Shear Modulus (GPa) = 30.24634 34.38544 32.31589
#
# Velocity S-wave (km/s) = 3.61485 3.85426 3.73647
# Velocity P-wave (km/s) = 5.72545 6.17120 5.95250
#
# Compressibility (1/GPa) = 0.02813043
#
# Stress axis : x y z
#
# Youngs Moduli (GPa) = 88.53501 86.03751 49.05495
#
# Poissons Ratio (x) = 0.13391 0.12798
# Poissons Ratio (y) = 0.13780 0.16782
# Poissons Ratio (z) = 0.23098 0.29433
#
# Static dielectric constant tensor:
#      x y z
#    x 2.164800 0.220320 -0.264860 
#    y 0.220320 2.023950 -0.145330 
#    z -0.264860 -0.145330 2.067080 
# 
# From -- ./inp_files/258314.got.cif
#   From: 2010.05.17/outbox.cif.g08.bks.cpg/sg2_130_cif.got.tgz:258314.got - 2010.06.03 11:33:40.
