data_PCOD9002925
_publ_section_title
;
Structure prediction by ZEFSAII (Michael W. Deem and Ramdas Pophale) SiO2 
 PCOD9002925
Probable space group: P -1
;
_chemical_formula_sum "Si O2"
_cell_formula_units_Z 14
_cell_length_a 5.005554
_cell_length_b 10.869249
_cell_length_c 10.691356
_cell_angle_alpha 67.528023
_cell_angle_beta 84.609433
_cell_angle_gamma 91.134635
_cell_volume 534.152232
_symmetry_space_group_name_H-M "P -1"
_symmetry_group_IT_number 2
_symmetry_cell_setting 'triclinic'
loop_
_space_group_symop_operation_xyz
x,y,z
-x,-y,-z
loop_
_atom_site_type_symbol
_atom_site_label
_atom_site_fract_x
_atom_site_fract_y
_atom_site_fract_z
Si Si1 0.900730 0.364091 0.628431
Si Si2 0.329395 0.740993 0.570318
Si Si3 0.359850 0.426052 0.747322
Si Si4 0.179618 0.857718 0.989182
Si Si5 0.807802 0.841413 0.665880
Si Si6 0.432205 0.347743 0.035481
Si Si7 0.715726 0.010134 0.827667
O O1 0.760898 0.269336 0.566207
O O2 0.672211 0.409960 0.714172
O O3 0.000000 0.500000 0.500000
O O4 0.182896 0.338886 0.689759
O O5 0.319399 0.584609 0.676516
O O6 0.616474 0.812407 0.565812
O O7 0.110768 0.819503 0.624898
O O8 0.276269 0.360614 0.907341
O O9 0.299645 0.728593 0.974881
O O10 0.404542 0.970391 0.884174
O O11 0.900627 0.904840 0.931827
O O12 0.207170 0.861950 0.138052
O O13 0.711710 0.726133 0.813854
O O14 0.771070 0.977004 0.693100
O O15 0.500000 0.500000 0.000000
#
# Coordination Sequence:
#
# PCOD9002925 Si02
#       7
#     2   2   2   2   2   2   2
#     4  10  21  37  54  69 101 148 195 218 249 308
#     4  11  20  35  54  77 106 139 187 228 263 303
#     4  11  22  35  51  76 107 152 173 216 264 330
#     4   9  19  36  50  75 104 153 178 217 250 324
#     4  11  21  33  53  85 108 143 170 227 274 318
#     4  11  23  35  53  84 123 144 170 209 287 345
#     4   9  18  34  55  71 107 140 193 216 255 304
#
# _framework density 26.209755999999999
#
# number of rings (size 3 to 8) (size 9 to 14) (size 15 to 20)
#    0.000    1.714    1.429    6.000    0.000    4.000 
#    0.000    0.000    0.000    0.000    0.000    6.000 
#    0.000    0.000    0.000    0.000    0.000    0.000 
#
# Total GULP energy -78342.881779 kJ/mol
# GULP energy per Si atom -5595.920127 kJ/mol
# Density = 2.615010 g / cm^3
# Si number density = 26.209756 Si / 1000 Ang^3
#
#
#
# Elastic Constant Matrix: (Units=GPa)
#
#
# Indices 1 2 3 4 5 6 
#
# 1 62.3105 -6.1195 -18.5488 -5.9138 8.2585 -3.7485
# 2 -6.1195 104.7665 -11.8679 22.4368 -0.9413 3.5318
# 3 -18.5488 -11.8679 83.2683 11.0088 22.5154 -1.2634
# 4 -5.9138 22.4368 11.0088 34.7343 2.7876 -4.4063
# 5 8.2585 -0.9413 22.5154 2.7876 44.4190 6.9145
# 6 -3.7485 3.5318 -1.2634 -4.4063 6.9145 28.9435
#
#
#
# Elastic Compliance Matrix: (Units=1/GPa)
#
#
# Indices 1 2 3 4 5 6 
#
# 1 0.019581 0.001292 0.006494 0.001668 -0.007752 0.004768
# 2 0.001292 0.011948 0.003323 -0.008782 -0.000762 -0.002301
# 3 0.006494 0.003323 0.017403 -0.005398 -0.010052 0.002775
# 4 0.001668 -0.008782 -0.005398 0.037448 -0.001206 0.007041
# 5 -0.007752 -0.000762 -0.010052 -0.001206 0.030481 -0.008815
# 6 0.004768 -0.002301 0.002775 0.007041 -0.008815 0.038747
#
#
# Mechanical properties :
#
#
# Convention : Reuss Voigt Hill
#
# Bulk Modulus (GPa) = 14.05488 19.69698 16.87593
# Shear Modulus (GPa) = 31.82524 40.74480 36.28502
#
# Velocity S-wave (km/s) = 3.48839 3.94708 3.72480
# Velocity P-wave (km/s) = 4.64750 5.32015 4.99516
#
# Compressibility (1/GPa) = 0.07114966
#
# Stress axis : x y z
#
# Youngs Moduli (GPa) = 51.06949 83.69338 57.46078
#
# Poissons Ratio (x) = -0.10811 -0.37314
# Poissons Ratio (y) = -0.06597 -0.19094
# Poissons Ratio (z) = -0.33164 -0.27811
#
# Static dielectric constant tensor:
#      x y z
#    x 2.105100 0.226740 0.139580 
#    y 0.226740 2.343070 0.129340 
#    z 0.139580 0.129340 2.222420 
# 
# From -- ./inp_files/363217.got.cif
#   From: 2010.05.17/outbox.cif.g08.bks.cpg/sg2_182_cif.got.tgz:363217.got - 2010.06.03 11:33:40.
