data_PCOD9002162
_publ_section_title
;
Structure prediction by ZEFSAII (Michael W. Deem and Ramdas Pophale) SiO2 
 PCOD9002162
Probable space group: P -1
;
_chemical_formula_sum "Si O2"
_cell_formula_units_Z 16
_cell_length_a 13.504251
_cell_length_b 6.435075
_cell_length_c 13.394238
_cell_angle_alpha 92.620765
_cell_angle_beta 45.016492
_cell_angle_gamma 72.963525
_cell_volume 730.079271
_symmetry_space_group_name_H-M "P -1"
_symmetry_group_IT_number 2
_symmetry_cell_setting 'triclinic'
loop_
_space_group_symop_operation_xyz
x,y,z
-x,-y,-z
loop_
_atom_site_type_symbol
_atom_site_label
_atom_site_fract_x
_atom_site_fract_y
_atom_site_fract_z
Si Si1 0.389172 0.564116 0.925448
Si Si2 0.528752 0.802449 0.557713
Si Si3 0.922372 0.842381 0.470218
Si Si4 0.724766 0.280588 0.354801
Si Si5 0.059020 0.983943 0.182885
Si Si6 0.595520 0.135725 0.641284
Si Si7 0.056949 0.324919 0.345071
Si Si8 0.603240 0.728743 0.889828
O O1 0.454220 0.364319 0.791537
O O2 0.513564 0.660568 0.866740
O O3 0.377514 0.436652 0.032491
O O4 0.219951 0.776635 0.024918
O O5 0.673095 0.554899 0.415552
O O6 0.377183 0.753626 0.661740
O O7 0.500000 0.000000 0.500000
O O8 0.555349 0.924668 0.638683
O O9 0.993137 0.791921 0.530566
O O10 0.930797 0.592047 0.429802
O O11 0.743136 0.040594 0.608628
O O12 0.006387 0.888572 0.316538
O O13 0.660465 0.206829 0.498057
O O14 0.910493 0.108490 0.217896
O O15 0.087091 0.188489 0.217680
O O16 0.221792 0.314309 0.260376
O O17 0.500000 0.000000 0.000000
#
# Coordination Sequence:
#
# PCOD9002162 Si02
#       8
#     2   2   2   2   2   2   2   2
#     4  11  24  37  56  82 120 157 199 237 286 339
#     4   9  18  39  64  89 112 140 184 239 292 349
#     4  10  22  35  54  84 114 151 201 246 283 330
#     4   9  20  37  65  88 111 145 187 238 294 343
#     4  11  21  38  56  85 119 152 193 243 287 340
#     4  10  21  36  58  86 115 150 192 235 286 347
#     4  11  21  35  57  79 113 160 204 239 286 329
#     4  11  22  38  53  76 115 168 202 236 278 332
#
# _framework density 21.915429
#
# number of rings (size 3 to 8) (size 9 to 14) (size 15 to 20)
#    0.000    1.750    2.500    1.875    1.750    6.000 
#    0.000    0.625    0.000    6.750    0.000    0.000 
#    0.000    0.000    0.000    0.000    0.000    0.000 
#
# Total GULP energy -89345.723012 kJ/mol
# GULP energy per Si atom -5584.107688 kJ/mol
# Density = 2.186555 g / cm^3
# Si number density = 21.915429 Si / 1000 Ang^3
#
#
#
# Elastic Constant Matrix: (Units=GPa)
#
#
# Indices 1 2 3 4 5 6 
#
# 1 74.2879 14.3659 28.7645 18.4398 -22.6051 13.1710
# 2 14.3659 84.9042 17.8110 21.5198 -10.2935 4.7875
# 3 28.7645 17.8110 87.5691 35.3713 -23.2874 7.2287
# 4 18.4398 21.5198 35.3713 50.3541 -7.3559 2.9036
# 5 -22.6051 -10.2935 -23.2874 -7.3559 28.5511 8.8246
# 6 13.1710 4.7875 7.2287 2.9036 8.8246 32.3501
#
#
#
# Elastic Compliance Matrix: (Units=1/GPa)
#
#
# Indices 1 2 3 4 5 6 
#
# 1 0.024783 0.001023 0.002566 -0.006563 0.025721 -0.017242
# 2 0.001023 0.013888 0.001399 -0.006089 0.006641 -0.004049
# 3 0.002566 0.001399 0.021943 -0.013395 0.020218 -0.010468
# 4 -0.006563 -0.006089 -0.013395 0.032084 -0.012221 0.007020
# 5 0.025721 0.006641 0.020218 -0.012221 0.082697 -0.037434
# 6 -0.017242 -0.004049 -0.010468 0.007020 -0.037434 0.050451
#
#
# Mechanical properties :
#
#
# Convention : Reuss Voigt Hill
#
# Bulk Modulus (GPa) = 14.16640 40.96043 27.56341
# Shear Modulus (GPa) = 20.88547 34.63905 27.76226
#
# Velocity S-wave (km/s) = 3.09042 3.97996 3.56306
# Velocity P-wave (km/s) = 4.38320 6.31276 5.43431
#
# Compressibility (1/GPa) = 0.07058959
#
# Stress axis : x y z
#
# Youngs Moduli (GPa) = 40.35067 72.00340 45.57194
#
# Poissons Ratio (x) = -0.07363 -0.11694
# Poissons Ratio (y) = -0.04126 -0.06376
# Poissons Ratio (z) = -0.10354 -0.10074
#
# Static dielectric constant tensor:
#      x y z
#    x 1.867780 0.014660 0.006560 
#    y 0.014660 1.860210 -0.022930 
#    z 0.006560 -0.022930 1.775630 
# 
# From -- ./inp_files/84132.got.cif
#   From: 2010.05.17/outbox.cif.g08.bks.cpg/sg2_43_cif.got.tgz:84132.got - 2010.06.03 11:33:40.
