data_PCOD9002174
_publ_section_title
;
Structure prediction by ZEFSAII (Michael W. Deem and Ramdas Pophale) SiO2 
 PCOD9002174
Probable space group: P -1
;
_chemical_formula_sum "Si O2"
_cell_formula_units_Z 13
_cell_length_a 15.705616
_cell_length_b 10.429423
_cell_length_c 7.683246
_cell_angle_alpha 110.265444
_cell_angle_beta 132.143618
_cell_angle_gamma 38.034928
_cell_volume 527.287818
_symmetry_space_group_name_H-M "P -1"
_symmetry_group_IT_number 2
_symmetry_cell_setting 'triclinic'
loop_
_space_group_symop_operation_xyz
x,y,z
-x,-y,-z
loop_
_atom_site_type_symbol
_atom_site_label
_atom_site_fract_x
_atom_site_fract_y
_atom_site_fract_z
Si Si1 0.000000 0.000000 0.500000
Si Si2 0.787396 0.105356 0.584151
Si Si3 0.619210 0.011783 0.875817
Si Si4 0.934499 0.528282 0.119820
Si Si5 0.672859 0.957827 0.523613
Si Si6 0.197584 0.643415 0.084957
Si Si7 0.363120 0.505864 0.865600
O O1 0.137814 0.956557 0.537219
O O2 0.162685 0.721404 0.595473
O O3 0.727977 0.313736 0.658880
O O4 0.647231 0.115828 0.445140
O O5 0.974024 0.890698 0.856529
O O6 0.680542 0.995443 0.755547
O O7 0.490083 0.999201 0.687114
O O8 0.482673 0.257549 0.875221
O O9 0.807855 0.777347 0.121854
O O10 0.130100 0.306235 0.380723
O O11 0.811161 0.505513 0.939454
O O12 0.000000 0.500000 0.000000
O O13 0.304009 0.567128 0.014598
O O14 0.500000 0.500000 0.000000
#
# Coordination Sequence:
#
# PCOD9002174 Si02
#       7
#     1   2   2   2   2   2   2
#     4  10  24  40  60  90 116 152 200 242 294 348
#     4   9  18  38  63  86 117 155 197 243 291 347
#     4  10  21  36  58  88 118 150 198 241 286 357
#     4   9  19  36  58  84 115 156 193 234 295 344
#     4   9  19  37  59  87 119 154 191 241 296 341
#     4   9  19  37  61  88 118 155 198 239 291 354
#     4  11  24  41  59  87 122 155 196 247 294 345
#
# _framework density 24.654467
#
# number of rings (size 3 to 8) (size 9 to 14) (size 15 to 20)
#    0.000    2.462    0.000    0.923    0.000   10.462 
#    0.000   10.769    0.000    0.000    0.000    0.000 
#    0.000    0.000    0.000    0.000    0.000    0.000 
#
# Total GULP energy -72411.961973 kJ/mol
# GULP energy per Si atom -5570.150921 kJ/mol
# Density = 2.459835 g / cm^3
# Si number density = 24.654467 Si / 1000 Ang^3
#
#
#
# Elastic Constant Matrix: (Units=GPa)
#
#
# Indices 1 2 3 4 5 6 
#
# 1 204.8198 28.4923 3.4869 24.6457 17.2532 18.8184
# 2 28.4923 165.7401 22.7760 -21.4724 -0.6806 -3.6948
# 3 3.4869 22.7760 25.2317 -16.3263 3.0041 2.2426
# 4 24.6457 -21.4724 -16.3263 24.9324 -2.4774 1.0388
# 5 17.2532 -0.6806 3.0041 -2.4774 15.6808 -3.1251
# 6 18.8184 -3.6948 2.2426 1.0388 -3.1251 41.3401
#
#
#
# Elastic Compliance Matrix: (Units=1/GPa)
#
#
# Indices 1 2 3 4 5 6 
#
# 1 0.008992 -0.002853 -0.008400 -0.017866 -0.012099 -0.004358
# 2 -0.002853 0.008025 -0.001974 0.008912 0.005738 0.002333
# 3 -0.008400 -0.001974 0.081458 0.060295 0.002662 -0.002085
# 4 -0.017866 0.008912 0.060295 0.107349 0.026442 0.004960
# 5 -0.012099 0.005738 0.002662 0.026442 0.083295 0.011508
# 6 -0.004358 0.002333 -0.002085 0.004960 0.011508 0.027240
#
#
# Mechanical properties :
#
#
# Convention : Reuss Voigt Hill
#
# Bulk Modulus (GPa) = 13.88477 56.14468 35.01472
# Shear Modulus (GPa) = 13.63066 39.12642 26.37854
#
# Velocity S-wave (km/s) = 2.35386 3.98803 3.27453
# Velocity P-wave (km/s) = 3.60992 6.63535 5.34132
#
# Compressibility (1/GPa) = 0.07202137
#
# Stress axis : x y z
#
# Youngs Moduli (GPa) = 111.21409 124.60363 12.27625
#
# Poissons Ratio (x) = 0.35549 0.10312
# Poissons Ratio (y) = 0.31729 0.02423
# Poissons Ratio (z) = 0.93421 0.24596
#
# Static dielectric constant tensor:
#      x y z
#    x 1.877230 -0.016070 0.012210 
#    y -0.016070 1.951840 -0.011360 
#    z 0.012210 -0.011360 2.029000 
# 
# From -- ./inp_files/167078.got.cif
#   From: 2010.05.17/outbox.cif.g08.bks.cpg/sg2_84_cif.got.tgz:167078.got - 2010.06.03 11:33:40.
