data_PCOD9002765
_publ_section_title
;
Structure prediction by ZEFSAII (Michael W. Deem and Ramdas Pophale) SiO2 
 PCOD9002765
Probable space group: P -1
;
_chemical_formula_sum "Si O2"
_cell_formula_units_Z 14
_cell_length_a 20.836155
_cell_length_b 6.325427
_cell_length_c 11.357953
_cell_angle_alpha 54.870493
_cell_angle_beta 32.788437
_cell_angle_gamma 66.542970
_cell_volume 650.472199
_symmetry_space_group_name_H-M "P -1"
_symmetry_group_IT_number 2
_symmetry_cell_setting 'triclinic'
loop_
_space_group_symop_operation_xyz
x,y,z
-x,-y,-z
loop_
_atom_site_type_symbol
_atom_site_label
_atom_site_fract_x
_atom_site_fract_y
_atom_site_fract_z
Si Si1 0.082040 0.655684 0.220806
Si Si2 0.884950 0.746459 0.029677
Si Si3 0.484889 0.298861 0.912100
Si Si4 0.292570 0.512560 0.800189
Si Si5 0.653861 0.409415 0.820839
Si Si6 0.468601 0.163177 0.721685
Si Si7 0.084742 0.486206 0.696998
O O1 0.000000 0.500000 0.500000
O O2 0.999072 0.653958 0.232972
O O3 0.128448 0.962125 0.079534
O O4 0.193831 0.522735 0.050718
O O5 0.012228 0.692079 0.801424
O O6 0.782346 0.533029 0.191327
O O7 0.887196 0.700301 0.180681
O O8 0.591681 0.458048 0.776761
O O9 0.485096 0.335581 0.761768
O O10 0.363712 0.358764 0.138471
O O11 0.500000 0.000000 0.000000
O O12 0.366739 0.278095 0.773400
O O13 0.397648 0.773251 0.559103
O O14 0.789067 0.383155 0.597066
O O15 0.579544 0.139852 0.076906
#
# Coordination Sequence:
#
# PCOD9002765 Si02
#       7
#     2   2   2   2   2   2   2
#     4  11  26  40  66  95 125 166 213 266 316 371
#     4  10  23  44  64  89 129 166 213 263 313 373
#     4   9  20  36  55  89 122 158 201 252 306 366
#     4  10  24  41  61  92 127 168 209 255 318 375
#     4  10  21  36  64  92 124 162 209 256 316 374
#     4  10  22  39  61  90 127 166 207 255 312 377
#     4  10  23  41  66  94 121 168 211 259 319 371
#
# _framework density 21.522825000000001
#
# number of rings (size 3 to 8) (size 9 to 14) (size 15 to 20)
#    0.000    2.000    0.000    1.286    6.000    6.857 
#    0.000    2.857    0.000    0.000    0.000    0.000 
#    0.000    0.000    0.000    0.000    0.000    0.000 
#
# Total GULP energy -78148.541844 kJ/mol
# GULP energy per Si atom -5582.038703 kJ/mol
# Density = 2.147384 g / cm^3
# Si number density = 21.522825 Si / 1000 Ang^3
#
#
#
# Elastic Constant Matrix: (Units=GPa)
#
#
# Indices 1 2 3 4 5 6 
#
# 1 69.9588 15.8530 37.7670 12.3089 1.2741 -9.6530
# 2 15.8530 69.1459 43.6215 -2.8246 6.3493 -4.3859
# 3 37.7670 43.6215 142.6237 14.9124 -7.5079 -4.7980
# 4 12.3089 -2.8246 14.9124 25.8551 -2.7027 4.7219
# 5 1.2741 6.3493 -7.5079 -2.7027 28.8222 6.3480
# 6 -9.6530 -4.3859 -4.7980 4.7219 6.3480 21.2931
#
#
#
# Elastic Compliance Matrix: (Units=1/GPa)
#
#
# Indices 1 2 3 4 5 6 
#
# 1 0.020155 -0.001517 -0.003663 -0.010336 -0.005080 0.011806
# 2 -0.001517 0.019834 -0.006476 0.005537 -0.006022 0.002505
# 3 -0.003663 -0.006476 0.010622 -0.004509 0.004115 -0.000828
# 4 -0.010336 0.005537 -0.004509 0.050766 0.006750 -0.017831
# 5 -0.005080 -0.006022 0.004115 0.006750 0.041588 -0.016512
# 6 0.011806 0.002505 -0.000828 -0.017831 -0.016512 0.061522
#
#
# Mechanical properties :
#
#
# Convention : Reuss Voigt Hill
#
# Bulk Modulus (GPa) = 36.63097 52.91236 44.77167
# Shear Modulus (GPa) = 21.10609 27.49320 24.29964
#
# Velocity S-wave (km/s) = 3.13491 3.57795 3.36373
# Velocity P-wave (km/s) = 5.49182 6.45807 5.99444
#
# Compressibility (1/GPa) = 0.02729931
#
# Stress axis : x y z
#
# Youngs Moduli (GPa) = 49.61469 50.41967 94.14194
#
# Poissons Ratio (x) = 0.07650 0.34481
# Poissons Ratio (y) = 0.07528 0.60966
# Poissons Ratio (z) = 0.18172 0.32652
#
# Static dielectric constant tensor:
#      x y z
#    x 1.826280 0.012200 -0.002540 
#    y 0.012200 1.771120 -0.000020 
#    z -0.002540 -0.000020 1.796990 
# 
# From -- ./inp_files/68880.got.cif
#   From: 2010.05.17/outbox.cif.g08.bks.cpg/sg2_35_cif.got.tgz:68880.got - 2010.06.03 11:33:40.
