data_PCOD9002258
_publ_section_title
;
Structure prediction by ZEFSAII (Michael W. Deem and Ramdas Pophale) SiO2 
 PCOD9002258
Probable space group: P -1
;
_chemical_formula_sum "Si O2"
_cell_formula_units_Z 16
_cell_length_a 10.809843
_cell_length_b 13.788894
_cell_length_c 8.795556
_cell_angle_alpha 57.222763
_cell_angle_beta 84.955238
_cell_angle_gamma 46.234879
_cell_volume 701.841146
_symmetry_space_group_name_H-M "P -1"
_symmetry_group_IT_number 2
_symmetry_cell_setting 'triclinic'
loop_
_space_group_symop_operation_xyz
x,y,z
-x,-y,-z
loop_
_atom_site_type_symbol
_atom_site_label
_atom_site_fract_x
_atom_site_fract_y
_atom_site_fract_z
Si Si1 0.883967 0.941817 0.719003
Si Si2 0.033452 0.429410 0.301932
Si Si3 0.768300 0.767887 0.841916
Si Si4 0.403408 0.950755 0.887573
Si Si5 0.782067 0.311063 0.681067
Si Si6 0.029517 0.314537 0.709489
Si Si7 0.447560 0.733709 0.298673
Si Si8 0.099424 0.011397 0.677200
O O1 0.880844 0.804510 0.846313
O O2 0.062947 0.898567 0.785583
O O3 0.688726 0.120856 0.676410
O O4 0.868099 0.979738 0.508704
O O5 0.069131 0.518505 0.320897
O O6 0.204402 0.266134 0.312453
O O7 0.983805 0.375308 0.485727
O O8 0.867060 0.587459 0.068614
O O9 0.549285 0.917511 0.795824
O O10 0.265022 0.962411 0.794845
O O11 0.260993 0.139611 0.833223
O O12 0.507037 0.795290 0.131801
O O13 0.620494 0.526486 0.508470
O O14 0.688818 0.258783 0.785790
O O15 0.951350 0.244866 0.819295
O O16 0.891274 0.205354 0.600280
#
# Coordination Sequence:
#
# PCOD9002258 Si02
#       8
#     2   2   2   2   2   2   2   2
#     4  10  21  38  62  85 114 153 193 232 284 342
#     4  10  23  39  57  82 116 155 191 232 287 342
#     4  11  23  39  59  85 118 154 190 234 286 340
#     4  11  23  37  59  90 118 146 191 242 282 333
#     4   9  19  37  60  82 114 153 189 233 288 341
#     4  10  21  38  59  83 114 151 193 238 285 338
#     4  10  21  36  59  87 114 149 193 236 282 339
#     4   9  21  40  61  86 116 150 188 236 288 339
#
# _framework density 22.797184000000001
#
# number of rings (size 3 to 8) (size 9 to 14) (size 15 to 20)
#    0.000    2.000    0.000    3.000    0.000   13.500 
#    0.000    0.000    0.000   15.750    0.000    0.000 
#    0.000    0.000    0.000    0.000    0.000    0.000 
#
# Total GULP energy -89252.128085 kJ/mol
# GULP energy per Si atom -5578.258005 kJ/mol
# Density = 2.274530 g / cm^3
# Si number density = 22.797184 Si / 1000 Ang^3
#
#
#
# Elastic Constant Matrix: (Units=GPa)
#
#
# Indices 1 2 3 4 5 6 
#
# 1 112.6708 40.1140 15.0089 11.5897 -27.0070 1.1208
# 2 40.1140 102.1012 16.1215 14.6581 -10.8402 7.5285
# 3 15.0089 16.1215 77.2157 7.0541 -16.7151 5.3575
# 4 11.5897 14.6581 7.0541 32.2510 3.5686 -1.7633
# 5 -27.0070 -10.8402 -16.7151 3.5686 29.5797 -1.6829
# 6 1.1208 7.5285 5.3575 -1.7633 -1.6829 30.6862
#
#
#
# Elastic Compliance Matrix: (Units=1/GPa)
#
#
# Indices 1 2 3 4 5 6 
#
# 1 0.013378 -0.003498 0.001171 -0.004793 0.012204 0.000559
# 2 -0.003498 0.012291 -0.001052 -0.004377 0.001079 -0.002896
# 3 0.001171 -0.001052 0.015676 -0.004597 0.009969 -0.002239
# 4 -0.004793 -0.004377 -0.004597 0.037341 -0.012885 0.003491
# 5 0.012204 0.001079 0.009969 -0.012885 0.052515 -0.000311
# 6 0.000559 -0.002896 -0.002239 0.003491 -0.000311 0.033853
#
#
# Mechanical properties :
#
#
# Convention : Reuss Voigt Hill
#
# Bulk Modulus (GPa) = 28.91242 48.27518 38.59380
# Shear Modulus (GPa) = 27.27167 33.21959 30.24563
#
# Velocity S-wave (km/s) = 3.46247 3.82144 3.64638
# Velocity P-wave (km/s) = 5.35676 6.37912 5.89016
#
# Compressibility (1/GPa) = 0.03458721
#
# Stress axis : x y z
#
# Youngs Moduli (GPa) = 74.75168 81.35911 63.79130
#
# Poissons Ratio (x) = 0.28460 -0.07470
# Poissons Ratio (y) = 0.26149 0.06709
# Poissons Ratio (z) = -0.08753 0.08557
#
# Static dielectric constant tensor:
#      x y z
#    x 1.913780 0.001880 0.049160 
#    y 0.001880 1.836200 -0.014980 
#    z 0.049160 -0.014980 1.868260 
# 
# From -- ./inp_files/271819.got.cif
#   From: 2010.05.17/outbox.cif.g08.bks.cpg/sg2_136_cif.got.tgz:271819.got - 2010.06.03 11:33:40.
