data_PCOD9002729
_publ_section_title
;
Structure prediction by ZEFSAII (Michael W. Deem and Ramdas Pophale) SiO2 
 PCOD9002729
Probable space group: P -1
;
_chemical_formula_sum "Si O2"
_cell_formula_units_Z 14
_cell_length_a 9.925000
_cell_length_b 23.092777
_cell_length_c 5.161063
_cell_angle_alpha 98.581639
_cell_angle_beta 71.327878
_cell_angle_gamma 146.185022
_cell_volume 608.156766
_symmetry_space_group_name_H-M "P -1"
_symmetry_group_IT_number 2
_symmetry_cell_setting 'triclinic'
loop_
_space_group_symop_operation_xyz
x,y,z
-x,-y,-z
loop_
_atom_site_type_symbol
_atom_site_label
_atom_site_fract_x
_atom_site_fract_y
_atom_site_fract_z
Si Si1 0.957180 0.720006 0.635010
Si Si2 0.267953 0.204617 0.874512
Si Si3 0.550128 0.108246 0.189292
Si Si4 0.428609 0.575629 0.084867
Si Si5 0.258713 0.122699 0.330865
Si Si6 0.141092 0.878161 0.284461
Si Si7 0.752878 0.545607 0.378876
O O1 0.699905 0.632386 0.915263
O O2 0.964407 0.666751 0.404081
O O3 0.214325 0.807655 0.702334
O O4 0.941080 0.775088 0.520743
O O5 0.341345 0.192100 0.566804
O O6 0.011561 0.150619 0.891606
O O7 0.482042 0.326481 0.898331
O O8 0.219044 0.146228 0.110584
O O9 0.463633 0.141679 0.172992
O O10 0.302306 0.987503 0.373894
O O11 0.653541 0.101747 0.895069
O O12 0.245860 0.490687 0.908267
O O13 0.292839 0.513145 0.393673
O O14 0.000000 0.000000 0.500000
O O15 0.500000 0.500000 0.500000
#
# Coordination Sequence:
#
# PCOD9002729 Si02
#       7
#     2   2   2   2   2   2   2
#     4  11  22  38  67  98 141 170 218 281 345 384
#     4  12  24  45  69  95 134 178 224 271 327 396
#     4  11  26  40  65  99 142 175 223 270 340 395
#     4  11  22  39  67  99 129 173 222 278 328 392
#     4  12  27  44  68  94 139 182 224 266 327 402
#     4  11  24  41  67 100 136 177 222 278 329 401
#     4  10  21  36  64 100 135 163 218 281 338 384
#
# _framework density 23.020379999999999
#
# number of rings (size 3 to 8) (size 9 to 14) (size 15 to 20)
#    0.000    0.857    2.857    6.000    4.000    1.143 
#    0.000    0.000    0.000    5.143    0.000    0.000 
#    0.000    0.000    0.000    0.000    0.000    0.000 
#
# Total GULP energy -78330.433296 kJ/mol
# GULP energy per Si atom -5595.030950 kJ/mol
# Density = 2.296798 g / cm^3
# Si number density = 23.020380 Si / 1000 Ang^3
#
#
#
# Elastic Constant Matrix: (Units=GPa)
#
#
# Indices 1 2 3 4 5 6 
#
# 1 117.0301 14.1167 35.2723 -3.8823 11.1664 -18.3464
# 2 14.1167 108.2773 0.4824 12.8093 13.2776 -4.1734
# 3 35.2723 0.4824 71.1218 -1.5133 21.5077 2.0268
# 4 -3.8823 12.8093 -1.5133 33.8605 -12.0663 7.9649
# 5 11.1664 13.2776 21.5077 -12.0663 44.8228 6.3588
# 6 -18.3464 -4.1734 2.0268 7.9649 6.3588 19.5850
#
#
#
# Elastic Compliance Matrix: (Units=1/GPa)
#
#
# Indices 1 2 3 4 5 6 
#
# 1 0.012946 -0.000243 -0.005891 -0.003485 -0.003423 0.015214
# 2 -0.000243 0.011651 0.002035 -0.009177 -0.008027 0.008382
# 3 -0.005891 0.002035 0.019709 -0.003079 -0.009003 -0.002950
# 4 -0.003485 -0.009177 -0.003079 0.047924 0.022460 -0.031684
# 5 -0.003423 -0.008027 -0.009003 0.022460 0.039591 -0.025973
# 6 0.015214 0.008382 -0.002950 -0.031684 -0.025973 0.088721
#
#
# Mechanical properties :
#
#
# Convention : Reuss Voigt Hill
#
# Bulk Modulus (GPa) = 27.69570 44.01912 35.85741
# Shear Modulus (GPa) = 20.76616 36.09085 28.42850
#
# Velocity S-wave (km/s) = 3.00672 3.96381 3.51797
# Velocity P-wave (km/s) = 4.91028 6.33344 5.66671
#
# Compressibility (1/GPa) = 0.03610668
#
# Stress axis : x y z
#
# Youngs Moduli (GPa) = 77.24578 85.82842 50.73735
#
# Poissons Ratio (x) = 0.02087 0.29891
# Poissons Ratio (y) = 0.01878 -0.10324
# Poissons Ratio (z) = 0.45508 -0.17464
#
# Static dielectric constant tensor:
#      x y z
#    x 1.855890 -0.020300 -0.044240 
#    y -0.020300 1.939790 -0.009090 
#    z -0.044240 -0.009090 1.935070 
# 
# From -- ./inp_files/51458.got.cif
#   From: 2010.05.17/outbox.cif.g08.bks.cpg/sg2_26_cif.got.tgz:51458.got - 2010.06.03 11:33:40.
