data_PCOD9002621
_publ_section_title
;
Structure prediction by ZEFSAII (Michael W. Deem and Ramdas Pophale) SiO2 
 PCOD9002621
Probable space group: P -1
;
_chemical_formula_sum "Si O2"
_cell_formula_units_Z 14
_cell_length_a 5.315944
_cell_length_b 5.415652
_cell_length_c 22.247265
_cell_angle_alpha 104.488413
_cell_angle_beta 66.730010
_cell_angle_gamma 102.094225
_cell_volume 565.242631
_symmetry_space_group_name_H-M "P -1"
_symmetry_group_IT_number 2
_symmetry_cell_setting 'triclinic'
loop_
_space_group_symop_operation_xyz
x,y,z
-x,-y,-z
loop_
_atom_site_type_symbol
_atom_site_label
_atom_site_fract_x
_atom_site_fract_y
_atom_site_fract_z
Si Si1 0.929100 0.035430 0.421737
Si Si2 0.298059 0.568224 0.076883
Si Si3 0.065709 0.570199 0.305108
Si Si4 0.824479 0.988302 0.954873
Si Si5 0.391390 0.646179 0.752799
Si Si6 0.535550 0.775727 0.189312
Si Si7 0.417694 0.235639 0.456153
O O1 0.019032 0.770285 0.373573
O O2 0.749452 0.968304 0.494897
O O3 0.705300 0.137264 0.405070
O O4 0.193770 0.237437 0.424850
O O5 0.158982 0.287962 0.093112
O O6 0.477601 0.704592 0.121569
O O7 0.104252 0.764645 0.079179
O O8 0.500000 0.500000 0.000000
O O9 0.786409 0.440740 0.293883
O O10 0.283402 0.374891 0.289371
O O11 0.232541 0.738345 0.247084
O O12 0.500000 0.000000 0.000000
O O13 0.000000 0.000000 0.000000
O O14 0.320974 0.434301 0.799347
O O15 0.347177 0.930747 0.793715
O O16 0.500000 0.500000 0.500000
#
# Coordination Sequence:
#
# PCOD9002621 Si02
#       7
#     2   2   2   2   2   2   2
#     4  10  21  39  60  91 128 164 215 256 316 379
#     4  10  21  43  64  94 126 165 210 264 327 393
#     4  10  24  42  65  94 129 175 222 268 323 387
#     4  10  21  40  60  90 120 159 201 250 311 382
#     4  10  24  42  66  91 131 167 220 272 323 383
#     4  10  24  44  65  97 128 172 215 275 328 390
#     4  10  21  36  62  94 130 166 206 260 315 376
#
# _framework density 24.768125000000001
#
# number of rings (size 3 to 8) (size 9 to 14) (size 15 to 20)
#    0.857    1.143    0.000    2.571    2.000    2.286 
#   15.429    0.000    0.000    0.000    0.000    0.000 
#    0.000    0.000    0.000    0.000    0.000    0.000 
#
# Total GULP energy -78292.902145 kJ/mol
# GULP energy per Si atom -5592.350153 kJ/mol
# Density = 2.471175 g / cm^3
# Si number density = 24.768125 Si / 1000 Ang^3
#
#
#
# Elastic Constant Matrix: (Units=GPa)
#
#
# Indices 1 2 3 4 5 6 
#
# 1 187.3699 51.8212 39.5073 13.5484 15.1863 5.1484
# 2 51.8212 150.4213 25.4773 31.1265 12.0532 -23.2538
# 3 39.5073 25.4773 82.3224 13.3814 9.8879 -4.9330
# 4 13.5484 31.1265 13.3814 55.6198 1.5901 6.0499
# 5 15.1863 12.0532 9.8879 1.5901 41.3813 9.3389
# 6 5.1484 -23.2538 -4.9330 6.0499 9.3389 32.2462
#
#
#
# Elastic Compliance Matrix: (Units=1/GPa)
#
#
# Indices 1 2 3 4 5 6 
#
# 1 0.006658 -0.002481 -0.002711 0.000790 -0.000355 -0.003312
# 2 -0.002481 0.010861 0.000070 -0.006533 -0.004445 0.010752
# 3 -0.002711 0.000070 0.014621 -0.003268 -0.003365 0.004308
# 4 0.000790 -0.006533 -0.003268 0.023297 0.003948 -0.010852
# 5 -0.000355 -0.004445 -0.003365 0.003948 0.029142 -0.012844
# 6 -0.003312 0.010752 0.004308 -0.010852 -0.012844 0.045709
#
#
# Mechanical properties :
#
#
# Convention : Reuss Voigt Hill
#
# Bulk Modulus (GPa) = 45.67544 72.63616 59.15580
# Shear Modulus (GPa) = 33.82229 46.06996 39.94613
#
# Velocity S-wave (km/s) = 3.69935 4.31751 4.02033
# Velocity P-wave (km/s) = 6.06038 7.36510 6.74436
#
# Compressibility (1/GPa) = 0.02189361
#
# Stress axis : x y z
#
# Youngs Moduli (GPa) = 150.20126 92.06920 68.39657
#
# Poissons Ratio (x) = 0.22846 0.18544
# Poissons Ratio (y) = 0.37271 -0.00476
# Poissons Ratio (z) = 0.40724 -0.00641
#
# Static dielectric constant tensor:
#      x y z
#    x 1.837090 -0.175870 0.086080 
#    y -0.175870 1.760260 0.112780 
#    z 0.086080 0.112780 1.787460 
# 
# From -- ./inp_files/603005.got.cif
#   From: 2010.05.17/outbox.cif.g08.bks.cpg/sg2_302_cif.got.tgz:603005.got - 2010.06.03 11:33:40.
