data_PCOD9002887
_publ_section_title
;
Structure prediction by ZEFSAII (Michael W. Deem and Ramdas Pophale) SiO2 
 PCOD9002887
Probable space group: P -1
;
_chemical_formula_sum "Si O2"
_cell_formula_units_Z 16
_cell_length_a 14.247885
_cell_length_b 8.370293
_cell_length_c 14.570006
_cell_angle_alpha 58.363866
_cell_angle_beta 148.097732
_cell_angle_gamma 122.501480
_cell_volume 765.288091
_symmetry_space_group_name_H-M "P -1"
_symmetry_group_IT_number 2
_symmetry_cell_setting 'triclinic'
loop_
_space_group_symop_operation_xyz
x,y,z
-x,-y,-z
loop_
_atom_site_type_symbol
_atom_site_label
_atom_site_fract_x
_atom_site_fract_y
_atom_site_fract_z
Si Si1 0.261059 0.514471 0.468232
Si Si2 0.154297 0.925643 0.593979
Si Si3 0.467746 0.250630 0.826499
Si Si4 0.373319 0.291810 0.946871
Si Si5 0.127464 0.150217 0.331561
Si Si6 0.279917 0.875662 0.053508
Si Si7 0.521711 0.282344 0.564563
Si Si8 0.056257 0.489476 0.654902
O O1 0.410055 0.432643 0.675912
O O2 0.168444 0.338542 0.376476
O O3 0.360101 0.694228 0.436647
O O4 0.110330 0.555052 0.400655
O O5 0.157319 0.710089 0.688876
O O6 0.338698 0.067055 0.729648
O O7 0.112686 0.966884 0.441503
O O8 0.000000 0.000000 0.500000
O O9 0.407304 0.245319 0.883022
O O10 0.664484 0.227570 0.962132
O O11 0.183708 0.339159 0.806978
O O12 0.500000 0.500000 0.000000
O O13 0.378586 0.099517 0.064461
O O14 0.314127 0.166007 0.424782
O O15 0.937988 0.144646 0.123976
O O16 0.365012 0.783868 0.237948
O O17 0.500000 0.500000 0.500000
O O18 0.000000 0.500000 0.500000
#
# Coordination Sequence:
#
# PCOD9002887 Si02
#       8
#     2   2   2   2   2   2   2   2
#     4  10  21  40  65  99 129 174 219 277 326 395
#     4  11  18  36  66  96 126 173 225 274 331 395
#     4  11  21  42  64  96 134 170 222 281 337 392
#     4  12  28  40  59 102 143 176 214 276 350 406
#     4  10  21  36  68 100 129 171 222 275 337 377
#     4  12  23  42  69 100 133 174 229 278 329 400
#     4  10  21  43  65 100 136 167 231 282 324 388
#     4  12  22  39  64  93 137 175 215 269 340 409
#
# _framework density 20.907160999999999
#
# number of rings (size 3 to 8) (size 9 to 14) (size 15 to 20)
#    0.000    1.000    7.500    2.625    1.750    2.000 
#    0.000    0.625    0.000    5.250    0.000    0.000 
#    0.000    0.000    0.000    0.000    0.000    0.000 
#
# Total GULP energy -89313.961835 kJ/mol
# GULP energy per Si atom -5582.122615 kJ/mol
# Density = 2.085958 g / cm^3
# Si number density = 20.907161 Si / 1000 Ang^3
#
#
#
# Elastic Constant Matrix: (Units=GPa)
#
#
# Indices 1 2 3 4 5 6 
#
# 1 158.8045 44.2949 51.9030 -14.6998 16.0513 26.9120
# 2 44.2949 70.8459 47.9062 -20.0295 -1.9031 16.8238
# 3 51.9030 47.9062 111.2489 -15.2786 8.5556 15.9616
# 4 -14.6998 -20.0295 -15.2786 37.5576 6.6772 0.2302
# 5 16.0513 -1.9031 8.5556 6.6772 33.0531 -3.4886
# 6 26.9120 16.8238 15.9616 0.2302 -3.4886 32.2554
#
#
#
# Elastic Compliance Matrix: (Units=1/GPa)
#
#
# Indices 1 2 3 4 5 6 
#
# 1 0.009439 -0.002796 -0.001512 0.002612 -0.005544 -0.006287
# 2 -0.002796 0.025139 -0.007475 0.008921 0.002209 -0.006905
# 3 -0.001512 -0.007475 0.013736 0.001700 -0.003812 -0.002061
# 4 0.002612 0.008921 0.001700 0.034781 -0.009162 -0.008913
# 5 -0.005544 0.002209 -0.003812 -0.009162 0.036906 0.009417
# 6 -0.006287 -0.006905 -0.002061 -0.008913 0.009417 0.041951
#
#
# Mechanical properties :
#
#
# Convention : Reuss Voigt Hill
#
# Bulk Modulus (GPa) = 40.40990 69.90083 55.15536
# Shear Modulus (GPa) = 25.80415 33.69288 29.74852
#
# Velocity S-wave (km/s) = 3.51697 4.01876 3.77621
# Velocity P-wave (km/s) = 5.98851 7.41892 6.74176
#
# Compressibility (1/GPa) = 0.02474641
#
# Stress axis : x y z
#
# Youngs Moduli (GPa) = 105.94446 39.77845 72.80330
#
# Poissons Ratio (x) = 0.11123 0.11011
# Poissons Ratio (y) = 0.29626 0.54420
# Poissons Ratio (z) = 0.16023 0.29734
#
# Static dielectric constant tensor:
#      x y z
#    x 1.860030 -0.003510 -0.016410 
#    y -0.003510 1.761410 0.076290 
#    z -0.016410 0.076290 1.781700 
# 
# From -- ./inp_files/529488.got.cif
#   From: 2010.05.17/outbox.cif.g08.bks.cpg/sg2_265_cif.got.tgz:529488.got - 2010.06.03 11:33:40.
