data_PCOD9002456
_publ_section_title
;
Structure prediction by ZEFSAII (Michael W. Deem and Ramdas Pophale) SiO2 
 PCOD9002456
Probable space group: P -1
;
_chemical_formula_sum "Si O2"
_cell_formula_units_Z 12
_cell_length_a 12.214163
_cell_length_b 18.582290
_cell_length_c 6.910462
_cell_angle_alpha 46.284128
_cell_angle_beta 51.311729
_cell_angle_gamma 26.389915
_cell_volume 503.787250
_symmetry_space_group_name_H-M "P -1"
_symmetry_group_IT_number 2
_symmetry_cell_setting 'triclinic'
loop_
_space_group_symop_operation_xyz
x,y,z
-x,-y,-z
loop_
_atom_site_type_symbol
_atom_site_label
_atom_site_fract_x
_atom_site_fract_y
_atom_site_fract_z
Si Si1 0.496508 0.518892 0.743604
Si Si2 0.549117 0.238358 0.802561
Si Si3 0.121611 0.801980 0.356309
Si Si4 0.737703 0.874159 0.605510
Si Si5 0.691557 0.763018 0.197131
Si Si6 0.822173 0.644680 0.703726
O O1 0.558135 0.596878 0.476095
O O2 0.227470 0.669651 0.660534
O O3 0.684888 0.335205 0.772695
O O4 0.500000 0.500000 0.000000
O O5 0.819978 0.119598 0.788768
O O6 0.532922 0.165947 0.787108
O O7 0.378004 0.299350 0.052637
O O8 0.860190 0.910087 0.392707
O O9 0.900807 0.693261 0.657025
O O10 0.500000 0.000000 0.500000
O O11 0.699773 0.862053 0.890079
O O12 0.702055 0.752012 0.436012
O O13 0.940234 0.558839 0.235337
#
# Coordination Sequence:
#
# PCOD9002456 Si02
#       6
#     2   2   2   2   2   2
#     4   9  18  29  54  87 115 141 183 244 295 329
#     4   9  18  32  53  81 112 140 188 240 287 331
#     4   9  20  33  53  84 114 145 193 238 284 337
#     4  11  23  41  58  83 123 159 193 233 285 352
#     4  10  21  36  61  84 117 153 194 239 290 340
#     4  10  21  37  59  86 116 153 195 239 287 344
#
# _framework density 23.819579999999998
#
# number of rings (size 3 to 8) (size 9 to 14) (size 15 to 20)
#    1.000    1.333    0.000    4.000    2.333    3.333 
#    0.000    3.333    0.000    2.000    0.000    0.000 
#    0.000    0.000    0.000    0.000    0.000    0.000 
#
# Total GULP energy -66996.569460 kJ/mol
# GULP energy per Si atom -5583.047455 kJ/mol
# Density = 2.376537 g / cm^3
# Si number density = 23.819580 Si / 1000 Ang^3
#
#
#
# Elastic Constant Matrix: (Units=GPa)
#
#
# Indices 1 2 3 4 5 6 
#
# 1 124.9724 17.8525 62.8807 16.2717 -2.3460 -35.5441
# 2 17.8525 64.9389 22.5846 -6.7504 -3.8196 -24.4662
# 3 62.8807 22.5846 167.1848 -11.2913 25.3920 -12.1652
# 4 16.2717 -6.7504 -11.2913 18.6738 -0.6605 -7.3547
# 5 -2.3460 -3.8196 25.3920 -0.6605 55.8255 7.3026
# 6 -35.5441 -24.4662 -12.1652 -7.3547 7.3026 44.3847
#
#
#
# Elastic Compliance Matrix: (Units=1/GPa)
#
#
# Indices 1 2 3 4 5 6 
#
# 1 0.015437 -0.000528 -0.006547 -0.014577 0.002442 0.007459
# 2 -0.000528 0.022556 -0.000965 0.013530 0.000297 0.013939
# 3 -0.006547 -0.000965 0.010006 0.011073 -0.004706 -0.000424
# 4 -0.014577 0.013530 0.011073 0.082949 -0.005504 0.013471
# 5 0.002442 0.000297 -0.004706 -0.005504 0.020565 -0.003466
# 6 0.007459 0.013939 -0.000424 0.013471 -0.003466 0.038874
#
#
# Mechanical properties :
#
#
# Convention : Reuss Voigt Hill
#
# Bulk Modulus (GPa) = 31.33116 62.63684 46.98400
# Shear Modulus (GPa) = 23.03016 40.69536 31.86276
#
# Velocity S-wave (km/s) = 3.11281 4.13786 3.66139
# Velocity P-wave (km/s) = 5.10896 7.01304 6.13532
#
# Compressibility (1/GPa) = 0.03191711
#
# Stress axis : x y z
#
# Youngs Moduli (GPa) = 64.78027 44.33497 99.93877
#
# Poissons Ratio (x) = 0.02341 0.65433
# Poissons Ratio (y) = 0.03420 0.09648
# Poissons Ratio (z) = 0.42414 0.04280
#
# Static dielectric constant tensor:
#      x y z
#    x 1.965630 0.000640 -0.022310 
#    y 0.000640 2.037290 -0.059730 
#    z -0.022310 -0.059730 1.883980 
# 
# From -- ./inp_files/61585.got.cif
#   From: 2010.05.17/outbox.cif.g08.bks.cpg/sg2_31_cif.got.tgz:61585.got - 2010.06.03 11:33:40.
