data_PCOD9002032
_publ_section_title
;
Structure prediction by ZEFSAII (Michael W. Deem and Ramdas Pophale) SiO2 
 PCOD9002032
Probable space group: P -1
;
_chemical_formula_sum "Si O2"
_cell_formula_units_Z 16
_cell_length_a 15.200331
_cell_length_b 15.781787
_cell_length_c 8.066763
_cell_angle_alpha 59.260551
_cell_angle_beta 84.860413
_cell_angle_gamma 35.630227
_cell_volume 735.642924
_symmetry_space_group_name_H-M "P -1"
_symmetry_group_IT_number 2
_symmetry_cell_setting 'triclinic'
loop_
_space_group_symop_operation_xyz
x,y,z
-x,-y,-z
loop_
_atom_site_type_symbol
_atom_site_label
_atom_site_fract_x
_atom_site_fract_y
_atom_site_fract_z
Si Si1 0.291781 0.596584 0.019882
Si Si2 0.999997 0.738873 0.761124
Si Si3 0.385747 0.997461 0.347074
Si Si4 0.291795 0.819840 0.796615
Si Si5 0.385741 0.231045 0.113483
Si Si6 0.769139 0.337789 0.659386
Si Si7 0.769117 0.123952 0.873250
Si Si8 0.499997 0.220887 0.779114
O O1 0.500001 0.359536 0.140480
O O2 0.329479 0.563822 0.241403
O O3 0.118038 0.694190 0.909456
O O4 0.239202 0.760798 0.809382
O O5 0.827491 0.843618 0.763739
O O6 0.172502 0.498603 0.894034
O O7 0.881955 0.930272 0.466076
O O8 0.356126 0.143871 0.184535
O O9 0.500001 0.867981 0.632025
O O10 0.511243 0.831523 0.334305
O O11 0.329531 0.777170 0.028034
O O12 0.511230 0.145996 0.019822
O O13 0.682521 0.521888 0.410995
O O14 0.733777 0.266219 0.653883
O O15 0.000014 0.112938 0.887032
O O16 0.682522 0.113065 0.819830
#
# Coordination Sequence:
#
# PCOD9002032 Si02
#       8
#     2   2   2   2   2   2   2   2
#     4  10  21  36  57  91 130 164 200 242 294 362
#     4  12  20  38  66  90 122 166 206 252 308 364
#     4  11  26  45  64  90 122 157 207 267 317 364
#     4  10  21  36  57  91 130 164 200 242 294 362
#     4  11  26  45  64  90 122 157 207 267 317 364
#     4  10  21  36  56  88 126 159 196 242 294 360
#     4  10  21  36  56  88 126 159 196 242 294 360
#     4  12  22  40  68  90 118 164 206 246 306 368
#
# _framework density 21.749683000000001
#
# number of rings (size 3 to 8) (size 9 to 14) (size 15 to 20)
#    0.000    1.250    0.000    6.750    0.000    0.000 
#    0.000   10.000    0.000    9.750    0.000    0.000 
#    0.000    0.000    0.000    0.000    0.000    0.000 
#
# Total GULP energy -89414.440200 kJ/mol
# GULP energy per Si atom -5588.402513 kJ/mol
# Density = 2.170018 g / cm^3
# Si number density = 21.749683 Si / 1000 Ang^3
#
#
#
# Elastic Constant Matrix: (Units=GPa)
#
#
# Indices 1 2 3 4 5 6 
#
# 1 174.0517 36.9694 53.4830 -3.8420 -9.1272 10.7539
# 2 36.9694 97.9013 38.7543 -2.7355 -6.8804 1.5144
# 3 53.4830 38.7543 107.6254 -16.5738 -18.1573 11.0928
# 4 -3.8420 -2.7355 -16.5738 39.7306 1.7373 -1.1681
# 5 -9.1272 -6.8804 -18.1573 1.7373 39.5694 -10.7421
# 6 10.7539 1.5144 11.0928 -1.1681 -10.7421 35.6241
#
#
#
# Elastic Compliance Matrix: (Units=1/GPa)
#
#
# Indices 1 2 3 4 5 6 
#
# 1 0.007025 -0.001494 -0.002985 -0.000691 -0.000317 -0.001246
# 2 -0.001494 0.012300 -0.003887 -0.000900 0.000382 0.001224
# 3 -0.002985 -0.003887 0.013849 0.004981 0.004286 -0.001790
# 4 -0.000691 -0.000900 0.004981 0.027081 0.000727 -0.000197
# 5 -0.000317 0.000382 0.004286 0.000727 0.029261 0.007592
# 6 -0.001246 0.001224 -0.001790 -0.000197 0.007592 0.031235
#
#
# Mechanical properties :
#
#
# Convention : Reuss Voigt Hill
#
# Bulk Modulus (GPa) = 60.81501 70.88798 65.85150
# Shear Modulus (GPa) = 34.97418 39.67627 37.32523
#
# Velocity S-wave (km/s) = 4.01438 4.27573 4.14711
# Velocity P-wave (km/s) = 7.03626 7.55243 7.29891
#
# Compressibility (1/GPa) = 0.01644331
#
# Stress axis : x y z
#
# Youngs Moduli (GPa) = 142.35105 81.30184 72.20783
#
# Poissons Ratio (x) = 0.12143 0.21551
# Poissons Ratio (y) = 0.21261 0.28067
# Poissons Ratio (z) = 0.42486 0.31602
#
# Static dielectric constant tensor:
#      x y z
#    x 1.823810 0.001310 -0.010920 
#    y 0.001310 1.805960 -0.012210 
#    z -0.010920 -0.012210 1.798240 
# 
# From -- ./inp_files/312743.got.cif
#   From: 2010.05.17/outbox.cif.g08.bks.cpg/sg2_157_cif.got.tgz:312743.got - 2010.06.03 11:33:40.
