data_PCOD9002660
_publ_section_title
;
Structure prediction by ZEFSAII (Michael W. Deem and Ramdas Pophale) SiO2 
 PCOD9002660
Probable space group: P -1
;
_chemical_formula_sum "Si O2"
_cell_formula_units_Z 16
_cell_length_a 9.219209
_cell_length_b 9.375988
_cell_length_c 13.248961
_cell_angle_alpha 130.983856
_cell_angle_beta 94.410172
_cell_angle_gamma 64.387412
_cell_volume 742.798610
_symmetry_space_group_name_H-M "P -1"
_symmetry_group_IT_number 2
_symmetry_cell_setting 'triclinic'
loop_
_space_group_symop_operation_xyz
x,y,z
-x,-y,-z
loop_
_atom_site_type_symbol
_atom_site_label
_atom_site_fract_x
_atom_site_fract_y
_atom_site_fract_z
Si Si1 0.325695 0.604872 0.713075
Si Si2 0.664791 0.714934 0.942565
Si Si3 0.813721 0.668823 0.523574
Si Si4 0.819410 0.286781 0.885071
Si Si5 0.997052 0.905666 0.565516
Si Si6 0.104551 0.089243 0.952198
Si Si7 0.686992 0.165147 0.987197
Si Si8 0.672213 0.561168 0.646250
O O1 0.260166 0.441269 0.607201
O O2 0.493503 0.568704 0.648265
O O3 0.174703 0.851186 0.796533
O O4 0.356751 0.629416 0.845062
O O5 0.721943 0.513525 0.928624
O O6 0.706180 0.619442 0.787132
O O7 0.764810 0.834175 0.031892
O O8 0.465669 0.873410 0.017063
O O9 0.691361 0.715895 0.636193
O O10 0.000000 0.500000 0.500000
O O11 0.852390 0.840460 0.548264
O O12 0.697879 0.212221 0.894214
O O13 0.927298 0.270155 0.982826
O O14 0.949201 0.103667 0.731378
O O15 0.178558 0.685379 0.486559
O O16 0.000000 0.000000 0.500000
O O17 0.139594 0.032708 0.047759
#
# Coordination Sequence:
#
# PCOD9002660 Si02
#       8
#     2   2   2   2   2   2   2   2
#     4   9  21  40  65  93 125 152 209 266 297 360
#     4  11  22  40  63  93 127 161 199 255 314 369
#     4  10  21  36  63  88 117 164 208 245 305 359
#     4  12  23  40  60  90 129 161 203 253 316 363
#     4  11  24  42  61  90 126 168 203 256 308 368
#     4  10  22  38  64  95 120 159 204 255 308 360
#     4   9  23  40  65  88 125 160 209 254 305 366
#     4  10  21  40  65  90 127 161 209 253 303 368
#
# _framework density 21.540158000000002
#
# number of rings (size 3 to 8) (size 9 to 14) (size 15 to 20)
#    0.750    1.000    1.250    3.375    1.750    2.000 
#    2.250    0.625    0.000    0.000    0.000    0.000 
#    0.000    0.000    0.000    0.000    0.000    0.000 
#
# Total GULP energy -89200.533119 kJ/mol
# GULP energy per Si atom -5575.033320 kJ/mol
# Density = 2.149113 g / cm^3
# Si number density = 21.540158 Si / 1000 Ang^3
#
#
#
# Elastic Constant Matrix: (Units=GPa)
#
#
# Indices 1 2 3 4 5 6 
#
# 1 104.1850 23.0247 18.2732 5.6555 -7.6875 19.0787
# 2 23.0247 135.8018 24.7923 -11.1399 -3.3688 22.3926
# 3 18.2732 24.7923 45.5256 -9.7575 -14.4065 3.4434
# 4 5.6555 -11.1399 -9.7575 25.1258 8.8229 -6.7453
# 5 -7.6875 -3.3688 -14.4065 8.8229 31.9563 -2.7391
# 6 19.0787 22.3926 3.4434 -6.7453 -2.7391 28.2519
#
#
#
# Elastic Compliance Matrix: (Units=1/GPa)
#
#
# Indices 1 2 3 4 5 6 
#
# 1 0.013032 -0.000240 -0.005515 -0.008560 0.002149 -0.009773
# 2 -0.000240 0.009459 -0.004979 0.001320 -0.002238 -0.006630
# 3 -0.005515 -0.004979 0.031702 0.009602 0.010398 0.007108
# 4 -0.008560 0.001320 0.009602 0.054111 -0.011211 0.015396
# 5 0.002149 -0.002238 0.010398 -0.011211 0.039374 0.000196
# 6 -0.009773 -0.006630 0.007108 0.015396 0.000196 0.050080
#
#
# Mechanical properties :
#
#
# Convention : Reuss Voigt Hill
#
# Bulk Modulus (GPa) = 30.55816 46.41033 38.48425
# Shear Modulus (GPa) = 21.72654 31.69496 26.71075
#
# Velocity S-wave (km/s) = 3.17938 3.84009 3.52525
# Velocity P-wave (km/s) = 5.26263 6.42296 5.87153
#
# Compressibility (1/GPa) = 0.03272448
#
# Stress axis : x y z
#
# Youngs Moduli (GPa) = 76.73636 105.71511 31.54393
#
# Poissons Ratio (x) = 0.02536 0.17398
# Poissons Ratio (y) = 0.01841 0.15705
# Poissons Ratio (z) = 0.42324 0.52634
#
# Static dielectric constant tensor:
#      x y z
#    x 1.823050 0.022020 0.012080 
#    y 0.022020 1.822880 -0.027650 
#    z 0.012080 -0.027650 1.804350 
# 
# From -- ./inp_files/495815.got.cif
#   From: 2010.05.17/outbox.cif.g08.bks.cpg/sg2_248_cif.got.tgz:495815.got - 2010.06.03 11:33:40.
