data_PCOD9002509
_publ_section_title
;
Structure prediction by ZEFSAII (Michael W. Deem and Ramdas Pophale) SiO2 
 PCOD9002509
Probable space group: P -1
;
_chemical_formula_sum "Si O2"
_cell_formula_units_Z 14
_cell_length_a 13.078780
_cell_length_b 13.928648
_cell_length_c 15.416166
_cell_angle_alpha 125.130912
_cell_angle_beta 137.060441
_cell_angle_gamma 20.829961
_cell_volume 607.853743
_symmetry_space_group_name_H-M "P -1"
_symmetry_group_IT_number 2
_symmetry_cell_setting 'triclinic'
loop_
_space_group_symop_operation_xyz
x,y,z
-x,-y,-z
loop_
_atom_site_type_symbol
_atom_site_label
_atom_site_fract_x
_atom_site_fract_y
_atom_site_fract_z
Si Si1 0.717383 0.096481 0.051327
Si Si2 0.879710 0.325318 0.514379
Si Si3 0.135391 0.561455 0.796799
Si Si4 0.601909 0.541120 0.796303
Si Si5 0.818906 0.028190 0.810355
Si Si6 0.267005 0.332443 0.496253
Si Si7 0.421168 0.753225 0.613804
O O1 0.633462 0.214341 0.153444
O O2 0.325403 0.358751 0.890975
O O3 0.998984 0.785531 0.081745
O O4 0.932208 0.039980 0.097080
O O5 0.634753 0.407120 0.348640
O O6 0.892755 0.438100 0.531567
O O7 0.643722 0.521547 0.557925
O O8 0.292746 0.971890 0.611186
O O9 0.452325 0.331376 0.796755
O O10 0.771308 0.751700 0.633232
O O11 0.032693 0.770126 0.860331
O O12 0.642713 0.583126 0.753769
O O13 0.680102 0.067695 0.654754
O O14 0.000000 0.500000 0.500000
O O15 0.000000 0.000000 0.500000
#
# Coordination Sequence:
#
# PCOD9002509 Si02
#       7
#     2   2   2   2   2   2   2
#     4  12  22  36  63  85 123 154 199 250 298 353
#     4  11  21  38  61  89 123 155 196 250 304 348
#     4  11  24  40  55  87 121 165 198 240 296 356
#     4  11  21  37  61  92 118 151 200 251 307 348
#     4  11  22  39  59  84 119 158 209 245 290 346
#     4  10  24  40  63  88 125 161 204 242 290 361
#     4  10  21  36  61  91 122 147 197 260 307 345
#
# _framework density 23.031856000000001
#
# number of rings (size 3 to 8) (size 9 to 14) (size 15 to 20)
#    0.000    1.143    1.429    7.286    2.000    2.286 
#    0.000    0.000    0.000    5.143    0.000    0.000 
#    0.000    0.000    0.000    0.000    0.000    0.000 
#
# Total GULP energy -78368.507323 kJ/mol
# GULP energy per Si atom -5597.750523 kJ/mol
# Density = 2.297943 g / cm^3
# Si number density = 23.031856 Si / 1000 Ang^3
#
#
#
# Elastic Constant Matrix: (Units=GPa)
#
#
# Indices 1 2 3 4 5 6 
#
# 1 70.9750 8.4432 7.7994 2.3920 -19.7802 11.1955
# 2 8.4432 90.4134 -8.6618 -6.9874 -0.2097 9.1468
# 3 7.7994 -8.6618 85.1386 -7.5451 -10.5353 0.1805
# 4 2.3920 -6.9874 -7.5451 34.9249 5.8848 -19.7648
# 5 -19.7802 -0.2097 -10.5353 5.8848 17.6788 -5.6747
# 6 11.1955 9.1468 0.1805 -19.7648 -5.6747 45.6271
#
#
#
# Elastic Compliance Matrix: (Units=1/GPa)
#
#
# Indices 1 2 3 4 5 6 
#
# 1 0.023367 -0.002258 0.000152 -0.010221 0.027596 -0.006277
# 2 -0.002258 0.011695 0.001287 0.002695 -0.002833 -0.000980
# 3 0.000152 0.001287 0.013050 0.002813 0.007609 0.001818
# 4 -0.010221 0.002695 0.002813 0.044238 -0.018410 0.018830
# 5 0.027596 -0.002833 0.007609 -0.018410 0.097397 -0.002095
# 6 -0.006277 -0.000980 0.001818 0.018830 -0.002095 0.031543
#
#
# Mechanical properties :
#
#
# Convention : Reuss Voigt Hill
#
# Bulk Modulus (GPa) = 21.51798 29.07652 25.29725
# Shear Modulus (GPa) = 20.97142 35.57589 28.27366
#
# Velocity S-wave (km/s) = 3.02079 3.93445 3.50750
# Velocity P-wave (km/s) = 4.64003 5.76990 5.23553
#
# Compressibility (1/GPa) = 0.04647276
#
# Stress axis : x y z
#
# Youngs Moduli (GPa) = 42.79592 85.50361 76.63072
#
# Poissons Ratio (x) = 0.19311 -0.01164
# Poissons Ratio (y) = 0.09665 -0.09863
# Poissons Ratio (z) = -0.00650 -0.11005
#
# Static dielectric constant tensor:
#      x y z
#    x 1.863240 0.028340 0.001500 
#    y 0.028340 1.826930 -0.014840 
#    z 0.001500 -0.014840 1.950030 
# 
# From -- ./inp_files/366216.got.cif
#   From: 2010.05.17/outbox.cif.g08.bks.cpg/sg2_184_cif.got.tgz:366216.got - 2010.06.03 11:33:40.
