data_PCOD9002536
_publ_section_title
;
Structure prediction by ZEFSAII (Michael W. Deem and Ramdas Pophale) SiO2 
 PCOD9002536
Probable space group: P -1
;
_chemical_formula_sum "Si O2"
_cell_formula_units_Z 14
_cell_length_a 11.131886
_cell_length_b 16.837573
_cell_length_c 5.407425
_cell_angle_alpha 118.257863
_cell_angle_beta 100.038970
_cell_angle_gamma 43.064693
_cell_volume 584.260839
_symmetry_space_group_name_H-M "P -1"
_symmetry_group_IT_number 2
_symmetry_cell_setting 'triclinic'
loop_
_space_group_symop_operation_xyz
x,y,z
-x,-y,-z
loop_
_atom_site_type_symbol
_atom_site_label
_atom_site_fract_x
_atom_site_fract_y
_atom_site_fract_z
Si Si1 0.740538 0.828587 0.941373
Si Si2 0.879213 0.373678 0.473386
Si Si3 0.350903 0.678930 0.731829
Si Si4 0.502155 0.668006 0.256712
Si Si5 0.215605 0.398252 0.422169
Si Si6 0.791262 0.881158 0.537687
Si Si7 0.169627 0.936079 0.298542
O O1 0.692821 0.748822 0.815660
O O2 0.683652 0.910841 0.790217
O O3 0.964685 0.710293 0.809834
O O4 0.696476 0.903378 0.286143
O O5 0.749411 0.360796 0.366537
O O6 0.775498 0.525920 0.660322
O O7 0.014887 0.280079 0.611925
O O8 0.441259 0.650514 0.459131
O O9 0.525076 0.381465 0.063302
O O10 0.204515 0.840327 0.964160
O O11 0.692250 0.610565 0.313237
O O12 0.352366 0.827703 0.374587
O O13 0.000000 0.500000 0.500000
O O14 0.839020 0.959894 0.662004
O O15 0.000000 0.000000 0.500000
#
# Coordination Sequence:
#
# PCOD9002536 Si02
#       7
#     2   2   2   2   2   2   2
#     4   9  22  38  61  94 121 164 223 255 302 376
#     4   9  21  38  65  94 124 167 209 256 321 377
#     4  10  23  40  62  99 135 157 209 261 322 384
#     4  10  25  41  62  99 131 165 211 258 321 378
#     4  10  22  49  67  90 126 175 216 269 308 369
#     4  10  21  36  61  96 121 163 216 248 314 371
#     4  10  22  39  67  93 137 166 201 260 319 387
#
# _framework density 23.961898999999999
#
# number of rings (size 3 to 8) (size 9 to 14) (size 15 to 20)
#    1.714    0.571    0.000    1.714    4.000    4.000 
#    5.143    1.429    0.000    0.000    0.000    0.000 
#    0.000    0.000    0.000    0.000    0.000    0.000 
#
# Total GULP energy -78112.700145 kJ/mol
# GULP energy per Si atom -5579.478582 kJ/mol
# Density = 2.390736 g / cm^3
# Si number density = 23.961899 Si / 1000 Ang^3
#
#
#
# Elastic Constant Matrix: (Units=GPa)
#
#
# Indices 1 2 3 4 5 6 
#
# 1 110.2028 42.7383 53.0099 -18.5796 16.4407 14.9835
# 2 42.7383 125.0396 37.0210 -8.3487 7.7938 28.0250
# 3 53.0099 37.0210 128.0965 -27.6395 -2.0900 27.2879
# 4 -18.5796 -8.3487 -27.6395 38.6997 0.1684 15.3581
# 5 16.4407 7.7938 -2.0900 0.1684 32.0788 -0.2151
# 6 14.9835 28.0250 27.2879 15.3581 -0.2151 55.5703
#
#
#
# Elastic Compliance Matrix: (Units=1/GPa)
#
#
# Indices 1 2 3 4 5 6 
#
# 1 0.013833 -0.002507 -0.003876 0.004038 -0.006765 -0.001704
# 2 -0.002507 0.010383 -0.000214 0.002987 -0.001303 -0.005286
# 3 -0.003876 -0.000214 0.013881 0.011498 0.002823 -0.008830
# 4 0.004038 0.002987 0.011498 0.044838 -0.002420 -0.020642
# 5 -0.006765 -0.001303 0.002823 -0.002420 0.035166 0.001900
# 6 -0.001704 -0.005286 -0.008830 -0.020642 0.001900 0.031169
#
#
# Mechanical properties :
#
#
# Convention : Reuss Voigt Hill
#
# Bulk Modulus (GPa) = 40.15746 69.87525 55.01636
# Shear Modulus (GPa) = 29.28018 40.64106 34.96062
#
# Velocity S-wave (km/s) = 3.49943 4.12281 3.82384
# Velocity P-wave (km/s) = 5.75528 7.20331 6.51962
#
# Compressibility (1/GPa) = 0.02490197
#
# Stress axis : x y z
#
# Youngs Moduli (GPa) = 72.29299 96.31023 72.04334
#
# Poissons Ratio (x) = 0.24147 0.27923
# Poissons Ratio (y) = 0.18125 0.01542
# Poissons Ratio (z) = 0.28020 0.02062
#
# Static dielectric constant tensor:
#      x y z
#    x 1.968450 -0.081700 -0.053610 
#    y -0.081700 2.017240 0.047340 
#    z -0.053610 0.047340 1.890910 
# 
# From -- ./inp_files/76747.got.cif
#   From: 2010.05.17/outbox.cif.g08.bks.cpg/sg2_39_cif.got.tgz:76747.got - 2010.06.03 11:33:40.
