data_PCOD9002882
_publ_section_title
;
Structure prediction by ZEFSAII (Michael W. Deem and Ramdas Pophale) SiO2 
 PCOD9002882
Probable space group: P -1
;
_chemical_formula_sum "Si O2"
_cell_formula_units_Z 16
_cell_length_a 8.719627
_cell_length_b 8.567940
_cell_length_c 24.300964
_cell_angle_alpha 31.142376
_cell_angle_beta 127.887822
_cell_angle_gamma 113.328156
_cell_volume 702.650817
_symmetry_space_group_name_H-M "P -1"
_symmetry_group_IT_number 2
_symmetry_cell_setting 'triclinic'
loop_
_space_group_symop_operation_xyz
x,y,z
-x,-y,-z
loop_
_atom_site_type_symbol
_atom_site_label
_atom_site_fract_x
_atom_site_fract_y
_atom_site_fract_z
Si Si1 0.082296 0.227166 0.027313
Si Si2 0.459493 0.163843 0.596100
Si Si3 0.052436 0.407436 0.380303
Si Si4 0.095834 0.079985 0.201213
Si Si5 0.304072 0.614511 0.616871
Si Si6 0.199712 0.184594 0.642651
Si Si7 0.735672 0.332773 0.842462
Si Si8 0.074330 0.219465 0.321055
O O1 0.133483 0.092691 0.140272
O O2 0.221102 0.996190 0.082624
O O3 0.074522 0.593591 0.918065
O O4 0.851139 0.245634 0.952267
O O5 0.500000 0.500000 0.500000
O O6 0.289545 0.191738 0.503777
O O7 0.340367 0.137794 0.633600
O O8 0.691871 0.934808 0.717327
O O9 0.994553 0.397504 0.307254
O O10 0.903698 0.297411 0.420267
O O11 0.042366 0.756921 0.294504
O O12 0.321990 0.286106 0.687668
O O13 0.498298 0.529517 0.725247
O O14 0.261565 0.898513 0.476550
O O15 0.000000 0.500000 0.500000
O O16 0.099120 0.903487 0.708006
O O17 0.851365 0.541457 0.771383
#
# Coordination Sequence:
#
# PCOD9002882 Si02
#       8
#     2   2   2   2   2   2   2   2
#     4  10  23  44  66  88 124 173 231 266 297 368
#     4  10  21  36  67  98 127 164 209 256 328 390
#     4  11  22  40  63 101 134 163 201 267 330 391
#     4  10  22  41  70  92 125 172 221 264 312 378
#     4  11  24  40  65  99 136 164 203 262 336 391
#     4  10  21  38  57  94 137 164 194 255 320 388
#     4  11  24  43  68  93 127 171 220 265 316 373
#     4  11  23  39  64  97 138 163 203 264 329 382
#
# _framework density 22.770910000000001
#
# number of rings (size 3 to 8) (size 9 to 14) (size 15 to 20)
#    0.000    1.500    3.750    1.500    5.250    1.000 
#    0.000    1.250   11.000    0.000    0.000    0.000 
#    0.000    0.000    0.000    0.000    0.000    0.000 
#
# Total GULP energy -89393.260440 kJ/mol
# GULP energy per Si atom -5587.078778 kJ/mol
# Density = 2.271908 g / cm^3
# Si number density = 22.770910 Si / 1000 Ang^3
#
#
#
# Elastic Constant Matrix: (Units=GPa)
#
#
# Indices 1 2 3 4 5 6 
#
# 1 33.4001 -2.7983 6.3501 -18.6885 -6.1439 8.1405
# 2 -2.7983 99.7483 11.3507 -6.4680 -4.2485 2.8466
# 3 6.3501 11.3507 72.1914 -4.6462 9.8221 12.2519
# 4 -18.6885 -6.4680 -4.6462 43.2048 -11.8938 4.0613
# 5 -6.1439 -4.2485 9.8221 -11.8938 26.8152 1.7152
# 6 8.1405 2.8466 12.2519 4.0613 1.7152 37.8090
#
#
#
# Elastic Compliance Matrix: (Units=1/GPa)
#
#
# Indices 1 2 3 4 5 6 
#
# 1 0.067000 0.007516 -0.006389 0.041870 0.038680 -0.019173
# 2 0.007516 0.011401 -0.002591 0.007084 0.007796 -0.002751
# 3 -0.006389 -0.002591 0.016345 -0.003683 -0.009309 -0.002908
# 4 0.041870 0.007084 -0.003683 0.053541 0.036822 -0.015776
# 5 0.038680 0.007796 -0.009309 0.036822 0.067959 -0.012937
# 6 -0.019173 -0.002751 -0.002908 -0.015776 -0.012937 0.034008
#
#
# Mechanical properties :
#
#
# Convention : Reuss Voigt Hill
#
# Bulk Modulus (GPa) = 10.89125 26.12719 18.50922
# Shear Modulus (GPa) = 17.61878 34.26165 25.94021
#
# Velocity S-wave (km/s) = 2.78464 3.88316 3.37884
# Velocity P-wave (km/s) = 3.89002 5.62175 4.83406
#
# Compressibility (1/GPa) = 0.09181681
#
# Stress axis : x y z
#
# Youngs Moduli (GPa) = 14.92529 87.71253 61.18264
#
# Poissons Ratio (x) = -0.65927 0.39091
# Poissons Ratio (y) = -0.11218 0.15855
# Poissons Ratio (z) = 0.09536 0.22731
#
# Static dielectric constant tensor:
#      x y z
#    x 1.812760 -0.035960 0.029000 
#    y -0.035960 1.953400 -0.000510 
#    z 0.029000 -0.000510 1.867140 
# 
# From -- ./inp_files/218577.got.cif
#   From: 2010.05.17/outbox.cif.g08.bks.cpg/sg2_110_cif.got.tgz:218577.got - 2010.06.03 11:33:40.
