data_PCOD9002983
_publ_section_title
;
Structure prediction by ZEFSAII (Michael W. Deem and Ramdas Pophale) SiO2 
 PCOD9002983
Probable space group: P -1
;
_chemical_formula_sum "Si O2"
_cell_formula_units_Z 16
_cell_length_a 12.078712
_cell_length_b 5.624615
_cell_length_c 14.780564
_cell_angle_alpha 78.012768
_cell_angle_beta 51.429775
_cell_angle_gamma 93.015138
_cell_volume 745.894838
_symmetry_space_group_name_H-M "P -1"
_symmetry_group_IT_number 2
_symmetry_cell_setting 'triclinic'
loop_
_space_group_symop_operation_xyz
x,y,z
-x,-y,-z
loop_
_atom_site_type_symbol
_atom_site_label
_atom_site_fract_x
_atom_site_fract_y
_atom_site_fract_z
Si Si1 0.736573 0.670670 0.377486
Si Si2 0.864660 0.040058 0.007572
Si Si3 0.223582 0.841232 0.775063
Si Si4 0.383457 0.886478 0.144563
Si Si5 0.478761 0.655223 0.633760
Si Si6 0.992687 0.499995 0.210559
Si Si7 0.599069 0.627895 0.122616
Si Si8 0.728018 0.627985 0.862628
O O1 0.640576 0.702777 0.509870
O O2 0.623070 0.548247 0.365399
O O3 0.860911 0.519991 0.343149
O O4 0.820326 0.929685 0.269876
O O5 0.777210 0.156204 0.117726
O O6 0.761097 0.780041 0.052795
O O7 0.906851 0.230595 0.888963
O O8 0.000000 0.000000 0.000000
O O9 0.389160 0.868133 0.655643
O O10 0.102878 0.602908 0.821401
O O11 0.489888 0.815245 0.171065
O O12 0.298505 0.611660 0.172465
O O13 0.300439 0.110062 0.182283
O O14 0.500000 0.000000 0.000000
O O15 0.460487 0.570531 0.753588
O O16 0.103601 0.336972 0.196236
O O17 0.622498 0.553590 0.011849
#
# Coordination Sequence:
#
# PCOD9002983 Si02
#       8
#     2   2   2   2   2   2   2   2
#     4  10  21  38  54  81 122 156 200 237 285 354
#     4  12  20  34  55  89 126 153 190 239 297 369
#     4  11  20  34  55  85 118 158 198 240 289 358
#     4  10  22  39  61  88 122 151 200 255 310 360
#     4  10  21  37  56  83 115 160 199 242 281 355
#     4  11  22  34  58  82 118 160 195 238 311 359
#     4  11  21  38  62  87 118 158 194 244 305 355
#     4  11  23  39  62  91 121 153 198 259 311 364
#
# _framework density 21.450745999999999
#
# number of rings (size 3 to 8) (size 9 to 14) (size 15 to 20)
#    0.000    1.250    2.500    6.000    1.750    1.000 
#    0.000    0.000    0.000    1.500    0.000    0.000 
#    0.000    0.000    0.000    0.000    0.000    0.000 
#
# Total GULP energy -89179.476981 kJ/mol
# GULP energy per Si atom -5573.717311 kJ/mol
# Density = 2.140192 g / cm^3
# Si number density = 21.450746 Si / 1000 Ang^3
#
#
#
# Elastic Constant Matrix: (Units=GPa)
#
#
# Indices 1 2 3 4 5 6 
#
# 1 92.6802 27.5449 18.3191 6.7069 -13.5658 -26.7272
# 2 27.5449 75.5108 12.6933 6.6314 -8.7319 -17.5496
# 3 18.3191 12.6933 74.7991 14.4454 -18.0688 -12.3085
# 4 6.7069 6.6314 14.4454 21.8868 -7.3959 -6.5622
# 5 -13.5658 -8.7319 -18.0688 -7.3959 19.6816 3.7482
# 6 -26.7272 -17.5496 -12.3085 -6.5622 3.7482 44.6307
#
#
#
# Elastic Compliance Matrix: (Units=1/GPa)
#
#
# Indices 1 2 3 4 5 6 
#
# 1 0.014832 -0.002902 -0.000341 0.001336 0.007755 0.007192
# 2 -0.002902 0.015776 -0.000197 -0.001388 0.003552 0.003909
# 3 -0.000341 -0.000197 0.018512 -0.006625 0.013668 0.002701
# 4 0.001336 -0.001388 -0.006625 0.056614 0.014443 0.005538
# 5 0.007755 0.003552 0.013668 0.014443 0.074626 0.005666
# 6 0.007192 0.003909 0.002701 0.005538 0.005666 0.029334
#
#
# Mechanical properties :
#
#
# Convention : Reuss Voigt Hill
#
# Bulk Modulus (GPa) = 23.67490 40.01163 31.84326
# Shear Modulus (GPa) = 21.67741 29.53534 25.60638
#
# Velocity S-wave (km/s) = 3.18239 3.71467 3.45879
# Velocity P-wave (km/s) = 4.95624 6.09029 5.55230
#
# Compressibility (1/GPa) = 0.04223883
#
# Stress axis : x y z
#
# Youngs Moduli (GPa) = 67.42042 63.38745 54.01931
#
# Poissons Ratio (x) = 0.18396 0.01844
# Poissons Ratio (y) = 0.19567 0.01065
# Poissons Ratio (z) = 0.02301 0.01250
#
# Static dielectric constant tensor:
#      x y z
#    x 1.928000 -0.094990 -0.016620 
#    y -0.094990 1.979990 0.044510 
#    z -0.016620 0.044510 1.765250 
# 
# From -- ./inp_files/67252.got.cif
#   From: 2010.05.17/outbox.cif.g08.bks.cpg/sg2_34_cif.got.tgz:67252.got - 2010.06.03 11:33:40.
