data_PCOD9002104
_publ_section_title
;
Structure prediction by ZEFSAII (Michael W. Deem and Ramdas Pophale) SiO2 
 PCOD9002104
Probable space group: P -1
;
_chemical_formula_sum "Si O2"
_cell_formula_units_Z 16
_cell_length_a 5.355517
_cell_length_b 12.994940
_cell_length_c 9.388568
_cell_angle_alpha 92.863902
_cell_angle_beta 82.194520
_cell_angle_gamma 97.873861
_cell_volume 640.909536
_symmetry_space_group_name_H-M "P -1"
_symmetry_group_IT_number 2
_symmetry_cell_setting 'triclinic'
loop_
_space_group_symop_operation_xyz
x,y,z
-x,-y,-z
loop_
_atom_site_type_symbol
_atom_site_label
_atom_site_fract_x
_atom_site_fract_y
_atom_site_fract_z
Si Si1 0.010359 0.884895 0.048752
Si Si2 0.371951 0.645924 0.234831
Si Si3 0.840235 0.562245 0.626098
Si Si4 0.618996 0.313840 0.353197
Si Si5 0.076317 0.089367 0.385991
Si Si6 0.889601 0.765748 0.336435
Si Si7 0.573479 0.086721 0.378380
Si Si8 0.494654 0.767603 0.958658
O O1 0.941781 0.858122 0.220232
O O2 0.781275 0.813908 0.979450
O O3 0.286388 0.846805 0.003564
O O4 0.000000 0.000000 0.000000
O O5 0.295257 0.524632 0.262616
O O6 0.630285 0.696176 0.298792
O O7 0.127091 0.700522 0.304618
O O8 0.416697 0.674378 0.069323
O O9 0.598836 0.613670 0.585542
O O10 0.000000 0.500000 0.500000
O O11 0.082902 0.639132 0.672335
O O12 0.600939 0.205974 0.436234
O O13 0.533220 0.276824 0.199900
O O14 0.107620 0.185759 0.500980
O O15 0.336768 0.072076 0.292702
O O16 0.847644 0.084016 0.296300
O O17 0.000000 0.000000 0.500000
O O18 0.500000 0.000000 0.500000
#
# Coordination Sequence:
#
# PCOD9002104 Si02
#       8
#     2   2   2   2   2   2   2   2
#     4  10  21  38  64  98 135 174 222 271 328 400
#     4  10  23  43  66  94 126 172 222 269 340 405
#     4  12  28  45  69 100 133 179 226 282 351 400
#     4  12  26  45  69 100 138 173 223 293 326 401
#     4  10  21  36  57  88 124 168 220 259 318 390
#     4  10  21  37  63  89 126 176 212 275 327 398
#     4  10  23  39  59  92 129 170 209 255 331 387
#     4  10  23  43  68  98 133 175 227 273 339 396
#
# _framework density 24.964521000000001
#
# number of rings (size 3 to 8) (size 9 to 14) (size 15 to 20)
#    0.000    1.500    0.000    3.750    5.250    5.000 
#    0.000    0.000    0.000    0.000    0.000    0.000 
#    0.000    0.000    0.000    0.000    0.000    0.000 
#
# Total GULP energy -89350.084899 kJ/mol
# GULP energy per Si atom -5584.380306 kJ/mol
# Density = 2.490770 g / cm^3
# Si number density = 24.964521 Si / 1000 Ang^3
#
#
#
# Elastic Constant Matrix: (Units=GPa)
#
#
# Indices 1 2 3 4 5 6 
#
# 1 241.2717 35.1851 2.6865 -5.6484 7.0670 9.7045
# 2 35.1851 154.3936 24.7632 -45.5802 -1.4814 7.6144
# 3 2.6865 24.7632 103.2172 -9.3585 5.2027 0.3801
# 4 -5.6484 -45.5802 -9.3585 44.9005 -0.7936 2.0450
# 5 7.0670 -1.4814 5.2027 -0.7936 29.1313 -2.3732
# 6 9.7045 7.6144 0.3801 2.0450 -2.3732 39.5393
#
#
#
# Elastic Compliance Matrix: (Units=1/GPa)
#
#
# Indices 1 2 3 4 5 6 
#
# 1 0.004371 -0.001162 0.000179 -0.000573 -0.001240 -0.000896
# 2 -0.001162 0.009990 -0.001530 0.009791 0.001162 -0.002061
# 3 0.000179 -0.001530 0.010199 0.000561 -0.001927 0.000008
# 4 -0.000573 0.009791 0.000561 0.032429 0.001147 -0.003359
# 5 -0.001240 0.001162 -0.001927 0.001147 0.035238 0.002155
# 6 -0.000896 -0.002061 0.000008 -0.003359 0.002155 0.026211
#
#
# Mechanical properties :
#
#
# Convention : Reuss Voigt Hill
#
# Bulk Modulus (GPa) = 51.19199 69.35024 60.27112
# Shear Modulus (GPa) = 38.46895 51.79739 45.13317
#
# Velocity S-wave (km/s) = 3.92975 4.55998 4.25654
# Velocity P-wave (km/s) = 6.41412 7.45415 6.95361
#
# Compressibility (1/GPa) = 0.01953431
#
# Stress axis : x y z
#
# Youngs Moduli (GPa) = 228.77738 100.09624 98.05263
#
# Poissons Ratio (x) = 0.11629 -0.01753
# Poissons Ratio (y) = 0.26580 0.15000
# Poissons Ratio (z) = -0.04090 0.15313
#
# Static dielectric constant tensor:
#      x y z
#    x 2.287800 -0.363290 0.041220 
#    y -0.363290 2.759000 -0.140750 
#    z 0.041220 -0.140750 1.972640 
# 
# From -- ./inp_files/363066.got.cif
#   From: 2010.05.17/outbox.cif.g08.bks.cpg/sg2_182_cif.got.tgz:363066.got - 2010.06.03 11:33:40.
