data_PCOD9002724
_publ_section_title
;
Structure prediction by ZEFSAII (Michael W. Deem and Ramdas Pophale) SiO2 
 PCOD9002724
Probable space group: P -1
;
_chemical_formula_sum "Si O2"
_cell_formula_units_Z 16
_cell_length_a 13.906499
_cell_length_b 14.385268
_cell_length_c 11.951318
_cell_angle_alpha 39.007873
_cell_angle_beta 56.590858
_cell_angle_gamma 31.446295
_cell_volume 737.731795
_symmetry_space_group_name_H-M "P -1"
_symmetry_group_IT_number 2
_symmetry_cell_setting 'triclinic'
loop_
_space_group_symop_operation_xyz
x,y,z
-x,-y,-z
loop_
_atom_site_type_symbol
_atom_site_label
_atom_site_fract_x
_atom_site_fract_y
_atom_site_fract_z
Si Si1 0.126265 0.456058 0.551801
Si Si2 0.041103 0.050623 0.758280
Si Si3 0.698280 0.237851 0.929497
Si Si4 0.864329 0.864115 0.792493
Si Si5 0.721195 0.688044 0.974591
Si Si6 0.541246 0.029622 0.565483
Si Si7 0.294392 0.826912 0.611937
Si Si8 0.301308 0.027842 0.974587
O O1 0.335526 0.272525 0.532632
O O2 0.000000 0.500000 0.500000
O O3 0.020354 0.715294 0.410459
O O4 0.172899 0.305392 0.769713
O O5 0.856788 0.153423 0.827856
O O6 0.115212 0.943288 0.686874
O O7 0.221804 0.830494 0.932291
O O8 0.485706 0.527461 0.777404
O O9 0.700740 0.066493 0.048780
O O10 0.788725 0.775014 0.899819
O O11 0.766331 0.071107 0.570415
O O12 0.791528 0.964763 0.870646
O O13 0.097864 0.611805 0.862269
O O14 0.658028 0.793329 0.789788
O O15 0.528788 0.833101 0.027646
O O16 0.652450 0.071000 0.457764
O O17 0.500000 0.000000 0.500000
#
# Coordination Sequence:
#
# PCOD9002724 Si02
#       8
#     2   2   2   2   2   2   2   2
#     4  11  21  38  64 101 127 163 218 263 326 378
#     4  11  24  43  66  92 135 174 210 268 329 387
#     4  11  25  45  62  97 134 173 216 262 330 391
#     4  10  23  42  66  96 129 173 218 266 322 380
#     4   9  22  40  60  97 133 163 211 267 327 372
#     4  10  21  36  63  99 131 160 212 273 316 382
#     4  11  24  43  66  92 129 178 214 259 326 387
#     4  11  24  40  68  97 130 167 218 272 314 386
#
# _framework density 21.688098
#
# number of rings (size 3 to 8) (size 9 to 14) (size 15 to 20)
#    0.000    1.500    2.500    1.500    8.750    2.500 
#    0.000    1.250    0.000    0.000    0.000    0.000 
#    0.000    0.000    0.000    0.000    0.000    0.000 
#
# Total GULP energy -89505.785349 kJ/mol
# GULP energy per Si atom -5594.111584 kJ/mol
# Density = 2.163874 g / cm^3
# Si number density = 21.688098 Si / 1000 Ang^3
#
#
#
# Elastic Constant Matrix: (Units=GPa)
#
#
# Indices 1 2 3 4 5 6 
#
# 1 24.8825 -6.3851 1.2102 -2.7440 4.0940 -0.4118
# 2 -6.3851 79.9144 50.1685 1.5117 13.1341 -11.7167
# 3 1.2102 50.1685 111.5049 -18.3288 5.6771 -0.5645
# 4 -2.7440 1.5117 -18.3288 38.7314 -2.2490 7.5568
# 5 4.0940 13.1341 5.6771 -2.2490 23.5003 4.9254
# 6 -0.4118 -11.7167 -0.5645 7.5568 4.9254 30.2991
#
#
#
# Elastic Compliance Matrix: (Units=1/GPa)
#
#
# Indices 1 2 3 4 5 6 
#
# 1 0.045072 0.009559 -0.004275 -0.001324 -0.013711 0.006788
# 2 0.009559 0.026870 -0.012949 -0.010629 -0.017891 0.015839
# 3 -0.004275 -0.012949 0.016068 0.009823 0.006784 -0.008319
# 4 -0.001324 -0.010629 0.009823 0.034118 0.010014 -0.014082
# 5 -0.013711 -0.017891 0.006784 0.010014 0.058230 -0.018942
# 6 0.006788 0.015839 -0.008319 -0.014082 -0.018942 0.045658
#
#
# Mechanical properties :
#
#
# Convention : Reuss Voigt Hill
#
# Bulk Modulus (GPa) = 13.75913 34.03213 23.89563
# Shear Modulus (GPa) = 18.82724 29.92670 24.37697
#
# Velocity S-wave (km/s) = 2.94953 3.71869 3.35622
# Velocity P-wave (km/s) = 4.23763 5.84499 5.10497
#
# Compressibility (1/GPa) = 0.07267902
#
# Stress axis : x y z
#
# Youngs Moduli (GPa) = 22.18674 37.21618 62.23570
#
# Poissons Ratio (x) = -0.35574 0.26606
# Poissons Ratio (y) = -0.21208 0.80590
# Poissons Ratio (z) = 0.09485 0.48192
#
# Static dielectric constant tensor:
#      x y z
#    x 1.821970 -0.025980 -0.000660 
#    y -0.025980 1.777500 0.015630 
#    z -0.000660 0.015630 1.759330 
# 
# From -- ./inp_files/455045.got.cif
#   From: 2010.05.17/outbox.cif.g08.bks.cpg/sg2_228_cif.got.tgz:455045.got - 2010.06.03 11:33:40.
