data_PCOD9002524
_publ_section_title
;
Structure prediction by ZEFSAII (Michael W. Deem and Ramdas Pophale) SiO2 
 PCOD9002524
Probable space group: P -1
;
_chemical_formula_sum "Si O2"
_cell_formula_units_Z 16
_cell_length_a 11.887174
_cell_length_b 5.652844
_cell_length_c 10.126588
_cell_angle_alpha 87.818620
_cell_angle_beta 101.290887
_cell_angle_gamma 105.621681
_cell_volume 642.572724
_symmetry_space_group_name_H-M "P -1"
_symmetry_group_IT_number 2
_symmetry_cell_setting 'triclinic'
loop_
_space_group_symop_operation_xyz
x,y,z
-x,-y,-z
loop_
_atom_site_type_symbol
_atom_site_label
_atom_site_fract_x
_atom_site_fract_y
_atom_site_fract_z
Si Si1 0.161846 0.854399 0.056997
Si Si2 0.595666 0.997326 0.831598
Si Si3 0.059379 0.622593 0.679638
Si Si4 0.414582 0.826748 0.588556
Si Si5 0.885727 0.660488 0.076005
Si Si6 0.564522 0.723263 0.099684
Si Si7 0.179876 0.467477 0.467428
Si Si8 0.766129 0.904241 0.321704
O O1 0.024589 0.753259 0.066637
O O2 0.268896 0.918958 0.187642
O O3 0.179387 0.608887 0.993095
O O4 0.167724 0.122958 0.990573
O O5 0.507217 0.791856 0.724861
O O6 0.530409 0.212664 0.824293
O O7 0.604871 0.930940 0.990312
O O8 0.101222 0.410123 0.767276
O O9 0.111394 0.617711 0.543991
O O10 0.918821 0.590494 0.669034
O O11 0.133208 0.892274 0.736133
O O12 0.319660 0.607650 0.495000
O O13 0.500000 0.000000 0.500000
O O14 0.327007 0.958966 0.641045
O O15 0.679193 0.708517 0.209261
O O16 0.500000 0.500000 0.000000
O O17 0.177821 0.215282 0.545628
#
# Coordination Sequence:
#
# PCOD9002524 Si02
#       8
#     2   2   2   2   2   2   2   2
#     4  10  23  42  63  95 133 168 218 273 330 409
#     4  10  22  38  60  93 124 167 215 263 333 392
#     4  10  22  38  65  92 123 169 213 272 328 388
#     4  10  23  42  61  90 130 170 214 268 323 399
#     4  10  23  42  63  97 130 170 218 272 335 392
#     4  10  21  36  61  93 125 163 212 272 329 394
#     4  10  22  40  62  92 124 166 219 266 326 392
#     4  10  21  40  63  95 130 161 220 272 326 391
#
# _framework density 24.899906000000001
#
# number of rings (size 3 to 8) (size 9 to 14) (size 15 to 20)
#    0.000    2.000    0.000    1.875    7.000    2.500 
#    0.000    1.250    0.000    0.000    0.000    0.000 
#    0.000    0.000    0.000    0.000    0.000    0.000 
#
# Total GULP energy -89164.874681 kJ/mol
# GULP energy per Si atom -5572.804668 kJ/mol
# Density = 2.484323 g / cm^3
# Si number density = 24.899906 Si / 1000 Ang^3
#
#
#
# Elastic Constant Matrix: (Units=GPa)
#
#
# Indices 1 2 3 4 5 6 
#
# 1 109.5998 46.2973 40.4354 9.2182 56.8883 19.7588
# 2 46.2973 140.4967 28.6859 3.2856 28.3889 19.0167
# 3 40.4354 28.6859 60.8748 -2.3357 37.2454 6.3504
# 4 9.2182 3.2856 -2.3357 27.7448 1.2673 10.6825
# 5 56.8883 28.3889 37.2454 1.2673 48.7277 1.6459
# 6 19.7588 19.0167 6.3504 10.6825 1.6459 29.1074
#
#
#
# Elastic Compliance Matrix: (Units=1/GPa)
#
#
# Indices 1 2 3 4 5 6 
#
# 1 0.032311 -0.000822 0.006365 -0.000395 -0.041413 -0.020299
# 2 -0.000822 0.008969 -0.001027 0.001350 -0.003333 -0.005384
# 3 0.006365 -0.001027 0.034242 0.006935 -0.032787 -0.011811
# 4 -0.000395 0.001350 0.006935 0.043746 -0.006161 -0.017833
# 5 -0.041413 -0.003333 -0.032787 -0.006161 0.094874 0.034340
# 6 -0.020299 -0.005384 -0.011811 -0.017833 0.034340 0.058832
#
#
# Mechanical properties :
#
#
# Convention : Reuss Voigt Hill
#
# Bulk Modulus (GPa) = 11.82680 60.20093 36.01387
# Shear Modulus (GPa) = 17.11579 34.15283 25.63431
#
# Velocity S-wave (km/s) = 2.62464 3.70754 3.21205
# Velocity P-wave (km/s) = 3.73431 6.52361 5.31519
#
# Compressibility (1/GPa) = 0.08455370
#
# Stress axis : x y z
#
# Youngs Moduli (GPa) = 30.94878 111.49379 29.20413
#
# Poissons Ratio (x) = 0.09170 -0.18590
# Poissons Ratio (y) = 0.02545 0.03000
# Poissons Ratio (z) = -0.19700 0.11454
#
# Static dielectric constant tensor:
#      x y z
#    x 1.993910 0.035280 -0.055690 
#    y 0.035280 2.051140 0.069860 
#    z -0.055690 0.069860 2.149850 
# 
# From -- ./inp_files/365034.got.cif
#   From: 2010.05.17/outbox.cif.g08.bks.cpg/sg2_183_cif.got.tgz:365034.got - 2010.06.03 11:33:40.
