data_PCOD9002574
_publ_section_title
;
Structure prediction by ZEFSAII (Michael W. Deem and Ramdas Pophale) SiO2 
 PCOD9002574
Probable space group: P -1
;
_chemical_formula_sum "Si O2"
_cell_formula_units_Z 14
_cell_length_a 10.546406
_cell_length_b 18.532952
_cell_length_c 5.090761
_cell_angle_alpha 84.750413
_cell_angle_beta 111.231974
_cell_angle_gamma 142.093165
_cell_volume 536.045627
_symmetry_space_group_name_H-M "P -1"
_symmetry_group_IT_number 2
_symmetry_cell_setting 'triclinic'
loop_
_space_group_symop_operation_xyz
x,y,z
-x,-y,-z
loop_
_atom_site_type_symbol
_atom_site_label
_atom_site_fract_x
_atom_site_fract_y
_atom_site_fract_z
Si Si1 0.235985 0.946720 0.336680
Si Si2 0.805193 0.165004 0.186459
Si Si3 0.271865 0.112115 0.092214
Si Si4 0.776011 0.715520 0.273123
Si Si5 0.285294 0.620630 0.523344
Si Si6 0.671149 0.272680 0.983489
Si Si7 0.494294 0.578036 0.582370
O O1 0.336108 0.939826 0.651037
O O2 0.983773 0.859786 0.300336
O O3 0.180896 0.876125 0.056586
O O4 0.359439 0.073978 0.303856
O O5 0.062216 0.276524 0.477096
O O6 0.727173 0.212346 0.063091
O O7 0.388110 0.155854 0.872703
O O8 0.427981 0.245122 0.273285
O O9 0.000000 0.000000 0.000000
O O10 0.605499 0.668166 0.384962
O O11 0.640499 0.634421 0.940765
O O12 0.235502 0.651087 0.235149
O O13 0.266859 0.527172 0.496854
O O14 0.209534 0.626162 0.732572
O O15 0.500000 0.500000 0.500000
#
# Coordination Sequence:
#
# PCOD9002574 Si02
#       7
#     2   2   2   2   2   2   2
#     4  10  21  36  62  86 122 165 199 240 281 350
#     4  10  21  38  61  84 123 164 209 230 287 340
#     4  10  24  37  57  88 128 160 201 237 302 340
#     4  10  21  39  61  93 120 149 200 244 297 343
#     4  10  24  40  58  87 125 152 199 242 315 340
#     4  10  23  39  59  86 123 168 193 249 283 352
#     4  12  23  41  68  91 115 150 197 254 307 365
#
# _framework density 26.117180000000001
#
# number of rings (size 3 to 8) (size 9 to 14) (size 15 to 20)
#    1.714    0.000    1.429    3.000    4.000    1.714 
#    0.000    0.000    0.000    5.143    0.000    0.000 
#    0.000    0.000    0.000    0.000    0.000    0.000 
#
# Total GULP energy -78120.057514 kJ/mol
# GULP energy per Si atom -5580.004108 kJ/mol
# Density = 2.605774 g / cm^3
# Si number density = 26.117180 Si / 1000 Ang^3
#
#
#
# Elastic Constant Matrix: (Units=GPa)
#
#
# Indices 1 2 3 4 5 6 
#
# 1 108.1737 29.2340 36.7041 3.9349 -8.2696 -16.2895
# 2 29.2340 66.0478 11.4551 -21.6171 -4.1371 -25.8948
# 3 36.7041 11.4551 95.8743 -12.9267 -35.6609 0.2747
# 4 3.9349 -21.6171 -12.9267 29.5515 -0.3729 2.1601
# 5 -8.2696 -4.1371 -35.6609 -0.3729 49.9658 1.4800
# 6 -16.2895 -25.8948 0.2747 2.1601 1.4800 51.9943
#
#
#
# Elastic Compliance Matrix: (Units=1/GPa)
#
#
# Indices 1 2 3 4 5 6 
#
# 1 0.014434 -0.008913 -0.007463 -0.011807 -0.003785 0.000721
# 2 -0.008913 0.031441 0.004644 0.025419 0.004287 0.011664
# 3 -0.007463 0.004644 0.019379 0.013110 0.013109 -0.001045
# 4 -0.011807 0.025419 0.013110 0.059414 0.009768 0.006145
# 5 -0.003785 0.004287 0.013109 0.009768 0.029182 -0.000357
# 6 0.000721 0.011664 -0.001045 0.006145 -0.000357 0.025028
#
#
# Mechanical properties :
#
#
# Convention : Reuss Voigt Hill
#
# Bulk Modulus (GPa) = 23.92889 47.20913 35.56901
# Shear Modulus (GPa) = 23.11903 39.14916 31.13410
#
# Velocity S-wave (km/s) = 2.97847 3.87587 3.45642
# Velocity P-wave (km/s) = 4.58371 6.17616 5.43853
#
# Compressibility (1/GPa) = 0.04179049
#
# Stress axis : x y z
#
# Youngs Moduli (GPa) = 69.28072 31.80530 51.60245
#
# Poissons Ratio (x) = 0.28349 0.38509
# Poissons Ratio (y) = 0.61752 -0.23965
# Poissons Ratio (z) = 0.51701 -0.14771
#
# Static dielectric constant tensor:
#      x y z
#    x 2.092660 0.104200 0.065920 
#    y 0.104200 2.194370 0.016600 
#    z 0.065920 0.016600 2.107320 
# 
# From -- ./inp_files/80526.got.cif
#   From: 2010.05.17/outbox.cif.g08.bks.cpg/sg2_41_cif.got.tgz:80526.got - 2010.06.03 11:33:40.
