data_PCOD9002956
_publ_section_title
;
Structure prediction by ZEFSAII (Michael W. Deem and Ramdas Pophale) SiO2 
 PCOD9002956
Probable space group: P -1
;
_chemical_formula_sum "Si O2"
_cell_formula_units_Z 14
_cell_length_a 13.312182
_cell_length_b 12.591394
_cell_length_c 7.338158
_cell_angle_alpha 65.317811
_cell_angle_beta 93.470740
_cell_angle_gamma 144.372863
_cell_volume 553.329042
_symmetry_space_group_name_H-M "P -1"
_symmetry_group_IT_number 2
_symmetry_cell_setting 'triclinic'
loop_
_space_group_symop_operation_xyz
x,y,z
-x,-y,-z
loop_
_atom_site_type_symbol
_atom_site_label
_atom_site_fract_x
_atom_site_fract_y
_atom_site_fract_z
Si Si1 0.764632 0.806978 0.476472
Si Si2 0.727146 0.135942 0.579127
Si Si3 0.117062 0.324321 0.068833
Si Si4 0.526531 0.348304 0.719465
Si Si5 0.973013 0.377799 0.783420
Si Si6 0.676327 0.282128 0.931839
Si Si7 0.569063 0.738946 0.801284
O O1 0.721207 0.630741 0.540521
O O2 0.623443 0.746371 0.374396
O O3 0.676136 0.740400 0.715268
O O4 0.987695 0.083608 0.288478
O O5 0.911857 0.297198 0.624770
O O6 0.813660 0.340909 0.354012
O O7 0.682930 0.973017 0.582614
O O8 0.518267 0.944258 0.803035
O O9 0.176840 0.477971 0.121603
O O10 0.335163 0.509622 0.880111
O O11 0.984447 0.265063 0.957396
O O12 0.590180 0.276748 0.761592
O O13 0.432260 0.261687 0.977450
O O14 0.800770 0.292156 0.896817
#
# Coordination Sequence:
#
# PCOD9002956 Si02
#       7
#     2   2   2   2   2   2   2
#     4  11  21  41  66  84 118 160 189 248 301 336
#     4   9  21  35  53  82 116 154 196 234 286 350
#     4  10  22  35  57  91 117 151 206 235 284 369
#     4   9  22  41  61  90 117 150 206 239 287 363
#     4  11  20  35  57  83 118 158 192 236 290 347
#     4  10  21  37  55  82 119 154 189 244 291 336
#     4  10  22  40  59  88 123 153 191 248 296 342
#
# _framework density 25.301400000000001
#
# number of rings (size 3 to 8) (size 9 to 14) (size 15 to 20)
#    0.000    2.286    0.000    3.857    0.000    8.000 
#    0.000    8.571    0.000    0.000    0.000    0.000 
#    0.000    0.000    0.000    0.000    0.000    0.000 
#
# Total GULP energy -78348.479263 kJ/mol
# GULP energy per Si atom -5596.319947 kJ/mol
# Density = 2.524381 g / cm^3
# Si number density = 25.301400 Si / 1000 Ang^3
#
#
#
# Elastic Constant Matrix: (Units=GPa)
#
#
# Indices 1 2 3 4 5 6 
#
# 1 117.3939 20.5818 43.6830 -10.6020 2.9283 16.4480
# 2 20.5818 84.6330 30.0992 -26.4396 2.9319 1.2072
# 3 43.6830 30.0992 86.3906 -31.0632 19.6873 -3.4118
# 4 -10.6020 -26.4396 -31.0632 54.0808 -3.4607 21.1930
# 5 2.9283 2.9319 19.6873 -3.4607 29.8760 -4.6828
# 6 16.4480 1.2072 -3.4118 21.1930 -4.6828 35.8440
#
#
#
# Elastic Compliance Matrix: (Units=1/GPa)
#
#
# Indices 1 2 3 4 5 6 
#
# 1 0.011832 -0.000245 -0.006122 0.001382 0.002031 -0.006556
# 2 -0.000245 0.015410 -0.002609 0.008132 0.000323 -0.005421
# 3 -0.006122 -0.002609 0.022264 0.010647 -0.013050 -0.002983
# 4 0.001382 0.008132 0.010647 0.037381 -0.007215 -0.022939
# 5 0.002031 0.000323 -0.013050 -0.007215 0.042195 0.007593
# 6 -0.006556 -0.005421 -0.002983 -0.022939 0.007593 0.045360
#
#
# Mechanical properties :
#
#
# Convention : Reuss Voigt Hill
#
# Bulk Modulus (GPa) = 31.69149 53.01617 42.35383
# Shear Modulus (GPa) = 24.64131 36.89706 30.76919
#
# Velocity S-wave (km/s) = 3.12414 3.82291 3.49105
# Velocity P-wave (km/s) = 5.05633 6.36283 5.74683
#
# Compressibility (1/GPa) = 0.03155421
#
# Stress axis : x y z
#
# Youngs Moduli (GPa) = 84.51563 64.89409 44.91545
#
# Poissons Ratio (x) = 0.01591 0.27498
# Poissons Ratio (y) = 0.02072 0.11716
# Poissons Ratio (z) = 0.51742 0.16928
#
# Static dielectric constant tensor:
#      x y z
#    x 1.984150 0.012020 0.056450 
#    y 0.012020 2.008360 0.013250 
#    z 0.056450 0.013250 2.069020 
# 
# From -- ./inp_files/226067.got.cif
#   From: 2010.05.17/outbox.cif.g08.bks.cpg/sg2_114_cif.got.tgz:226067.got - 2010.06.03 11:33:40.
