data_PCOD9002270
_publ_section_title
;
Structure prediction by ZEFSAII (Michael W. Deem and Ramdas Pophale) SiO2 
 PCOD9002270
Probable space group: P -1
;
_chemical_formula_sum "Si O2"
_cell_formula_units_Z 16
_cell_length_a 12.449308
_cell_length_b 15.389605
_cell_length_c 9.105192
_cell_angle_alpha 111.281952
_cell_angle_beta 71.401573
_cell_angle_gamma 150.544033
_cell_volume 799.331299
_symmetry_space_group_name_H-M "P -1"
_symmetry_group_IT_number 2
_symmetry_cell_setting 'triclinic'
loop_
_space_group_symop_operation_xyz
x,y,z
-x,-y,-z
loop_
_atom_site_type_symbol
_atom_site_label
_atom_site_fract_x
_atom_site_fract_y
_atom_site_fract_z
Si Si1 0.777470 0.330445 0.909169
Si Si2 0.396192 0.976647 0.328917
Si Si3 0.224824 0.871165 0.644859
Si Si4 0.642281 0.412469 0.836828
Si Si5 0.481962 0.788199 0.784240
Si Si6 0.275667 0.175857 0.096146
Si Si7 0.938215 0.801433 0.899211
Si Si8 0.837311 0.471047 0.503146
O O1 0.749900 0.216175 0.761127
O O2 0.754691 0.405481 0.866540
O O3 0.593318 0.205428 0.038132
O O4 0.000000 0.500000 0.000000
O O5 0.372690 0.996399 0.517139
O O6 0.642499 0.108283 0.299646
O O7 0.357623 0.032449 0.267482
O O8 0.146647 0.901800 0.791923
O O9 0.007585 0.674999 0.551760
O O10 0.785982 0.609027 0.901969
O O11 0.657074 0.382099 0.645515
O O12 0.419380 0.270829 0.939892
O O13 0.580462 0.763830 0.796577
O O14 0.283778 0.631852 0.660604
O O15 0.200204 0.229776 0.167835
O O16 0.057399 0.957785 0.052602
O O17 0.000000 0.500000 0.500000
#
# Coordination Sequence:
#
# PCOD9002270 Si02
#       8
#     2   2   2   2   2   2   2   2
#     4  11  23  35  55  89 125 155 193 243 302 366
#     4  11  22  35  59  89 127 155 191 245 306 363
#     4  10  21  36  59  88 117 158 204 238 294 369
#     4  10  22  38  64  85 119 160 202 246 301 358
#     4  11  23  36  59  88 125 154 195 250 302 349
#     4  10  23  43  62  89 118 155 211 256 297 351
#     4  10  22  41  68  84 115 162 211 249 297 358
#     4  11  20  37  58  90 121 161 194 237 302 371
#
# _framework density 20.016732000000001
#
# number of rings (size 3 to 8) (size 9 to 14) (size 15 to 20)
#    0.000    1.500    1.250    4.500    7.000    0.000 
#    0.000    3.125    0.000    0.000    0.000    0.000 
#    0.000    0.000    0.000    0.000    0.000    0.000 
#
# Total GULP energy -89163.483894 kJ/mol
# GULP energy per Si atom -5572.717743 kJ/mol
# Density = 1.997117 g / cm^3
# Si number density = 20.016732 Si / 1000 Ang^3
#
#
#
# Elastic Constant Matrix: (Units=GPa)
#
#
# Indices 1 2 3 4 5 6 
#
# 1 61.9050 28.8397 14.4039 -14.6746 13.1589 3.9340
# 2 28.8397 86.2207 10.9282 19.0129 1.8669 -19.7765
# 3 14.4039 10.9282 40.4344 -2.0373 15.9805 -5.2807
# 4 -14.6746 19.0129 -2.0373 33.1132 3.1656 -0.1329
# 5 13.1589 1.8669 15.9805 3.1656 22.5174 0.8024
# 6 3.9340 -19.7765 -5.2807 -0.1329 0.8024 32.4166
#
#
#
# Elastic Compliance Matrix: (Units=1/GPa)
#
#
# Indices 1 2 3 4 5 6 
#
# 1 0.047518 -0.029892 0.003169 0.041439 -0.032563 -0.022511
# 2 -0.029892 0.035279 -0.007083 -0.036123 0.023820 0.023259
# 3 0.003169 -0.007083 0.038196 0.010695 -0.029958 0.002302
# 4 0.041439 -0.036123 0.010695 0.073527 -0.038290 -0.024075
# 5 -0.032563 0.023820 -0.029958 -0.038290 0.087707 0.011275
# 6 -0.022511 0.023259 0.002302 -0.024075 0.011275 0.047767
#
#
# Mechanical properties :
#
#
# Convention : Reuss Voigt Hill
#
# Bulk Modulus (GPa) = 18.73291 32.98930 25.86110
# Shear Modulus (GPa) = 12.03661 26.56864 19.30262
#
# Velocity S-wave (km/s) = 2.45486 3.64719 3.10873
# Velocity P-wave (km/s) = 4.17301 5.85258 5.08265
#
# Compressibility (1/GPa) = 0.05338199
#
# Stress axis : x y z
#
# Youngs Moduli (GPa) = 21.04484 28.34532 26.18055
#
# Poissons Ratio (x) = 0.84729 -0.08298
# Poissons Ratio (y) = 0.62907 0.18544
# Poissons Ratio (z) = -0.06670 0.20077
#
# Static dielectric constant tensor:
#      x y z
#    x 1.762280 -0.066330 0.077230 
#    y -0.066330 1.860460 -0.142070 
#    z 0.077230 -0.142070 1.882580 
# 
# From -- ./inp_files/240277.got.cif
#   From: 2010.05.17/outbox.cif.g08.bks.cpg/sg2_121_cif.got.tgz:240277.got - 2010.06.03 11:33:40.
