data_PCOD9002432
_publ_section_title
;
Structure prediction by ZEFSAII (Michael W. Deem and Ramdas Pophale) SiO2 
 PCOD9002432
Probable space group: P -1
;
_chemical_formula_sum "Si O2"
_cell_formula_units_Z 14
_cell_length_a 8.596902
_cell_length_b 25.628587
_cell_length_c 8.771492
_cell_angle_alpha 143.861088
_cell_angle_beta 69.700906
_cell_angle_gamma 136.584488
_cell_volume 631.661006
_symmetry_space_group_name_H-M "P -1"
_symmetry_group_IT_number 2
_symmetry_cell_setting 'triclinic'
loop_
_space_group_symop_operation_xyz
x,y,z
-x,-y,-z
loop_
_atom_site_type_symbol
_atom_site_label
_atom_site_fract_x
_atom_site_fract_y
_atom_site_fract_z
Si Si1 0.120479 0.589940 0.510757
Si Si2 0.179425 0.457899 0.978145
Si Si3 0.407833 0.436292 0.123033
Si Si4 0.688121 0.899908 0.906462
Si Si5 0.107195 0.311732 0.226976
Si Si6 0.623481 0.148377 0.361283
Si Si7 0.507179 0.006055 0.332349
O O1 0.460300 0.753119 0.750983
O O2 0.000000 0.500000 0.500000
O O3 0.966124 0.616502 0.602735
O O4 0.054728 0.494506 0.170419
O O5 0.446938 0.577556 0.058896
O O6 0.951720 0.305414 0.599735
O O7 0.271821 0.442867 0.061157
O O8 0.198950 0.314527 0.037164
O O9 0.642188 0.589191 0.504448
O O10 0.535096 0.846552 0.669322
O O11 0.696007 0.003909 0.213016
O O12 0.000000 0.000000 0.000000
O O13 0.810920 0.142746 0.968545
O O14 0.602923 0.136028 0.522776
O O15 0.500000 0.000000 0.000000
O O16 0.500000 0.000000 0.500000
#
# Coordination Sequence:
#
# PCOD9002432 Si02
#       7
#     2   2   2   2   2   2   2
#     4  11  23  41  64  91 133 173 205 268 330 382
#     4  11  22  38  66  92 122 168 218 253 327 387
#     4  10  21  36  60  94 122 154 213 269 302 383
#     4  10  24  43  65  91 131 169 216 265 321 380
#     4  10  21  40  58  93 132 160 203 270 331 366
#     4  10  22  42  64  91 127 169 213 261 323 386
#     4  10  21  39  67  88 124 172 213 256 320 389
#
# _framework density 22.163786999999999
#
# number of rings (size 3 to 8) (size 9 to 14) (size 15 to 20)
#    0.000    1.714    1.429    3.429    2.000    9.143 
#    0.000    2.143    0.000    0.000    0.000    0.000 
#    0.000    0.000    0.000    0.000    0.000    0.000 
#
# Total GULP energy -78071.273616 kJ/mol
# GULP energy per Si atom -5576.519544 kJ/mol
# Density = 2.211334 g / cm^3
# Si number density = 22.163787 Si / 1000 Ang^3
#
#
#
# Elastic Constant Matrix: (Units=GPa)
#
#
# Indices 1 2 3 4 5 6 
#
# 1 62.6821 60.9779 24.0240 11.2834 24.9934 2.1421
# 2 60.9779 175.8491 29.6042 -1.9599 13.0783 4.3345
# 3 24.0240 29.6042 57.1742 4.6501 13.7006 7.1455
# 4 11.2834 -1.9599 4.6501 39.5563 1.7589 2.6274
# 5 24.9934 13.0783 13.7006 1.7589 33.5864 -0.5743
# 6 2.1421 4.3345 7.1455 2.6274 -0.5743 38.9964
#
#
#
# Elastic Compliance Matrix: (Units=1/GPa)
#
#
# Indices 1 2 3 4 5 6 
#
# 1 0.039752 -0.011456 -0.004515 -0.010384 -0.022730 0.000282
# 2 -0.011456 0.009600 -0.001686 0.003727 0.005275 -0.000302
# 3 -0.004515 -0.001686 0.021974 -0.000919 -0.004961 -0.003602
# 4 -0.010384 0.003727 -0.000919 0.028407 0.005137 -0.001514
# 5 -0.022730 0.005275 -0.004961 0.005137 0.046422 0.001909
# 6 0.000282 -0.000302 -0.003602 -0.001514 0.001909 0.026452
#
#
# Mechanical properties :
#
#
# Convention : Reuss Voigt Hill
#
# Bulk Modulus (GPa) = 27.76983 58.32417 43.04700
# Shear Modulus (GPa) = 22.73495 34.50111 28.61803
#
# Velocity S-wave (km/s) = 3.20624 3.94971 3.59723
# Velocity P-wave (km/s) = 5.12476 6.86822 6.05953
#
# Compressibility (1/GPa) = 0.03601030
#
# Stress axis : x y z
#
# Youngs Moduli (GPa) = 25.15615 104.16717 45.50754
#
# Poissons Ratio (x) = 1.19339 0.20547
# Poissons Ratio (y) = 0.28820 0.07674
# Poissons Ratio (z) = 0.11358 0.17565
#
# Static dielectric constant tensor:
#      x y z
#    x 1.777260 -0.000890 0.005640 
#    y -0.000890 1.773850 -0.025580 
#    z 0.005640 -0.025580 1.893950 
# 
# From -- ./inp_files/227588.got.cif
#   From: 2010.05.17/outbox.cif.g08.bks.cpg/sg2_114_cif.got.tgz:227588.got - 2010.06.03 11:33:40.
