data_PCOD9002090
_publ_section_title
;
Structure prediction by ZEFSAII (Michael W. Deem and Ramdas Pophale) SiO2 
 PCOD9002090
Probable space group: P -1
;
_chemical_formula_sum "Si O2"
_cell_formula_units_Z 10
_cell_length_a 13.540837
_cell_length_b 16.506480
_cell_length_c 7.233462
_cell_angle_alpha 137.380528
_cell_angle_beta 53.893041
_cell_angle_gamma 157.050055
_cell_volume 402.279017
_symmetry_space_group_name_H-M "P -1"
_symmetry_group_IT_number 2
_symmetry_cell_setting 'triclinic'
loop_
_space_group_symop_operation_xyz
x,y,z
-x,-y,-z
loop_
_atom_site_type_symbol
_atom_site_label
_atom_site_fract_x
_atom_site_fract_y
_atom_site_fract_z
Si Si1 0.995768 0.136193 0.779033
Si Si2 0.985288 0.812789 0.712460
Si Si3 0.213480 0.809437 0.961711
Si Si4 0.566613 0.614396 0.919472
Si Si5 0.180956 0.732044 0.434706
O O1 0.285161 0.430012 0.873430
O O2 0.975458 0.129515 0.012507
O O3 0.787979 0.048549 0.772659
O O4 0.000000 0.000000 0.500000
O O5 0.048543 0.729813 0.473282
O O6 0.689765 0.610645 0.660941
O O7 0.202284 0.085566 0.832302
O O8 0.150249 0.736631 0.692821
O O9 0.987740 0.535915 0.857688
O O10 0.500000 0.000000 0.000000
O O11 0.500000 0.500000 0.000000
O O12 0.500000 0.000000 0.500000
#
# Coordination Sequence:
#
# PCOD9002090 Si02
#       5
#     2   2   2   2   2
#     4  10  21  36  57  86 122 154 190 245 304 352
#     4   9  19  36  58  87 113 152 203 242 295 365
#     4  10  23  41  61  92 125 159 209 251 298 370
#     4   9  18  35  57  82 113 149 195 244 292 352
#     4  10  21  40  64  86 123 166 201 252 308 359
#
# _framework density 24.858367000000001
#
# number of rings (size 3 to 8) (size 9 to 14) (size 15 to 20)
#    0.000    2.400    0.000    1.200    2.800    3.200 
#   10.800    0.000    0.000    0.000    0.000    0.000 
#    0.000    0.000    0.000    0.000    0.000    0.000 
#
# Total GULP energy -55874.653686 kJ/mol
# GULP energy per Si atom -5587.465369 kJ/mol
# Density = 2.480179 g / cm^3
# Si number density = 24.858367 Si / 1000 Ang^3
#
#
#
# Elastic Constant Matrix: (Units=GPa)
#
#
# Indices 1 2 3 4 5 6 
#
# 1 146.2691 48.6598 43.9122 -6.0021 -46.9993 16.1846
# 2 48.6598 148.8580 37.0245 14.8447 -27.3957 -4.3380
# 3 43.9122 37.0245 100.5989 -20.3031 -30.0788 -9.6341
# 4 -6.0021 14.8447 -20.3031 34.2322 -3.5130 0.0851
# 5 -46.9993 -27.3957 -30.0788 -3.5130 45.9563 -7.8269
# 6 16.1846 -4.3380 -9.6341 0.0851 -7.8269 48.8096
#
#
#
# Elastic Compliance Matrix: (Units=1/GPa)
#
#
# Indices 1 2 3 4 5 6 
#
# 1 0.011292 -0.002136 -0.000857 0.003383 0.009533 -0.002580
# 2 -0.002136 0.009021 -0.003334 -0.006194 0.000704 0.000976
# 3 -0.000857 -0.003334 0.017859 0.012973 0.010703 0.005207
# 4 0.003383 -0.006194 0.012973 0.041399 0.011886 0.002722
# 5 0.009533 0.000704 0.010703 0.011886 0.040785 0.005534
# 6 -0.002580 0.000976 0.005207 0.002722 0.005534 0.023340
#
#
# Mechanical properties :
#
#
# Convention : Reuss Voigt Hill
#
# Bulk Modulus (GPa) = 39.18847 72.76875 55.97861
# Shear Modulus (GPa) = 30.32951 43.54158 36.93555
#
# Velocity S-wave (km/s) = 3.49677 4.18974 3.85884
# Velocity P-wave (km/s) = 5.66588 7.26237 6.51323
#
# Compressibility (1/GPa) = 0.02551771
#
# Stress axis : x y z
#
# Youngs Moduli (GPa) = 88.55670 110.85336 55.99542
#
# Poissons Ratio (x) = 0.23680 0.04798
# Poissons Ratio (y) = 0.18917 0.18668
# Poissons Ratio (z) = 0.07589 0.36957
#
# Static dielectric constant tensor:
#      x y z
#    x 2.046630 0.043610 0.063920 
#    y 0.043610 1.942090 0.013080 
#    z 0.063920 0.013080 2.027820 
# 
# From -- ./inp_files/22941.got.cif
#   From: 2010.05.17/outbox.cif.g08.bks.cpg/sg2_12_cif.got.tgz:22941.got - 2010.06.03 11:33:40.
