data_PCOD9002073
_publ_section_title
;
Structure prediction by ZEFSAII (Michael W. Deem and Ramdas Pophale) SiO2 
 PCOD9002073
Probable space group: P -1
;
_chemical_formula_sum "Si O2"
_cell_formula_units_Z 16
_cell_length_a 16.949759
_cell_length_b 7.719561
_cell_length_c 22.750232
_cell_angle_alpha 143.984302
_cell_angle_beta 21.071700
_cell_angle_gamma 139.757656
_cell_volume 628.798113
_symmetry_space_group_name_H-M "P -1"
_symmetry_group_IT_number 2
_symmetry_cell_setting 'triclinic'
loop_
_space_group_symop_operation_xyz
x,y,z
-x,-y,-z
loop_
_atom_site_type_symbol
_atom_site_label
_atom_site_fract_x
_atom_site_fract_y
_atom_site_fract_z
Si Si1 0.264122 0.958116 0.029525
Si Si2 0.120132 0.392529 0.572586
Si Si3 0.121839 0.192741 0.820359
Si Si4 0.676132 0.432986 0.310555
Si Si5 0.307982 0.766378 0.237230
Si Si6 0.529811 0.792710 0.208800
Si Si7 0.481537 0.319907 0.683734
Si Si8 0.941843 0.394961 0.826583
O O1 0.371955 0.639617 0.855146
O O2 0.469707 0.187619 0.943327
O O3 0.146563 0.900166 0.158368
O O4 0.076693 0.001604 0.122415
O O5 0.309921 0.636522 0.491984
O O6 0.890241 0.417306 0.705122
O O7 0.073129 0.352068 0.663357
O O8 0.217105 0.093568 0.398086
O O9 0.296437 0.292782 0.676776
O O10 0.273317 0.119024 0.749962
O O11 0.000000 0.500000 0.000000
O O12 0.500000 0.500000 0.500000
O O13 0.906749 0.427731 0.182830
O O14 0.610896 0.134229 0.239643
O O15 0.371306 0.688708 0.238349
O O16 0.438582 0.770883 0.332424
O O17 0.736824 0.588452 0.007342
#
# Coordination Sequence:
#
# PCOD9002073 Si02
#       8
#     2   2   2   2   2   2   2   2
#     4   8  17  33  54  82 111 147 185 226 276 332
#     4  10  21  40  60  81 112 152 193 232 274 333
#     4   9  16  31  55  78 112 148 179 225 277 333
#     4  11  21  36  58  83 115 148 186 230 278 340
#     4  10  21  38  61  82 110 153 195 229 275 335
#     4  11  22  36  56  83 114 149 187 231 285 333
#     4   9  18  34  54  80 115 148 183 228 280 331
#     4  10  21  36  57  85 116 146 185 237 284 328
#
# _framework density 25.445368999999999
#
# number of rings (size 3 to 8) (size 9 to 14) (size 15 to 20)
#    0.000    2.250    0.000    4.875    0.000    2.500 
#    0.000    7.500    0.000    0.000    0.000    0.000 
#    0.000    0.000    0.000    0.000    0.000    0.000 
#
# Total GULP energy -89599.308726 kJ/mol
# GULP energy per Si atom -5599.956795 kJ/mol
# Density = 2.538745 g / cm^3
# Si number density = 25.445369 Si / 1000 Ang^3
#
#
#
# Elastic Constant Matrix: (Units=GPa)
#
#
# Indices 1 2 3 4 5 6 
#
# 1 181.8406 50.4068 50.7701 -35.2272 -9.4958 9.4806
# 2 50.4068 116.1089 30.3133 -17.3159 4.1313 17.7909
# 3 50.7701 30.3133 121.6922 -33.2595 6.9920 -3.2454
# 4 -35.2272 -17.3159 -33.2595 37.7544 -7.5562 7.5106
# 5 -9.4958 4.1313 6.9920 -7.5562 57.8526 -12.6553
# 6 9.4806 17.7909 -3.2454 7.5106 -12.6553 30.6018
#
#
#
# Elastic Compliance Matrix: (Units=1/GPa)
#
#
# Indices 1 2 3 4 5 6 
#
# 1 0.007760 -0.001865 -0.001281 0.006063 0.001880 -0.002167
# 2 -0.001865 0.011617 -0.001189 0.003705 -0.002293 -0.008160
# 3 -0.001281 -0.001189 0.011288 0.008096 -0.000403 0.000132
# 4 0.006063 0.003705 0.008096 0.044076 0.002692 -0.012878
# 5 0.001880 -0.002293 -0.000403 0.002692 0.019975 0.008308
# 6 -0.002167 -0.008160 0.000132 -0.012878 0.008308 0.044703
#
#
# Mechanical properties :
#
#
# Convention : Reuss Voigt Hill
#
# Bulk Modulus (GPa) = 45.46766 75.84690 60.65728
# Shear Modulus (GPa) = 32.17061 44.45184 38.31122
#
# Velocity S-wave (km/s) = 3.55956 4.18419 3.88445
# Velocity P-wave (km/s) = 5.89928 7.29491 6.63390
#
# Compressibility (1/GPa) = 0.02199365
#
# Stress axis : x y z
#
# Youngs Moduli (GPa) = 128.86914 86.08033 88.59270
#
# Poissons Ratio (x) = 0.16053 0.11353
# Poissons Ratio (y) = 0.24033 0.10534
# Poissons Ratio (z) = 0.16514 0.10235
#
# Static dielectric constant tensor:
#      x y z
#    x 2.034140 -0.012370 0.054580 
#    y -0.012370 2.022980 0.044920 
#    z 0.054580 0.044920 2.055170 
# 
# From -- ./inp_files/177405.got.cif
#   From: 2010.05.17/outbox.cif.g08.bks.cpg/sg2_89_cif.got.tgz:177405.got - 2010.06.03 11:33:40.
