data_PCOD9002814
_publ_section_title
;
Structure prediction by ZEFSAII (Michael W. Deem and Ramdas Pophale) SiO2 
 PCOD9002814
Probable space group: P -1
;
_chemical_formula_sum "Si O2"
_cell_formula_units_Z 16
_cell_length_a 15.134126
_cell_length_b 11.246084
_cell_length_c 10.001176
_cell_angle_alpha 60.399210
_cell_angle_beta 150.075065
_cell_angle_gamma 134.342973
_cell_volume 576.701680
_symmetry_space_group_name_H-M "P -1"
_symmetry_group_IT_number 2
_symmetry_cell_setting 'triclinic'
loop_
_space_group_symop_operation_xyz
x,y,z
-x,-y,-z
loop_
_atom_site_type_symbol
_atom_site_label
_atom_site_fract_x
_atom_site_fract_y
_atom_site_fract_z
Si Si1 0.299369 0.053262 0.470943
Si Si2 0.542274 0.609380 0.356628
Si Si3 0.400071 0.027829 0.982161
Si Si4 0.850493 0.230680 0.907916
Si Si5 0.961865 0.667396 0.189405
Si Si6 0.609106 0.846108 0.750167
Si Si7 0.918577 0.702141 0.582119
Si Si8 0.335800 0.612286 0.750815
O O1 0.375648 0.202218 0.592558
O O2 0.486207 0.020384 0.731158
O O3 0.292532 0.132153 0.278705
O O4 0.070860 0.855232 0.293800
O O5 0.500000 0.500000 0.500000
O O6 0.729631 0.653526 0.469717
O O7 0.296844 0.485501 0.031136
O O8 0.502538 0.226300 0.026005
O O9 0.128893 0.896384 0.702902
O O10 0.500000 0.000000 0.000000
O O11 0.631671 0.200034 0.579118
O O12 0.020243 0.312514 0.959524
O O13 0.781305 0.036816 0.936343
O O14 0.944545 0.334167 0.113885
O O15 0.126518 0.621158 0.466435
O O16 0.519356 0.696004 0.821250
O O17 0.804965 0.589521 0.362398
#
# Coordination Sequence:
#
# PCOD9002814 Si02
#       8
#     2   2   2   2   2   2   2   2
#     4  10  21  39  62  86 124 166 199 245 300 359
#     4  12  24  35  55  95 136 167 188 228 307 386
#     4  11  24  45  68  88 111 153 219 272 298 335
#     4   9  15  29  50  81 119 151 192 235 286 354
#     4   9  20  35  53  85 124 165 195 231 289 371
#     4   9  15  30  57  87 117 151 194 239 306 361
#     4  12  22  36  57  91 124 155 200 247 301 361
#     4  10  21  36  65  91 116 154 201 256 315 358
#
# _framework density 27.743981000000002
#
# number of rings (size 3 to 8) (size 9 to 14) (size 15 to 20)
#    0.000    1.750    3.750    3.000    0.000    3.000 
#    0.000    0.625    0.000    3.750    0.000    0.000 
#    0.000    0.000    0.000    0.000    0.000    0.000 
#
# Total GULP energy -89377.740896 kJ/mol
# GULP energy per Si atom -5586.108806 kJ/mol
# Density = 2.768083 g / cm^3
# Si number density = 27.743981 Si / 1000 Ang^3
#
#
#
# Elastic Constant Matrix: (Units=GPa)
#
#
# Indices 1 2 3 4 5 6 
#
# 1 130.8778 42.7436 85.8925 45.2130 -3.5421 -7.0568
# 2 42.7436 104.4369 89.6153 38.2121 5.3946 -10.8102
# 3 85.8925 89.6153 172.2408 52.8149 18.2206 -4.6725
# 4 45.2130 38.2121 52.8149 57.7452 -0.7829 -0.0831
# 5 -3.5421 5.3946 18.2206 -0.7829 69.8985 21.0016
# 6 -7.0568 -10.8102 -4.6725 -0.0831 21.0016 22.3655
#
#
#
# Elastic Compliance Matrix: (Units=1/GPa)
#
#
# Indices 1 2 3 4 5 6 
#
# 1 0.013093 0.002145 -0.005693 -0.006445 0.001005 0.003010
# 2 0.002145 0.020038 -0.008833 -0.006878 -0.002457 0.010798
# 3 -0.005693 -0.008833 0.014558 -0.003059 -0.003516 0.000265
# 4 -0.006445 -0.006878 -0.003059 0.029758 0.004323 -0.009946
# 5 0.001005 -0.002457 -0.003516 0.004323 0.022273 -0.022503
# 6 0.003010 0.010798 0.000265 -0.009946 -0.022503 0.072030
#
#
# Mechanical properties :
#
#
# Convention : Reuss Voigt Hill
#
# Bulk Modulus (GPa) = 43.62056 93.78426 68.70241
# Shear Modulus (GPa) = 24.49111 42.62213 33.55662
#
# Velocity S-wave (km/s) = 2.97434 3.92378 3.48157
# Velocity P-wave (km/s) = 5.24903 7.37596 6.40145
#
# Compressibility (1/GPa) = 0.02292497
#
# Stress axis : x y z
#
# Youngs Moduli (GPa) = 76.37792 49.90443 68.69046
#
# Poissons Ratio (x) = -0.10703 0.39107
# Poissons Ratio (y) = -0.16380 0.60678
# Poissons Ratio (z) = 0.43484 0.44083
#
# Static dielectric constant tensor:
#      x y z
#    x 2.305170 0.136520 -0.075300 
#    y 0.136520 2.231960 -0.131990 
#    z -0.075300 -0.131990 2.248060 
# 
# From -- ./inp_files/433730.got.cif
#   From: 2010.05.17/outbox.cif.g08.bks.cpg/sg2_217_cif.got.tgz:433730.got - 2010.06.03 11:33:40.
