data_PCOD9002636
_publ_section_title
;
Structure prediction by ZEFSAII (Michael W. Deem and Ramdas Pophale) SiO2 
 PCOD9002636
Probable space group: P -1
;
_chemical_formula_sum "Si O2"
_cell_formula_units_Z 14
_cell_length_a 4.812762
_cell_length_b 15.370264
_cell_length_c 15.034146
_cell_angle_alpha 148.208298
_cell_angle_beta 114.326453
_cell_angle_gamma 78.076132
_cell_volume 509.466642
_symmetry_space_group_name_H-M "P -1"
_symmetry_group_IT_number 2
_symmetry_cell_setting 'triclinic'
loop_
_space_group_symop_operation_xyz
x,y,z
-x,-y,-z
loop_
_atom_site_type_symbol
_atom_site_label
_atom_site_fract_x
_atom_site_fract_y
_atom_site_fract_z
Si Si1 0.126030 0.788133 0.006445
Si Si2 0.668751 0.921623 0.835118
Si Si3 0.388623 0.229748 0.725398
Si Si4 0.950862 0.118225 0.727248
Si Si5 0.992041 0.581478 0.268685
Si Si6 0.718967 0.647906 0.455962
Si Si7 0.540842 0.360963 0.312968
O O1 0.187228 0.611674 0.891097
O O2 0.793508 0.719311 0.850235
O O3 0.060150 0.881092 0.167994
O O4 0.375388 0.916360 0.084594
O O5 0.720175 0.793030 0.653810
O O6 0.415862 0.801891 0.767712
O O7 0.000000 0.000000 0.000000
O O8 0.763424 0.256325 0.794651
O O9 0.272119 0.166402 0.754524
O O10 0.216813 0.367129 0.790029
O O11 0.243583 0.067256 0.499009
O O12 0.365479 0.600490 0.321224
O O13 0.973583 0.695618 0.452526
O O14 0.761586 0.482642 0.373315
O O15 0.500000 0.500000 0.500000
#
# Coordination Sequence:
#
# PCOD9002636 Si02
#       7
#     2   2   2   2   2   2   2
#     4  10  21  36  62  97 127 162 211 260 306 368
#     4   9  18  39  64  92 125 164 210 261 311 367
#     4  10  22  41  62  89 125 166 202 252 315 370
#     4  10  22  39  63  91 123 161 209 255 305 368
#     4  11  23  40  64  92 126 165 206 253 313 371
#     4  10  21  40  64  91 126 167 209 253 309 374
#     4   8  17  37  62  90 125 164 204 252 310 366
#
# _framework density 27.479717000000001
#
# number of rings (size 3 to 8) (size 9 to 14) (size 15 to 20)
#    0.000    2.286    0.000    1.714    0.000    5.714 
#    0.000   31.429    0.000    0.000    0.000    0.000 
#    0.000    0.000    0.000    0.000    0.000    0.000 
#
# Total GULP energy -78396.625277 kJ/mol
# GULP energy per Si atom -5599.758948 kJ/mol
# Density = 2.741717 g / cm^3
# Si number density = 27.479717 Si / 1000 Ang^3
#
#
#
# Elastic Constant Matrix: (Units=GPa)
#
#
# Indices 1 2 3 4 5 6 
#
# 1 107.2582 26.7816 20.9366 -9.5392 -12.5065 -5.5222
# 2 26.7816 143.7482 34.9276 16.2598 1.2491 0.5651
# 3 20.9366 34.9276 101.4018 -9.1407 0.1735 -8.0078
# 4 -9.5392 16.2598 -9.1407 60.9879 -0.1069 -5.3359
# 5 -12.5065 1.2491 0.1735 -0.1069 23.4859 -4.4591
# 6 -5.5222 0.5651 -8.0078 -5.3359 -4.4591 35.7434
#
#
#
# Elastic Compliance Matrix: (Units=1/GPa)
#
#
# Indices 1 2 3 4 5 6 
#
# 1 0.011208 -0.002146 -0.001158 0.002399 0.006613 0.002689
# 2 -0.002146 0.008444 -0.002893 -0.003184 -0.001932 -0.001830
# 3 -0.001158 -0.002893 0.011553 0.002570 0.000003 0.002839
# 4 0.002399 -0.003184 0.002570 0.018362 0.002275 0.004022
# 5 0.006613 -0.001932 0.000003 0.002275 0.047605 0.007331
# 6 0.002689 -0.001830 0.002839 0.004022 0.007331 0.030573
#
#
# Mechanical properties :
#
#
# Convention : Reuss Voigt Hill
#
# Bulk Modulus (GPa) = 53.16211 57.52221 55.34216
# Shear Modulus (GPa) = 34.15085 42.02758 38.08921
#
# Velocity S-wave (km/s) = 3.52911 3.91500 3.72705
# Velocity P-wave (km/s) = 5.99951 6.43540 6.22127
#
# Compressibility (1/GPa) = 0.01881039
#
# Stress axis : x y z
#
# Youngs Moduli (GPa) = 89.22228 118.43225 86.55515
#
# Poissons Ratio (x) = 0.25418 0.10020
# Poissons Ratio (y) = 0.19149 0.25044
# Poissons Ratio (z) = 0.10328 0.34268
#
# Static dielectric constant tensor:
#      x y z
#    x 2.038330 -0.020680 -0.002940 
#    y -0.020680 2.206940 0.012840 
#    z -0.002940 0.012840 2.173670 
# 
# From -- ./inp_files/352477.got.cif
#   From: 2010.05.17/outbox.cif.g08.bks.cpg/sg2_177_cif.got.tgz:352477.got - 2010.06.03 11:33:40.
