data_PCOD9002213
_publ_section_title
;
Structure prediction by ZEFSAII (Michael W. Deem and Ramdas Pophale) SiO2 
 PCOD9002213
Probable space group: P -1
;
_chemical_formula_sum "Si O2"
_cell_formula_units_Z 14
_cell_length_a 11.566654
_cell_length_b 17.715788
_cell_length_c 9.417689
_cell_angle_alpha 139.810315
_cell_angle_beta 123.003078
_cell_angle_gamma 33.422319
_cell_volume 662.096447
_symmetry_space_group_name_H-M "P -1"
_symmetry_group_IT_number 2
_symmetry_cell_setting 'triclinic'
loop_
_space_group_symop_operation_xyz
x,y,z
-x,-y,-z
loop_
_atom_site_type_symbol
_atom_site_label
_atom_site_fract_x
_atom_site_fract_y
_atom_site_fract_z
Si Si1 0.100200 0.553215 0.210879
Si Si2 0.081941 0.056708 0.780502
Si Si3 0.654649 0.935975 0.386092
Si Si4 0.600977 0.987636 0.906311
Si Si5 0.232559 0.541218 0.997277
Si Si6 0.056902 0.416182 0.572327
Si Si7 0.320375 0.814415 0.324095
O O1 0.896082 0.772865 0.371910
O O2 0.123020 0.519138 0.346789
O O3 0.265613 0.500346 0.130916
O O4 0.000000 0.500000 0.000000
O O5 0.888386 0.102890 0.776623
O O6 0.946035 0.245465 0.868998
O O7 0.233332 0.882110 0.524626
O O8 0.243689 0.010093 0.934254
O O9 0.500000 0.000000 0.500000
O O10 0.605571 0.874323 0.139286
O O11 0.622815 0.089471 0.537200
O O12 0.759370 0.799078 0.651350
O O13 0.500000 0.000000 0.000000
O O14 0.143018 0.475211 0.791097
O O15 0.464391 0.400204 0.872839
O O16 0.000000 0.500000 0.500000
#
# Coordination Sequence:
#
# PCOD9002213 Si02
#       7
#     2   2   2   2   2   2   2
#     4  10  21  36  58  93 122 162 206 262 314 370
#     4  11  23  39  63  93 135 163 211 265 312 372
#     4  12  21  39  64  90 125 164 207 258 308 374
#     4  12  21  37  61  95 122 160 210 259 313 360
#     4  11  19  39  63  90 121 172 212 251 311 382
#     4  11  21  35  60  91 125 153 207 266 310 359
#     4  11  23  40  61  96 126 171 214 252 318 380
#
# _framework density 21.144956000000001
#
# number of rings (size 3 to 8) (size 9 to 14) (size 15 to 20)
#    0.000    0.857    7.143    1.286    2.000    0.000 
#    0.000    0.714    0.000    0.857    0.000    0.000 
#    0.000    0.000    0.000    0.000    0.000    0.000 
#
# Total GULP energy -77966.057446 kJ/mol
# GULP energy per Si atom -5569.004103 kJ/mol
# Density = 2.109683 g / cm^3
# Si number density = 21.144956 Si / 1000 Ang^3
#
#
#
# Elastic Constant Matrix: (Units=GPa)
#
#
# Indices 1 2 3 4 5 6 
#
# 1 75.5378 31.4834 45.4192 -12.6452 -11.6179 -17.3788
# 2 31.4834 62.0905 28.3663 -6.9154 -13.9510 -9.0018
# 3 45.4192 28.3663 89.9545 -5.9673 -18.8251 -8.1664
# 4 -12.6452 -6.9154 -5.9673 47.2018 -6.6573 -1.0475
# 5 -11.6179 -13.9510 -18.8251 -6.6573 42.6407 -9.3650
# 6 -17.3788 -9.0018 -8.1664 -1.0475 -9.3650 31.5917
#
#
#
# Elastic Compliance Matrix: (Units=1/GPa)
#
#
# Indices 1 2 3 4 5 6 
#
# 1 0.024928 -0.005391 -0.008464 0.005743 0.004732 0.011582
# 2 -0.005391 0.022287 -0.002427 0.002487 0.006165 0.004667
# 3 -0.008464 -0.002427 0.017179 0.000211 0.004620 0.000470
# 4 0.005743 0.002487 0.000211 0.024375 0.007825 0.007050
# 5 0.004732 0.006165 0.004620 0.007825 0.033476 0.015737
# 6 0.011582 0.004667 0.000470 0.007050 0.015737 0.044376
#
#
# Mechanical properties :
#
#
# Convention : Reuss Voigt Hill
#
# Bulk Modulus (GPa) = 31.41705 48.68005 40.04855
# Shear Modulus (GPa) = 23.83276 32.44109 28.13692
#
# Velocity S-wave (km/s) = 3.36089 3.92117 3.65179
# Velocity P-wave (km/s) = 5.47275 6.60097 6.06316
#
# Compressibility (1/GPa) = 0.03182985
#
# Stress axis : x y z
#
# Youngs Moduli (GPa) = 40.11485 44.86958 58.21022
#
# Poissons Ratio (x) = 0.24191 0.49269
# Poissons Ratio (y) = 0.21627 0.14128
# Poissons Ratio (z) = 0.33953 0.10890
#
# Static dielectric constant tensor:
#      x y z
#    x 1.780150 -0.086720 -0.042980 
#    y -0.086720 1.959070 0.080110 
#    z -0.042980 0.080110 1.822730 
# 
# From -- ./inp_files/170382.got.cif
#   From: 2010.05.17/outbox.cif.g08.bks.cpg/sg2_86_cif.got.tgz:170382.got - 2010.06.03 11:33:40.
