data_PCOD9002461
_publ_section_title
;
Structure prediction by ZEFSAII (Michael W. Deem and Ramdas Pophale) SiO2 
 PCOD9002461
Probable space group: P -1
;
_chemical_formula_sum "Si O2"
_cell_formula_units_Z 12
_cell_length_a 20.201466
_cell_length_b 5.414532
_cell_length_c 5.336437
_cell_angle_alpha 59.591318
_cell_angle_beta 71.796847
_cell_angle_gamma 91.474240
_cell_volume 466.021493
_symmetry_space_group_name_H-M "P -1"
_symmetry_group_IT_number 2
_symmetry_cell_setting 'triclinic'
loop_
_space_group_symop_operation_xyz
x,y,z
-x,-y,-z
loop_
_atom_site_type_symbol
_atom_site_label
_atom_site_fract_x
_atom_site_fract_y
_atom_site_fract_z
Si Si1 0.169614 0.439972 0.331456
Si Si2 0.585457 0.294717 0.083218
Si Si3 0.216095 0.921649 0.371569
Si Si4 0.443289 0.320378 0.469695
Si Si5 0.708519 0.466000 0.199505
Si Si6 0.974993 0.644209 0.707224
O O1 0.179514 0.106261 0.522716
O O2 0.110685 0.422959 0.196458
O O3 0.158269 0.652263 0.459076
O O4 0.247645 0.605207 0.059023
O O5 0.498653 0.236691 0.238388
O O6 0.628481 0.422937 0.214333
O O7 0.598445 0.973575 0.202932
O O8 0.605492 0.511222 0.716594
O O9 0.274549 0.762718 0.503596
O O10 0.251489 0.190278 0.003213
O O11 0.500000 0.500000 0.500000
O O12 0.000000 0.500000 0.500000
O O13 0.000000 0.000000 0.500000
O O14 0.000000 0.500000 0.000000
#
# Coordination Sequence:
#
# PCOD9002461 Si02
#       6
#     2   2   2   2   2   2
#     4  10  26  43  70  96 137 172 226 277 340 398
#     4  10  21  39  57  90 121 160 214 256 326 388
#     4  10  24  40  67  93 134 171 215 278 332 395
#     4  10  21  36  61  85 125 162 204 264 316 392
#     4  10  24  39  65  93 130 171 220 273 331 400
#     4  12  28  47  75 107 143 191 238 293 355 428
#
# _framework density 25.749887999999999
#
# number of rings (size 3 to 8) (size 9 to 14) (size 15 to 20)
#    1.000    0.667    0.000    3.000    7.000    2.667 
#    0.000    0.000    0.000    0.000    0.000    0.000 
#    0.000    0.000    0.000    0.000    0.000    0.000 
#
# Total GULP energy -66954.098254 kJ/mol
# GULP energy per Si atom -5579.508188 kJ/mol
# Density = 2.569128 g / cm^3
# Si number density = 25.749888 Si / 1000 Ang^3
#
#
#
# Elastic Constant Matrix: (Units=GPa)
#
#
# Indices 1 2 3 4 5 6 
#
# 1 130.9199 45.7177 54.9995 -8.4124 40.5261 9.0983
# 2 45.7177 202.2187 67.4163 -33.8017 36.2190 -0.4889
# 3 54.9995 67.4163 132.1729 -25.5526 61.9949 -8.9901
# 4 -8.4124 -33.8017 -25.5526 41.8133 -13.8019 7.2315
# 5 40.5261 36.2190 61.9949 -13.8019 60.8078 1.9561
# 6 9.0983 -0.4889 -8.9901 7.2315 1.9561 41.2274
#
#
#
# Elastic Compliance Matrix: (Units=1/GPa)
#
#
# Indices 1 2 3 4 5 6 
#
# 1 0.010307 -0.001043 -0.002138 -0.001064 -0.004234 -0.002366
# 2 -0.001043 0.006572 -0.002186 0.003886 -0.000081 -0.000847
# 3 -0.002138 -0.002186 0.017048 0.002795 -0.014159 0.004345
# 4 -0.001064 0.003886 0.002795 0.030172 0.002538 -0.004522
# 5 -0.004234 -0.000081 -0.014159 0.002538 0.034463 -0.004234
# 6 -0.002366 -0.000847 0.004345 -0.004522 -0.004234 0.026709
#
#
# Mechanical properties :
#
#
# Convention : Reuss Voigt Hill
#
# Bulk Modulus (GPa) = 43.11670 89.06430 66.09050
# Shear Modulus (GPa) = 34.78619 48.58157 41.68388
#
# Velocity S-wave (km/s) = 3.67948 4.34829 4.02779
# Velocity P-wave (km/s) = 5.90188 7.73780 6.88134
#
# Compressibility (1/GPa) = 0.02319287
#
# Stress axis : x y z
#
# Youngs Moduli (GPa) = 97.01983 152.16306 58.65937
#
# Poissons Ratio (x) = 0.15867 0.12540
# Poissons Ratio (y) = 0.10117 0.12825
# Poissons Ratio (z) = 0.20740 0.33268
#
# Static dielectric constant tensor:
#      x y z
#    x 2.173960 -0.123020 -0.011380 
#    y -0.123020 2.112200 0.070570 
#    z -0.011380 0.070570 2.074250 
# 
# From -- ./inp_files/113453.got.cif
#   From: 2010.05.17/outbox.cif.g08.bks.cpg/sg2_57_cif.got.tgz:113453.got - 2010.06.03 11:33:40.
