data_PCOD9002491
_publ_section_title
;
Structure prediction by ZEFSAII (Michael W. Deem and Ramdas Pophale) SiO2 
 PCOD9002491
Probable space group: P -1
;
_chemical_formula_sum "Si O2"
_cell_formula_units_Z 14
_cell_length_a 30.483650
_cell_length_b 5.321129
_cell_length_c 33.320536
_cell_angle_alpha 47.068974
_cell_angle_beta 171.539467
_cell_angle_gamma 133.755964
_cell_volume 574.148733
_symmetry_space_group_name_H-M "P -1"
_symmetry_group_IT_number 2
_symmetry_cell_setting 'triclinic'
loop_
_space_group_symop_operation_xyz
x,y,z
-x,-y,-z
loop_
_atom_site_type_symbol
_atom_site_label
_atom_site_fract_x
_atom_site_fract_y
_atom_site_fract_z
Si Si1 0.257321 0.921758 0.711277
Si Si2 0.287493 0.980359 0.586119
Si Si3 0.879055 0.859170 0.302714
Si Si4 0.593148 0.652719 0.828025
Si Si5 0.616305 0.630676 0.693122
Si Si6 0.241870 0.584169 0.286786
Si Si7 0.743260 0.327852 0.556484
O O1 0.246045 0.504008 0.748681
O O2 0.144631 0.024306 0.554998
O O3 0.599830 0.064008 0.019758
O O4 0.000000 0.000000 0.500000
O O5 0.444163 0.740207 0.725206
O O6 0.031777 0.802042 0.404553
O O7 0.527508 0.244526 0.801053
O O8 0.163652 0.261358 0.415167
O O9 0.421628 0.813601 0.618628
O O10 0.947574 0.785222 0.137833
O O11 0.340502 0.470086 0.432177
O O12 0.490396 0.703879 0.614885
O O13 0.739011 0.997621 0.742131
O O14 0.907802 0.447567 0.982844
O O15 0.500000 0.500000 0.500000
#
# Coordination Sequence:
#
# PCOD9002491 Si02
#       7
#     2   2   2   2   2   2   2
#     4  10  22  40  60  89 118 161 198 257 303 367
#     4  10  26  42  66  95 126 168 207 261 310 376
#     4  10  23  38  61  89 121 154 210 245 310 365
#     4  10  25  41  65  91 129 163 214 248 322 362
#     4  10  21  39  58  88 123 151 211 242 309 364
#     4  10  21  36  61  88 119 163 195 253 302 366
#     4  10  24  40  63  93 125 169 206 264 307 377
#
# _framework density 24.383927
#
# number of rings (size 3 to 8) (size 9 to 14) (size 15 to 20)
#    0.857    1.143    0.000    1.714    6.000    2.286 
#    0.000    0.000    0.000    0.000    0.000    0.000 
#    0.000    0.000    0.000    0.000    0.000    0.000 
#
# Total GULP energy -78170.940056 kJ/mol
# GULP energy per Si atom -5583.638575 kJ/mol
# Density = 2.432843 g / cm^3
# Si number density = 24.383927 Si / 1000 Ang^3
#
#
#
# Elastic Constant Matrix: (Units=GPa)
#
#
# Indices 1 2 3 4 5 6 
#
# 1 148.7519 14.2788 85.1136 -3.7091 4.4494 -20.2346
# 2 14.2788 64.2245 24.7999 6.8271 -16.3664 -0.6099
# 3 85.1136 24.7999 220.7920 -18.7999 -30.8670 -8.0085
# 4 -3.7091 6.8271 -18.7999 21.1757 -6.2543 7.4867
# 5 4.4494 -16.3664 -30.8670 -6.2543 36.7839 -0.2580
# 6 -20.2346 -0.6099 -8.0085 7.4867 -0.2580 33.6763
#
#
#
# Elastic Compliance Matrix: (Units=1/GPa)
#
#
# Indices 1 2 3 4 5 6 
#
# 1 0.011018 -0.001467 -0.005546 -0.007244 -0.007823 0.006826
# 2 -0.001467 0.018565 -0.001025 -0.005341 0.006672 0.000449
# 3 -0.005546 -0.001025 0.008980 0.011498 0.009679 -0.003697
# 4 -0.007244 -0.005341 0.011498 0.069800 0.019897 -0.017080
# 5 -0.007823 0.006672 0.009679 0.019897 0.042561 -0.006375
# 6 0.006826 0.000449 -0.003697 -0.017080 -0.006375 0.036673
#
#
# Mechanical properties :
#
#
# Convention : Reuss Voigt Hill
#
# Bulk Modulus (GPa) = 44.46948 75.79476 60.13212
# Shear Modulus (GPa) = 23.67762 38.96558 31.32160
#
# Velocity S-wave (km/s) = 3.11952 4.00184 3.58791
# Velocity P-wave (km/s) = 5.59035 7.24599 6.47134
#
# Compressibility (1/GPa) = 0.02248734
#
# Stress axis : x y z
#
# Youngs Moduli (GPa) = 90.75713 53.86555 111.35554
#
# Poissons Ratio (x) = 0.07901 0.61754
# Poissons Ratio (y) = 0.13313 0.11419
# Poissons Ratio (z) = 0.50331 0.05524
#
# Static dielectric constant tensor:
#      x y z
#    x 1.890310 -0.014510 -0.055790 
#    y -0.014510 2.073540 0.013650 
#    z -0.055790 0.013650 1.943000 
# 
# From -- ./inp_files/14761.got.cif
#   From: 2010.05.17/outbox.cif.g08.bks.cpg/sg2_8_cif.got.tgz:14761.got - 2010.06.03 11:33:40.
