data_PCOD9002489
_publ_section_title
;
Structure prediction by ZEFSAII (Michael W. Deem and Ramdas Pophale) SiO2 
 PCOD9002489
Probable space group: P -1
;
_chemical_formula_sum "Si O2"
_cell_formula_units_Z 16
_cell_length_a 7.069947
_cell_length_b 6.043998
_cell_length_c 17.017353
_cell_angle_alpha 91.221533
_cell_angle_beta 98.485708
_cell_angle_gamma 61.562722
_cell_volume 631.421304
_symmetry_space_group_name_H-M "P -1"
_symmetry_group_IT_number 2
_symmetry_cell_setting 'triclinic'
loop_
_space_group_symop_operation_xyz
x,y,z
-x,-y,-z
loop_
_atom_site_type_symbol
_atom_site_label
_atom_site_fract_x
_atom_site_fract_y
_atom_site_fract_z
Si Si1 0.666856 0.075064 0.694654
Si Si2 0.164160 0.742351 0.941773
Si Si3 0.884709 0.612894 0.823241
Si Si4 0.492808 0.409535 0.263617
Si Si5 0.457960 0.833921 0.061679
Si Si6 0.252276 0.056655 0.815895
Si Si7 0.179713 0.996529 0.454200
Si Si8 0.416458 0.243334 0.419002
O O1 0.511333 0.327128 0.732476
O O2 0.830735 0.075416 0.637276
O O3 0.511854 0.014655 0.628508
O O4 0.810999 0.840101 0.757841
O O5 0.962324 0.691395 0.908034
O O6 0.362678 0.460032 0.936331
O O7 0.174180 0.930670 0.878590
O O8 0.231119 0.831722 0.027351
O O9 0.074896 0.348136 0.799826
O O10 0.681825 0.559565 0.813460
O O11 0.403257 0.411162 0.345880
O O12 0.692350 0.141178 0.253088
O O13 0.528128 0.937067 0.142512
O O14 0.500000 0.000000 0.000000
O O15 0.205543 0.250941 0.447792
O O16 0.404184 0.794195 0.507587
O O17 0.000000 0.000000 0.500000
#
# Coordination Sequence:
#
# PCOD9002489 Si02
#       8
#     2   2   2   2   2   2   2   2
#     4   9  20  38  61  85 125 162 199 264 318 362
#     4   9  17  33  59  87 117 158 212 257 303 364
#     4  10  21  38  58  87 125 160 208 254 309 372
#     4  11  22  39  60  88 132 161 196 264 316 365
#     4   8  16  33  57  86 121 157 203 262 303 359
#     4  10  21  36  61  88 118 167 208 245 318 382
#     4   9  18  40  65  89 122 165 211 256 320 380
#     4   8  20  39  60  88 126 160 204 265 313 366
#
# _framework density 25.339656999999999
#
# number of rings (size 3 to 8) (size 9 to 14) (size 15 to 20)
#    0.750    2.000    0.000    0.750    0.000    6.500 
#    0.000    1.250    0.000   30.750    0.000    0.000 
#    0.000    0.000    0.000    0.000    0.000    0.000 
#
# Total GULP energy -89069.829410 kJ/mol
# GULP energy per Si atom -5566.864338 kJ/mol
# Density = 2.528198 g / cm^3
# Si number density = 25.339657 Si / 1000 Ang^3
#
#
#
# Elastic Constant Matrix: (Units=GPa)
#
#
# Indices 1 2 3 4 5 6 
#
# 1 60.4176 4.8368 23.0772 -0.6106 -2.9615 1.5222
# 2 4.8368 162.5132 59.6512 13.5273 -6.8956 -10.1112
# 3 23.0772 59.6512 78.0215 -11.5719 -8.9786 0.6384
# 4 -0.6106 13.5273 -11.5719 24.2420 12.1039 -4.2919
# 5 -2.9615 -6.8956 -8.9786 12.1039 58.8102 -4.6900
# 6 1.5222 -10.1112 0.6384 -4.2919 -4.6900 21.8258
#
#
#
# Elastic Compliance Matrix: (Units=1/GPa)
#
#
# Indices 1 2 3 4 5 6 
#
# 1 0.019831 0.003375 -0.009264 -0.006545 0.001282 -0.000560
# 2 0.003375 0.011664 -0.011509 -0.012610 0.002663 0.003597
# 3 -0.009264 -0.011509 0.027077 0.019706 -0.001898 -0.002010
# 4 -0.006545 -0.012610 0.019706 0.064082 -0.011659 0.004134
# 5 0.001282 0.002663 -0.001898 -0.011659 0.019741 0.003149
# 6 -0.000560 0.003597 -0.002010 0.004134 0.003149 0.049071
#
#
# Mechanical properties :
#
#
# Convention : Reuss Voigt Hill
#
# Bulk Modulus (GPa) = 42.06201 52.89808 47.48004
# Shear Modulus (GPa) = 21.35034 35.20141 28.27588
#
# Velocity S-wave (km/s) = 2.90585 3.73122 3.34409
# Velocity P-wave (km/s) = 5.28147 6.28360 5.80420
#
# Compressibility (1/GPa) = 0.02377443
#
# Stress axis : x y z
#
# Youngs Moduli (GPa) = 50.42686 85.73590 36.93171
#
# Poissons Ratio (x) = -0.28933 0.34214
# Poissons Ratio (y) = -0.17017 0.42504
# Poissons Ratio (z) = 0.46717 0.98673
#
# Static dielectric constant tensor:
#      x y z
#    x 2.133430 -0.000790 -0.044860 
#    y -0.000790 2.062250 0.007310 
#    z -0.044860 0.007310 2.070260 
# 
# From -- ./inp_files/585275.got.cif
#   From: 2010.05.17/outbox.cif.g08.bks.cpg/sg2_293_cif.got.tgz:585275.got - 2010.06.03 11:33:40.
