data_PCOD9002951
_publ_section_title
;
Structure prediction by ZEFSAII (Michael W. Deem and Ramdas Pophale) SiO2 
 PCOD9002951
Probable space group: P -1
;
_chemical_formula_sum "Si O2"
_cell_formula_units_Z 14
_cell_length_a 13.517503
_cell_length_b 8.129840
_cell_length_c 10.233370
_cell_angle_alpha 93.734377
_cell_angle_beta 141.276166
_cell_angle_gamma 108.904602
_cell_volume 561.391925
_symmetry_space_group_name_H-M "P -1"
_symmetry_group_IT_number 2
_symmetry_cell_setting 'triclinic'
loop_
_space_group_symop_operation_xyz
x,y,z
-x,-y,-z
loop_
_atom_site_type_symbol
_atom_site_label
_atom_site_fract_x
_atom_site_fract_y
_atom_site_fract_z
Si Si1 0.395141 0.134040 0.004192
Si Si2 0.394401 0.771996 0.048004
Si Si3 0.270635 0.315326 0.264885
Si Si4 0.734245 0.634760 0.208976
Si Si5 0.630167 0.955933 0.548282
Si Si6 0.186976 0.445530 0.453030
Si Si7 0.992556 0.383685 0.855409
O O1 0.447589 0.129888 0.905095
O O2 0.239983 0.187342 0.841811
O O3 0.598365 0.329534 0.290787
O O4 0.329957 0.922561 0.991283
O O5 0.492050 0.788037 0.287490
O O6 0.249039 0.532394 0.848813
O O7 0.500000 0.500000 0.500000
O O8 0.198238 0.342760 0.330113
O O9 0.262218 0.112488 0.254587
O O10 0.157121 0.346652 0.038831
O O11 0.847406 0.689674 0.464086
O O12 0.500000 0.500000 0.000000
O O13 0.789098 0.157647 0.641925
O O14 0.500000 0.000000 0.500000
O O15 0.029611 0.492357 0.271665
O O16 0.000000 0.500000 0.000000
#
# Coordination Sequence:
#
# PCOD9002951 Si02
#       7
#     2   2   2   2   2   2   2
#     4   9  15  28  51  80 113 141 187 235 274 338
#     4   9  17  28  49  82 110 143 190 226 277 338
#     4  11  23  37  56  83 112 154 196 238 291 344
#     4   8  15  27  48  82 108 142 184 234 278 336
#     4  12  22  36  56  85 121 152 190 235 283 346
#     4   9  16  33  53  79 114 140 186 235 287 337
#     4  10  21  37  55  79 115 153 193 238 284 340
#
# _framework density 24.938013000000002
#
# number of rings (size 3 to 8) (size 9 to 14) (size 15 to 20)
#    0.000    2.571    1.429    4.714    0.000    0.000 
#    0.000    0.000    0.000    0.000    0.000  105.000 
#    0.000    0.000    0.000    0.000    0.000    0.000 
#
# Total GULP energy -78245.450937 kJ/mol
# GULP energy per Si atom -5588.960781 kJ/mol
# Density = 2.488125 g / cm^3
# Si number density = 24.938013 Si / 1000 Ang^3
#
#
#
# Elastic Constant Matrix: (Units=GPa)
#
#
# Indices 1 2 3 4 5 6 
#
# 1 63.5171 19.3927 31.7658 -4.3614 6.2519 -18.4432
# 2 19.3927 168.3957 42.7604 -54.5221 5.6708 -7.0886
# 3 31.7658 42.7604 103.1256 -52.4102 -6.7796 -0.7214
# 4 -4.3614 -54.5221 -52.4102 60.8115 -5.6757 0.7128
# 5 6.2519 5.6708 -6.7796 -5.6757 24.7256 -4.4013
# 6 -18.4432 -7.0886 -0.7214 0.7128 -4.4013 26.6301
#
#
#
# Elastic Compliance Matrix: (Units=1/GPa)
#
#
# Indices 1 2 3 4 5 6 
#
# 1 0.031198 -0.003612 -0.017874 -0.017812 -0.012751 0.018531
# 2 -0.003612 0.008925 0.002802 0.010345 0.002010 0.000005
# 3 -0.017874 0.002802 0.029482 0.028319 0.016895 -0.008800
# 4 -0.017812 0.010345 0.028319 0.050828 0.020351 -0.006813
# 5 -0.012751 0.002010 0.016895 0.020351 0.052565 0.000305
# 6 0.018531 0.000005 -0.008800 -0.006813 0.000305 0.050381
#
#
# Mechanical properties :
#
#
# Convention : Reuss Voigt Hill
#
# Bulk Modulus (GPa) = 31.01991 58.09735 44.55863
# Shear Modulus (GPa) = 18.41669 38.50805 28.46237
#
# Velocity S-wave (km/s) = 2.72048 3.93383 3.38202
# Velocity P-wave (km/s) = 4.72587 6.63179 5.75823
#
# Compressibility (1/GPa) = 0.03223736
#
# Stress axis : x y z
#
# Youngs Moduli (GPa) = 32.05328 112.04614 33.91874
#
# Poissons Ratio (x) = 0.40471 0.60625
# Poissons Ratio (y) = 0.11578 -0.09503
# Poissons Ratio (z) = 0.57290 -0.31391
#
# Static dielectric constant tensor:
#      x y z
#    x 2.061360 0.018230 0.017160 
#    y 0.018230 2.044160 -0.036900 
#    z 0.017160 -0.036900 1.974330 
# 
# From -- ./inp_files/447706.got.cif
#   From: 2010.05.17/outbox.cif.g08.bks.cpg/sg2_224_cif.got.tgz:447706.got - 2010.06.03 11:33:40.
