data_PCOD9002978
_publ_section_title
;
Structure prediction by ZEFSAII (Michael W. Deem and Ramdas Pophale) SiO2 
 PCOD9002978
Probable space group: P -1
;
_chemical_formula_sum "Si O2"
_cell_formula_units_Z 14
_cell_length_a 25.334233
_cell_length_b 6.455931
_cell_length_c 17.518155
_cell_angle_alpha 60.231584
_cell_angle_beta 160.435474
_cell_angle_gamma 131.570226
_cell_volume 615.803870
_symmetry_space_group_name_H-M "P -1"
_symmetry_group_IT_number 2
_symmetry_cell_setting 'triclinic'
loop_
_space_group_symop_operation_xyz
x,y,z
-x,-y,-z
loop_
_atom_site_type_symbol
_atom_site_label
_atom_site_fract_x
_atom_site_fract_y
_atom_site_fract_z
Si Si1 0.090253 0.587427 0.401368
Si Si2 0.713140 0.212805 0.077525
Si Si3 0.277335 0.758610 0.475108
Si Si4 0.785776 0.789187 0.296533
Si Si5 0.706835 0.729203 0.688372
Si Si6 0.888009 0.644740 0.815239
Si Si7 0.489661 0.226909 0.892698
O O1 0.079689 0.587830 0.295512
O O2 0.180798 0.408719 0.569588
O O3 0.889496 0.411720 0.215680
O O4 0.259231 0.962324 0.589421
O O5 0.770068 0.054495 0.242545
O O6 0.664945 0.386795 0.034610
O O7 0.490260 0.940218 0.780967
O O8 0.238761 0.507406 0.408451
O O9 0.305969 0.036504 0.418869
O O10 0.571320 0.516149 0.005902
O O11 0.000000 0.000000 0.500000
O O12 0.500000 0.500000 0.500000
O O13 0.740851 0.557769 0.703115
O O14 0.918760 0.970366 0.985161
O O15 0.000000 0.500000 0.000000
O O16 0.500000 0.000000 0.000000
#
# Coordination Sequence:
#
# PCOD9002978 Si02
#       7
#     2   2   2   2   2   2   2
#     4   9  20  37  55  80 117 153 194 242 286 338
#     4  10  21  37  56  81 117 154 192 241 289 337
#     4  10  22  37  57  89 118 148 191 240 292 347
#     4   9  19  36  56  79 108 153 201 232 277 335
#     4  10  22  41  64  90 118 152 193 237 294 361
#     4   9  21  41  64  88 117 152 192 236 294 360
#     4   9  19  34  53  78 107 147 196 241 283 332
#
# _framework density 22.734513
#
# number of rings (size 3 to 8) (size 9 to 14) (size 15 to 20)
#    0.000    2.571    0.000    0.000    0.000   19.429 
#    0.000   10.000    0.000    0.000    0.000    0.000 
#    0.000    0.000    0.000    0.000    0.000    0.000 
#
# Total GULP energy -78074.630413 kJ/mol
# GULP energy per Si atom -5576.759315 kJ/mol
# Density = 2.268277 g / cm^3
# Si number density = 22.734513 Si / 1000 Ang^3
#
#
#
# Elastic Constant Matrix: (Units=GPa)
#
#
# Indices 1 2 3 4 5 6 
#
# 1 163.5483 38.6088 37.9055 15.3905 40.4518 0.5013
# 2 38.6088 73.7761 9.0085 -8.0287 11.7428 11.0146
# 3 37.9055 9.0085 56.9563 3.0857 24.4085 3.1606
# 4 15.3905 -8.0287 3.0857 27.3572 3.3124 -0.1097
# 5 40.4518 11.7428 24.4085 3.3124 49.6699 4.6291
# 6 0.5013 11.0146 3.1606 -0.1097 4.6291 34.6675
#
#
#
# Elastic Compliance Matrix: (Units=1/GPa)
#
#
# Indices 1 2 3 4 5 6 
#
# 1 0.009883 -0.004967 -0.003457 -0.006013 -0.004998 0.002399
# 2 -0.004967 0.017863 0.000555 0.008008 -0.000466 -0.005567
# 3 -0.003457 0.000555 0.023592 0.000513 -0.008841 -0.001095
# 4 -0.006013 0.008008 0.000513 0.042199 0.000160 -0.002392
# 5 -0.004998 -0.000466 -0.008841 0.000160 0.028912 -0.002834
# 6 0.002399 -0.005567 -0.001095 -0.002392 -0.002834 0.031050
#
#
# Mechanical properties :
#
#
# Convention : Reuss Voigt Hill
#
# Bulk Modulus (GPa) = 28.08974 51.70294 39.89634
# Shear Modulus (GPa) = 27.60855 36.25611 31.93233
#
# Velocity S-wave (km/s) = 3.48859 3.99778 3.75183
# Velocity P-wave (km/s) = 5.34877 6.64086 6.02953
#
# Compressibility (1/GPa) = 0.03560018
#
# Stress axis : x y z
#
# Youngs Moduli (GPa) = 101.18531 55.98270 42.38683
#
# Poissons Ratio (x) = 0.27805 0.14653
# Poissons Ratio (y) = 0.50256 -0.02352
# Poissons Ratio (z) = 0.34980 -0.03107
#
# Static dielectric constant tensor:
#      x y z
#    x 1.901410 -0.014040 -0.024110 
#    y -0.014040 1.869510 -0.033290 
#    z -0.024110 -0.033290 1.906880 
# 
# From -- ./inp_files/337300.got.cif
#   From: 2010.05.17/outbox.cif.g08.bks.cpg/sg2_169_cif.got.tgz:337300.got - 2010.06.03 11:33:40.
