data_PCOD9002716
_publ_section_title
;
Structure prediction by ZEFSAII (Michael W. Deem and Ramdas Pophale) SiO2 
 PCOD9002716
Probable space group: P -1
;
_chemical_formula_sum "Si O2"
_cell_formula_units_Z 14
_cell_length_a 14.052626
_cell_length_b 7.109348
_cell_length_c 21.516906
_cell_angle_alpha 96.479245
_cell_angle_beta 22.544771
_cell_angle_gamma 83.194009
_cell_volume 664.376968
_symmetry_space_group_name_H-M "P -1"
_symmetry_group_IT_number 2
_symmetry_cell_setting 'triclinic'
loop_
_space_group_symop_operation_xyz
x,y,z
-x,-y,-z
loop_
_atom_site_type_symbol
_atom_site_label
_atom_site_fract_x
_atom_site_fract_y
_atom_site_fract_z
Si Si1 0.134677 0.640954 0.072585
Si Si2 0.110278 0.963913 0.002497
Si Si3 0.836052 0.271034 0.615078
Si Si4 0.853513 0.381797 0.268407
Si Si5 0.799335 0.586038 0.542425
Si Si6 0.358951 0.748722 0.061815
Si Si7 0.931420 0.761477 0.728407
O O1 0.193747 0.751901 0.099489
O O2 0.910097 0.573478 0.223162
O O3 0.028623 0.811661 0.084687
O O4 0.473160 0.408193 0.845415
O O5 0.478166 0.803830 0.769892
O O6 0.000000 0.000000 0.000000
O O7 0.978667 0.195355 0.130403
O O8 0.903778 0.373891 0.518648
O O9 0.971369 0.338911 0.591612
O O10 0.000000 0.000000 0.500000
O O11 0.500000 0.500000 0.500000
O O12 0.037924 0.261362 0.216657
O O13 0.788763 0.479177 0.479792
O O14 0.121706 0.995912 0.249294
O O15 0.500000 0.500000 0.000000
O O16 0.640258 0.767948 0.882021
#
# Coordination Sequence:
#
# PCOD9002716 Si02
#       7
#     2   2   2   2   2   2   2
#     4  11  23  43  68 101 133 176 227 271 340 402
#     4  11  25  48  68  93 137 182 224 282 331 398
#     4  10  21  36  63  96 133 173 210 270 332 403
#     4  12  26  45  70  96 132 180 233 283 330 396
#     4  10  22  38  63  97 132 170 220 265 335 399
#     4  11  22  38  66 101 139 173 212 276 342 407
#     4  11  23  39  66 101 138 172 217 277 340 400
#
# _framework density 21.072375999999998
#
# number of rings (size 3 to 8) (size 9 to 14) (size 15 to 20)
#    0.000    1.143    4.286    1.714    2.000    1.143 
#    0.000    1.429    0.000    0.000    0.000    0.000 
#    0.000    0.000    0.000    0.000    0.000    0.000 
#
# Total GULP energy -78211.049949 kJ/mol
# GULP energy per Si atom -5586.503568 kJ/mol
# Density = 2.102441 g / cm^3
# Si number density = 21.072376 Si / 1000 Ang^3
#
#
#
# Elastic Constant Matrix: (Units=GPa)
#
#
# Indices 1 2 3 4 5 6 
#
# 1 136.6723 73.0528 36.7621 10.3205 11.7157 12.4341
# 2 73.0528 153.2787 55.6980 -0.7425 -1.4675 13.9060
# 3 36.7621 55.6980 73.0540 -4.0333 6.1091 17.0425
# 4 10.3205 -0.7425 -4.0333 37.2245 10.6193 10.4372
# 5 11.7157 -1.4675 6.1091 10.6193 29.4945 11.4593
# 6 12.4341 13.9060 17.0425 10.4372 11.4593 30.6032
#
#
#
# Elastic Compliance Matrix: (Units=1/GPa)
#
#
# Indices 1 2 3 4 5 6 
#
# 1 0.010659 -0.004480 -0.002034 -0.002549 -0.003515 0.001023
# 2 -0.004480 0.011084 -0.006247 -0.000036 0.004132 -0.001273
# 3 -0.002034 -0.006247 0.022381 0.006403 -0.002548 -0.010028
# 4 -0.002549 -0.000036 0.006403 0.033664 -0.008190 -0.010928
# 5 -0.003515 0.004132 -0.002548 -0.008190 0.043909 -0.012679
# 6 0.001023 -0.001273 -0.010028 -0.010928 -0.012679 0.046898
#
#
# Mechanical properties :
#
#
# Convention : Reuss Voigt Hill
#
# Bulk Modulus (GPa) = 53.75560 77.11454 65.43507
# Shear Modulus (GPa) = 24.96030 32.63057 28.79544
#
# Velocity S-wave (km/s) = 3.44540 3.93937 3.70063
# Velocity P-wave (km/s) = 6.43374 7.57404 7.02706
#
# Compressibility (1/GPa) = 0.01860271
#
# Stress axis : x y z
#
# Youngs Moduli (GPa) = 93.81633 90.21935 44.68127
#
# Poissons Ratio (x) = 0.40418 0.09087
# Poissons Ratio (y) = 0.42030 0.27912
# Poissons Ratio (z) = 0.19079 0.56360
#
# Static dielectric constant tensor:
#      x y z
#    x 1.802750 -0.007040 0.036960 
#    y -0.007040 1.741210 0.033720 
#    z 0.036960 0.033720 1.818770 
# 
# From -- ./inp_files/319180.got.cif
#   From: 2010.05.17/outbox.cif.g08.bks.cpg/sg2_160_cif.got.tgz:319180.got - 2010.06.03 11:33:40.
