data_PCOD9002330
_publ_section_title
;
Structure prediction by ZEFSAII (Michael W. Deem and Ramdas Pophale) SiO2 
 PCOD9002330
Probable space group: P -1
;
_chemical_formula_sum "Si O2"
_cell_formula_units_Z 15
_cell_length_a 19.376923
_cell_length_b 9.921357
_cell_length_c 8.925975
_cell_angle_alpha 122.778349
_cell_angle_beta 138.534875
_cell_angle_gamma 30.277150
_cell_volume 543.380991
_symmetry_space_group_name_H-M "P -1"
_symmetry_group_IT_number 2
_symmetry_cell_setting 'triclinic'
loop_
_space_group_symop_operation_xyz
x,y,z
-x,-y,-z
loop_
_atom_site_type_symbol
_atom_site_label
_atom_site_fract_x
_atom_site_fract_y
_atom_site_fract_z
Si Si1 0.587561 0.497739 0.511699
Si Si2 0.960415 0.310297 0.892248
Si Si3 0.642987 0.535091 0.323478
Si Si4 0.000000 0.000000 0.000000
Si Si5 0.088270 0.215169 0.495127
Si Si6 0.609881 0.030555 0.353425
Si Si7 0.269159 0.471082 0.838064
Si Si8 0.775961 0.857052 0.013899
O O1 0.500000 0.500000 0.500000
O O2 0.601970 0.447303 0.326503
O O3 0.790486 0.280878 0.762578
O O4 0.463822 0.816452 0.516742
O O5 0.805930 0.431499 0.603170
O O6 0.061764 0.057579 0.010046
O O7 0.117457 0.198445 0.983564
O O8 0.856790 0.575300 0.983263
O O9 0.713564 0.419769 0.198569
O O10 0.443464 0.867987 0.178505
O O11 0.159931 0.125523 0.725648
O O12 0.000000 0.500000 0.500000
O O13 0.930350 0.281510 0.255775
O O14 0.251598 0.018681 0.526544
O O15 0.703986 0.737003 0.325551
O O16 0.433109 0.258952 0.094439
#
# Coordination Sequence:
#
# PCOD9002330 Si02
#       8
#     2   2   2   1   2   2   2   2
#     4  11  26  44  65  93 126 175 217 260 315 385
#     4  10  23  37  61  93 128 168 210 265 317 381
#     4  11  22  37  66  94 127 158 208 271 320 377
#     4  10  24  42  60  86 130 170 212 256 312 382
#     4  10  21  36  59  94 132 161 201 260 328 387
#     4  10  23  39  64  92 130 167 204 261 322 387
#     4  10  21  38  63  99 127 159 203 262 332 379
#     4  11  21  36  62  99 127 159 210 273 323 371
#
# _framework density 27.604942000000001
#
# number of rings (size 3 to 8) (size 9 to 14) (size 15 to 20)
#    0.000    1.600    2.667    1.200    5.600    4.267 
#    0.000    0.667    0.000    2.400    0.000    0.000 
#    0.000    0.000    0.000    0.000    0.000    0.000 
#
# Total GULP energy -83903.402317 kJ/mol
# GULP energy per Si atom -5593.560154 kJ/mol
# Density = 2.754211 g / cm^3
# Si number density = 27.604942 Si / 1000 Ang^3
#
#
#
# Elastic Constant Matrix: (Units=GPa)
#
#
# Indices 1 2 3 4 5 6 
#
# 1 164.2173 26.1283 35.7423 -8.6114 -9.7966 -18.8365
# 2 26.1283 105.8373 13.8731 -18.7463 4.9080 -12.3678
# 3 35.7423 13.8731 136.1423 -21.6987 8.2931 -9.1846
# 4 -8.6114 -18.7463 -21.6987 31.2666 -3.8126 14.8266
# 5 -9.7966 4.9080 8.2931 -3.8126 53.9818 -12.1464
# 6 -18.8365 -12.3678 -9.1846 14.8266 -12.1464 47.0171
#
#
#
# Elastic Compliance Matrix: (Units=1/GPa)
#
#
# Indices 1 2 3 4 5 6 
#
# 1 0.007169 -0.001520 -0.001889 -0.001466 0.002339 0.003170
# 2 -0.001520 0.010934 0.000334 0.006189 -0.000848 0.000162
# 3 -0.001889 0.000334 0.008807 0.006225 -0.001584 -0.001321
# 4 -0.001466 0.006189 0.006225 0.045317 -0.001372 -0.012388
# 5 0.002339 -0.000848 -0.001584 -0.001372 0.020556 0.006148
# 6 0.003170 0.000162 -0.001321 -0.012388 0.006148 0.027818
#
#
# Mechanical properties :
#
#
# Convention : Reuss Voigt Hill
#
# Bulk Modulus (GPa) = 48.17252 61.96491 55.06871
# Shear Modulus (GPa) = 37.40499 48.48329 42.94414
#
# Velocity S-wave (km/s) = 3.68504 4.19540 3.94848
# Velocity P-wave (km/s) = 5.96612 6.77970 6.38588
#
# Compressibility (1/GPa) = 0.02075872
#
# Stress axis : x y z
#
# Youngs Moduli (GPa) = 139.49307 91.45506 113.54869
#
# Poissons Ratio (x) = 0.13900 0.21455
# Poissons Ratio (y) = 0.21201 -0.03789
# Poissons Ratio (z) = 0.26357 -0.03052
#
# Static dielectric constant tensor:
#      x y z
#    x 2.217600 0.030080 0.024840 
#    y 0.030080 1.977650 -0.103900 
#    z 0.024840 -0.103900 1.973790 
# 
# From -- ./inp_files/345474.got.cif
#   From: 2010.05.17/outbox.cif.g08.bks.cpg/sg2_173_cif.got.tgz:345474.got - 2010.06.03 11:33:40.
