data_PCOD9002979
_publ_section_title
;
Structure prediction by ZEFSAII (Michael W. Deem and Ramdas Pophale) SiO2 
 PCOD9002979
Probable space group: P -1
;
_chemical_formula_sum "Si O2"
_cell_formula_units_Z 16
_cell_length_a 15.020815
_cell_length_b 13.748817
_cell_length_c 8.384827
_cell_angle_alpha 91.047474
_cell_angle_beta 56.113766
_cell_angle_gamma 135.701024
_cell_volume 757.105178
_symmetry_space_group_name_H-M "P -1"
_symmetry_group_IT_number 2
_symmetry_cell_setting 'triclinic'
loop_
_space_group_symop_operation_xyz
x,y,z
-x,-y,-z
loop_
_atom_site_type_symbol
_atom_site_label
_atom_site_fract_x
_atom_site_fract_y
_atom_site_fract_z
Si Si1 0.441034 0.182616 0.755943
Si Si2 0.115660 0.830770 0.286027
Si Si3 0.861477 0.358181 0.896550
Si Si4 0.737240 0.240552 0.375412
Si Si5 0.538966 0.486288 0.211966
Si Si6 0.445370 0.038915 0.192408
Si Si7 0.651867 0.484581 0.789252
Si Si8 0.760737 0.794622 0.228144
O O1 0.583848 0.214009 0.528732
O O2 0.577544 0.330619 0.769092
O O3 0.362071 0.209256 0.725751
O O4 0.242845 0.979353 0.023165
O O5 0.258366 0.953063 0.302249
O O6 0.887642 0.690361 0.530465
O O7 0.096280 0.701977 0.257901
O O8 0.808085 0.277538 0.125232
O O9 0.659714 0.253688 0.026067
O O10 0.059687 0.576064 0.723412
O O11 0.627561 0.071208 0.577678
O O12 0.479720 0.533687 0.166582
O O13 0.706041 0.656243 0.174318
O O14 0.341280 0.301900 0.502005
O O15 0.611783 0.460572 0.016412
O O16 0.500000 0.000000 0.000000
O O17 0.000000 0.000000 0.000000
#
# Coordination Sequence:
#
# PCOD9002979 Si02
#       8
#     2   2   2   2   2   2   2   2
#     4  11  22  37  61  85 116 152 199 238 282 345
#     4  11  22  38  58  88 115 158 193 238 290 337
#     4  10  22  38  60  79 117 159 193 240 291 334
#     4  11  21  40  58  84 113 160 198 236 290 337
#     4   9  21  42  63  86 119 151 187 236 297 344
#     4  10  21  37  56  81 118 150 192 240 287 337
#     4  10  21  41  62  85 118 152 192 239 285 352
#     4  10  21  41  64  90 117 150 186 240 292 345
#
# _framework density 21.133129
#
# number of rings (size 3 to 8) (size 9 to 14) (size 15 to 20)
#    0.000    1.750    3.750    1.125    0.000    4.000 
#    9.000    3.750    0.000    0.000    0.000    0.000 
#    0.000    0.000    0.000    0.000    0.000    0.000 
#
# Total GULP energy -89357.774672 kJ/mol
# GULP energy per Si atom -5584.860917 kJ/mol
# Density = 2.108503 g / cm^3
# Si number density = 21.133129 Si / 1000 Ang^3
#
#
#
# Elastic Constant Matrix: (Units=GPa)
#
#
# Indices 1 2 3 4 5 6 
#
# 1 5.3396 2.6512 -20.6572 13.8371 7.6108 -2.1672
# 2 2.6512 59.1141 32.6040 -12.4678 -1.1173 15.4153
# 3 -20.6572 32.6040 90.6047 -9.5220 3.9746 7.7194
# 4 13.8371 -12.4678 -9.5220 28.8325 -4.2797 -1.3082
# 5 7.6108 -1.1173 3.9746 -4.2797 11.5808 -4.4889
# 6 -2.1672 15.4153 7.7194 -1.3082 -4.4889 18.3264
#
#
#
# Elastic Compliance Matrix: (Units=1/GPa)
#
#
# Indices 1 2 3 4 5 6 
#
# 1 -0.048195 0.019455 -0.016724 0.033707 0.051773 0.000068
# 2 0.019455 0.020222 -0.000794 -0.004695 -0.019888 -0.019581
# 3 -0.016724 -0.000794 0.008340 0.012202 0.012186 -0.000967
# 4 0.033707 -0.004695 0.012202 0.017373 -0.020781 -0.001054
# 5 0.051773 -0.019888 0.012186 -0.020781 0.049541 0.028369
# 6 0.000068 -0.019581 -0.000967 -0.001054 0.028369 0.078325
#
#
# Mechanical properties :
#
#
# Convention : Reuss Voigt Hill
#
# Bulk Modulus (GPa) = -63.46069 20.47271 -21.49399
# Shear Modulus (GPa) = 42.92693 21.11198 32.01946
#
# Velocity S-wave (km/s) = 4.51184 3.16412 3.89669
# Velocity P-wave (km/s) = 1.71811 4.80182 3.17061
#
# Compressibility (1/GPa) = -0.01575779
#
# Stress axis : x y z
#
# Youngs Moduli (GPa) = -20.74887 49.45186 119.90594
#
# Poissons Ratio (x) = -0.96211 2.00527
# Poissons Ratio (y) = 0.40368 0.09518
# Poissons Ratio (z) = -0.34700 0.03925
#
# Static dielectric constant tensor:
#      x y z
#    x 1.777640 0.005240 0.001140 
#    y 0.005240 1.802810 0.004590 
#    z 0.001140 0.004590 1.727760 
# 
# From -- ./inp_files/313312.got.cif
#   From: 2010.05.17/outbox.cif.g08.bks.cpg/sg2_157_cif.got.tgz:313312.got - 2010.06.03 11:33:40.
