data_PCOD9002028
_publ_section_title
;
Structure prediction by ZEFSAII (Michael W. Deem and Ramdas Pophale) SiO2 
 PCOD9002028
Probable space group: P -1
;
_chemical_formula_sum "Si O2"
_cell_formula_units_Z 16
_cell_length_a 9.930999
_cell_length_b 11.321457
_cell_length_c 6.579262
_cell_angle_alpha 62.358106
_cell_angle_beta 101.733314
_cell_angle_gamma 85.278007
_cell_volume 628.156411
_symmetry_space_group_name_H-M "P -1"
_symmetry_group_IT_number 2
_symmetry_cell_setting 'triclinic'
loop_
_space_group_symop_operation_xyz
x,y,z
-x,-y,-z
loop_
_atom_site_type_symbol
_atom_site_label
_atom_site_fract_x
_atom_site_fract_y
_atom_site_fract_z
Si Si1 0.805717 0.813597 0.566538
Si Si2 0.640529 0.267035 0.702485
Si Si3 0.335560 0.488247 0.751983
Si Si4 0.894598 0.537728 0.622451
Si Si5 0.767108 0.097730 0.514867
Si Si6 0.389730 0.137263 0.865388
Si Si7 0.177061 0.665381 0.921488
Si Si8 0.444518 0.229324 0.214092
O O1 0.908238 0.672877 0.645695
O O2 0.748160 0.877149 0.283688
O O3 0.666763 0.764565 0.646173
O O4 0.829541 0.939425 0.610777
O O5 0.606035 0.392456 0.434267
O O6 0.748735 0.151682 0.699298
O O7 0.493771 0.232018 0.743255
O O8 0.710959 0.304546 0.899286
O O9 0.250056 0.436147 0.579028
O O10 0.232797 0.557489 0.845948
O O11 0.443796 0.375158 0.997687
O O12 0.908636 0.412741 0.884616
O O13 0.000000 0.500000 0.500000
O O14 0.599400 0.138368 0.366627
O O15 0.849399 0.192236 0.329143
O O16 0.361079 0.165120 0.067747
O O17 0.500000 0.000000 0.000000
#
# Coordination Sequence:
#
# PCOD9002028 Si02
#       8
#     2   2   2   2   2   2   2   2
#     4  12  23  39  59  93 127 159 205 250 289 358
#     4  10  21  36  56  87 128 167 199 235 285 362
#     4  10  23  38  61  89 118 159 206 242 305 360
#     4  11  25  45  67  88 112 152 210 267 308 347
#     4  11  22  36  61  92 130 168 191 229 302 364
#     4  12  21  34  55  87 130 169 195 232 290 361
#     4  10  21  43  60  87 124 160 201 250 295 359
#     4  12  21  34  56  93 127 164 192 231 292 365
#
# _framework density 25.471363
#
# number of rings (size 3 to 8) (size 9 to 14) (size 15 to 20)
#    0.000    1.000    6.250    1.125    0.000    4.000 
#    0.000    0.625    0.000    6.750    0.000    0.000 
#    0.000    0.000    0.000    0.000    0.000    0.000 
#
# Total GULP energy -89284.192322 kJ/mol
# GULP energy per Si atom -5580.262020 kJ/mol
# Density = 2.541339 g / cm^3
# Si number density = 25.471363 Si / 1000 Ang^3
#
#
#
# Elastic Constant Matrix: (Units=GPa)
#
#
# Indices 1 2 3 4 5 6 
#
# 1 58.6314 36.3538 27.4684 -5.4907 -25.5269 -7.8044
# 2 36.3538 159.7305 35.6811 9.4829 -22.7190 -4.4571
# 3 27.4684 35.6811 98.2314 21.7632 -19.1559 3.0579
# 4 -5.4907 9.4829 21.7632 42.5751 7.5556 1.2473
# 5 -25.5269 -22.7190 -19.1559 7.5556 49.5765 5.9496
# 6 -7.8044 -4.4571 3.0579 1.2473 5.9496 31.5199
#
#
#
# Elastic Compliance Matrix: (Units=1/GPa)
#
#
# Indices 1 2 3 4 5 6 
#
# 1 0.027093 -0.003840 -0.005971 0.005764 0.008413 0.004928
# 2 -0.003840 0.007681 -0.001003 -0.001952 0.001448 0.000036
# 3 -0.005971 -0.001003 0.015082 -0.008875 0.004066 -0.003500
# 4 0.005764 -0.001952 -0.008875 0.030246 -0.006204 0.001986
# 5 0.008413 0.001448 0.004066 -0.006204 0.028062 -0.003158
# 6 0.004928 0.000036 -0.003500 0.001986 -0.003158 0.033808
#
#
# Mechanical properties :
#
#
# Convention : Reuss Voigt Hill
#
# Bulk Modulus (GPa) = 35.42460 57.28885 46.35673
# Shear Modulus (GPa) = 28.90003 39.20695 34.05349
#
# Velocity S-wave (km/s) = 3.37205 3.92759 3.66038
# Velocity P-wave (km/s) = 5.39433 6.56569 6.00862
#
# Compressibility (1/GPa) = 0.02822897
#
# Stress axis : x y z
#
# Youngs Moduli (GPa) = 36.90987 130.18342 66.30383
#
# Poissons Ratio (x) = 0.49997 0.39589
# Poissons Ratio (y) = 0.14175 0.06647
# Poissons Ratio (z) = 0.22038 0.13051
#
# Static dielectric constant tensor:
#      x y z
#    x 2.013420 -0.092140 0.110360 
#    y -0.092140 2.081550 0.231990 
#    z 0.110360 0.231990 1.956510 
# 
# From -- ./inp_files/69120.got.cif
#   From: 2010.05.17/outbox.cif.g08.bks.cpg/sg2_35_cif.got.tgz:69120.got - 2010.06.03 11:33:40.
