data_PCOD9002157
_publ_section_title
;
Structure prediction by ZEFSAII (Michael W. Deem and Ramdas Pophale) SiO2 
 PCOD9002157
Probable space group: P -1
;
_chemical_formula_sum "Si O2"
_cell_formula_units_Z 12
_cell_length_a 18.168666
_cell_length_b 6.655854
_cell_length_c 9.277713
_cell_angle_alpha 49.583424
_cell_angle_beta 134.404760
_cell_angle_gamma 123.818758
_cell_volume 599.221276
_symmetry_space_group_name_H-M "P -1"
_symmetry_group_IT_number 2
_symmetry_cell_setting 'triclinic'
loop_
_space_group_symop_operation_xyz
x,y,z
-x,-y,-z
loop_
_atom_site_type_symbol
_atom_site_label
_atom_site_fract_x
_atom_site_fract_y
_atom_site_fract_z
Si Si1 0.888543 0.372027 0.334793
Si Si2 0.513134 0.688404 0.791213
Si Si3 0.576130 0.315525 0.622204
Si Si4 0.292214 0.359952 0.125454
Si Si5 0.981735 0.575487 0.100202
Si Si6 0.840191 0.033061 0.686967
O O1 0.922414 0.338010 0.232002
O O2 0.832610 0.123881 0.469680
O O3 0.000000 0.500000 0.500000
O O4 0.809612 0.581603 0.124226
O O5 0.420597 0.628775 0.571267
O O6 0.615975 0.653278 0.855874
O O7 0.530154 0.999417 0.717211
O O8 0.500000 0.500000 0.000000
O O9 0.500000 0.500000 0.500000
O O10 0.676178 0.405327 0.819977
O O11 0.262643 0.090307 0.306222
O O12 0.092463 0.712393 0.257709
O O13 0.000000 0.500000 0.000000
O O14 0.909855 0.802152 0.893591
#
# Coordination Sequence:
#
# PCOD9002157 Si02
#       6
#     2   2   2   2   2   2
#     4   9  19  36  55  80 115 156 193 231 281 335
#     4  10  22  40  63  89 116 150 195 245 299 358
#     4   9  21  40  59  84 117 149 189 243 300 353
#     4  10  21  36  58  85 116 153 193 240 292 347
#     4   9  18  34  54  76 107 149 194 240 284 330
#     4   9  19  35  52  76 113 148 188 239 285 336
#
# _framework density 20.025991000000001
#
# number of rings (size 3 to 8) (size 9 to 14) (size 15 to 20)
#    0.000    2.667    0.000    1.000    0.000   11.333 
#    0.000    6.667    0.000    0.000    0.000    0.000 
#    0.000    0.000    0.000    0.000    0.000    0.000 
#
# Total GULP energy -66820.705949 kJ/mol
# GULP energy per Si atom -5568.392162 kJ/mol
# Density = 1.998041 g / cm^3
# Si number density = 20.025991 Si / 1000 Ang^3
#
#
#
# Elastic Constant Matrix: (Units=GPa)
#
#
# Indices 1 2 3 4 5 6 
#
# 1 130.2854 41.1059 52.4328 3.0458 -43.3626 7.7531
# 2 41.1059 77.5519 34.3196 1.7039 -16.2030 -10.5064
# 3 52.4328 34.3196 103.4189 -5.5051 -33.3274 4.2373
# 4 3.0458 1.7039 -5.5051 17.8872 12.7319 -10.0618
# 5 -43.3626 -16.2030 -33.3274 12.7319 55.4255 -3.1592
# 6 7.7531 -10.5064 4.2373 -10.0618 -3.1592 21.4730
#
#
#
# Elastic Compliance Matrix: (Units=1/GPa)
#
#
# Indices 1 2 3 4 5 6 
#
# 1 0.017215 -0.007053 -0.002255 -0.023341 0.014383 -0.018042
# 2 -0.007053 0.019948 -0.004412 0.010471 -0.003745 0.017533
# 3 -0.002255 -0.004412 0.014131 -0.000781 0.005411 -0.003702
# 4 -0.023341 0.010471 -0.000781 0.124739 -0.040550 0.066189
# 5 0.014383 -0.003745 0.005411 -0.040550 0.039556 -0.021275
# 6 -0.018042 0.017533 -0.003702 0.066189 -0.021275 0.090279
#
#
# Mechanical properties :
#
#
# Convention : Reuss Voigt Hill
#
# Bulk Modulus (GPa) = 41.92261 62.99697 52.45979
# Shear Modulus (GPa) = 14.65163 31.18365 22.91764
#
# Velocity S-wave (km/s) = 2.70780 3.95037 3.38656
# Velocity P-wave (km/s) = 5.54579 7.23416 6.44550
#
# Compressibility (1/GPa) = 0.02385347
#
# Stress axis : x y z
#
# Youngs Moduli (GPa) = 58.08913 50.13014 70.76734
#
# Poissons Ratio (x) = 0.35356 0.15961
# Poissons Ratio (y) = 0.40969 0.31222
# Poissons Ratio (z) = 0.13102 0.22117
#
# Static dielectric constant tensor:
#      x y z
#    x 1.746950 0.036130 0.003430 
#    y 0.036130 1.723600 0.033920 
#    z 0.003430 0.033920 1.767100 
# 
# From -- ./inp_files/33161.got.cif
#   From: 2010.05.17/outbox.cif.g08.bks.cpg/sg2_17_cif.got.tgz:33161.got - 2010.06.03 11:33:40.
