data_PCOD9002615
_publ_section_title
;
Structure prediction by ZEFSAII (Michael W. Deem and Ramdas Pophale) SiO2 
 PCOD9002615
Probable space group: P -1
;
_chemical_formula_sum "Si O2"
_cell_formula_units_Z 16
_cell_length_a 12.420067
_cell_length_b 13.887527
_cell_length_c 7.942108
_cell_angle_alpha 54.669968
_cell_angle_beta 128.957772
_cell_angle_gamma 140.764561
_cell_volume 662.064815
_symmetry_space_group_name_H-M "P -1"
_symmetry_group_IT_number 2
_symmetry_cell_setting 'triclinic'
loop_
_space_group_symop_operation_xyz
x,y,z
-x,-y,-z
loop_
_atom_site_type_symbol
_atom_site_label
_atom_site_fract_x
_atom_site_fract_y
_atom_site_fract_z
Si Si1 0.023850 0.324735 0.715987
Si Si2 0.274197 0.678373 0.727675
Si Si3 0.266205 0.196094 0.646620
Si Si4 0.789615 0.399103 0.883554
Si Si5 0.671409 0.536098 0.405699
Si Si6 0.600423 0.802032 0.696497
Si Si7 0.510573 0.888052 0.227076
Si Si8 0.947124 0.886433 0.824603
O O1 0.142881 0.493902 0.748438
O O2 0.156303 0.361165 0.654271
O O3 0.836925 0.275701 0.511266
O O4 0.997042 0.204615 0.942247
O O5 0.474577 0.765653 0.765170
O O6 0.284137 0.691197 0.923560
O O7 0.375784 0.359529 0.683742
O O8 0.388704 0.157890 0.735458
O O9 0.161992 0.188330 0.385371
O O10 0.116446 0.059927 0.762179
O O11 0.735908 0.498960 0.670443
O O12 0.696576 0.266671 0.784624
O O13 0.000000 0.500000 0.000000
O O14 0.513690 0.370586 0.329677
O O15 0.605527 0.922873 0.463611
O O16 0.805539 0.870377 0.829923
O O17 0.500000 0.000000 0.000000
#
# Coordination Sequence:
#
# PCOD9002615 Si02
#       8
#     2   2   2   2   2   2   2   2
#     4  10  21  36  62  93 131 166 203 264 310 377
#     4  10  21  38  61  97 127 164 211 257 323 356
#     4  10  23  42  63  92 125 167 210 260 315 371
#     4  11  22  39  66  96 122 166 213 263 307 375
#     4  10  21  40  64  92 126 158 214 263 312 364
#     4   9  22  41  64  94 126 164 209 261 309 378
#     4  10  24  42  63  93 128 166 208 262 318 373
#     4  10  22  40  63  92 120 173 208 250 314 375
#
# _framework density 24.166817999999999
#
# number of rings (size 3 to 8) (size 9 to 14) (size 15 to 20)
#    0.000    2.000    1.250    0.750    3.500   12.000 
#    0.000    0.625    0.000    0.000    0.000    0.000 
#    0.000    0.000    0.000    0.000    0.000    0.000 
#
# Total GULP energy -89484.128158 kJ/mol
# GULP energy per Si atom -5592.758010 kJ/mol
# Density = 2.411181 g / cm^3
# Si number density = 24.166818 Si / 1000 Ang^3
#
#
#
# Elastic Constant Matrix: (Units=GPa)
#
#
# Indices 1 2 3 4 5 6 
#
# 1 93.2272 29.9938 38.9998 -9.3101 -8.7727 24.0997
# 2 29.9938 63.9293 27.3666 -13.8648 2.5708 16.6538
# 3 38.9998 27.3666 166.0955 -29.4950 3.7753 5.0002
# 4 -9.3101 -13.8648 -29.4950 36.1082 -1.3175 3.1550
# 5 -8.7727 2.5708 3.7753 -1.3175 24.8423 -2.9533
# 6 24.0997 16.6538 5.0002 3.1550 -2.9533 40.8631
#
#
#
# Elastic Compliance Matrix: (Units=1/GPa)
#
#
# Indices 1 2 3 4 5 6 
#
# 1 0.015661 -0.004461 -0.002706 0.000911 0.005649 -0.006749
# 2 -0.004461 0.021587 -0.001008 0.006765 -0.004113 -0.006863
# 3 -0.002706 -0.001008 0.007758 0.005143 -0.001693 0.000538
# 4 0.000911 0.006765 0.005143 0.035307 -0.000079 -0.006655
# 5 0.005649 -0.004113 -0.001693 -0.000079 0.043127 0.001675
# 6 -0.006749 -0.006863 0.000538 -0.006655 0.001675 0.031819
#
#
# Mechanical properties :
#
#
# Convention : Reuss Voigt Hill
#
# Bulk Modulus (GPa) = 34.89583 57.33026 46.11305
# Shear Modulus (GPa) = 27.60004 35.48886 31.54445
#
# Velocity S-wave (km/s) = 3.38311 3.83625 3.61678
# Velocity P-wave (km/s) = 5.45266 6.58761 6.04682
#
# Compressibility (1/GPa) = 0.02865672
#
# Stress axis : x y z
#
# Youngs Moduli (GPa) = 63.85388 46.32381 128.90457
#
# Poissons Ratio (x) = 0.20664 0.34878
# Poissons Ratio (y) = 0.28484 0.12993
# Poissons Ratio (z) = 0.17277 0.04669
#
# Static dielectric constant tensor:
#      x y z
#    x 1.952170 -0.057160 -0.031100 
#    y -0.057160 2.001230 0.032500 
#    z -0.031100 0.032500 1.937060 
# 
# From -- ./inp_files/271946.got.cif
#   From: 2010.05.17/outbox.cif.g08.bks.cpg/sg2_136_cif.got.tgz:271946.got - 2010.06.03 11:33:40.
