data_PCOD9002816
_publ_section_title
;
Structure prediction by ZEFSAII (Michael W. Deem and Ramdas Pophale) SiO2 
 PCOD9002816
Probable space group: P -1
;
_chemical_formula_sum "Si O2"
_cell_formula_units_Z 16
_cell_length_a 8.323138
_cell_length_b 14.536935
_cell_length_c 11.812186
_cell_angle_alpha 30.046315
_cell_angle_beta 81.076453
_cell_angle_gamma 91.245473
_cell_volume 670.852170
_symmetry_space_group_name_H-M "P -1"
_symmetry_group_IT_number 2
_symmetry_cell_setting 'triclinic'
loop_
_space_group_symop_operation_xyz
x,y,z
-x,-y,-z
loop_
_atom_site_type_symbol
_atom_site_label
_atom_site_fract_x
_atom_site_fract_y
_atom_site_fract_z
Si Si1 0.194266 0.793037 0.100061
Si Si2 0.859934 0.100043 0.659756
Si Si3 0.601749 0.931069 0.412602
Si Si4 0.845510 0.569376 0.612192
Si Si5 0.601876 0.269594 0.643873
Si Si6 0.198398 0.130696 0.879697
Si Si7 0.469029 0.501573 0.785431
Si Si8 0.707554 0.907347 0.664351
O O1 0.082467 0.601243 0.252473
O O2 0.302837 0.715284 0.262959
O O3 0.299927 0.944534 0.835120
O O4 0.114530 0.925542 0.042309
O O5 0.701676 0.166379 0.656853
O O6 0.028792 0.276179 0.483517
O O7 0.843752 0.039405 0.596039
O O8 0.847447 0.912984 0.937792
O O9 0.512085 0.706862 0.627291
O O10 0.729653 0.938116 0.495460
O O11 0.459355 0.027580 0.359980
O O12 0.816986 0.688485 0.380231
O O13 0.655558 0.472530 0.785569
O O14 0.403597 0.157777 0.812120
O O15 0.597420 0.459467 0.372869
O O16 0.340794 0.317976 0.056679
#
# Coordination Sequence:
#
# PCOD9002816 Si02
#       8
#     2   2   2   2   2   2   2   2
#     4  11  20  38  60  89 124 165 191 244 315 352
#     4  11  22  42  57  95 125 157 206 247 302 360
#     4  11  21  41  64  92 118 154 214 252 293 353
#     4  11  24  36  61  91 129 160 195 245 311 369
#     4  10  21  36  65  91 125 151 201 256 291 362
#     4  10  21  38  62  87 127 160 196 257 292 368
#     4  11  22  40  63  95 120 157 202 252 302 363
#     4  11  23  39  69  87 118 162 206 258 292 348
#
# _framework density 23.850262000000001
#
# number of rings (size 3 to 8) (size 9 to 14) (size 15 to 20)
#    0.000    1.250    5.000    3.000    1.750    3.000 
#    2.250    1.250    0.000    0.000    0.000    0.000 
#    0.000    0.000    0.000    0.000    0.000    0.000 
#
# Total GULP energy -89479.122261 kJ/mol
# GULP energy per Si atom -5592.445141 kJ/mol
# Density = 2.379598 g / cm^3
# Si number density = 23.850262 Si / 1000 Ang^3
#
#
#
# Elastic Constant Matrix: (Units=GPa)
#
#
# Indices 1 2 3 4 5 6 
#
# 1 43.3782 24.9031 28.9486 -4.1084 12.5272 6.5117
# 2 24.9031 136.7950 67.1223 1.1112 14.8446 38.3354
# 3 28.9486 67.1223 86.6251 -17.9529 16.5179 26.8223
# 4 -4.1084 1.1112 -17.9529 47.4517 1.1362 9.2501
# 5 12.5272 14.8446 16.5179 1.1362 22.6880 2.8909
# 6 6.5117 38.3354 26.8223 9.2501 2.8909 34.0742
#
#
#
# Elastic Compliance Matrix: (Units=1/GPa)
#
#
# Indices 1 2 3 4 5 6 
#
# 1 0.032329 -0.001238 -0.009119 -0.001065 -0.010807 0.003599
# 2 -0.001238 0.013989 -0.007681 -0.001568 -0.001666 -0.008889
# 3 -0.009119 -0.007681 0.030978 0.014700 -0.011056 -0.017054
# 4 -0.001065 -0.001568 0.014700 0.030108 -0.008422 -0.017062
# 5 -0.010807 -0.001666 -0.011056 -0.008422 0.058333 0.009980
# 6 0.003599 -0.008889 -0.017054 -0.017062 0.009980 0.055869
#
#
# Mechanical properties :
#
#
# Convention : Reuss Voigt Hill
#
# Bulk Modulus (GPa) = 24.25957 56.52738 40.39348
# Shear Modulus (GPa) = 18.42156 30.56442 24.49299
#
# Velocity S-wave (km/s) = 2.78219 3.58371 3.20808
# Velocity P-wave (km/s) = 4.52929 6.39346 5.54034
#
# Compressibility (1/GPa) = 0.04122084
#
# Stress axis : x y z
#
# Youngs Moduli (GPa) = 30.93188 71.48575 32.28115
#
# Poissons Ratio (x) = 0.08852 0.29436
# Poissons Ratio (y) = 0.03830 0.24794
# Poissons Ratio (z) = 0.28205 0.54906
#
# Static dielectric constant tensor:
#      x y z
#    x 2.089450 0.020010 0.019230 
#    y 0.020010 1.946990 -0.021110 
#    z 0.019230 -0.021110 1.854900 
# 
# From -- ./inp_files/398177.got.cif
#   From: 2010.05.17/outbox.cif.g08.bks.cpg/sg2_200_cif.got.tgz:398177.got - 2010.06.03 11:33:40.
