data_PCOD9002930
_publ_section_title
;
Structure prediction by ZEFSAII (Michael W. Deem and Ramdas Pophale) SiO2 
 PCOD9002930
Probable space group: P -1
;
_chemical_formula_sum "Si O2"
_cell_formula_units_Z 14
_cell_length_a 9.316137
_cell_length_b 22.657312
_cell_length_c 28.109065
_cell_angle_alpha 169.200616
_cell_angle_beta 34.812859
_cell_angle_gamma 143.392347
_cell_volume 634.285687
_symmetry_space_group_name_H-M "P -1"
_symmetry_group_IT_number 2
_symmetry_cell_setting 'triclinic'
loop_
_space_group_symop_operation_xyz
x,y,z
-x,-y,-z
loop_
_atom_site_type_symbol
_atom_site_label
_atom_site_fract_x
_atom_site_fract_y
_atom_site_fract_z
Si Si1 0.904826 0.353113 0.795820
Si Si2 0.027782 0.745097 0.729263
Si Si3 0.791115 0.402051 0.334528
Si Si4 0.780084 0.227986 0.537023
Si Si5 0.036886 0.781757 0.176540
Si Si6 0.657778 0.755214 0.111893
Si Si7 0.439110 0.110476 0.858748
O O1 0.624510 0.371605 0.909803
O O2 0.852880 0.475749 0.853693
O O3 0.000000 0.000000 0.500000
O O4 0.079206 0.596833 0.968375
O O5 0.058201 0.592097 0.651638
O O6 0.000000 0.500000 0.500000
O O7 0.288617 0.912891 0.780680
O O8 0.825318 0.039421 0.019594
O O9 0.500000 0.500000 0.500000
O O10 0.948611 0.628308 0.436466
O O11 0.592802 0.522665 0.828933
O O12 0.687072 0.013768 0.349803
O O13 0.813030 0.022386 0.412977
O O14 0.268310 0.971210 0.283213
O O15 0.000000 0.500000 0.000000
O O16 0.685110 0.907971 0.173970
#
# Coordination Sequence:
#
# PCOD9002930 Si02
#       7
#     2   2   2   2   2   2   2
#     4  10  21  37  54  78 113 154 194 237 286 334
#     4  10  22  40  64  94 121 157 203 252 309 365
#     4  10  21  41  64  88 125 159 198 254 309 367
#     4  10  23  39  58  87 118 157 199 241 301 356
#     4  11  22  37  56  86 118 152 200 242 284 352
#     4  10  21  37  55  81 114 150 195 237 282 349
#     4  11  22  38  62  87 119 156 196 247 297 354
#
# _framework density 22.072074000000001
#
# number of rings (size 3 to 8) (size 9 to 14) (size 15 to 20)
#    0.000    1.714    1.429    2.571    2.000    1.143 
#    0.000    4.286    0.000    0.000    0.000    0.000 
#    0.000    0.000    0.000    0.000    0.000    0.000 
#
# Total GULP energy -78170.808337 kJ/mol
# GULP energy per Si atom -5583.629167 kJ/mol
# Density = 2.202184 g / cm^3
# Si number density = 22.072074 Si / 1000 Ang^3
#
#
#
# Elastic Constant Matrix: (Units=GPa)
#
#
# Indices 1 2 3 4 5 6 
#
# 1 110.1307 9.3891 39.0638 -3.1201 -2.8664 -9.4314
# 2 9.3891 54.1761 -2.1715 -2.5507 -12.6094 4.6203
# 3 39.0638 -2.1715 101.8337 -8.3271 11.8852 5.3876
# 4 -3.1201 -2.5507 -8.3271 25.2313 -11.4576 -6.1199
# 5 -2.8664 -12.6094 11.8852 -11.4576 31.7235 -0.7669
# 6 -9.4314 4.6203 5.3876 -6.1199 -0.7669 33.4078
#
#
#
# Elastic Compliance Matrix: (Units=1/GPa)
#
#
# Indices 1 2 3 4 5 6 
#
# 1 0.011513 -0.001781 -0.004886 0.002175 0.003063 0.004753
# 2 -0.001781 0.021728 0.000557 0.006413 0.010530 -0.002181
# 3 -0.004886 0.000557 0.012494 0.000560 -0.004783 -0.003478
# 4 0.002175 0.006413 0.000560 0.053097 0.021951 0.009868
# 5 0.003063 0.010530 -0.004783 0.021951 0.045832 0.005253
# 6 0.004753 -0.002181 -0.003478 0.009868 0.005253 0.034066
#
#
# Mechanical properties :
#
#
# Convention : Reuss Voigt Hill
#
# Bulk Modulus (GPa) = 29.83594 39.85591 34.84593
# Shear Modulus (GPa) = 24.73766 32.72979 28.73373
#
# Velocity S-wave (km/s) = 3.35142 3.85497 3.61198
# Velocity P-wave (km/s) = 5.34068 6.15717 5.76340
#
# Compressibility (1/GPa) = 0.03351662
#
# Stress axis : x y z
#
# Youngs Moduli (GPa) = 86.85547 46.02329 80.03833
#
# Poissons Ratio (x) = 0.08197 0.39104
# Poissons Ratio (y) = 0.15470 -0.04461
# Poissons Ratio (z) = 0.42435 -0.02565
#
# Static dielectric constant tensor:
#      x y z
#    x 1.826670 -0.039440 -0.009290 
#    y -0.039440 1.828860 0.011600 
#    z -0.009290 0.011600 1.830570 
# 
# From -- ./inp_files/33145.got.cif
#   From: 2010.05.17/outbox.cif.g08.bks.cpg/sg2_17_cif.got.tgz:33145.got - 2010.06.03 11:33:40.
