data_PCOD9002264
_publ_section_title
;
Structure prediction by ZEFSAII (Michael W. Deem and Ramdas Pophale) SiO2 
 PCOD9002264
Probable space group: P -1
;
_chemical_formula_sum "Si O2"
_cell_formula_units_Z 16
_cell_length_a 6.505389
_cell_length_b 16.350147
_cell_length_c 18.339012
_cell_angle_alpha 33.225281
_cell_angle_beta 131.630873
_cell_angle_gamma 136.371973
_cell_volume 728.464506
_symmetry_space_group_name_H-M "P -1"
_symmetry_group_IT_number 2
_symmetry_cell_setting 'triclinic'
loop_
_space_group_symop_operation_xyz
x,y,z
-x,-y,-z
loop_
_atom_site_type_symbol
_atom_site_label
_atom_site_fract_x
_atom_site_fract_y
_atom_site_fract_z
Si Si1 0.328704 0.846831 0.243842
Si Si2 0.204231 0.227956 0.211236
Si Si3 0.643546 0.084409 0.394697
Si Si4 0.371711 0.775052 0.994173
Si Si5 0.241837 0.446211 0.632688
Si Si6 0.762337 0.893248 0.437675
Si Si7 0.396491 0.496253 0.789577
Si Si8 0.304449 0.671947 0.220135
O O1 0.524964 0.808404 0.381460
O O2 0.392513 0.790073 0.222391
O O3 0.976721 0.740506 0.255304
O O4 0.427184 0.040380 0.121553
O O5 0.453202 0.189516 0.252969
O O6 0.384754 0.363706 0.211513
O O7 0.973376 0.271909 0.076107
O O8 0.987585 0.064679 0.325118
O O9 0.002078 0.177917 0.424339
O O10 0.500000 0.000000 0.500000
O O11 0.611809 0.949631 0.426791
O O12 0.493033 0.649850 0.080874
O O13 0.376430 0.761762 0.092445
O O14 0.381365 0.545918 0.664729
O O15 0.503893 0.437849 0.651280
O O16 0.000000 0.500000 0.500000
O O17 0.053271 0.433322 0.782538
#
# Coordination Sequence:
#
# PCOD9002264 Si02
#       8
#     2   2   2   2   2   2   2   2
#     4  10  22  39  63  89 118 158 199 246 296 352
#     4  10  21  36  59  87 120 159 198 242 299 358
#     4   9  19  35  55  86 120 156 197 240 294 353
#     4  10  22  40  61  89 120 154 202 250 296 349
#     4  10  24  41  60  88 121 156 196 245 300 356
#     4   9  20  36  57  88 123 155 196 247 296 349
#     4  10  23  40  59  87 121 158 200 246 297 354
#     4  10  23  40  61  87 117 157 201 245 296 351
#
# _framework density 21.964006999999999
#
# number of rings (size 3 to 8) (size 9 to 14) (size 15 to 20)
#    0.000    2.250    0.000    0.750    0.000   20.000 
#    0.000    0.000    0.000    0.000    0.000    0.000 
#    0.000    0.000    0.000    0.000    0.000    0.000 
#
# Total GULP energy -89410.202315 kJ/mol
# GULP energy per Si atom -5588.137645 kJ/mol
# Density = 2.191402 g / cm^3
# Si number density = 21.964007 Si / 1000 Ang^3
#
#
#
# Elastic Constant Matrix: (Units=GPa)
#
#
# Indices 1 2 3 4 5 6 
#
# 1 131.0786 49.0309 48.0623 11.4894 38.6114 -0.9079
# 2 49.0309 141.7330 35.2365 24.8856 18.6831 2.9604
# 3 48.0623 35.2365 96.7652 24.7350 36.8207 3.3482
# 4 11.4894 24.8856 24.7350 32.0366 7.1929 -0.5718
# 5 38.6114 18.6831 36.8207 7.1929 37.9151 1.1510
# 6 -0.9079 2.9604 3.3482 -0.5718 1.1510 23.2921
#
#
#
# Elastic Compliance Matrix: (Units=1/GPa)
#
#
# Indices 1 2 3 4 5 6 
#
# 1 0.011966 -0.002725 -0.001752 0.001325 -0.009441 0.001564
# 2 -0.002725 0.009173 -0.000348 -0.005846 -0.000257 -0.001353
# 3 -0.001752 -0.000348 0.020153 -0.011245 -0.015409 -0.002436
# 4 0.001325 -0.005846 -0.011245 0.043083 0.004180 0.003262
# 5 -0.009441 -0.000257 -0.015409 0.004180 0.050303 -0.000504
# 6 0.001564 -0.001353 -0.002436 0.003262 -0.000504 0.043621
#
#
# Mechanical properties :
#
#
# Convention : Reuss Voigt Hill
#
# Bulk Modulus (GPa) = 31.60161 70.47070 51.03615
# Shear Modulus (GPa) = 25.18948 34.46522 29.82735
#
# Velocity S-wave (km/s) = 3.39020 3.96557 3.68912
# Velocity P-wave (km/s) = 5.45378 7.28848 6.43683
#
# Compressibility (1/GPa) = 0.03164396
#
# Stress axis : x y z
#
# Youngs Moduli (GPa) = 83.56822 109.01162 49.62015
#
# Poissons Ratio (x) = 0.29705 0.08692
# Poissons Ratio (y) = 0.22772 0.01726
# Poissons Ratio (z) = 0.14638 0.03792
#
# Static dielectric constant tensor:
#      x y z
#    x 1.777040 0.020880 -0.008820 
#    y 0.020880 1.791400 -0.012420 
#    z -0.008820 -0.012420 1.890160 
# 
# From -- ./inp_files/110672.got.cif
#   From: 2010.05.17/outbox.cif.g08.bks.cpg/sg2_56_cif.got.tgz:110672.got - 2010.06.03 11:33:40.
