data_PCOD9002702
_publ_section_title
;
Structure prediction by ZEFSAII (Michael W. Deem and Ramdas Pophale) SiO2 
 PCOD9002702
Probable space group: P -1
;
_chemical_formula_sum "Si O2"
_cell_formula_units_Z 16
_cell_length_a 10.582568
_cell_length_b 14.302934
_cell_length_c 18.826244
_cell_angle_alpha 154.287754
_cell_angle_beta 142.163825
_cell_angle_gamma 39.392864
_cell_volume 737.994494
_symmetry_space_group_name_H-M "P -1"
_symmetry_group_IT_number 2
_symmetry_cell_setting 'triclinic'
loop_
_space_group_symop_operation_xyz
x,y,z
-x,-y,-z
loop_
_atom_site_type_symbol
_atom_site_label
_atom_site_fract_x
_atom_site_fract_y
_atom_site_fract_z
Si Si1 0.095654 0.109863 0.487379
Si Si2 0.657790 0.347723 0.521155
Si Si3 0.498690 0.723254 0.196401
Si Si4 0.489749 0.097516 0.819913
Si Si5 0.189885 0.548771 0.031687
Si Si6 0.330001 0.617443 0.290871
Si Si7 0.401533 0.798382 0.912634
Si Si8 0.175220 0.078229 0.879114
O O1 0.901091 0.262338 0.547609
O O2 0.278942 0.244382 0.652620
O O3 0.226719 0.881236 0.425770
O O4 0.972257 0.031397 0.312645
O O5 0.500000 0.500000 0.500000
O O6 0.568012 0.129965 0.343389
O O7 0.655352 0.454803 0.670521
O O8 0.720922 0.698941 0.127132
O O9 0.426464 0.899545 0.221203
O O10 0.500000 0.500000 0.000000
O O11 0.346986 0.700903 0.178548
O O12 0.633559 0.149882 0.984252
O O13 0.196451 0.548615 0.119486
O O14 0.965703 0.683370 0.998298
O O15 0.555709 0.466972 0.261027
O O16 0.615240 0.884446 0.043244
O O17 0.234746 0.929283 0.872895
#
# Coordination Sequence:
#
# PCOD9002702 Si02
#       8
#     2   2   2   2   2   2   2   2
#     4  11  22  39  64  93 123 160 214 255 311 363
#     4  12  24  38  60  98 132 158 195 260 326 370
#     4  10  22  42  66  88 122 165 216 263 297 356
#     4  10  21  41  63  90 127 163 205 253 311 376
#     4   9  22  40  66  89 120 165 217 252 299 359
#     4  10  22  35  63  92 123 163 201 255 302 375
#     4  10  21  38  59  92 136 158 199 248 320 381
#     4  10  21  36  63  94 125 167 200 254 314 371
#
# _framework density 21.680378999999999
#
# number of rings (size 3 to 8) (size 9 to 14) (size 15 to 20)
#    0.000    1.750    2.500    1.125    3.500    4.500 
#    0.000    0.625    5.500    8.250    0.000    0.000 
#    0.000    0.000    0.000    0.000    0.000    0.000 
#
# Total GULP energy -89118.799853 kJ/mol
# GULP energy per Si atom -5569.924991 kJ/mol
# Density = 2.163103 g / cm^3
# Si number density = 21.680379 Si / 1000 Ang^3
#
#
#
# Elastic Constant Matrix: (Units=GPa)
#
#
# Indices 1 2 3 4 5 6 
#
# 1 74.2953 30.0431 40.6947 -8.8612 6.9425 18.2214
# 2 30.0431 155.1962 33.8480 -13.8320 -1.6413 25.2176
# 3 40.6947 33.8480 89.3371 -17.9853 -1.2238 8.9229
# 4 -8.8612 -13.8320 -17.9853 33.9996 5.6375 -5.5150
# 5 6.9425 -1.6413 -1.2238 5.6375 29.3353 0.9445
# 6 18.2214 25.2176 8.9229 -5.5150 0.9445 12.5412
#
#
#
# Elastic Compliance Matrix: (Units=1/GPa)
#
#
# Indices 1 2 3 4 5 6 
#
# 1 0.027988 0.003126 -0.010523 -0.002690 -0.005074 -0.040264
# 2 0.003126 0.010242 -0.003080 -0.000503 0.000549 -0.023207
# 3 -0.010523 -0.003080 0.017361 0.006928 0.001322 0.012078
# 4 -0.002690 -0.000503 0.006928 0.035891 -0.006524 0.016266
# 5 -0.005074 0.000549 0.001322 -0.006524 0.036639 -0.000300
# 6 -0.040264 -0.023207 0.012078 0.016266 -0.000300 0.183484
#
#
# Mechanical properties :
#
#
# Convention : Reuss Voigt Hill
#
# Bulk Modulus (GPa) = 28.87189 58.66671 43.76930
# Shear Modulus (GPa) = 14.53048 29.45806 21.99427
#
# Velocity S-wave (km/s) = 2.59166 3.69011 3.18854
# Velocity P-wave (km/s) = 4.72245 6.72863 5.81275
#
# Compressibility (1/GPa) = 0.03463576
#
# Stress axis : x y z
#
# Youngs Moduli (GPa) = 35.72979 97.63721 57.60195
#
# Poissons Ratio (x) = -0.30522 0.60615
# Poissons Ratio (y) = -0.11169 0.17744
# Poissons Ratio (z) = 0.37598 0.30076
#
# Static dielectric constant tensor:
#      x y z
#    x 1.869410 0.012600 0.009620 
#    y 0.012600 1.827790 0.049740 
#    z 0.009620 0.049740 1.871950 
# 
# From -- ./inp_files/569816.got.cif
#   From: 2010.05.17/outbox.cif.g08.bks.cpg/sg2_285_cif.got.tgz:569816.got - 2010.06.03 11:33:40.
