data_PCOD9002818
_publ_section_title
;
Structure prediction by ZEFSAII (Michael W. Deem and Ramdas Pophale) SiO2 
 PCOD9002818
Probable space group: P -1
;
_chemical_formula_sum "Si O2"
_cell_formula_units_Z 14
_cell_length_a 16.911925
_cell_length_b 6.686713
_cell_length_c 14.695707
_cell_angle_alpha 121.505085
_cell_angle_beta 28.360327
_cell_angle_gamma 117.648727
_cell_volume 673.011362
_symmetry_space_group_name_H-M "P -1"
_symmetry_group_IT_number 2
_symmetry_cell_setting 'triclinic'
loop_
_space_group_symop_operation_xyz
x,y,z
-x,-y,-z
loop_
_atom_site_type_symbol
_atom_site_label
_atom_site_fract_x
_atom_site_fract_y
_atom_site_fract_z
Si Si1 0.206222 0.659106 0.009542
Si Si2 0.024824 0.086670 0.393069
Si Si3 0.534099 0.863493 0.795595
Si Si4 0.655306 0.704269 0.817414
Si Si5 0.726702 0.218740 0.600647
Si Si6 0.056810 0.758085 0.789676
Si Si7 0.888363 0.266968 0.072502
O O1 0.100326 0.422290 0.082183
O O2 0.095375 0.871637 0.211444
O O3 0.386012 0.682190 0.880457
O O4 0.229753 0.712713 0.890792
O O5 0.170361 0.279210 0.302400
O O6 0.860807 0.182295 0.535841
O O7 0.000000 0.000000 0.500000
O O8 0.660617 0.770222 0.720564
O O9 0.627047 0.972572 0.640231
O O10 0.451139 0.090588 0.981212
O O11 0.606623 0.432646 0.797941
O O12 0.829615 0.285031 0.422723
O O13 0.163124 0.731488 0.768947
O O14 0.989005 0.022558 0.908179
O O15 0.000000 0.500000 0.000000
#
# Coordination Sequence:
#
# PCOD9002818 Si02
#       7
#     2   2   2   2   2   2   2
#     4  10  21  39  60  85 122 159 190 239 299 356
#     4  11  20  36  58  86 122 155 202 247 288 337
#     4  10  23  39  56  82 129 163 194 237 296 347
#     4  10  22  39  54  83 124 169 197 236 289 354
#     4  12  22  37  62  90 115 159 204 250 287 338
#     4  10  21  36  65  92 111 148 201 247 294 349
#     4   9  19  39  63  90 116 146 194 246 300 351
#
# _framework density 20.802026000000001
#
# number of rings (size 3 to 8) (size 9 to 14) (size 15 to 20)
#    0.000    1.714    2.857    1.714    0.000    1.143 
#    0.000    0.714    0.000    8.571    0.000    0.000 
#    0.000    0.000    0.000    0.000    0.000    0.000 
#
# Total GULP energy -78006.244938 kJ/mol
# GULP energy per Si atom -5571.874638 kJ/mol
# Density = 2.075468 g / cm^3
# Si number density = 20.802026 Si / 1000 Ang^3
#
#
#
# Elastic Constant Matrix: (Units=GPa)
#
#
# Indices 1 2 3 4 5 6 
#
# 1 96.8871 28.3456 35.3037 -5.1159 23.0217 -7.4193
# 2 28.3456 113.0609 22.0530 -5.2853 3.4241 3.3435
# 3 35.3037 22.0530 35.9188 -11.8925 7.0065 -8.5785
# 4 -5.1159 -5.2853 -11.8925 24.6811 -7.4194 1.5615
# 5 23.0217 3.4241 7.0065 -7.4194 25.7314 -7.1505
# 6 -7.4193 3.3435 -8.5785 1.5615 -7.1505 23.3822
#
#
#
# Elastic Compliance Matrix: (Units=1/GPa)
#
#
# Indices 1 2 3 4 5 6 
#
# 1 0.022429 -0.000884 -0.023311 -0.012031 -0.018810 -0.006258
# 2 -0.000884 0.010501 -0.006917 -0.001063 -0.000230 -0.004319
# 3 -0.023311 -0.006917 0.066468 0.029844 0.018278 0.021575
# 4 -0.012031 -0.001063 0.029844 0.058269 0.022429 0.010251
# 5 -0.018810 -0.000230 0.018278 0.022429 0.062306 0.018326
# 6 -0.006258 -0.004319 0.021575 0.010251 0.018326 0.054235
#
#
# Mechanical properties :
#
#
# Convention : Reuss Voigt Hill
#
# Bulk Modulus (GPa) = 26.90104 46.36348 36.63226
# Shear Modulus (GPa) = 14.33395 25.43657 19.88526
#
# Velocity S-wave (km/s) = 2.62785 3.50064 3.09516
# Velocity P-wave (km/s) = 4.70824 6.21897 5.51558
#
# Compressibility (1/GPa) = 0.03717329
#
# Stress axis : x y z
#
# Youngs Moduli (GPa) = 44.58507 95.23299 15.04490
#
# Poissons Ratio (x) = 0.08418 0.35071
# Poissons Ratio (y) = 0.03941 0.10406
# Poissons Ratio (z) = 1.03933 0.65872
#
# Static dielectric constant tensor:
#      x y z
#    x 1.753160 0.009200 0.037300 
#    y 0.009200 1.773880 -0.020350 
#    z 0.037300 -0.020350 1.785930 
# 
# From -- ./inp_files/28151.got.cif
#   From: 2010.05.17/outbox.cif.g08.bks.cpg/sg2_15_cif.got.tgz:28151.got - 2010.06.03 11:33:40.
