data_PCOD9002049
_publ_section_title
;
Structure prediction by ZEFSAII (Michael W. Deem and Ramdas Pophale) SiO2 
 PCOD9002049
Probable space group: P -1
;
_chemical_formula_sum "Si O2"
_cell_formula_units_Z 16
_cell_length_a 7.136918
_cell_length_b 18.287369
_cell_length_c 7.574806
_cell_angle_alpha 79.473100
_cell_angle_beta 58.299702
_cell_angle_gamma 110.683707
_cell_volume 697.612253
_symmetry_space_group_name_H-M "P -1"
_symmetry_group_IT_number 2
_symmetry_cell_setting 'triclinic'
loop_
_space_group_symop_operation_xyz
x,y,z
-x,-y,-z
loop_
_atom_site_type_symbol
_atom_site_label
_atom_site_fract_x
_atom_site_fract_y
_atom_site_fract_z
Si Si1 0.739083 0.543740 0.083294
Si Si2 0.695766 0.122343 0.739956
Si Si3 0.886697 0.930921 0.425934
Si Si4 0.280732 0.975718 0.767514
Si Si5 0.065308 0.306219 0.343683
Si Si6 0.032773 0.369085 0.713561
Si Si7 0.388749 0.594481 0.064140
Si Si8 0.314434 0.822838 0.899358
O O1 0.942804 0.626636 0.819924
O O2 0.471698 0.539470 0.167509
O O3 0.716136 0.458543 0.045045
O O4 0.785505 0.559669 0.260508
O O5 0.455870 0.034143 0.817688
O O6 0.935493 0.109313 0.662357
O O7 0.818227 0.207326 0.512836
O O8 0.607259 0.146557 0.950411
O O9 0.892265 0.988746 0.234077
O O10 0.581570 0.858015 0.645750
O O11 0.000000 0.000000 0.500000
O O12 0.500000 0.000000 0.500000
O O13 0.168310 0.872846 0.893603
O O14 0.335117 0.315110 0.148266
O O15 0.114284 0.343213 0.504232
O O16 0.821510 0.391824 0.751266
O O17 0.881752 0.280542 0.946375
#
# Coordination Sequence:
#
# PCOD9002049 Si02
#       8
#     2   2   2   2   2   2   2   2
#     4   9  21  40  59  88 122 147 190 243 279 343
#     4  11  21  41  56  80 121 142 187 248 270 332
#     4  11  22  36  58  79 105 154 187 227 291 327
#     4  10  21  36  57  82 107 150 190 226 285 335
#     4   9  22  39  58  89 117 151 195 235 285 343
#     4  11  21  39  62  84 117 159 186 235 297 333
#     4   9  20  42  57  90 120 146 195 237 280 349
#     4  10  23  39  55  86 113 143 197 235 273 344
#
# _framework density 22.935375000000001
#
# number of rings (size 3 to 8) (size 9 to 14) (size 15 to 20)
#    0.750    1.250    2.500    1.500    3.500    1.500 
#    2.250    2.500    0.000    0.000    0.000    0.000 
#    0.000    0.000    0.000    0.000    0.000    0.000 
#
# Total GULP energy -89295.993130 kJ/mol
# GULP energy per Si atom -5580.999571 kJ/mol
# Density = 2.288317 g / cm^3
# Si number density = 22.935375 Si / 1000 Ang^3
#
#
#
# Elastic Constant Matrix: (Units=GPa)
#
#
# Indices 1 2 3 4 5 6 
#
# 1 54.2793 -0.7353 14.8142 8.7972 -3.6497 -6.7616
# 2 -0.7353 41.3212 1.8717 -1.6709 -3.8917 -0.8248
# 3 14.8142 1.8717 74.3583 -3.8980 -3.1473 -1.8280
# 4 8.7972 -1.6709 -3.8980 40.8707 1.8077 15.2380
# 5 -3.6497 -3.8917 -3.1473 1.8077 24.0536 6.4638
# 6 -6.7616 -0.8248 -1.8280 15.2380 6.4638 31.9229
#
#
#
# Elastic Compliance Matrix: (Units=1/GPa)
#
#
# Indices 1 2 3 4 5 6 
#
# 1 0.022123 0.000551 -0.004601 -0.008263 0.001283 0.008121
# 2 0.000551 0.024642 -0.000526 0.000847 0.004074 -0.000506
# 3 -0.004601 -0.000526 0.014548 0.002990 0.001397 -0.001865
# 4 -0.008263 0.000847 0.002990 0.033082 0.001534 -0.017659
# 5 0.001283 0.004074 0.001397 0.001534 0.045019 -0.009391
# 6 0.008121 -0.000506 -0.001865 -0.017659 -0.009391 0.043256
#
#
# Mechanical properties :
#
#
# Convention : Reuss Voigt Hill
#
# Bulk Modulus (GPa) = 19.17070 22.42887 20.79979
# Shear Modulus (GPa) = 23.89953 29.63663 26.76808
#
# Velocity S-wave (km/s) = 3.23156 3.59859 3.42000
# Velocity P-wave (km/s) = 4.72236 5.20258 4.96828
#
# Compressibility (1/GPa) = 0.05216293
#
# Stress axis : x y z
#
# Youngs Moduli (GPa) = 45.20099 40.58089 68.73689
#
# Poissons Ratio (x) = -0.02235 0.31624
# Poissons Ratio (y) = -0.02490 0.03613
# Poissons Ratio (z) = 0.20795 0.02133
#
# Static dielectric constant tensor:
#      x y z
#    x 1.883920 -0.010330 0.014800 
#    y -0.010330 1.841370 -0.044500 
#    z 0.014800 -0.044500 1.936050 
# 
# From -- ./inp_files/212622.got.cif
#   From: 2010.05.17/outbox.cif.g08.bks.cpg/sg2_107_cif.got.tgz:212622.got - 2010.06.03 11:33:40.
