data_PCOD9002833
_publ_section_title
;
Structure prediction by ZEFSAII (Michael W. Deem and Ramdas Pophale) SiO2 
 PCOD9002833
Probable space group: P -1
;
_chemical_formula_sum "Si O2"
_cell_formula_units_Z 16
_cell_length_a 7.883821
_cell_length_b 7.465018
_cell_length_c 14.893692
_cell_angle_alpha 102.613596
_cell_angle_beta 49.371355
_cell_angle_gamma 99.353547
_cell_volume 648.943402
_symmetry_space_group_name_H-M "P -1"
_symmetry_group_IT_number 2
_symmetry_cell_setting 'triclinic'
loop_
_space_group_symop_operation_xyz
x,y,z
-x,-y,-z
loop_
_atom_site_type_symbol
_atom_site_label
_atom_site_fract_x
_atom_site_fract_y
_atom_site_fract_z
Si Si1 0.585740 0.427619 0.058995
Si Si2 0.075666 0.899734 0.648686
Si Si3 0.265164 0.206810 0.922105
Si Si4 0.166904 0.462709 0.321537
Si Si5 0.164927 0.843671 0.812560
Si Si6 0.331078 0.885964 0.107687
Si Si7 0.221761 0.286155 0.582965
Si Si8 0.481025 0.532905 0.657042
O O1 0.718377 0.581323 0.086539
O O2 0.350624 0.378529 0.181746
O O3 0.500000 0.500000 0.000000
O O4 0.746672 0.269668 0.953518
O O5 0.985254 0.712762 0.612559
O O6 0.182232 0.831509 0.697662
O O7 0.206103 0.063952 0.569479
O O8 0.866971 0.008345 0.770643
O O9 0.511992 0.176403 0.872683
O O10 0.223503 0.048971 0.847347
O O11 0.079784 0.192313 0.063609
O O12 0.013898 0.613940 0.344382
O O13 0.328002 0.540871 0.351988
O O14 0.332284 0.689252 0.771853
O O15 0.500000 0.000000 0.000000
O O16 0.326968 0.374561 0.647235
O O17 0.381205 0.359329 0.456673
#
# Coordination Sequence:
#
# PCOD9002833 Si02
#       8
#     2   2   2   2   2   2   2   2
#     4  10  21  36  65  97 136 181 223 276 342 413
#     4  12  24  42  73  98 140 186 224 287 349 408
#     4  10  22  38  61  98 139 177 225 277 335 424
#     4  12  24  48  72 101 139 183 231 288 346 415
#     4  11  23  42  64 101 142 178 227 283 346 410
#     4  11  19  36  60  94 130 178 221 268 340 407
#     4  11  27  50  70 104 134 181 240 296 349 400
#     4  11  27  48  73  99 140 180 236 298 343 410
#
# _framework density 24.655462
#
# number of rings (size 3 to 8) (size 9 to 14) (size 15 to 20)
#    0.000    1.000    3.750    3.375    3.500    1.000 
#    0.000    1.250    0.000    0.000    0.000    0.000 
#    0.000    0.000    0.000    0.000    0.000    0.000 
#
# Total GULP energy -89438.672272 kJ/mol
# GULP energy per Si atom -5589.917017 kJ/mol
# Density = 2.459934 g / cm^3
# Si number density = 24.655462 Si / 1000 Ang^3
#
#
#
# Elastic Constant Matrix: (Units=GPa)
#
#
# Indices 1 2 3 4 5 6 
#
# 1 136.1465 31.0834 15.5453 10.8042 -8.6521 5.6092
# 2 31.0834 99.9749 -19.7993 -4.0782 -3.9389 11.2258
# 3 15.5453 -19.7993 59.1500 0.7781 -17.4240 -1.9895
# 4 10.8042 -4.0782 0.7781 31.1870 -4.8236 3.0547
# 5 -8.6521 -3.9389 -17.4240 -4.8236 22.5258 1.7697
# 6 5.6092 11.2258 -1.9895 3.0547 1.7697 29.9284
#
#
#
# Elastic Compliance Matrix: (Units=1/GPa)
#
#
# Indices 1 2 3 4 5 6 
#
# 1 0.008845 -0.003669 -0.003783 -0.003582 -0.000929 -0.000112
# 2 -0.003669 0.013772 0.007835 0.004666 0.008446 -0.004933
# 3 -0.003783 0.007835 0.026859 0.005292 0.022005 -0.002286
# 4 -0.003582 0.004666 0.005292 0.036087 0.011662 -0.005100
# 5 -0.000929 0.008446 0.022005 0.011662 0.065551 -0.006598
# 6 -0.000112 -0.004933 -0.002286 -0.005100 -0.006598 0.036043
#
#
# Mechanical properties :
#
#
# Convention : Reuss Voigt Hill
#
# Bulk Modulus (GPa) = 19.90418 38.77002 29.33710
# Shear Modulus (GPa) = 24.61390 34.62438 29.61914
#
# Velocity S-wave (km/s) = 3.16304 3.75150 3.46977
# Velocity P-wave (km/s) = 4.62928 5.87570 5.28933
#
# Compressibility (1/GPa) = 0.05024070
#
# Stress axis : x y z
#
# Youngs Moduli (GPa) = 113.06430 72.61156 37.23197
#
# Poissons Ratio (x) = 0.26642 0.14084
# Poissons Ratio (y) = 0.41485 -0.29171
# Poissons Ratio (z) = 0.42771 -0.56890
#
# Static dielectric constant tensor:
#      x y z
#    x 1.915690 -0.054700 0.102430 
#    y -0.054700 2.127820 0.040820 
#    z 0.102430 0.040820 1.928780 
# 
# From -- ./inp_files/556363.got.cif
#   From: 2010.05.17/outbox.cif.g08.bks.cpg/sg2_279_cif.got.tgz:556363.got - 2010.06.03 11:33:40.
