data_PCOD9002289
_publ_section_title
;
Structure prediction by ZEFSAII (Michael W. Deem and Ramdas Pophale) SiO2 
 PCOD9002289
Probable space group: P -1
;
_chemical_formula_sum "Si O2"
_cell_formula_units_Z 16
_cell_length_a 11.575671
_cell_length_b 17.997906
_cell_length_c 5.403977
_cell_angle_alpha 96.768546
_cell_angle_beta 117.697846
_cell_angle_gamma 42.942357
_cell_volume 631.266471
_symmetry_space_group_name_H-M "P -1"
_symmetry_group_IT_number 2
_symmetry_cell_setting 'triclinic'
loop_
_space_group_symop_operation_xyz
x,y,z
-x,-y,-z
loop_
_atom_site_type_symbol
_atom_site_label
_atom_site_fract_x
_atom_site_fract_y
_atom_site_fract_z
Si Si1 0.891257 0.992351 0.577179
Si Si2 0.805583 0.417592 0.680856
Si Si3 0.353678 0.132993 0.476078
Si Si4 0.185482 0.339500 0.118951
Si Si5 0.003600 0.212334 0.471913
Si Si6 0.727381 0.184612 0.785813
Si Si7 0.613199 0.728777 0.210594
Si Si8 0.382505 0.615815 0.174952
O O1 0.878526 0.917148 0.410592
O O2 0.039196 0.911658 0.929113
O O3 0.000000 0.000000 0.500000
O O4 0.708511 0.121997 0.560293
O O5 0.957135 0.286846 0.680282
O O6 0.625302 0.510544 0.337756
O O7 0.685742 0.432397 0.793935
O O8 0.946964 0.425052 0.887361
O O9 0.434818 0.160777 0.759850
O O10 0.144689 0.193501 0.408628
O O11 0.500000 0.000000 0.500000
O O12 0.299714 0.208707 0.218878
O O13 0.278687 0.334208 0.964593
O O14 0.236049 0.353872 0.439064
O O15 0.777378 0.297908 0.168220
O O16 0.589142 0.226996 0.902948
O O17 0.658509 0.294220 0.652238
#
# Coordination Sequence:
#
# PCOD9002289 Si02
#       8
#     2   2   2   2   2   2   2   2
#     4  10  22  37  61  88 125 168 205 266 319 379
#     4  11  20  40  64  90 122 161 214 269 319 374
#     4  10  21  36  59  90 123 166 209 259 319 371
#     4  10  22  41  62  89 127 166 213 267 315 379
#     4  11  20  38  60  93 125 157 214 263 319 386
#     4  10  22  40  57  91 125 163 215 252 323 386
#     4  10  22  40  62  85 131 164 206 266 307 391
#     4  10  22  38  64  90 122 164 208 268 324 371
#
# _framework density 25.345873000000001
#
# number of rings (size 3 to 8) (size 9 to 14) (size 15 to 20)
#    0.750    1.000    2.500    1.875    1.750    0.500 
#    2.250    1.250    0.000    0.000    0.000    0.000 
#    0.000    0.000    0.000    0.000    0.000    0.000 
#
# Total GULP energy -89368.252915 kJ/mol
# GULP energy per Si atom -5585.515807 kJ/mol
# Density = 2.528818 g / cm^3
# Si number density = 25.345873 Si / 1000 Ang^3
#
#
#
# Elastic Constant Matrix: (Units=GPa)
#
#
# Indices 1 2 3 4 5 6 
#
# 1 92.6063 10.6542 24.9863 -7.4882 -6.5572 -19.8328
# 2 10.6542 90.9163 12.6915 -5.3586 -9.9328 9.8813
# 3 24.9863 12.6915 70.2837 -0.9461 3.2247 -15.2180
# 4 -7.4882 -5.3586 -0.9461 23.0461 -9.1950 -6.9717
# 5 -6.5572 -9.9328 3.2247 -9.1950 40.1804 -2.5262
# 6 -19.8328 9.8813 -15.2180 -6.9717 -2.5262 41.9893
#
#
#
# Elastic Compliance Matrix: (Units=1/GPa)
#
#
# Indices 1 2 3 4 5 6 
#
# 1 0.014490 -0.001007 -0.003443 0.008536 0.004819 0.007540
# 2 -0.001007 0.012470 -0.002836 0.002723 0.003532 -0.003773
# 3 -0.003443 -0.002836 0.017157 -0.000529 -0.002445 0.005024
# 4 0.008536 0.002723 -0.000529 0.057337 0.016090 0.013687
# 5 0.004819 0.003532 -0.002445 0.016090 0.030745 0.005080
# 6 0.007540 -0.003773 0.005024 0.013687 0.005080 0.032664
#
#
# Mechanical properties :
#
#
# Convention : Reuss Voigt Hill
#
# Bulk Modulus (GPa) = 33.84779 38.94115 36.39447
# Shear Modulus (GPa) = 26.41553 34.74143 30.57848
#
# Velocity S-wave (km/s) = 3.23182 3.70630 3.47716
# Velocity P-wave (km/s) = 5.22585 5.80628 5.52369
#
# Compressibility (1/GPa) = 0.02954403
#
# Stress axis : x y z
#
# Youngs Moduli (GPa) = 69.01511 80.19544 58.28502
#
# Poissons Ratio (x) = 0.08078 0.20066
# Poissons Ratio (y) = 0.06952 0.16530
# Poissons Ratio (z) = 0.23761 0.22744
#
# Static dielectric constant tensor:
#      x y z
#    x 1.971740 0.061530 0.034640 
#    y 0.061530 2.071970 0.030370 
#    z 0.034640 0.030370 2.047660 
# 
# From -- ./inp_files/82692.got.cif
#   From: 2010.05.17/outbox.cif.g08.bks.cpg/sg2_42_cif.got.tgz:82692.got - 2010.06.03 11:33:40.
