data_PCOD9002091
_publ_section_title
;
Structure prediction by ZEFSAII (Michael W. Deem and Ramdas Pophale) SiO2 
 PCOD9002091
Probable space group: P -1
;
_chemical_formula_sum "Si O2"
_cell_formula_units_Z 16
_cell_length_a 11.899358
_cell_length_b 14.035845
_cell_length_c 13.956605
_cell_angle_alpha 149.631166
_cell_angle_beta 69.321751
_cell_angle_gamma 129.676821
_cell_volume 781.177999
_symmetry_space_group_name_H-M "P -1"
_symmetry_group_IT_number 2
_symmetry_cell_setting 'triclinic'
loop_
_space_group_symop_operation_xyz
x,y,z
-x,-y,-z
loop_
_atom_site_type_symbol
_atom_site_label
_atom_site_fract_x
_atom_site_fract_y
_atom_site_fract_z
Si Si1 0.352835 0.434414 0.611627
Si Si2 0.640318 0.477360 0.511088
Si Si3 0.006598 0.567580 0.713230
Si Si4 0.170236 0.268378 0.135464
Si Si5 0.757424 0.063444 0.218266
Si Si6 0.941083 0.416421 0.070419
Si Si7 0.915786 0.088565 0.651484
Si Si8 0.430792 0.890655 0.099474
O O1 0.531172 0.540369 0.622596
O O2 0.256924 0.362756 0.477247
O O3 0.260475 0.189658 0.498156
O O4 0.386916 0.669767 0.852773
O O5 0.737128 0.543378 0.636493
O O6 0.516798 0.164604 0.259961
O O7 0.888525 0.620780 0.812963
O O8 0.886629 0.279257 0.448379
O O9 0.152353 0.778174 0.773392
O O10 0.079080 0.601578 0.825051
O O11 0.259241 0.182789 0.990242
O O12 0.000000 0.000000 0.000000
O O13 0.574701 0.963709 0.189800
O O14 0.065565 0.722269 0.266546
O O15 0.995116 0.277177 0.886224
O O16 0.755652 0.249757 0.933684
O O17 0.000000 0.000000 0.500000
#
# Coordination Sequence:
#
# PCOD9002091 Si02
#       8
#     2   2   2   2   2   2   2   2
#     4  11  24  37  64  92 130 168 210 267 328 377
#     4  11  23  37  59 102 131 163 206 268 329 387
#     4  10  23  40  58  93 137 171 205 258 316 392
#     4  10  21  36  57  86 134 173 204 242 315 397
#     4  10  22  36  62  94 133 171 203 252 332 386
#     4  11  26  40  67  95 125 170 220 269 315 374
#     4  11  24  45  62  93 126 173 223 265 312 377
#     4  12  22  37  63  96 129 161 209 270 325 378
#
# _framework density 20.481887
#
# number of rings (size 3 to 8) (size 9 to 14) (size 15 to 20)
#    0.000    1.250    5.000    0.375    7.000    1.000 
#    0.000    0.000    0.000    7.500    0.000    0.000 
#    0.000    0.000    0.000    0.000    0.000    0.000 
#
# Total GULP energy -89178.347121 kJ/mol
# GULP energy per Si atom -5573.646695 kJ/mol
# Density = 2.043527 g / cm^3
# Si number density = 20.481887 Si / 1000 Ang^3
#
#
#
# Elastic Constant Matrix: (Units=GPa)
#
#
# Indices 1 2 3 4 5 6 
#
# 1 69.7998 9.5808 32.1185 -3.6635 -3.3823 8.0184
# 2 9.5808 54.0713 34.5777 -2.3557 1.4040 1.7321
# 3 32.1185 34.5777 114.6762 -7.3757 -25.1556 -2.4333
# 4 -3.6635 -2.3557 -7.3757 24.4451 1.7922 -4.5649
# 5 -3.3823 1.4040 -25.1556 1.7922 35.5475 -1.5135
# 6 8.0184 1.7321 -2.4333 -4.5649 -1.5135 15.9278
#
#
#
# Elastic Compliance Matrix: (Units=1/GPa)
#
#
# Indices 1 2 3 4 5 6 
#
# 1 0.018183 0.001346 -0.006523 -0.000898 -0.003357 -0.010873
# 2 0.001346 0.024896 -0.009823 -0.000877 -0.008014 -0.005899
# 3 -0.006523 -0.009823 0.016506 0.003902 0.011639 0.009098
# 4 -0.000898 -0.000877 0.003902 0.044396 0.001067 0.013969
# 5 -0.003357 -0.008014 0.011639 0.001067 0.036657 0.008128
# 6 -0.010873 -0.005899 0.009098 0.013969 0.008128 0.075064
#
#
# Mechanical properties :
#
#
# Convention : Reuss Voigt Hill
#
# Bulk Modulus (GPa) = 33.80164 43.45569 38.62867
# Shear Modulus (GPa) = 19.56440 26.00209 22.78325
#
# Velocity S-wave (km/s) = 3.09399 3.56689 3.33883
# Velocity P-wave (km/s) = 5.41320 6.18275 5.81073
#
# Compressibility (1/GPa) = 0.02958436
#
# Stress axis : x y z
#
# Youngs Moduli (GPa) = 54.99658 40.16664 60.58251
#
# Poissons Ratio (x) = -0.05407 0.39521
# Poissons Ratio (y) = -0.07404 0.59512
# Poissons Ratio (z) = 0.35877 0.39457
#
# Static dielectric constant tensor:
#      x y z
#    x 1.827880 0.023170 -0.019220 
#    y 0.023170 1.739710 -0.012890 
#    z -0.019220 -0.012890 1.710790 
# 
# From -- ./inp_files/522642.got.cif
#   From: 2010.05.17/outbox.cif.g08.bks.cpg/sg2_262_cif.got.tgz:522642.got - 2010.06.03 11:33:40.
