data_PCOD9002504
_publ_section_title
;
Structure prediction by ZEFSAII (Michael W. Deem and Ramdas Pophale) SiO2 
 PCOD9002504
Probable space group: P -1
;
_chemical_formula_sum "Si O2"
_cell_formula_units_Z 12
_cell_length_a 4.949893
_cell_length_b 13.340868
_cell_length_c 9.297023
_cell_angle_alpha 70.485411
_cell_angle_beta 102.445834
_cell_angle_gamma 124.823541
_cell_volume 474.795661
_symmetry_space_group_name_H-M "P -1"
_symmetry_group_IT_number 2
_symmetry_cell_setting 'triclinic'
loop_
_space_group_symop_operation_xyz
x,y,z
-x,-y,-z
loop_
_atom_site_type_symbol
_atom_site_label
_atom_site_fract_x
_atom_site_fract_y
_atom_site_fract_z
Si Si1 0.064779 0.389342 0.059899
Si Si2 0.516707 0.152782 0.264992
Si Si3 0.674726 0.310174 0.653668
Si Si4 0.319256 0.922486 0.158576
Si Si5 0.281794 0.342177 0.808600
Si Si6 0.789420 0.732849 0.636161
O O1 0.260319 0.385712 0.223001
O O2 0.606405 0.369872 0.754750
O O3 0.000000 0.500000 0.000000
O O4 0.242965 0.382808 0.942392
O O5 0.276360 0.183142 0.302952
O O6 0.820470 0.186115 0.391608
O O7 0.353473 0.017075 0.240556
O O8 0.715380 0.256884 0.111465
O O9 0.540696 0.162542 0.734985
O O10 0.469474 0.312585 0.497885
O O11 0.065471 0.372134 0.661799
O O12 0.944424 0.812269 0.134379
O O13 0.500000 0.000000 0.000000
#
# Coordination Sequence:
#
# PCOD9002504 Si02
#       6
#     2   2   2   2   2   2
#     4  10  24  43  66  89 118 158 206 256 299 354
#     4  10  22  37  62  90 122 159 201 241 299 353
#     4  10  23  41  61  91 127 160 196 247 299 361
#     4  10  21  36  61  90 128 156 196 242 300 358
#     4  10  23  39  63  89 123 157 204 241 304 354
#     4  10  23  41  62  89 126 158 204 244 301 356
#
# _framework density 25.274031999999998
#
# number of rings (size 3 to 8) (size 9 to 14) (size 15 to 20)
#    2.000    0.000    1.667    1.000    7.000    2.667 
#    0.000    1.667    0.000    0.000    0.000    0.000 
#    0.000    0.000    0.000    0.000    0.000    0.000 
#
# Total GULP energy -67121.173065 kJ/mol
# GULP energy per Si atom -5593.431089 kJ/mol
# Density = 2.521651 g / cm^3
# Si number density = 25.274032 Si / 1000 Ang^3
#
#
#
# Elastic Constant Matrix: (Units=GPa)
#
#
# Indices 1 2 3 4 5 6 
#
# 1 103.6491 29.9253 5.8806 -15.6902 6.8921 -32.1394
# 2 29.9253 137.1077 49.8375 2.8108 1.0249 -36.8728
# 3 5.8806 49.8375 131.2365 -3.6517 24.4533 -22.2761
# 4 -15.6902 2.8108 -3.6517 21.9436 -9.0842 3.7176
# 5 6.8921 1.0249 24.4533 -9.0842 29.5227 6.2190
# 6 -32.1394 -36.8728 -22.2761 3.7176 6.2190 48.3667
#
#
#
# Elastic Compliance Matrix: (Units=1/GPa)
#
#
# Indices 1 2 3 4 5 6 
#
# 1 0.014461 -0.001660 0.002903 0.007030 -0.005638 0.009865
# 2 -0.001660 0.010367 -0.003030 -0.003930 0.000130 0.005690
# 3 0.002903 -0.003030 0.012141 -0.001960 -0.012705 0.006995
# 4 0.007030 -0.003930 -0.001960 0.060131 0.019973 -0.006417
# 5 -0.005638 0.000130 -0.012705 0.019973 0.055686 -0.018194
# 6 0.009865 0.005690 0.006995 -0.006417 -0.018194 0.037622
#
#
# Mechanical properties :
#
#
# Convention : Reuss Voigt Hill
#
# Bulk Modulus (GPa) = 29.94647 60.36445 45.15546
# Shear Modulus (GPa) = 24.37674 39.05658 31.71666
#
# Velocity S-wave (km/s) = 3.10901 3.93533 3.54632
# Velocity P-wave (km/s) = 4.97618 6.67719 5.88843
#
# Compressibility (1/GPa) = 0.03339291
#
# Stress axis : x y z
#
# Youngs Moduli (GPa) = 69.15345 96.45767 82.36801
#
# Poissons Ratio (x) = 0.16017 -0.23912
# Poissons Ratio (y) = 0.11483 0.24961
# Poissons Ratio (z) = -0.20076 0.29230
#
# Static dielectric constant tensor:
#      x y z
#    x 1.954760 0.082190 0.057580 
#    y 0.082190 2.039150 0.035670 
#    z 0.057580 0.035670 2.055960 
# 
# From -- ./inp_files/83701.got.cif
#   From: 2010.05.17/outbox.cif.g08.bks.cpg/sg2_42_cif.got.tgz:83701.got - 2010.06.03 11:33:40.
