data_PCOD9002871
_publ_section_title
;
Structure prediction by ZEFSAII (Michael W. Deem and Ramdas Pophale) SiO2 
 PCOD9002871
Probable space group: P -1
;
_chemical_formula_sum "Si O2"
_cell_formula_units_Z 16
_cell_length_a 9.172191
_cell_length_b 13.934545
_cell_length_c 9.738309
_cell_angle_alpha 135.094051
_cell_angle_beta 46.787597
_cell_angle_gamma 130.024829
_cell_volume 609.374878
_symmetry_space_group_name_H-M "P -1"
_symmetry_group_IT_number 2
_symmetry_cell_setting 'triclinic'
loop_
_space_group_symop_operation_xyz
x,y,z
-x,-y,-z
loop_
_atom_site_type_symbol
_atom_site_label
_atom_site_fract_x
_atom_site_fract_y
_atom_site_fract_z
Si Si1 0.312602 0.761314 0.922406
Si Si2 0.131107 0.641920 0.640133
Si Si3 0.371369 0.125259 0.821310
Si Si4 0.134914 0.264946 0.266171
Si Si5 0.163211 0.884190 0.495383
Si Si6 0.438575 0.524407 0.722537
Si Si7 0.397940 0.268444 0.671611
Si Si8 0.244066 0.062462 0.325428
O O1 0.171913 0.660261 0.793360
O O2 0.324832 0.645802 0.911397
O O3 0.547573 0.836438 0.784377
O O4 0.393860 0.876298 0.295882
O O5 0.357460 0.697113 0.481952
O O6 0.000000 0.500000 0.500000
O O7 0.002059 0.749068 0.795019
O O8 0.381847 0.249033 0.825804
O O9 0.236199 0.988014 0.685662
O O10 0.247147 0.142779 0.054889
O O11 0.333342 0.404909 0.286697
O O12 0.979220 0.262677 0.488975
O O13 0.967594 0.910059 0.563118
O O14 0.234587 0.897194 0.145058
O O15 0.500000 0.500000 0.500000
O O16 0.330094 0.387511 0.748524
O O17 0.291142 0.119836 0.510095
#
# Coordination Sequence:
#
# PCOD9002871 Si02
#       8
#     2   2   2   2   2   2   2   2
#     4  10  21  36  67 112 132 180 255 281 345 430
#     4  11  20  39  68 103 141 189 232 288 357 421
#     4  11  27  42  66 109 142 183 237 296 355 432
#     4  12  23  42  73 100 137 187 236 292 356 427
#     4  11  23  46  70 100 144 185 234 294 363 415
#     4  12  21  42  70 105 139 188 240 290 351 426
#     4  11  23  43  68 103 148 187 233 291 363 421
#     4  10  21  41  71 101 140 186 234 301 348 418
#
# _framework density 26.256418
#
# number of rings (size 3 to 8) (size 9 to 14) (size 15 to 20)
#    0.000    1.000    6.250    1.125    0.000    3.000 
#    0.000    1.250    0.000    4.500    0.000    0.000 
#    0.000    0.000    0.000    0.000    0.000    0.000 
#
# Total GULP energy -89360.595795 kJ/mol
# GULP energy per Si atom -5585.037237 kJ/mol
# Density = 2.619666 g / cm^3
# Si number density = 26.256418 Si / 1000 Ang^3
#
#
#
# Elastic Constant Matrix: (Units=GPa)
#
#
# Indices 1 2 3 4 5 6 
#
# 1 215.4661 56.4525 58.3437 0.8764 6.0588 -4.3574
# 2 56.4525 90.7558 22.7469 19.0904 -1.3974 -1.3143
# 3 58.3437 22.7469 80.7132 13.6709 -0.8329 14.1542
# 4 0.8764 19.0904 13.6709 38.4526 9.2062 3.4737
# 5 6.0588 -1.3974 -0.8329 9.2062 44.3480 -4.2391
# 6 -4.3574 -1.3143 14.1542 3.4737 -4.2391 54.7970
#
#
#
# Elastic Compliance Matrix: (Units=1/GPa)
#
#
# Indices 1 2 3 4 5 6 
#
# 1 0.007083 -0.004005 -0.004906 0.003897 -0.001866 0.001343
# 2 -0.004005 0.015330 -0.000150 -0.008214 0.002812 0.000826
# 3 -0.004906 -0.000150 0.017829 -0.006194 0.001860 -0.004462
# 4 0.003897 -0.008214 -0.006194 0.034239 -0.008119 -0.001086
# 5 -0.001866 0.002812 0.001860 -0.008119 0.024792 0.001871
# 6 0.001343 0.000826 -0.004462 -0.001086 0.001871 0.019742
#
#
# Mechanical properties :
#
#
# Convention : Reuss Voigt Hill
#
# Bulk Modulus (GPa) = 45.20714 73.55793 59.38253
# Shear Modulus (GPa) = 34.59972 44.14568 39.37270
#
# Velocity S-wave (km/s) = 3.63404 4.10485 3.87660
# Velocity P-wave (km/s) = 5.90451 7.10932 6.53474
#
# Compressibility (1/GPa) = 0.02212040
#
# Stress axis : x y z
#
# Youngs Moduli (GPa) = 141.19230 65.22966 56.08889
#
# Poissons Ratio (x) = 0.26124 0.27515
# Poissons Ratio (y) = 0.56546 0.00842
# Poissons Ratio (z) = 0.69264 0.00979
#
# Static dielectric constant tensor:
#      x y z
#    x 2.123630 -0.195460 0.003330 
#    y -0.195460 2.243790 -0.016480 
#    z 0.003330 -0.016480 2.105800 
# 
# From -- ./inp_files/204410.got.cif
#   From: 2010.05.17/outbox.cif.g08.bks.cpg/sg2_103_cif.got.tgz:204410.got - 2010.06.03 11:33:40.
