data_PCOD9002100
_publ_section_title
;
Structure prediction by ZEFSAII (Michael W. Deem and Ramdas Pophale) SiO2 
 PCOD9002100
Probable space group: P -1
;
_chemical_formula_sum "Si O2"
_cell_formula_units_Z 14
_cell_length_a 9.572113
_cell_length_b 15.367964
_cell_length_c 11.463472
_cell_angle_alpha 139.997779
_cell_angle_beta 138.717773
_cell_angle_gamma 38.821507
_cell_volume 627.512549
_symmetry_space_group_name_H-M "P -1"
_symmetry_group_IT_number 2
_symmetry_cell_setting 'triclinic'
loop_
_space_group_symop_operation_xyz
x,y,z
-x,-y,-z
loop_
_atom_site_type_symbol
_atom_site_label
_atom_site_fract_x
_atom_site_fract_y
_atom_site_fract_z
Si Si1 0.055804 0.012097 0.739142
Si Si2 0.826440 0.940361 0.708001
Si Si3 0.646740 0.118946 0.001371
Si Si4 0.144216 0.756360 0.352118
Si Si5 0.365747 0.448589 0.644635
Si Si6 0.732505 0.560984 0.973935
Si Si7 0.892927 0.619318 0.375422
O O1 0.014587 0.135127 0.741171
O O2 0.829616 0.056437 0.730603
O O3 0.087666 0.857090 0.535859
O O4 0.280978 0.971275 0.923671
O O5 0.790527 0.802694 0.495219
O O6 0.659183 0.019174 0.794459
O O7 0.110555 0.862677 0.845703
O O8 0.400686 0.277289 0.010869
O O9 0.420175 0.704691 0.435981
O O10 0.136258 0.595144 0.181476
O O11 0.254237 0.416968 0.656235
O O12 0.163305 0.535761 0.509986
O O13 0.502882 0.544507 0.860829
O O14 0.873921 0.560308 0.176499
#
# Coordination Sequence:
#
# PCOD9002100 Si02
#       7
#     2   2   2   2   2   2   2
#     4   9  18  37  64  80 111 158 187 236 276 351
#     4   9  19  34  57  84 114 146 188 235 289 330
#     4   9  19  35  58  84 114 145 189 236 288 325
#     4   9  20  37  60  82 112 157 194 219 294 334
#     4   9  21  35  55  86 117 149 191 233 281 340
#     4  10  21  36  57  88 108 156 188 231 289 336
#     4  11  20  35  58  86 121 145 190 242 283 332
#
# _framework density 22.310310000000001
#
# number of rings (size 3 to 8) (size 9 to 14) (size 15 to 20)
#    1.714    0.857    1.429    0.429    2.000    3.429 
#    0.000    0.714    0.000    2.571    0.000    0.000 
#    0.000    0.000    0.000    0.000    0.000    0.000 
#
# Total GULP energy -78033.003747 kJ/mol
# GULP energy per Si atom -5573.785982 kJ/mol
# Density = 2.225953 g / cm^3
# Si number density = 22.310310 Si / 1000 Ang^3
#
#
#
# Elastic Constant Matrix: (Units=GPa)
#
#
# Indices 1 2 3 4 5 6 
#
# 1 57.3104 30.2963 36.1189 -11.7258 -15.6581 0.2695
# 2 30.2963 74.3838 20.1412 -7.7735 -12.5197 -7.9731
# 3 36.1189 20.1412 85.9183 -8.8407 -17.3491 -3.6889
# 4 -11.7258 -7.7735 -8.8407 27.0278 2.4303 -5.7549
# 5 -15.6581 -12.5197 -17.3491 2.4303 21.1760 -0.2444
# 6 0.2695 -7.9731 -3.6889 -5.7549 -0.2444 20.5107
#
#
#
# Elastic Compliance Matrix: (Units=1/GPa)
#
#
# Indices 1 2 3 4 5 6 
#
# 1 0.031618 -0.008395 -0.008630 0.006856 0.010522 -0.003182
# 2 -0.008395 0.018795 0.000929 0.003417 0.005373 0.008606
# 3 -0.008630 0.000929 0.017074 0.002307 0.007941 0.004287
# 4 0.006856 0.003417 0.002307 0.044359 0.004052 0.014147
# 5 0.010522 0.005373 0.007941 0.004052 0.064282 0.005282
# 6 -0.003182 0.008606 0.004287 0.014147 0.005282 0.056946
#
#
# Mechanical properties :
#
#
# Convention : Reuss Voigt Hill
#
# Bulk Modulus (GPa) = 28.33208 43.41392 35.87300
# Shear Modulus (GPa) = 18.04847 22.47998 20.26422
#
# Velocity S-wave (km/s) = 2.84733 3.17772 3.01705
# Velocity P-wave (km/s) = 4.85143 5.74154 5.31515
#
# Compressibility (1/GPa) = 0.03529568
#
# Stress axis : x y z
#
# Youngs Moduli (GPa) = 31.62733 53.20468 58.56783
#
# Poissons Ratio (x) = 0.44664 0.50547
# Poissons Ratio (y) = 0.26550 -0.05441
# Poissons Ratio (z) = 0.27296 -0.04943
#
# Static dielectric constant tensor:
#      x y z
#    x 1.862930 -0.020880 0.043730 
#    y -0.020880 1.838510 0.002780 
#    z 0.043730 0.002780 1.811420 
# 
# From -- ./inp_files/435094.got.cif
#   From: 2010.05.17/outbox.cif.g08.bks.cpg/sg2_218_cif.got.tgz:435094.got - 2010.06.03 11:33:40.
