data_PCOD9002538
_publ_section_title
;
Structure prediction by ZEFSAII (Michael W. Deem and Ramdas Pophale) SiO2 
 PCOD9002538
Probable space group: P -1
;
_chemical_formula_sum "Si O2"
_cell_formula_units_Z 12
_cell_length_a 11.489013
_cell_length_b 5.216667
_cell_length_c 21.497799
_cell_angle_alpha 90.403145
_cell_angle_beta 25.012423
_cell_angle_gamma 98.692322
_cell_volume 511.843878
_symmetry_space_group_name_H-M "P -1"
_symmetry_group_IT_number 2
_symmetry_cell_setting 'triclinic'
loop_
_space_group_symop_operation_xyz
x,y,z
-x,-y,-z
loop_
_atom_site_type_symbol
_atom_site_label
_atom_site_fract_x
_atom_site_fract_y
_atom_site_fract_z
Si Si1 0.161709 0.906178 0.237347
Si Si2 0.618239 0.444019 0.509154
Si Si3 0.787496 0.657674 0.033532
Si Si4 0.698985 0.764429 0.941928
Si Si5 0.307995 0.039369 0.455975
Si Si6 0.597308 0.095504 0.191145
O O1 0.970200 0.586959 0.331957
O O2 0.028337 0.023107 0.359172
O O3 0.084888 0.039079 0.212071
O O4 0.493941 0.929260 0.068084
O O5 0.500000 0.500000 0.500000
O O6 0.540864 0.644859 0.596003
O O7 0.560450 0.151477 0.567109
O O8 0.628093 0.352093 0.133366
O O9 0.601409 0.839716 0.148620
O O10 0.826216 0.673943 0.940927
O O11 0.103259 0.792848 0.912768
O O12 0.500000 0.500000 0.000000
O O13 0.346795 0.011086 0.364367
#
# Coordination Sequence:
#
# PCOD9002538 Si02
#       6
#     2   2   2   2   2   2
#     4   9  24  38  62  98 126 171 209 265 328 384
#     4  10  21  36  61  96 129 164 212 262 330 371
#     4  10  24  41  67  93 126 172 219 261 322 379
#     4  11  23  43  67  92 137 170 217 267 322 393
#     4  10  21  39  62  90 133 158 211 272 314 385
#     4  10  22  44  64  96 127 168 219 267 315 382
#
# _framework density 23.444648999999998
#
# number of rings (size 3 to 8) (size 9 to 14) (size 15 to 20)
#    1.000    1.000    0.000    2.500    7.000    1.333 
#    0.000    1.667    0.000    0.000    0.000    0.000 
#    0.000    0.000    0.000    0.000    0.000    0.000 
#
# Total GULP energy -66992.012172 kJ/mol
# GULP energy per Si atom -5582.667681 kJ/mol
# Density = 2.339129 g / cm^3
# Si number density = 23.444649 Si / 1000 Ang^3
#
#
#
# Elastic Constant Matrix: (Units=GPa)
#
#
# Indices 1 2 3 4 5 6 
#
# 1 71.0755 12.1534 12.8964 -3.8740 20.8469 -2.1071
# 2 12.1534 127.7786 24.0388 4.7636 7.3749 -15.5647
# 3 12.8964 24.0388 114.2175 4.9902 33.5185 -6.6436
# 4 -3.8740 4.7636 4.9902 23.4531 -0.6974 14.4980
# 5 20.8469 7.3749 33.5185 -0.6974 28.4857 -5.2671
# 6 -2.1071 -15.5647 -6.6436 14.4980 -5.2671 27.5148
#
#
#
# Elastic Compliance Matrix: (Units=1/GPa)
#
#
# Indices 1 2 3 4 5 6 
#
# 1 0.019353 -0.002282 0.002978 0.006017 -0.017984 -0.005703
# 2 -0.002282 0.009647 -0.001677 -0.007764 0.002710 0.009487
# 3 0.002978 -0.001677 0.014452 -0.003414 -0.018650 0.000998
# 4 0.006017 -0.007764 -0.003414 0.073111 -0.004757 -0.044189
# 5 -0.017984 0.002710 -0.018650 -0.004757 0.071587 0.011863
# 6 -0.005703 0.009487 0.000998 -0.044189 0.011863 0.067070
#
#
# Mechanical properties :
#
#
# Convention : Reuss Voigt Hill
#
# Bulk Modulus (GPa) = 24.10170 45.69431 34.89800
# Shear Modulus (GPa) = 18.44933 33.48958 25.96945
#
# Velocity S-wave (km/s) = 2.80827 3.78359 3.33181
# Velocity P-wave (km/s) = 4.56265 6.21450 5.45150
#
# Compressibility (1/GPa) = 0.04149084
#
# Stress axis : x y z
#
# Youngs Moduli (GPa) = 51.67131 103.65651 69.19382
#
# Poissons Ratio (x) = 0.23655 -0.20607
# Poissons Ratio (y) = 0.11792 0.11603
# Poissons Ratio (z) = -0.15388 0.17382
#
# Static dielectric constant tensor:
#      x y z
#    x 1.928940 -0.014800 -0.041150 
#    y -0.014800 1.870840 0.023110 
#    z -0.041150 0.023110 1.906180 
# 
# From -- ./inp_files/61627.got.cif
#   From: 2010.05.17/outbox.cif.g08.bks.cpg/sg2_31_cif.got.tgz:61627.got - 2010.06.03 11:33:40.
