data_PCOD9002779
_publ_section_title
;
Structure prediction by ZEFSAII (Michael W. Deem and Ramdas Pophale) SiO2 
 PCOD9002779
Probable space group: P -1
;
_chemical_formula_sum "Si O2"
_cell_formula_units_Z 16
_cell_length_a 8.912033
_cell_length_b 12.214205
_cell_length_c 9.200427
_cell_angle_alpha 50.255407
_cell_angle_beta 78.469423
_cell_angle_gamma 94.461728
_cell_volume 725.873749
_symmetry_space_group_name_H-M "P -1"
_symmetry_group_IT_number 2
_symmetry_cell_setting 'triclinic'
loop_
_space_group_symop_operation_xyz
x,y,z
-x,-y,-z
loop_
_atom_site_type_symbol
_atom_site_label
_atom_site_fract_x
_atom_site_fract_y
_atom_site_fract_z
Si Si1 0.318820 0.329531 0.834366
Si Si2 0.216249 0.758064 0.066196
Si Si3 0.044749 0.494172 0.162933
Si Si4 0.727798 0.255119 0.480872
Si Si5 0.331385 0.377899 0.121768
Si Si6 0.683667 0.006032 0.923430
Si Si7 0.538821 0.169876 0.302746
Si Si8 0.665828 0.437415 0.574196
O O1 0.505971 0.420087 0.710175
O O2 0.254790 0.405319 0.646808
O O3 0.272842 0.359150 0.981527
O O4 0.298525 0.157200 0.959843
O O5 0.077299 0.661243 0.074957
O O6 0.215507 0.900307 0.042041
O O7 0.227775 0.634642 0.285938
O O8 0.371880 0.802328 0.893526
O O9 0.202051 0.433775 0.190133
O O10 0.899208 0.371423 0.364573
O O11 0.000000 0.500000 0.000000
O O12 0.726056 0.099351 0.686437
O O13 0.663190 0.249510 0.335473
O O14 0.615555 0.322662 0.547010
O O15 0.382919 0.230414 0.280305
O O16 0.500000 0.500000 0.000000
O O17 0.500000 0.000000 0.000000
O O18 0.500000 0.000000 0.500000
#
# Coordination Sequence:
#
# PCOD9002779 Si02
#       8
#     2   2   2   2   2   2   2   2
#     4  11  20  37  62  95 135 167 217 283 338 385
#     4  11  22  42  64  96 130 177 222 274 336 401
#     4  12  24  44  68  98 143 178 229 281 341 403
#     4  11  23  41  69  99 132 182 218 279 352 393
#     4  12  22  41  69 100 134 175 233 284 325 401
#     4  11  21  41  65  98 137 173 219 280 338 408
#     4  12  23  40  67 103 133 173 231 278 342 401
#     4  10  21  36  64  95 126 168 223 275 334 394
#
# _framework density 22.042401999999999
#
# number of rings (size 3 to 8) (size 9 to 14) (size 15 to 20)
#    0.000    0.750    6.250    3.000    0.000    3.000 
#    0.000    2.500    0.000    3.750    0.000    0.000 
#    0.000    0.000    0.000    0.000    0.000    0.000 
#
# Total GULP energy -89374.145731 kJ/mol
# GULP energy per Si atom -5585.884108 kJ/mol
# Density = 2.199223 g / cm^3
# Si number density = 22.042402 Si / 1000 Ang^3
#
#
#
# Elastic Constant Matrix: (Units=GPa)
#
#
# Indices 1 2 3 4 5 6 
#
# 1 60.2274 17.8830 14.6320 -5.0822 -8.9317 3.4513
# 2 17.8830 125.6870 42.8207 -4.8327 11.4180 10.7624
# 3 14.6320 42.8207 129.9641 -18.8475 11.2689 -3.1571
# 4 -5.0822 -4.8327 -18.8475 46.7615 -1.4869 6.4317
# 5 -8.9317 11.4180 11.2689 -1.4869 30.1925 1.3689
# 6 3.4513 10.7624 -3.1571 6.4317 1.3689 33.6005
#
#
#
# Elastic Compliance Matrix: (Units=1/GPa)
#
#
# Indices 1 2 3 4 5 6 
#
# 1 0.019150 -0.002574 -0.001769 0.001604 0.007465 -0.001920
# 2 -0.002574 0.009810 -0.002736 -0.000063 -0.003318 -0.002987
# 3 -0.001769 -0.002736 0.009533 0.003069 -0.002963 0.001487
# 4 0.001604 -0.000063 0.003069 0.023413 0.000704 -0.004366
# 5 0.007465 -0.003318 -0.002963 0.000704 0.037800 -0.001657
# 6 -0.001920 -0.002987 0.001487 -0.004366 -0.001657 0.031959
#
#
# Mechanical properties :
#
#
# Convention : Reuss Voigt Hill
#
# Bulk Modulus (GPa) = 41.09537 51.83888 46.46713
# Shear Modulus (GPa) = 32.48138 38.14708 35.31423
#
# Velocity S-wave (km/s) = 3.84290 4.16459 4.00697
# Velocity P-wave (km/s) = 6.19473 6.83329 6.52183
#
# Compressibility (1/GPa) = 0.02433364
#
# Stress axis : x y z
#
# Youngs Moduli (GPa) = 52.21863 101.94164 104.89585
#
# Poissons Ratio (x) = 0.26240 0.18559
# Poissons Ratio (y) = 0.13441 0.28703
# Poissons Ratio (z) = 0.09239 0.27895
#
# Static dielectric constant tensor:
#      x y z
#    x 1.878600 0.007700 0.029090 
#    y 0.007700 1.857380 0.002860 
#    z 0.029090 0.002860 1.832030 
# 
# From -- ./inp_files/184129.got.cif
#   From: 2010.05.17/outbox.cif.g08.bks.cpg/sg2_93_cif.got.tgz:184129.got - 2010.06.03 11:33:40.
