data_PCOD9002475
_publ_section_title
;
Structure prediction by ZEFSAII (Michael W. Deem and Ramdas Pophale) SiO2 
 PCOD9002475
Probable space group: P -1
;
_chemical_formula_sum "Si O2"
_cell_formula_units_Z 14
_cell_length_a 12.259429
_cell_length_b 9.168473
_cell_length_c 11.422692
_cell_angle_alpha 47.368183
_cell_angle_beta 121.933973
_cell_angle_gamma 145.797207
_cell_volume 529.469224
_symmetry_space_group_name_H-M "P -1"
_symmetry_group_IT_number 2
_symmetry_cell_setting 'triclinic'
loop_
_space_group_symop_operation_xyz
x,y,z
-x,-y,-z
loop_
_atom_site_type_symbol
_atom_site_label
_atom_site_fract_x
_atom_site_fract_y
_atom_site_fract_z
Si Si1 0.036905 0.358174 0.681678
Si Si2 0.215674 0.293169 0.220078
Si Si3 0.479033 0.582871 0.794339
Si Si4 0.208195 0.127648 0.543929
Si Si5 0.595217 0.994759 0.413501
Si Si6 0.169648 0.970658 0.871125
Si Si7 0.715176 0.104041 0.817189
O O1 0.267602 0.654894 0.674555
O O2 0.000000 0.500000 0.500000
O O3 0.928283 0.056256 0.712918
O O4 0.916564 0.273064 0.776723
O O5 0.295579 0.362981 0.360051
O O6 0.064074 0.295625 0.119554
O O7 0.396737 0.470514 0.143380
O O8 0.259622 0.251325 0.849434
O O9 0.570720 0.775439 0.857909
O O10 0.539597 0.806965 0.600868
O O11 0.267081 0.984624 0.598603
O O12 0.244478 0.124979 0.702190
O O13 0.000000 0.000000 0.500000
O O14 0.391847 0.822033 0.330812
O O15 0.247199 0.868516 0.038755
#
# Coordination Sequence:
#
# PCOD9002475 Si02
#       7
#     2   2   2   2   2   2   2
#     4  11  20  38  64  88 114 151 194 248 292 334
#     4   9  20  37  61  85 112 155 201 237 282 345
#     4  10  21  36  61  87 113 152 199 239 288 343
#     4   9  20  39  60  84 116 157 201 234 281 350
#     4  11  22  38  63  89 114 152 202 245 277 350
#     4  11  23  38  57  86 125 157 186 240 295 345
#     4  11  24  36  59  93 120 149 193 242 303 343
#
# _framework density 26.441573999999999
#
# number of rings (size 3 to 8) (size 9 to 14) (size 15 to 20)
#    0.000    1.714    4.286    1.714    2.000    6.286 
#    0.000    2.143    0.000    0.000    0.000    0.000 
#    0.000    0.000    0.000    0.000    0.000    0.000 
#
# Total GULP energy -78013.536255 kJ/mol
# GULP energy per Si atom -5572.395447 kJ/mol
# Density = 2.638139 g / cm^3
# Si number density = 26.441574 Si / 1000 Ang^3
#
#
#
# Elastic Constant Matrix: (Units=GPa)
#
#
# Indices 1 2 3 4 5 6 
#
# 1 87.4089 20.8360 39.7762 7.6069 -13.3617 -4.9281
# 2 20.8360 79.7178 47.5745 0.6058 0.9631 -3.3886
# 3 39.7762 47.5745 189.1470 50.9535 -20.4686 15.5173
# 4 7.6069 0.6058 50.9535 36.7170 2.8379 -0.0683
# 5 -13.3617 0.9631 -20.4686 2.8379 28.6265 0.5385
# 6 -4.9281 -3.3886 15.5173 -0.0683 0.5385 40.1320
#
#
#
# Elastic Compliance Matrix: (Units=1/GPa)
#
#
# Indices 1 2 3 4 5 6 
#
# 1 0.013820 -0.002734 -0.001431 -0.001261 0.005608 0.001942
# 2 -0.002734 0.019361 -0.009825 0.014703 -0.010509 0.005264
# 3 -0.001431 -0.009825 0.016563 -0.023622 0.013991 -0.007637
# 4 -0.001261 0.014703 -0.023622 0.061934 -0.024314 0.010652
# 5 0.005608 -0.010509 0.013991 -0.024314 0.050437 -0.006326
# 6 0.001942 0.005264 -0.007637 0.010652 -0.006326 0.028657
#
#
# Mechanical properties :
#
#
# Convention : Reuss Voigt Hill
#
# Bulk Modulus (GPa) = 45.94572 63.62747 54.78659
# Shear Modulus (GPa) = 22.12330 37.63422 29.87876
#
# Velocity S-wave (km/s) = 2.89569 3.77675 3.36518
# Velocity P-wave (km/s) = 5.34734 6.56766 5.98867
#
# Compressibility (1/GPa) = 0.02176481
#
# Stress axis : x y z
#
# Youngs Moduli (GPa) = 72.35919 51.65047 60.37538
#
# Poissons Ratio (x) = 0.14119 0.08642
# Poissons Ratio (y) = 0.19780 0.59317
# Poissons Ratio (z) = 0.10357 0.50745
#
# Static dielectric constant tensor:
#      x y z
#    x 2.289960 0.075710 0.069760 
#    y 0.075710 2.164790 -0.020790 
#    z 0.069760 -0.020790 2.161830 
# 
# From -- ./inp_files/307085.got.cif
#   From: 2010.05.17/outbox.cif.g08.bks.cpg/sg2_154_cif.got.tgz:307085.got - 2010.06.03 11:33:40.
