data_PCOD9002922
_publ_section_title
;
Structure prediction by ZEFSAII (Michael W. Deem and Ramdas Pophale) SiO2 
 PCOD9002922
Probable space group: P -1
;
_chemical_formula_sum "Si O2"
_cell_formula_units_Z 16
_cell_length_a 11.871121
_cell_length_b 5.271884
_cell_length_c 18.817492
_cell_angle_alpha 76.470388
_cell_angle_beta 61.966130
_cell_angle_gamma 113.768024
_cell_volume 810.197422
_symmetry_space_group_name_H-M "P -1"
_symmetry_group_IT_number 2
_symmetry_cell_setting 'triclinic'
loop_
_space_group_symop_operation_xyz
x,y,z
-x,-y,-z
loop_
_atom_site_type_symbol
_atom_site_label
_atom_site_fract_x
_atom_site_fract_y
_atom_site_fract_z
Si Si1 0.508578 0.769513 0.831472
Si Si2 0.873402 0.252639 0.709742
Si Si3 0.172078 0.898185 0.842278
Si Si4 0.599259 0.352906 0.982363
Si Si5 0.936953 0.177430 0.966855
Si Si6 0.914729 0.968367 0.844500
Si Si7 0.512009 0.343601 0.741092
Si Si8 0.121622 0.158901 0.388750
O O1 0.385360 0.675758 0.936298
O O2 0.486668 0.478662 0.812735
O O3 0.685095 0.987306 0.797932
O O4 0.507812 0.025196 0.766966
O O5 0.898191 0.586714 0.662417
O O6 0.958697 0.229095 0.754016
O O7 0.905623 0.111123 0.640571
O O8 0.089209 0.525434 0.870440
O O9 0.055713 0.968089 0.836113
O O10 0.352422 0.200605 0.752818
O O11 0.159977 0.834671 0.936207
O O12 0.500000 0.500000 0.000000
O O13 0.774027 0.608705 0.881294
O O14 0.500000 0.000000 0.000000
O O15 0.841843 0.017924 0.933217
O O16 0.000000 0.000000 0.000000
O O17 0.695448 0.636224 0.650353
O O18 0.000000 0.000000 0.500000
#
# Coordination Sequence:
#
# PCOD9002922 Si02
#       8
#     2   2   2   2   2   2   2   2
#     4  10  21  37  53  83 118 153 202 239 285 338
#     4  10  22  38  63  90 118 151 190 245 309 364
#     4  10  22  36  57  81 121 166 210 243 286 333
#     4  12  25  35  52  78 122 163 199 237 284 338
#     4   9  21  37  51  79 116 170 212 240 270 327
#     4  11  24  36  56  84 124 161 205 246 293 346
#     4  10  22  37  62  85 113 153 199 247 291 355
#     4  10  22  43  68  92 115 145 190 252 319 381
#
# _framework density 19.748272
#
# number of rings (size 3 to 8) (size 9 to 14) (size 15 to 20)
#    0.000    1.750    1.250    1.875   15.750    0.000 
#    0.000    0.000    0.000    1.500    0.000    0.000 
#    0.000    0.000    0.000    0.000    0.000    0.000 
#
# Total GULP energy -89124.203743 kJ/mol
# GULP energy per Si atom -5570.262734 kJ/mol
# Density = 1.970332 g / cm^3
# Si number density = 19.748272 Si / 1000 Ang^3
#
#
#
# Elastic Constant Matrix: (Units=GPa)
#
#
# Indices 1 2 3 4 5 6 
#
# 1 118.2706 20.0671 25.0631 -8.0056 -0.9375 3.4078
# 2 20.0671 81.7691 15.6357 -7.9055 -4.9341 -4.9428
# 3 25.0631 15.6357 66.7563 -2.0314 -6.5407 5.7170
# 4 -8.0056 -7.9055 -2.0314 19.3481 0.9036 -4.4403
# 5 -0.9375 -4.9341 -6.5407 0.9036 20.8835 -3.8283
# 6 3.4078 -4.9428 5.7170 -4.4403 -3.8283 28.6966
#
#
#
# Elastic Compliance Matrix: (Units=1/GPa)
#
#
# Indices 1 2 3 4 5 6 
#
# 1 0.009606 -0.001553 -0.003227 0.002949 -0.001159 -0.000464
# 2 -0.001553 0.014117 -0.002634 0.005724 0.003005 0.004427
# 3 -0.003227 -0.002634 0.017447 -0.001514 0.004172 -0.003224
# 4 0.002949 0.005724 -0.001514 0.057330 0.000336 0.009853
# 5 -0.001159 0.003005 0.004172 0.000336 0.051061 0.006688
# 6 -0.000464 0.004427 -0.003224 0.009853 0.006688 0.038724
#
#
# Mechanical properties :
#
#
# Convention : Reuss Voigt Hill
#
# Bulk Modulus (GPa) = 37.96216 43.14755 40.55486
# Shear Modulus (GPa) = 23.59669 27.52098 25.55883
#
# Velocity S-wave (km/s) = 3.46044 3.73713 3.60145
# Velocity P-wave (km/s) = 5.93557 6.36535 6.15422
#
# Compressibility (1/GPa) = 0.02634202
#
# Stress axis : x y z
#
# Youngs Moduli (GPa) = 104.09768 70.83775 57.31631
#
# Poissons Ratio (x) = 0.11003 0.18495
# Poissons Ratio (y) = 0.16170 0.15096
# Poissons Ratio (z) = 0.33591 0.18657
#
# Static dielectric constant tensor:
#      x y z
#    x 1.786640 -0.000900 -0.026450 
#    y -0.000900 1.838080 -0.014650 
#    z -0.026450 -0.014650 1.714830 
# 
# From -- ./inp_files/76507.got.cif
#   From: 2010.05.17/outbox.cif.g08.bks.cpg/sg2_39_cif.got.tgz:76507.got - 2010.06.03 11:33:40.
