data_PCOD9002305
_publ_section_title
;
Structure prediction by ZEFSAII (Michael W. Deem and Ramdas Pophale) SiO2 
 PCOD9002305
Probable space group: P -1
;
_chemical_formula_sum "Si O2"
_cell_formula_units_Z 16
_cell_length_a 21.968194
_cell_length_b 12.072268
_cell_length_c 6.891866
_cell_angle_alpha 103.471565
_cell_angle_beta 111.121499
_cell_angle_gamma 135.722532
_cell_volume 782.022493
_symmetry_space_group_name_H-M "P -1"
_symmetry_group_IT_number 2
_symmetry_cell_setting 'triclinic'
loop_
_space_group_symop_operation_xyz
x,y,z
-x,-y,-z
loop_
_atom_site_type_symbol
_atom_site_label
_atom_site_fract_x
_atom_site_fract_y
_atom_site_fract_z
Si Si1 0.977600 0.515576 0.692302
Si Si2 0.922683 0.696363 0.760572
Si Si3 0.065796 0.108526 0.829826
Si Si4 0.374992 0.514179 0.444060
Si Si5 0.470195 0.698479 0.217060
Si Si6 0.225337 0.896861 0.416404
Si Si7 0.603326 0.250706 0.138308
Si Si8 0.353576 0.327716 0.697409
O O1 0.969621 0.640396 0.750664
O O2 0.837781 0.248609 0.517013
O O3 0.000000 0.500000 0.500000
O O4 0.110964 0.685096 0.041415
O O5 0.759665 0.452247 0.430870
O O6 0.950840 0.793673 0.045929
O O7 0.994302 0.899791 0.788985
O O8 0.227724 0.327592 0.114962
O O9 0.000000 0.000000 0.500000
O O10 0.473771 0.670631 0.435325
O O11 0.419728 0.674514 0.721360
O O12 0.358020 0.373734 0.496356
O O13 0.622336 0.912552 0.387914
O O14 0.426741 0.757212 0.120486
O O15 0.351673 0.435713 0.875459
O O16 0.241458 0.058839 0.500461
O O17 0.500000 0.000000 0.000000
O O18 0.500000 0.500000 0.000000
#
# Coordination Sequence:
#
# PCOD9002305 Si02
#       8
#     2   2   2   2   2   2   2   2
#     4  11  25  42  61  85 121 169 208 248 302 365
#     4  10  22  40  61  90 123 157 207 255 303 368
#     4  10  21  38  64  93 123 158 199 256 315 365
#     4  10  21  36  59  92 119 155 205 249 312 381
#     4  10  21  38  62  90 121 154 199 258 316 368
#     4  10  23  40  58  86 119 157 207 252 300 366
#     4  10  21  38  59  86 123 160 197 253 313 367
#     4   9  20  37  58  84 118 155 196 255 308 356
#
# _framework density 20.459769000000001
#
# number of rings (size 3 to 8) (size 9 to 14) (size 15 to 20)
#    0.000    2.000    0.000    2.250    0.000   13.500 
#    0.000    0.000    0.000    0.000    0.000    0.000 
#    0.000    0.000    0.000    0.000    0.000    0.000 
#
# Total GULP energy -89270.310668 kJ/mol
# GULP energy per Si atom -5579.394417 kJ/mol
# Density = 2.041320 g / cm^3
# Si number density = 20.459769 Si / 1000 Ang^3
#
#
#
# Elastic Constant Matrix: (Units=GPa)
#
#
# Indices 1 2 3 4 5 6 
#
# 1 82.0598 45.9441 43.2519 -7.8297 -10.0122 0.8395
# 2 45.9441 109.0067 41.2394 1.3886 -17.6166 -0.2355
# 3 43.2519 41.2394 69.0331 -9.9419 -0.3776 7.8123
# 4 -7.8297 1.3886 -9.9419 46.5951 4.0034 -0.0403
# 5 -10.0122 -17.6166 -0.3776 4.0034 18.1215 0.6244
# 6 0.8395 -0.2355 7.8123 -0.0403 0.6244 33.8124
#
#
#
# Elastic Compliance Matrix: (Units=1/GPa)
#
#
# Indices 1 2 3 4 5 6 
#
# 1 0.020973 -0.003290 -0.011271 0.000534 0.007970 0.001914
# 2 -0.003290 0.016075 -0.008250 -0.004033 0.014465 0.001828
# 3 -0.011271 -0.008250 0.027867 0.005555 -0.014689 -0.005938
# 4 0.000534 -0.004033 0.005555 0.023602 -0.008685 -0.001136
# 5 0.007970 0.014465 -0.014689 -0.008685 0.075196 0.001898
# 6 0.001914 0.001828 -0.005938 -0.001136 0.001898 0.030876
#
#
# Mechanical properties :
#
#
# Convention : Reuss Voigt Hill
#
# Bulk Modulus (GPa) = 51.83218 57.88561 54.85889
# Shear Modulus (GPa) = 20.27231 28.35007 24.31119
#
# Velocity S-wave (km/s) = 3.15117 3.72647 3.45083
# Velocity P-wave (km/s) = 6.21519 6.84611 6.53826
#
# Compressibility (1/GPa) = 0.01929304
#
# Stress axis : x y z
#
# Youngs Moduli (GPa) = 47.68076 62.20956 35.88413
#
# Poissons Ratio (x) = 0.20469 0.40444
# Poissons Ratio (y) = 0.15688 0.29604
# Poissons Ratio (z) = 0.53740 0.51323
#
# Static dielectric constant tensor:
#      x y z
#    x 1.732250 -0.026540 -0.031460 
#    y -0.026540 1.758290 -0.018320 
#    z -0.031460 -0.018320 1.708740 
# 
# From -- ./inp_files/123723.got.cif
#   From: 2010.05.17/outbox.cif.g08.bks.cpg/sg2_62_cif.got.tgz:123723.got - 2010.06.03 11:33:40.
