data_PCOD9002075
_publ_section_title
;
Structure prediction by ZEFSAII (Michael W. Deem and Ramdas Pophale) SiO2 
 PCOD9002075
Probable space group: P -1
;
_chemical_formula_sum "Si O2"
_cell_formula_units_Z 16
_cell_length_a 20.562305
_cell_length_b 10.321587
_cell_length_c 5.061451
_cell_angle_alpha 93.521088
_cell_angle_beta 127.431087
_cell_angle_gamma 101.734430
_cell_volume 811.198937
_symmetry_space_group_name_H-M "P -1"
_symmetry_group_IT_number 2
_symmetry_cell_setting 'triclinic'
loop_
_space_group_symop_operation_xyz
x,y,z
-x,-y,-z
loop_
_atom_site_type_symbol
_atom_site_label
_atom_site_fract_x
_atom_site_fract_y
_atom_site_fract_z
Si Si1 0.328823 0.726739 0.359650
Si Si2 0.533527 0.596224 0.343812
Si Si3 0.899892 0.469384 0.797492
Si Si4 0.509697 0.851482 0.580919
Si Si5 0.754105 0.200743 0.332008
Si Si6 0.817458 0.545891 0.112148
Si Si7 0.728786 0.751177 0.751562
Si Si8 0.705880 0.900366 0.206665
O O1 0.429505 0.776213 0.558820
O O2 0.306062 0.748537 0.606926
O O3 0.287862 0.810855 0.063099
O O4 0.274738 0.572547 0.131251
O O5 0.500000 0.500000 0.500000
O O6 0.508230 0.736810 0.338089
O O7 0.636127 0.646730 0.581472
O O8 0.500000 0.500000 0.000000
O O9 0.846122 0.313389 0.579303
O O10 0.859278 0.553464 0.503303
O O11 0.876522 0.498998 0.040671
O O12 0.000000 0.500000 0.000000
O O13 0.500000 0.000000 0.500000
O O14 0.603319 0.878615 0.947854
O O15 0.753649 0.055104 0.414622
O O16 0.800762 0.681471 0.986221
O O17 0.725837 0.797649 0.450823
O O18 0.734564 0.873312 0.982498
#
# Coordination Sequence:
#
# PCOD9002075 Si02
#       8
#     2   2   2   2   2   2   2   2
#     4  10  21  36  57  85 116 153 204 248 301 343
#     4  11  24  41  56  81 119 169 213 260 306 345
#     4  10  21  39  66  94 115 141 185 247 308 359
#     4  11  23  39  60  89 121 166 216 268 298 347
#     4  10  21  37  58  85 118 154 186 245 307 354
#     4  10  21  38  62  88 117 153 192 239 295 362
#     4  11  23  39  58  82 117 164 203 236 288 369
#     4  11  23  38  56  84 121 162 202 243 299 342
#
# _framework density 19.723890000000001
#
# number of rings (size 3 to 8) (size 9 to 14) (size 15 to 20)
#    0.000    1.500    1.250    4.125    1.750    6.500 
#    0.000    0.000    0.000    4.500    0.000    0.000 
#    0.000    0.000    0.000    0.000    0.000    0.000 
#
# Total GULP energy -89381.944763 kJ/mol
# GULP energy per Si atom -5586.371548 kJ/mol
# Density = 1.967900 g / cm^3
# Si number density = 19.723890 Si / 1000 Ang^3
#
#
#
# Elastic Constant Matrix: (Units=GPa)
#
#
# Indices 1 2 3 4 5 6 
#
# 1 68.3243 24.6671 25.4673 13.0328 9.1091 12.0060
# 2 24.6671 85.4377 32.8593 -5.4805 12.8158 -7.0469
# 3 25.4673 32.8593 56.4042 0.7614 -5.4229 3.4603
# 4 13.0328 -5.4805 0.7614 24.4283 6.0243 -4.1046
# 5 9.1091 12.8158 -5.4229 6.0243 36.9008 -0.3202
# 6 12.0060 -7.0469 3.4603 -4.1046 -0.3202 23.6429
#
#
#
# Elastic Compliance Matrix: (Units=1/GPa)
#
#
# Indices 1 2 3 4 5 6 
#
# 1 0.026738 -0.007563 -0.006513 -0.018278 -0.002104 -0.018081
# 2 -0.007563 0.021682 -0.011188 0.013975 -0.009465 0.014238
# 3 -0.006513 -0.011188 0.028492 -0.003206 0.010164 -0.004616
# 4 -0.018278 0.013975 -0.003206 0.060593 -0.010494 0.024294
# 5 -0.002104 -0.009465 0.010164 -0.010494 0.034073 -0.004601
# 6 -0.018081 0.014238 -0.004616 0.024294 -0.004601 0.060552
#
#
# Mechanical properties :
#
#
# Convention : Reuss Voigt Hill
#
# Bulk Modulus (GPa) = 37.90375 41.79486 39.84931
# Shear Modulus (GPa) = 17.15540 25.47257 21.31398
#
# Velocity S-wave (km/s) = 2.95240 3.59758 3.29084
# Velocity P-wave (km/s) = 5.55708 6.20426 5.88956
#
# Compressibility (1/GPa) = 0.02638261
#
# Stress axis : x y z
#
# Youngs Moduli (GPa) = 37.39926 46.12197 35.09809
#
# Poissons Ratio (x) = 0.34882 0.22860
# Poissons Ratio (y) = 0.28285 0.39269
# Poissons Ratio (z) = 0.24359 0.51603
#
# Static dielectric constant tensor:
#      x y z
#    x 1.677970 -0.031940 -0.031490 
#    y -0.031940 1.739430 0.005080 
#    z -0.031490 0.005080 1.696010 
# 
# From -- ./inp_files/45759.got.cif
#   From: 2010.05.17/outbox.cif.g08.bks.cpg/sg2_23_cif.got.tgz:45759.got - 2010.06.03 11:33:40.
