data_PCOD9002490
_publ_section_title
;
Structure prediction by ZEFSAII (Michael W. Deem and Ramdas Pophale) SiO2 
 PCOD9002490
Probable space group: P -1
;
_chemical_formula_sum "Si O2"
_cell_formula_units_Z 12
_cell_length_a 12.425223
_cell_length_b 9.614015
_cell_length_c 11.740950
_cell_angle_alpha 41.333729
_cell_angle_beta 126.873635
_cell_angle_gamma 145.146700
_cell_volume 528.871375
_symmetry_space_group_name_H-M "P -1"
_symmetry_group_IT_number 2
_symmetry_cell_setting 'triclinic'
loop_
_space_group_symop_operation_xyz
x,y,z
-x,-y,-z
loop_
_atom_site_type_symbol
_atom_site_label
_atom_site_fract_x
_atom_site_fract_y
_atom_site_fract_z
Si Si1 0.662493 0.625765 0.616604
Si Si2 0.501661 0.323013 0.945396
Si Si3 0.628716 0.986404 0.484759
Si Si4 0.713510 0.305471 0.706611
Si Si5 0.106678 0.766222 0.314444
Si Si6 0.751325 0.601526 0.149557
O O1 0.500000 0.500000 0.500000
O O2 0.743814 0.943513 0.507243
O O3 0.583719 0.003560 0.883924
O O4 0.571524 0.436888 0.791654
O O5 0.672110 0.540676 0.009292
O O6 0.341884 0.317286 0.884433
O O7 0.417261 0.745523 0.448498
O O8 0.689141 0.980238 0.653234
O O9 0.679101 0.285658 0.325238
O O10 0.865490 0.326496 0.728343
O O11 0.780788 0.571803 0.663996
O O12 0.000000 0.500000 0.500000
O O13 0.973177 0.818365 0.179866
#
# Coordination Sequence:
#
# PCOD9002490 Si02
#       6
#     2   2   2   2   2   2
#     4  10  22  36  63  86 114 154 200 236 285 348
#     4  10  21  38  61  86 118 152 195 241 285 353
#     4   9  20  36  61  87 112 152 196 241 277 343
#     4  10  21  38  60  86 118 157 191 233 298 340
#     4  10  21  36  61  88 119 149 197 244 281 343
#     4   9  21  37  60  90 116 149 194 243 294 330
#
# _framework density 22.689826
#
# number of rings (size 3 to 8) (size 9 to 14) (size 15 to 20)
#    0.000    2.333    0.000    1.000   16.333    0.667 
#    0.000    4.167    3.667    0.000    0.000    0.000 
#    0.000    0.000    0.000    0.000    0.000    0.000 
#
# Total GULP energy -66920.889544 kJ/mol
# GULP energy per Si atom -5576.740795 kJ/mol
# Density = 2.263818 g / cm^3
# Si number density = 22.689826 Si / 1000 Ang^3
#
#
#
# Elastic Constant Matrix: (Units=GPa)
#
#
# Indices 1 2 3 4 5 6 
#
# 1 132.8033 40.0063 22.0730 17.4920 19.2023 -17.8163
# 2 40.0063 52.3820 29.8919 10.3341 13.5255 0.7037
# 3 22.0730 29.8919 120.0679 21.3092 3.1504 4.4052
# 4 17.4920 10.3341 21.3092 42.6930 -5.5406 8.8677
# 5 19.2023 13.5255 3.1504 -5.5406 45.8905 -2.6200
# 6 -17.8163 0.7037 4.4052 8.8677 -2.6200 35.9100
#
#
#
# Elastic Compliance Matrix: (Units=1/GPa)
#
#
# Indices 1 2 3 4 5 6 
#
# 1 0.011758 -0.007576 0.000438 -0.005027 -0.002927 0.006956
# 2 -0.007576 0.029770 -0.005503 -0.001302 -0.005598 -0.003754
# 3 0.000438 -0.005503 0.010315 -0.003975 0.000254 0.000060
# 4 -0.005027 -0.001302 -0.003975 0.030433 0.005917 -0.009064
# 5 -0.002927 -0.005598 0.000254 0.005917 0.025306 -0.000988
# 6 0.006956 -0.003754 0.000060 -0.009064 -0.000988 0.033531
#
#
# Mechanical properties :
#
#
# Convention : Reuss Voigt Hill
#
# Bulk Modulus (GPa) = 37.64936 54.35505 46.00220
# Shear Modulus (GPa) = 28.53119 39.11750 33.82434
#
# Velocity S-wave (km/s) = 3.54989 4.15662 3.86518
# Velocity P-wave (km/s) = 5.78199 6.85889 6.34334
#
# Compressibility (1/GPa) = 0.02656088
#
# Stress axis : x y z
#
# Youngs Moduli (GPa) = 85.04979 33.59131 96.94874
#
# Poissons Ratio (x) = 0.25449 -0.04250
# Poissons Ratio (y) = 0.64434 0.53350
# Poissons Ratio (z) = -0.03728 0.18485
#
# Static dielectric constant tensor:
#      x y z
#    x 1.892890 0.025440 0.018910 
#    y 0.025440 1.910920 -0.040080 
#    z 0.018910 -0.040080 1.889830 
# 
# From -- ./inp_files/497217.got.cif
#   From: 2010.05.17/outbox.cif.g08.bks.cpg/sg2_249_cif.got.tgz:497217.got - 2010.06.03 11:33:40.
