data_PCOD9002739
_publ_section_title
;
Structure prediction by ZEFSAII (Michael W. Deem and Ramdas Pophale) SiO2 
 PCOD9002739
Probable space group: P -1
;
_chemical_formula_sum "Si O2"
_cell_formula_units_Z 12
_cell_length_a 9.850424
_cell_length_b 8.825223
_cell_length_c 11.677460
_cell_angle_alpha 120.622729
_cell_angle_beta 35.757138
_cell_angle_gamma 99.517393
_cell_volume 444.064602
_symmetry_space_group_name_H-M "P -1"
_symmetry_group_IT_number 2
_symmetry_cell_setting 'triclinic'
loop_
_space_group_symop_operation_xyz
x,y,z
-x,-y,-z
loop_
_atom_site_type_symbol
_atom_site_label
_atom_site_fract_x
_atom_site_fract_y
_atom_site_fract_z
Si Si1 0.656311 0.042763 0.074302
Si Si2 0.771821 0.256371 0.649063
Si Si3 0.841583 0.298074 0.291109
Si Si4 0.225740 0.372549 0.188643
Si Si5 0.109529 0.168262 0.617476
Si Si6 0.714709 0.405897 0.154559
O O1 0.630318 0.239462 0.108084
O O2 0.403595 0.118305 0.360532
O O3 0.679634 0.851795 0.912534
O O4 0.927380 0.924964 0.918641
O O5 0.806557 0.438248 0.642834
O O6 0.936936 0.213283 0.637421
O O7 0.467983 0.333446 0.921922
O O8 0.865104 0.045861 0.440276
O O9 0.797971 0.346019 0.205708
O O10 0.550543 0.376495 0.577390
O O11 0.974464 0.425416 0.300649
O O12 0.962721 0.346267 0.878527
#
# Coordination Sequence:
#
# PCOD9002739 Si02
#       6
#     2   2   2   2   2   2
#     4   9  20  40  59  86 118 153 187 246 289 338
#     4   9  17  38  57  85 122 148 196 244 278 343
#     4   9  21  39  59  87 121 151 189 247 293 337
#     4   8  17  36  59  78 115 161 180 236 297 328
#     4  10  21  36  64  88 112 159 195 236 294 343
#     4  11  21  40  61  89 117 152 197 238 294 350
#
# _framework density 27.023097
#
# number of rings (size 3 to 8) (size 9 to 14) (size 15 to 20)
#    1.000    1.667    0.000    1.500    0.000    0.667 
#    9.000   22.500    0.000    0.000    0.000    0.000 
#    0.000    0.000    0.000    0.000    0.000    0.000 
#
# Total GULP energy -67114.204807 kJ/mol
# GULP energy per Si atom -5592.850401 kJ/mol
# Density = 2.696159 g / cm^3
# Si number density = 27.023097 Si / 1000 Ang^3
#
#
#
# Elastic Constant Matrix: (Units=GPa)
#
#
# Indices 1 2 3 4 5 6 
#
# 1 91.0269 -0.5769 58.4837 10.3092 -2.0577 -15.4136
# 2 -0.5769 93.7404 -3.0535 18.1018 -3.6270 -1.8871
# 3 58.4837 -3.0535 236.6485 7.9952 -10.4462 -16.1550
# 4 10.3092 18.1018 7.9952 22.3313 -11.6643 -2.3940
# 5 -2.0577 -3.6270 -10.4462 -11.6643 42.8901 7.6659
# 6 -15.4136 -1.8871 -16.1550 -2.3940 7.6659 29.4253
#
#
#
# Elastic Compliance Matrix: (Units=1/GPa)
#
#
# Indices 1 2 3 4 5 6 
#
# 1 0.014905 0.001545 -0.003099 -0.008028 -0.003235 0.006395
# 2 0.001545 0.013022 0.000194 -0.012449 -0.002407 0.001365
# 3 -0.003099 0.000194 0.005099 0.000047 0.000954 0.000944
# 4 -0.008028 -0.012449 0.000047 0.067322 0.017613 -0.004089
# 5 -0.003235 -0.002407 0.000954 0.017613 0.029325 -0.007532
# 6 0.006395 0.001365 0.000944 -0.004089 -0.007532 0.039570
#
#
# Mechanical properties :
#
#
# Convention : Reuss Voigt Hill
#
# Bulk Modulus (GPa) = 32.99710 59.01361 46.00536
# Shear Modulus (GPa) = 27.46256 43.36684 35.41470
#
# Velocity S-wave (km/s) = 3.19135 4.01035 3.62406
# Velocity P-wave (km/s) = 5.08102 6.58251 5.87989
#
# Compressibility (1/GPa) = 0.03030569
#
# Stress axis : x y z
#
# Youngs Moduli (GPa) = 67.08966 76.79373 196.12002
#
# Poissons Ratio (x) = -0.11862 0.60772
# Poissons Ratio (y) = -0.10363 -0.03801
# Poissons Ratio (z) = 0.20789 -0.01488
#
# Static dielectric constant tensor:
#      x y z
#    x 2.036590 0.043440 0.020330 
#    y 0.043440 2.190660 0.016970 
#    z 0.020330 0.016970 2.157260 
# 
# From -- ./inp_files/116003.got.cif
#   From: 2010.05.17/outbox.cif.g08.bks.cpg/sg2_59_cif.got.tgz:116003.got - 2010.06.03 11:33:40.
