data_PCOD9002011
_publ_section_title
;
Structure prediction by ZEFSAII (Michael W. Deem and Ramdas Pophale) SiO2 
 PCOD9002011
Probable space group: P -1
;
_chemical_formula_sum "Si O2"
_cell_formula_units_Z 16
_cell_length_a 19.790170
_cell_length_b 6.005339
_cell_length_c 6.057009
_cell_angle_alpha 86.934405
_cell_angle_beta 75.538794
_cell_angle_gamma 82.119561
_cell_volume 690.326570
_symmetry_space_group_name_H-M "P -1"
_symmetry_group_IT_number 2
_symmetry_cell_setting 'triclinic'
loop_
_space_group_symop_operation_xyz
x,y,z
-x,-y,-z
loop_
_atom_site_type_symbol
_atom_site_label
_atom_site_fract_x
_atom_site_fract_y
_atom_site_fract_z
Si Si1 0.978008 0.340880 0.333156
Si Si2 0.227821 0.215220 0.147616
Si Si3 0.357100 0.861512 0.047591
Si Si4 0.106410 0.292828 0.926144
Si Si5 0.143835 0.923426 0.542199
Si Si6 0.391953 0.493968 0.658020
Si Si7 0.483963 0.689701 0.191309
Si Si8 0.730533 0.436025 0.548980
O O1 0.930000 0.491704 0.187102
O O2 0.926883 0.170336 0.471220
O O3 0.000000 0.500000 0.500000
O O4 0.047847 0.238859 0.153240
O O5 0.241966 0.390827 0.314309
O O6 0.302945 0.080665 0.027741
O O7 0.181145 0.041357 0.308698
O O8 0.178414 0.326440 0.988870
O O9 0.430880 0.887163 0.110479
O O10 0.315573 0.719704 0.262081
O O11 0.372812 0.699654 0.833008
O O12 0.123745 0.096501 0.745777
O O13 0.203039 0.726187 0.586625
O O14 0.439296 0.584422 0.423131
O O15 0.441143 0.293768 0.754109
O O16 0.320960 0.444033 0.600726
O O17 0.500000 0.500000 0.000000
#
# Coordination Sequence:
#
# PCOD9002011 Si02
#       8
#     2   2   2   2   2   2   2   2
#     4  11  25  44  64  90 121 151 194 247 299 356
#     4  11  24  40  60  88 122 157 200 247 295 353
#     4   9  19  35  57  84 118 157 197 243 296 351
#     4  11  24  40  63  90 118 157 197 241 297 361
#     4  11  23  41  63  87 119 157 197 242 298 354
#     4   9  16  32  58  83 116 158 197 241 294 347
#     4   8  15  30  57  88 114 152 200 243 292 347
#     4  10  21  36  56  85 119 156 198 246 293 346
#
# _framework density 23.177436
#
# number of rings (size 3 to 8) (size 9 to 14) (size 15 to 20)
#    0.000    2.000    0.000    3.375    0.000    8.000 
#    0.000    0.625    0.000   25.500    0.000    0.000 
#    0.000    0.000    0.000    0.000    0.000    0.000 
#
# Total GULP energy -89483.892654 kJ/mol
# GULP energy per Si atom -5592.743291 kJ/mol
# Density = 2.312468 g / cm^3
# Si number density = 23.177436 Si / 1000 Ang^3
#
#
#
# Elastic Constant Matrix: (Units=GPa)
#
#
# Indices 1 2 3 4 5 6 
#
# 1 177.6069 49.0140 43.8536 -6.3472 22.3757 -35.0265
# 2 49.0140 52.5869 17.7829 -3.6649 4.2599 -29.3695
# 3 43.8536 17.7829 85.5177 4.3502 -8.1513 -21.6900
# 4 -6.3472 -3.6649 4.3502 35.2474 -8.6972 -3.1337
# 5 22.3757 4.2599 -8.1513 -8.6972 59.0032 -4.5439
# 6 -35.0265 -29.3695 -21.6900 -3.1337 -4.5439 46.1040
#
#
#
# Elastic Compliance Matrix: (Units=1/GPa)
#
#
# Indices 1 2 3 4 5 6 
#
# 1 0.008770 -0.006292 -0.003314 0.000624 -0.003174 0.000825
# 2 -0.006292 0.035098 0.000539 0.004577 0.002014 0.018341
# 3 -0.003314 0.000539 0.014976 -0.001061 0.003527 0.005147
# 4 0.000624 0.004577 -0.001061 0.030609 0.004213 0.005387
# 5 -0.003174 0.002014 0.003527 0.004213 0.019324 0.002722
# 6 0.000825 0.018341 0.005147 0.005387 0.002722 0.037057
#
#
# Mechanical properties :
#
#
# Convention : Reuss Voigt Hill
#
# Bulk Modulus (GPa) = 24.56356 59.66806 42.11581
# Shear Modulus (GPa) = 28.16313 41.74163 34.95238
#
# Velocity S-wave (km/s) = 3.48962 4.24838 3.88756
# Velocity P-wave (km/s) = 5.18244 7.06150 6.19365
#
# Compressibility (1/GPa) = 0.04071071
#
# Stress axis : x y z
#
# Youngs Moduli (GPa) = 114.02590 28.49189 66.77218
#
# Poissons Ratio (x) = 0.17927 0.22127
# Poissons Ratio (y) = 0.71745 -0.03600
# Poissons Ratio (z) = 0.37786 -0.01536
#
# Static dielectric constant tensor:
#      x y z
#    x 1.897940 -0.024330 0.001200 
#    y -0.024330 1.856650 -0.064730 
#    z 0.001200 -0.064730 1.839110 
# 
# From -- ./inp_files/10636.got.cif
#   From: 2010.05.17/outbox.cif.g08.bks.cpg/sg2_6_cif.got.tgz:10636.got - 2010.06.03 11:33:40.
