data_PCOD9002144
_publ_section_title
;
Structure prediction by ZEFSAII (Michael W. Deem and Ramdas Pophale) SiO2 
 PCOD9002144
Probable space group: P -1
;
_chemical_formula_sum "Si O2"
_cell_formula_units_Z 14
_cell_length_a 11.406455
_cell_length_b 14.466765
_cell_length_c 7.943731
_cell_angle_alpha 153.472994
_cell_angle_beta 112.337146
_cell_angle_gamma 68.220952
_cell_volume 539.987990
_symmetry_space_group_name_H-M "P -1"
_symmetry_group_IT_number 2
_symmetry_cell_setting 'triclinic'
loop_
_space_group_symop_operation_xyz
x,y,z
-x,-y,-z
loop_
_atom_site_type_symbol
_atom_site_label
_atom_site_fract_x
_atom_site_fract_y
_atom_site_fract_z
Si Si1 0.435801 0.686390 0.979898
Si Si2 0.959738 0.267206 0.104665
Si Si3 0.268638 0.569655 0.961108
Si Si4 0.855215 0.594069 0.061407
Si Si5 0.349746 0.288817 0.099559
Si Si6 0.231106 0.114332 0.033470
Si Si7 0.794923 0.061355 0.917750
O O1 0.399403 0.652048 0.098359
O O2 0.418285 0.460722 0.521126
O O3 0.568548 0.755582 0.096640
O O4 0.327613 0.839891 0.085979
O O5 0.843383 0.274583 0.923922
O O6 0.000000 0.500000 0.500000
O O7 0.086308 0.123892 0.905958
O O8 0.907661 0.200212 0.148254
O O9 0.234804 0.534673 0.078057
O O10 0.252729 0.342101 0.497721
O O11 0.842095 0.831408 0.506117
O O12 0.788053 0.611728 0.872001
O O13 0.000000 0.500000 0.000000
O O14 0.326148 0.101620 0.907225
O O15 0.240685 0.956687 0.936133
#
# Coordination Sequence:
#
# PCOD9002144 Si02
#       7
#     2   2   2   2   2   2   2
#     4   9  20  40  61  83 110 158 208 237 284 343
#     4   9  16  31  56  81 108 148 196 236 277 342
#     4   8  17  34  55  78 113 153 191 235 288 347
#     4  11  23  38  57  88 124 154 191 245 299 344
#     4  10  21  38  60  84 118 153 197 251 283 335
#     4   9  17  31  54  83 112 151 190 233 286 339
#     4  10  21  36  58  84 116 155 196 237 292 358
#
# _framework density 25.926504999999999
#
# number of rings (size 3 to 8) (size 9 to 14) (size 15 to 20)
#    0.000    2.571    0.000    2.143    0.000    8.571 
#    0.000    9.286    0.000    0.000    0.000    0.000 
#    0.000    0.000    0.000    0.000    0.000    0.000 
#
# Total GULP energy -78300.984134 kJ/mol
# GULP energy per Si atom -5592.927438 kJ/mol
# Density = 2.586749 g / cm^3
# Si number density = 25.926505 Si / 1000 Ang^3
#
#
#
# Elastic Constant Matrix: (Units=GPa)
#
#
# Indices 1 2 3 4 5 6 
#
# 1 170.6231 66.1036 32.2550 29.0661 13.7410 47.3139
# 2 66.1036 121.8798 -5.8780 28.5082 14.9786 45.9653
# 3 32.2550 -5.8780 93.4505 13.7383 -2.4176 15.6173
# 4 29.0661 28.5082 13.7383 23.2418 -2.2129 8.3827
# 5 13.7410 14.9786 -2.4176 -2.2129 21.6960 15.1840
# 6 47.3139 45.9653 15.6173 8.3827 15.1840 59.6854
#
#
#
# Elastic Compliance Matrix: (Units=1/GPa)
#
#
# Indices 1 2 3 4 5 6 
#
# 1 0.009448 -0.001412 -0.001578 -0.007985 -0.003154 -0.004065
# 2 -0.001412 0.019530 0.006711 -0.022903 -0.006639 -0.010772
# 3 -0.001578 0.006711 0.014581 -0.012519 0.001089 -0.006252
# 4 -0.007985 -0.022903 -0.012519 0.087157 0.021734 0.009474
# 5 -0.003154 -0.006639 0.001089 0.021734 0.063286 -0.011825
# 6 -0.004065 -0.010772 -0.006252 0.009474 -0.011825 0.031586
#
#
# Mechanical properties :
#
#
# Convention : Reuss Voigt Hill
#
# Bulk Modulus (GPa) = 19.60741 63.43493 41.52117
# Shear Modulus (GPa) = 21.26344 40.48949 30.87646
#
# Velocity S-wave (km/s) = 2.86692 3.95613 3.45472
# Velocity P-wave (km/s) = 4.30559 6.73708 5.65360
#
# Compressibility (1/GPa) = 0.05100112
#
# Stress axis : x y z
#
# Youngs Moduli (GPa) = 105.84545 51.20458 68.58248
#
# Poissons Ratio (x) = 0.07228 0.10822
# Poissons Ratio (y) = 0.14942 -0.46026
# Poissons Ratio (z) = 0.16703 -0.34364
#
# Static dielectric constant tensor:
#      x y z
#    x 2.058450 0.040880 -0.024450 
#    y 0.040880 2.012000 -0.020740 
#    z -0.024450 -0.020740 2.057590 
# 
# From -- ./inp_files/274911.got.cif
#   From: 2010.05.17/outbox.cif.g08.bks.cpg/sg2_138_cif.got.tgz:274911.got - 2010.06.03 11:33:40.
