data_PCOD9002790
_publ_section_title
;
Structure prediction by ZEFSAII (Michael W. Deem and Ramdas Pophale) SiO2 
 PCOD9002790
Probable space group: P -1
;
_chemical_formula_sum "Si O2"
_cell_formula_units_Z 16
_cell_length_a 28.468725
_cell_length_b 16.174871
_cell_length_c 10.134727
_cell_angle_alpha 40.956415
_cell_angle_beta 147.658139
_cell_angle_gamma 163.221615
_cell_volume 675.729765
_symmetry_space_group_name_H-M "P -1"
_symmetry_group_IT_number 2
_symmetry_cell_setting 'triclinic'
loop_
_space_group_symop_operation_xyz
x,y,z
-x,-y,-z
loop_
_atom_site_type_symbol
_atom_site_label
_atom_site_fract_x
_atom_site_fract_y
_atom_site_fract_z
Si Si1 0.903743 0.679711 0.590202
Si Si2 0.263222 0.482355 0.335312
Si Si3 0.930705 0.355217 0.829757
Si Si4 0.660922 0.690357 0.271064
Si Si5 0.791565 0.061040 0.331833
Si Si6 0.343637 0.982513 0.674579
Si Si7 0.820198 0.514769 0.108847
Si Si8 0.604977 0.111680 0.473939
O O1 0.805316 0.625752 0.545001
O O2 0.729251 0.405331 0.399609
O O3 0.101166 0.993787 0.604179
O O4 0.987484 0.664399 0.885322
O O5 0.369113 0.490832 0.531144
O O6 0.418586 0.807990 0.311633
O O7 0.097172 0.307163 0.041556
O O8 0.784451 0.140840 0.611566
O O9 0.782520 0.236900 0.723796
O O10 0.119483 0.697585 0.821936
O O11 0.647323 0.785354 0.229299
O O12 0.500000 0.500000 0.000000
O O13 0.690477 0.973122 0.334846
O O14 0.999154 0.250339 0.635187
O O15 0.230349 0.699277 0.774691
O O16 0.594070 0.281720 0.889859
O O17 0.500000 0.000000 0.500000
#
# Coordination Sequence:
#
# PCOD9002790 Si02
#       8
#     2   2   2   2   2   2   2   2
#     4  11  23  41  68  96 128 181 219 272 337 391
#     4  11  23  44  67  95 135 170 222 274 334 399
#     4  11  19  39  67  98 137 162 223 283 327 389
#     4  12  28  46  62  94 140 180 217 271 329 407
#     4  11  24  43  65 100 133 176 224 268 339 398
#     4  10  21  39  68 104 130 167 222 285 334 386
#     4  10  21  42  69  99 131 168 221 285 331 381
#     4  10  21  36  65 100 128 168 220 271 329 392
#
# _framework density 23.678104999999999
#
# number of rings (size 3 to 8) (size 9 to 14) (size 15 to 20)
#    0.000    1.250    2.500    4.500    1.750    0.500 
#    6.750    0.625    0.000    0.000    0.000    0.000 
#    0.000    0.000    0.000    0.000    0.000    0.000 
#
# Total GULP energy -89417.327462 kJ/mol
# GULP energy per Si atom -5588.582966 kJ/mol
# Density = 2.362421 g / cm^3
# Si number density = 23.678105 Si / 1000 Ang^3
#
#
#
# Elastic Constant Matrix: (Units=GPa)
#
#
# Indices 1 2 3 4 5 6 
#
# 1 166.8382 37.0955 28.7904 13.5670 -10.3196 -20.4041
# 2 37.0955 76.5979 18.1884 8.9080 -15.3273 -15.8941
# 3 28.7904 18.1884 75.8051 -7.5775 -18.4252 -23.0595
# 4 13.5670 8.9080 -7.5775 30.5409 -3.6481 -1.2931
# 5 -10.3196 -15.3273 -18.4252 -3.6481 28.8611 6.4844
# 6 -20.4041 -15.8941 -23.0595 -1.2931 6.4844 33.8737
#
#
#
# Elastic Compliance Matrix: (Units=1/GPa)
#
#
# Indices 1 2 3 4 5 6 
#
# 1 0.007339 -0.002474 -0.002155 -0.003099 -0.000871 0.001841
# 2 -0.002474 0.016988 -0.000393 -0.002981 0.006415 0.004871
# 3 -0.002155 -0.000393 0.020891 0.008023 0.010910 0.010957
# 4 -0.003099 -0.002981 0.008023 0.037878 0.006688 0.002362
# 5 -0.000871 0.006415 0.010910 0.006688 0.045215 0.001512
# 6 0.001841 0.004871 0.010957 0.002362 0.001512 0.040175
#
#
# Mechanical properties :
#
#
# Convention : Reuss Voigt Hill
#
# Bulk Modulus (GPa) = 28.43123 54.15442 41.29283
# Shear Modulus (GPa) = 26.28023 34.33293 30.30658
#
# Velocity S-wave (km/s) = 3.33512 3.81200 3.58151
# Velocity P-wave (km/s) = 5.18307 6.50353 5.88048
#
# Compressibility (1/GPa) = 0.03517259
#
# Stress axis : x y z
#
# Youngs Moduli (GPa) = 136.25412 58.86543 47.86670
#
# Poissons Ratio (x) = 0.14566 0.10316
# Poissons Ratio (y) = 0.33715 0.01883
# Poissons Ratio (z) = 0.29366 0.02315
#
# Static dielectric constant tensor:
#      x y z
#    x 1.932590 0.030260 -0.018800 
#    y 0.030260 1.956230 0.044140 
#    z -0.018800 0.044140 1.906850 
# 
# From -- ./inp_files/357394.got.cif
#   From: 2010.05.17/outbox.cif.g08.bks.cpg/sg2_179_cif.got.tgz:357394.got - 2010.06.03 11:33:40.
