data_PCOD9002984
_publ_section_title
;
Structure prediction by ZEFSAII (Michael W. Deem and Ramdas Pophale) SiO2 
 PCOD9002984
Probable space group: P -1
;
_chemical_formula_sum "Si O2"
_cell_formula_units_Z 14
_cell_length_a 15.261759
_cell_length_b 14.016804
_cell_length_c 7.301453
_cell_angle_alpha 78.360765
_cell_angle_beta 85.025588
_cell_angle_gamma 151.024832
_cell_volume 616.605157
_symmetry_space_group_name_H-M "P -1"
_symmetry_group_IT_number 2
_symmetry_cell_setting 'triclinic'
loop_
_space_group_symop_operation_xyz
x,y,z
-x,-y,-z
loop_
_atom_site_type_symbol
_atom_site_label
_atom_site_fract_x
_atom_site_fract_y
_atom_site_fract_z
Si Si1 0.679550 0.241461 0.263069
Si Si2 0.600771 0.464780 0.689243
Si Si3 0.154225 0.750086 0.038803
Si Si4 0.797756 0.851395 0.013307
Si Si5 0.582155 0.866910 0.854547
Si Si6 0.104734 0.972673 0.425988
Si Si7 0.219688 0.011718 0.759344
O O1 0.751455 0.251360 0.068608
O O2 0.573263 0.233312 0.215886
O O3 0.500000 0.000000 0.500000
O O4 0.902918 0.481878 0.241661
O O5 0.447116 0.405339 0.763491
O O6 0.480916 0.287260 0.613054
O O7 0.556797 0.352867 0.919286
O O8 0.853291 0.729019 0.515550
O O9 0.153384 0.833003 0.847670
O O10 0.306091 0.944656 0.096894
O O11 0.845859 0.009590 0.022046
O O12 0.788841 0.840074 0.800585
O O13 0.000000 0.000000 0.000000
O O14 0.771959 0.001907 0.661571
O O15 0.127787 0.990625 0.631971
#
# Coordination Sequence:
#
# PCOD9002984 Si02
#       7
#     2   2   2   2   2   2   2
#     4  11  23  35  56  85 113 153 196 235 288 338
#     4   8  20  38  57  87 112 150 195 236 279 349
#     4  10  21  40  54  80 120 148 192 245 279 335
#     4   9  21  41  58  90 123 141 192 246 278 347
#     4  10  21  37  56  83 116 151 194 242 279 336
#     4  11  19  37  63  82 117 159 188 230 297 336
#     4   9  20  40  59  85 115 153 194 235 282 349
#
# _framework density 22.704965999999999
#
# number of rings (size 3 to 8) (size 9 to 14) (size 15 to 20)
#    0.857    1.429    1.429    2.143    0.000    6.286 
#    5.143    0.714    0.000    0.000    0.000    0.000 
#    0.000    0.000    0.000    0.000    0.000    0.000 
#
# Total GULP energy -78025.370155 kJ/mol
# GULP energy per Si atom -5573.240725 kJ/mol
# Density = 2.265329 g / cm^3
# Si number density = 22.704966 Si / 1000 Ang^3
#
#
#
# Elastic Constant Matrix: (Units=GPa)
#
#
# Indices 1 2 3 4 5 6 
#
# 1 96.3814 4.9514 9.7119 -2.6444 -20.9641 26.1370
# 2 4.9514 50.1076 21.6416 -12.7115 -10.2314 13.6233
# 3 9.7119 21.6416 68.6798 -16.4440 -8.6059 13.1264
# 4 -2.6444 -12.7115 -16.4440 28.9494 16.2412 -4.9350
# 5 -20.9641 -10.2314 -8.6059 16.2412 31.2063 -0.7860
# 6 26.1370 13.6233 13.1264 -4.9350 -0.7860 32.9305
#
#
#
# Elastic Compliance Matrix: (Units=1/GPa)
#
#
# Indices 1 2 3 4 5 6 
#
# 1 0.018789 0.004492 -0.000837 -0.010319 0.018793 -0.017535
# 2 0.004492 0.027585 -0.005279 0.002330 0.009083 -0.012307
# 3 -0.000837 -0.005279 0.018862 0.008693 -0.001701 -0.003408
# 4 -0.010319 0.002330 0.008693 0.061545 -0.035496 0.012137
# 5 0.018793 0.009083 -0.001701 -0.035496 0.065104 -0.021761
# 6 -0.017535 -0.012307 -0.003408 0.012137 -0.021761 0.052034
#
#
# Mechanical properties :
#
#
# Convention : Reuss Voigt Hill
#
# Bulk Modulus (GPa) = 16.13235 31.97541 24.05388
# Shear Modulus (GPa) = 18.66857 30.54149 24.60503
#
# Velocity S-wave (km/s) = 2.87056 3.67160 3.29551
# Velocity P-wave (km/s) = 4.25528 5.66461 5.00975
#
# Compressibility (1/GPa) = 0.06198725
#
# Stress axis : x y z
#
# Youngs Moduli (GPa) = 53.22275 36.25152 53.01748
#
# Poissons Ratio (x) = -0.16283 0.04436
# Poissons Ratio (y) = -0.23907 0.27989
# Poissons Ratio (z) = 0.04453 0.19138
#
# Static dielectric constant tensor:
#      x y z
#    x 1.920920 0.010710 0.014620 
#    y 0.010710 1.872650 -0.000100 
#    z 0.014620 -0.000100 1.866060 
# 
# From -- ./inp_files/314936.got.cif
#   From: 2010.05.17/outbox.cif.g08.bks.cpg/sg2_158_cif.got.tgz:314936.got - 2010.06.03 11:33:40.
