data_PCOD9002650
_publ_section_title
;
Structure prediction by ZEFSAII (Michael W. Deem and Ramdas Pophale) SiO2 
 PCOD9002650
Probable space group: P -1
;
_chemical_formula_sum "Si O2"
_cell_formula_units_Z 16
_cell_length_a 10.971706
_cell_length_b 13.357454
_cell_length_c 13.763439
_cell_angle_alpha 122.872461
_cell_angle_beta 139.708803
_cell_angle_gamma 33.245365
_cell_volume 688.863360
_symmetry_space_group_name_H-M "P -1"
_symmetry_group_IT_number 2
_symmetry_cell_setting 'triclinic'
loop_
_space_group_symop_operation_xyz
x,y,z
-x,-y,-z
loop_
_atom_site_type_symbol
_atom_site_label
_atom_site_fract_x
_atom_site_fract_y
_atom_site_fract_z
Si Si1 0.335941 0.195733 0.205875
Si Si2 0.624436 0.805358 0.987448
Si Si3 0.028909 0.992083 0.681621
Si Si4 0.042905 0.556482 0.294594
Si Si5 0.401964 0.909790 0.374722
Si Si6 0.959699 0.187956 0.576155
Si Si7 0.941837 0.230980 0.119941
Si Si8 0.342033 0.400712 0.767586
O O1 0.253460 0.275960 0.089240
O O2 0.293867 0.334013 0.316913
O O3 0.107440 0.212921 0.120629
O O4 0.676600 0.983270 0.304526
O O5 0.324489 0.876513 0.861921
O O6 0.860898 0.669083 0.143437
O O7 0.500000 0.000000 0.000000
O O8 0.141191 0.858141 0.588284
O O9 0.912535 0.166611 0.646095
O O10 0.784428 0.044486 0.622632
O O11 0.172887 0.620683 0.431788
O O12 0.807262 0.620488 0.261376
O O13 0.622543 0.693328 0.360113
O O14 0.500000 0.000000 0.500000
O O15 0.175453 0.032647 0.211487
O O16 0.854308 0.380778 0.222424
O O17 0.658081 0.296948 0.944359
#
# Coordination Sequence:
#
# PCOD9002650 Si02
#       8
#     2   2   2   2   2   2   2   2
#     4  10  21  36  63  86 115 153 197 236 293 345
#     4  11  21  36  60  87 116 150 187 242 294 330
#     4  10  22  39  61  86 117 154 193 238 291 349
#     4  11  20  38  62  85 116 154 194 239 292 344
#     4  12  24  38  62  89 118 158 197 238 298 346
#     4  10  21  42  60  81 120 150 191 241 289 346
#     4  10  22  40  59  86 120 155 200 245 285 349
#     4  10  23  38  60  87 117 159 199 240 293 344
#
# _framework density 23.226666999999999
#
# number of rings (size 3 to 8) (size 9 to 14) (size 15 to 20)
#    0.000    1.500    2.500    3.750    1.750    0.500 
#    0.000    9.375    0.000    0.000    0.000    0.000 
#    0.000    0.000    0.000    0.000    0.000    0.000 
#
# Total GULP energy -89399.398630 kJ/mol
# GULP energy per Si atom -5587.462414 kJ/mol
# Density = 2.317380 g / cm^3
# Si number density = 23.226667 Si / 1000 Ang^3
#
#
#
# Elastic Constant Matrix: (Units=GPa)
#
#
# Indices 1 2 3 4 5 6 
#
# 1 129.9648 30.7237 4.0553 10.4898 19.0359 -10.6643
# 2 30.7237 73.4670 15.4386 12.1034 12.7205 2.5881
# 3 4.0553 15.4386 55.3397 9.0316 9.3483 -3.8455
# 4 10.4898 12.1034 9.0316 34.8317 7.4628 3.5831
# 5 19.0359 12.7205 9.3483 7.4628 26.7520 5.9628
# 6 -10.6643 2.5881 -3.8455 3.5831 5.9628 29.0094
#
#
#
# Elastic Compliance Matrix: (Units=1/GPa)
#
#
# Indices 1 2 3 4 5 6 
#
# 1 0.010091 -0.003374 0.002074 -0.001470 -0.007218 0.005951
# 2 -0.003374 0.016884 -0.003612 -0.003038 -0.003021 -0.002229
# 3 0.002074 -0.003612 0.021222 -0.003893 -0.007404 0.005901
# 4 -0.001470 -0.003038 -0.003893 0.032553 -0.004358 -0.003911
# 5 -0.007218 -0.003021 -0.007404 -0.004358 0.050709 -0.013250
# 6 0.005951 -0.002229 0.005901 -0.003911 -0.013250 0.040847
#
#
# Mechanical properties :
#
#
# Convention : Reuss Voigt Hill
#
# Bulk Modulus (GPa) = 26.05887 39.91185 32.98536
# Shear Modulus (GPa) = 25.65157 32.02222 28.83689
#
# Velocity S-wave (km/s) = 3.32686 3.71709 3.52738
# Velocity P-wave (km/s) = 5.09912 5.97020 5.55177
#
# Compressibility (1/GPa) = 0.03837465
#
# Stress axis : x y z
#
# Youngs Moduli (GPa) = 99.09435 59.22942 47.12116
#
# Poissons Ratio (x) = 0.19983 -0.09775
# Poissons Ratio (y) = 0.33433 0.17019
# Poissons Ratio (z) = -0.20557 0.21392
#
# Static dielectric constant tensor:
#      x y z
#    x 1.781620 -0.041510 -0.031800 
#    y -0.041510 1.963450 0.083430 
#    z -0.031800 0.083430 1.930930 
# 
# From -- ./inp_files/522445.got.cif
#   From: 2010.05.17/outbox.cif.g08.bks.cpg/sg2_262_cif.got.tgz:522445.got - 2010.06.03 11:33:40.
