data_PCOD9002269
_publ_section_title
;
Structure prediction by ZEFSAII (Michael W. Deem and Ramdas Pophale) SiO2 
 PCOD9002269
Probable space group: P -1
;
_chemical_formula_sum "Si O2"
_cell_formula_units_Z 12
_cell_length_a 11.026434
_cell_length_b 5.535832
_cell_length_c 10.451431
_cell_angle_alpha 124.664111
_cell_angle_beta 112.636562
_cell_angle_gamma 59.504541
_cell_volume 447.948280
_symmetry_space_group_name_H-M "P -1"
_symmetry_group_IT_number 2
_symmetry_cell_setting 'triclinic'
loop_
_space_group_symop_operation_xyz
x,y,z
-x,-y,-z
loop_
_atom_site_type_symbol
_atom_site_label
_atom_site_fract_x
_atom_site_fract_y
_atom_site_fract_z
Si Si1 0.414723 0.267382 0.400579
Si Si2 0.016211 0.317585 0.647969
Si Si3 0.814727 0.490872 0.832417
Si Si4 0.208694 0.414065 0.570671
Si Si5 0.321225 0.830239 0.885128
Si Si6 0.609563 0.356597 0.865762
O O1 0.500000 0.500000 0.500000
O O2 0.277650 0.466213 0.320149
O O3 0.357648 0.231325 0.507518
O O4 0.453002 0.919662 0.250878
O O5 0.168683 0.289709 0.648868
O O6 0.967990 0.402338 0.801108
O O7 0.907286 0.569715 0.579606
O O8 0.000000 0.000000 0.500000
O O9 0.758810 0.263478 0.823339
O O10 0.756065 0.812911 0.988828
O O11 0.224284 0.740732 0.718067
O O12 0.486789 0.681072 0.860918
O O13 0.346341 0.627312 0.965655
#
# Coordination Sequence:
#
# PCOD9002269 Si02
#       6
#     2   2   2   2   2   2
#     4  10  21  36  59  88 115 149 191 237 287 339
#     4  10  22  40  61  82 110 153 198 239 284 333
#     4  10  21  38  58  83 117 152 192 238 283 338
#     4  10  22  39  58  84 117 146 191 244 281 331
#     4  10  22  37  58  86 119 154 187 232 290 342
#     4  10  21  38  59  86 121 153 186 230 287 351
#
# _framework density 26.788808
#
# number of rings (size 3 to 8) (size 9 to 14) (size 15 to 20)
#    0.000    2.000    0.000    2.500    0.000   11.333 
#    0.000    1.667    0.000    0.000    0.000    0.000 
#    0.000    0.000    0.000    0.000    0.000    0.000 
#
# Total GULP energy -66934.492722 kJ/mol
# GULP energy per Si atom -5577.874393 kJ/mol
# Density = 2.672784 g / cm^3
# Si number density = 26.788808 Si / 1000 Ang^3
#
#
#
# Elastic Constant Matrix: (Units=GPa)
#
#
# Indices 1 2 3 4 5 6 
#
# 1 177.2991 44.5857 57.3458 21.6217 -35.8656 29.2046
# 2 44.5857 53.0846 23.0129 25.6428 -4.7596 0.1114
# 3 57.3458 23.0129 120.9856 25.8275 -9.7522 3.1519
# 4 21.6217 25.6428 25.8275 61.6885 -9.8889 6.0989
# 5 -35.8656 -4.7596 -9.7522 -9.8889 47.5402 -2.1948
# 6 29.2046 0.1114 3.1519 6.0989 -2.1948 32.7475
#
#
#
# Elastic Compliance Matrix: (Units=1/GPa)
#
#
# Indices 1 2 3 4 5 6 
#
# 1 0.012132 -0.009566 -0.003804 0.003592 0.007674 -0.010576
# 2 -0.009566 0.032014 0.000265 -0.012038 -0.005989 0.010237
# 3 -0.003804 0.000265 0.010632 -0.003731 -0.001301 0.002976
# 4 0.003592 -0.012038 -0.003731 0.023020 0.005217 -0.006741
# 5 0.007674 -0.005989 -0.001301 0.005217 0.026772 -0.005875
# 6 -0.010576 0.010237 0.002976 -0.006741 -0.005875 0.040509
#
#
# Mechanical properties :
#
#
# Convention : Reuss Voigt Hill
#
# Bulk Modulus (GPa) = 35.00308 66.80646 50.90477
# Shear Modulus (GPa) = 27.65308 43.49022 35.57165
#
# Velocity S-wave (km/s) = 3.21637 4.03357 3.64793
# Velocity P-wave (km/s) = 5.18537 6.83266 6.06520
#
# Compressibility (1/GPa) = 0.02856891
#
# Stress axis : x y z
#
# Youngs Moduli (GPa) = 82.42389 31.23643 94.05469
#
# Poissons Ratio (x) = 0.29881 0.35777
# Poissons Ratio (y) = 0.78847 -0.02493
# Poissons Ratio (z) = 0.31353 -0.00828
#
# Static dielectric constant tensor:
#      x y z
#    x 2.360250 -0.045440 -0.053640 
#    y -0.045440 2.181510 -0.013140 
#    z -0.053640 -0.013140 2.059880 
# 
# From -- ./inp_files/408837.got.cif
#   From: 2010.05.17/outbox.cif.g08.bks.cpg/sg2_205_cif.got.tgz:408837.got - 2010.06.03 11:33:40.
