data_PCOD9002534
_publ_section_title
;
Structure prediction by ZEFSAII (Michael W. Deem and Ramdas Pophale) SiO2 
 PCOD9002534
Probable space group: P -1
;
_chemical_formula_sum "Si O2"
_cell_formula_units_Z 16
_cell_length_a 6.136223
_cell_length_b 11.280619
_cell_length_c 11.864758
_cell_angle_alpha 83.544869
_cell_angle_beta 111.966261
_cell_angle_gamma 79.830400
_cell_volume 735.227275
_symmetry_space_group_name_H-M "P -1"
_symmetry_group_IT_number 2
_symmetry_cell_setting 'triclinic'
loop_
_space_group_symop_operation_xyz
x,y,z
-x,-y,-z
loop_
_atom_site_type_symbol
_atom_site_label
_atom_site_fract_x
_atom_site_fract_y
_atom_site_fract_z
Si Si1 0.340707 0.688635 0.531012
Si Si2 0.072595 0.691387 0.132574
Si Si3 0.431006 0.416451 0.653899
Si Si4 0.862396 0.776599 0.317656
Si Si5 0.384147 0.388654 0.021800
Si Si6 0.332636 0.240188 0.232147
Si Si7 0.862996 0.191358 0.094474
Si Si8 0.404598 0.981285 0.856581
O O1 0.325746 0.561274 0.602633
O O2 0.467924 0.641577 0.441361
O O3 0.506117 0.757270 0.628021
O O4 0.074205 0.773225 0.448823
O O5 0.342524 0.613173 0.213687
O O6 0.991286 0.760909 0.223899
O O7 0.057232 0.789770 0.019202
O O8 0.878126 0.610334 0.079476
O O9 0.240417 0.342380 0.666681
O O10 0.651445 0.897072 0.243786
O O11 0.353286 0.357883 0.149525
O O12 0.588208 0.271470 0.032754
O O13 0.500000 0.500000 0.000000
O O14 0.432214 0.122951 0.181654
O O15 0.051709 0.244954 0.198822
O O16 0.839040 0.063871 0.155667
O O17 0.500000 0.000000 0.000000
#
# Coordination Sequence:
#
# PCOD9002534 Si02
#       8
#     2   2   2   2   2   2   2   2
#     4  10  24  42  61  93 125 164 218 254 317 371
#     4  10  21  36  61  95 122 160 209 249 320 372
#     4  10  22  41  65  90 125 167 209 266 309 372
#     4  11  23  41  66  91 123 168 216 262 307 369
#     4  10  22  35  58  93 126 163 198 254 316 374
#     4  10  24  40  61  94 127 168 207 257 315 372
#     4  10  22  40  59  93 129 160 204 255 317 375
#     4  11  23  42  66  93 125 164 211 261 317 372
#
# _framework density 21.761980000000001
#
# number of rings (size 3 to 8) (size 9 to 14) (size 15 to 20)
#    0.000    1.750    0.000    4.125    5.250    7.500 
#    0.000    1.250    0.000    0.000    0.000    0.000 
#    0.000    0.000    0.000    0.000    0.000    0.000 
#
# Total GULP energy -89298.013711 kJ/mol
# GULP energy per Si atom -5581.125857 kJ/mol
# Density = 2.171245 g / cm^3
# Si number density = 21.761980 Si / 1000 Ang^3
#
#
#
# Elastic Constant Matrix: (Units=GPa)
#
#
# Indices 1 2 3 4 5 6 
#
# 1 57.6066 -0.4198 22.6709 6.0748 14.1135 20.5151
# 2 -0.4198 50.0511 18.6336 0.0329 -5.1734 -4.8531
# 3 22.6709 18.6336 124.3077 10.6694 33.8628 1.0752
# 4 6.0748 0.0329 10.6694 30.5724 8.3464 1.9491
# 5 14.1135 -5.1734 33.8628 8.3464 25.9064 -2.5372
# 6 20.5151 -4.8531 1.0752 1.9491 -2.5372 33.4442
#
#
#
# Elastic Compliance Matrix: (Units=1/GPa)
#
#
# Indices 1 2 3 4 5 6 
#
# 1 0.028840 -0.004045 0.000852 0.000643 -0.019784 -0.019844
# 2 -0.004045 0.025962 -0.008479 -0.002245 0.019994 0.008169
# 3 0.000852 -0.008479 0.015363 0.001004 -0.022959 -0.004047
# 4 0.000643 -0.002245 0.001004 0.036366 -0.014214 -0.003950
# 5 -0.019784 0.019994 -0.022959 -0.014214 0.090257 0.023451
# 6 -0.019844 0.008169 -0.004047 -0.003950 0.023451 0.045398
#
#
# Mechanical properties :
#
#
# Convention : Reuss Voigt Hill
#
# Bulk Modulus (GPa) = 21.35668 34.85941 28.10804
# Shear Modulus (GPa) = 17.78492 30.72331 24.25412
#
# Velocity S-wave (km/s) = 2.86186 3.76145 3.34206
# Velocity P-wave (km/s) = 4.55580 5.90914 5.27605
#
# Compressibility (1/GPa) = 0.04682376
#
# Stress axis : x y z
#
# Youngs Moduli (GPa) = 34.67348 38.51738 65.09120
#
# Poissons Ratio (x) = 0.15580 -0.05549
# Poissons Ratio (y) = 0.14025 0.55188
# Poissons Ratio (z) = -0.02956 0.32657
#
# Static dielectric constant tensor:
#      x y z
#    x 1.811830 -0.019480 0.013190 
#    y -0.019480 1.858620 -0.018230 
#    z 0.013190 -0.018230 1.813380 
# 
# From -- ./inp_files/70903.got.cif
#   From: 2010.05.17/outbox.cif.g08.bks.cpg/sg2_36_cif.got.tgz:70903.got - 2010.06.03 11:33:40.
