data_PCOD9002458
_publ_section_title
;
Structure prediction by ZEFSAII (Michael W. Deem and Ramdas Pophale) SiO2 
 PCOD9002458
Probable space group: P -1
;
_chemical_formula_sum "Si O2"
_cell_formula_units_Z 14
_cell_length_a 5.193493
_cell_length_b 28.176100
_cell_length_c 5.535349
_cell_angle_alpha 125.392723
_cell_angle_beta 120.321760
_cell_angle_gamma 69.524515
_cell_volume 568.085575
_symmetry_space_group_name_H-M "P -1"
_symmetry_group_IT_number 2
_symmetry_cell_setting 'triclinic'
loop_
_space_group_symop_operation_xyz
x,y,z
-x,-y,-z
loop_
_atom_site_type_symbol
_atom_site_label
_atom_site_fract_x
_atom_site_fract_y
_atom_site_fract_z
Si Si1 0.407349 0.273273 0.763411
Si Si2 0.520954 0.829016 0.814316
Si Si3 0.367786 0.388968 0.818636
Si Si4 0.197287 0.070382 0.987525
Si Si5 0.964034 0.569837 0.717323
Si Si6 0.014086 0.234236 0.811199
Si Si7 0.397585 0.954559 0.508895
O O1 0.327725 0.210055 0.447751
O O2 0.379547 0.319538 0.671781
O O3 0.760829 0.263374 0.961818
O O4 0.166920 0.285274 0.893000
O O5 0.193465 0.806482 0.564570
O O6 0.588322 0.894554 0.975562
O O7 0.711873 0.804592 0.057519
O O8 0.203766 0.406645 0.540500
O O9 0.705663 0.407759 0.034760
O O10 0.209852 0.415261 0.067884
O O11 0.853736 0.086724 0.811752
O O12 0.235901 0.999591 0.763184
O O13 0.314294 0.078496 0.334053
O O14 0.000000 0.500000 0.500000
O O15 0.500000 0.000000 0.500000
#
# Coordination Sequence:
#
# PCOD9002458 Si02
#       7
#     2   2   2   2   2   2   2
#     4  10  26  41  66  97 132 174 221 269 336 400
#     4  10  24  39  63  90 130 168 215 267 328 396
#     4  12  26  43  76 102 145 186 234 293 350 413
#     4  10  21  39  57  88 118 156 207 257 318 386
#     4  12  26  48  72 107 141 188 236 292 348 415
#     4  10  24  40  64  89 133 166 221 265 321 404
#     4  10  21  36  61  85 119 155 206 255 318 385
#
# _framework density 24.644174
#
# number of rings (size 3 to 8) (size 9 to 14) (size 15 to 20)
#    0.857    0.571    0.000    4.286    6.000    2.286 
#    0.000    0.000    0.000    0.000    0.000    0.000 
#    0.000    0.000    0.000    0.000    0.000    0.000 
#
# Total GULP energy -78144.075822 kJ/mol
# GULP energy per Si atom -5581.719702 kJ/mol
# Density = 2.458808 g / cm^3
# Si number density = 24.644174 Si / 1000 Ang^3
#
#
#
# Elastic Constant Matrix: (Units=GPa)
#
#
# Indices 1 2 3 4 5 6 
#
# 1 146.9990 18.1632 67.5502 -7.6819 28.5564 19.4407
# 2 18.1632 110.1010 49.5594 -21.1585 15.9527 15.6366
# 3 67.5502 49.5594 143.7189 -42.4603 33.1318 -2.2213
# 4 -7.6819 -21.1585 -42.4603 56.0469 -12.8067 -5.3510
# 5 28.5564 15.9527 33.1318 -12.8067 50.7671 9.1659
# 6 19.4407 15.6366 -2.2213 -5.3510 9.1659 32.4643
#
#
#
# Elastic Compliance Matrix: (Units=1/GPa)
#
#
# Indices 1 2 3 4 5 6 
#
# 1 0.010807 0.001803 -0.006557 -0.004005 -0.001951 -0.007899
# 2 0.001803 0.012146 -0.005013 0.000308 -0.000188 -0.007169
# 3 -0.006557 -0.005013 0.015616 0.008982 -0.004496 0.010159
# 4 -0.004005 0.000308 0.008982 0.025176 0.001453 0.006604
# 5 -0.001951 -0.000188 -0.004496 0.001453 0.025226 -0.005932
# 6 -0.007899 -0.007169 0.010159 0.006604 -0.005932 0.042445
#
#
# Mechanical properties :
#
#
# Convention : Reuss Voigt Hill
#
# Bulk Modulus (GPa) = 52.53227 74.59604 63.56416
# Shear Modulus (GPa) = 31.78760 45.55874 38.67317
#
# Velocity S-wave (km/s) = 3.59536 4.30427 3.96569
# Velocity P-wave (km/s) = 6.21274 7.41871 6.84234
#
# Compressibility (1/GPa) = 0.01903592
#
# Stress axis : x y z
#
# Youngs Moduli (GPa) = 92.52909 82.33244 64.03848
#
# Poissons Ratio (x) = -0.14848 0.41992
# Poissons Ratio (y) = -0.16687 0.32100
# Poissons Ratio (z) = 0.60674 0.41270
#
# Static dielectric constant tensor:
#      x y z
#    x 2.052660 -0.046780 -0.093130 
#    y -0.046780 1.959590 0.003490 
#    z -0.093130 0.003490 2.076690 
# 
# From -- ./inp_files/14916.got.cif
#   From: 2010.05.17/outbox.cif.g08.bks.cpg/sg2_8_cif.got.tgz:14916.got - 2010.06.03 11:33:40.
