data_PCOD9002214
_publ_section_title
;
Structure prediction by ZEFSAII (Michael W. Deem and Ramdas Pophale) SiO2 
 PCOD9002214
Probable space group: P -1
;
_chemical_formula_sum "Si O2"
_cell_formula_units_Z 16
_cell_length_a 9.556395
_cell_length_b 9.244902
_cell_length_c 15.430488
_cell_angle_alpha 74.913830
_cell_angle_beta 60.227122
_cell_angle_gamma 121.673979
_cell_volume 713.912004
_symmetry_space_group_name_H-M "P -1"
_symmetry_group_IT_number 2
_symmetry_cell_setting 'triclinic'
loop_
_space_group_symop_operation_xyz
x,y,z
-x,-y,-z
loop_
_atom_site_type_symbol
_atom_site_label
_atom_site_fract_x
_atom_site_fract_y
_atom_site_fract_z
Si Si1 0.006797 0.996399 0.602044
Si Si2 0.510401 0.490201 0.896484
Si Si3 0.949116 0.638536 0.995415
Si Si4 0.767161 0.937371 0.055971
Si Si5 0.317247 0.711435 0.332070
Si Si6 0.646412 0.092861 0.306026
Si Si7 0.012299 0.311420 0.635034
Si Si8 0.569238 0.294565 0.425228
O O1 0.802904 0.720440 0.736335
O O2 0.000000 0.000000 0.500000
O O3 0.924632 0.084971 0.667147
O O4 0.309193 0.193619 0.498993
O O5 0.371526 0.231397 0.957812
O O6 0.500000 0.500000 0.000000
O O7 0.331159 0.489159 0.906030
O O8 0.100199 0.791260 0.835588
O O9 0.101992 0.808134 0.007023
O O10 0.000000 0.500000 0.000000
O O11 0.545464 0.770865 0.222068
O O12 0.000000 0.000000 0.000000
O O13 0.144755 0.482028 0.481934
O O14 0.200746 0.712383 0.284529
O O15 0.434408 0.930465 0.320351
O O16 0.668302 0.270534 0.316146
O O17 0.531065 0.898858 0.443384
O O18 0.208278 0.452140 0.633326
#
# Coordination Sequence:
#
# PCOD9002214 Si02
#       8
#     2   2   2   2   2   2   2   2
#     4  12  25  39  64  91 127 162 220 264 311 371
#     4  11  25  44  64  92 132 173 210 261 329 382
#     4  10  22  40  67  93 124 164 216 265 306 385
#     4   9  20  40  63  90 120 170 208 247 316 385
#     4   9  18  36  63  87 127 157 210 249 321 381
#     4   9  19  37  62  87 122 164 204 247 325 384
#     4  10  21  36  58  93 122 165 202 266 312 373
#     4  10  21  38  60  90 126 163 203 261 324 374
#
# _framework density 22.411726000000002
#
# number of rings (size 3 to 8) (size 9 to 14) (size 15 to 20)
#    0.000    2.000    0.000    2.625    5.250    6.000 
#    2.250    1.875    0.000    0.000    0.000    0.000 
#    0.000    0.000    0.000    0.000    0.000    0.000 
#
# Total GULP energy -89172.817122 kJ/mol
# GULP energy per Si atom -5573.301070 kJ/mol
# Density = 2.236072 g / cm^3
# Si number density = 22.411726 Si / 1000 Ang^3
#
#
#
# Elastic Constant Matrix: (Units=GPa)
#
#
# Indices 1 2 3 4 5 6 
#
# 1 59.2882 23.8692 1.6592 -0.0069 -13.1938 16.4508
# 2 23.8692 161.3528 13.8144 6.6297 7.4193 10.3346
# 3 1.6592 13.8144 46.7423 10.0524 -7.7919 12.8798
# 4 -0.0069 6.6297 10.0524 24.6184 1.2263 -1.6623
# 5 -13.1938 7.4193 -7.7919 1.2263 24.5269 6.0762
# 6 16.4508 10.3346 12.8798 -1.6623 6.0762 33.9578
#
#
#
# Elastic Compliance Matrix: (Units=1/GPa)
#
#
# Indices 1 2 3 4 5 6 
#
# 1 0.032284 -0.005444 0.013948 -0.007403 0.030009 -0.025005
# 2 -0.005444 0.007479 -0.004214 0.000294 -0.007360 0.003291
# 3 0.013948 -0.004214 0.037565 -0.017317 0.027911 -0.025565
# 4 -0.007403 0.000294 -0.017317 0.049433 -0.015840 0.015319
# 5 0.030009 -0.007360 0.027911 -0.015840 0.078124 -0.037639
# 6 -0.025005 0.003291 -0.025565 0.015319 -0.037639 0.057742
#
#
# Mechanical properties :
#
#
# Convention : Reuss Voigt Hill
#
# Bulk Modulus (GPa) = 11.64032 38.45212 25.04622
# Shear Modulus (GPa) = 17.68759 31.82332 24.75545
#
# Velocity S-wave (km/s) = 2.81234 3.77230 3.32712
# Velocity P-wave (km/s) = 3.96873 6.01399 5.09504
#
# Compressibility (1/GPa) = 0.08590828
#
# Stress axis : x y z
#
# Youngs Moduli (GPa) = 30.97526 133.70221 26.62021
#
# Poissons Ratio (x) = 0.72788 -0.37130
# Poissons Ratio (y) = 0.16863 0.11218
# Poissons Ratio (z) = -0.43204 0.56342
#
# Static dielectric constant tensor:
#      x y z
#    x 1.817510 0.021720 -0.053050 
#    y 0.021720 1.877250 -0.035430 
#    z -0.053050 -0.035430 1.888690 
# 
# From -- ./inp_files/494840.got.cif
#   From: 2010.05.17/outbox.cif.g08.bks.cpg/sg2_248_cif.got.tgz:494840.got - 2010.06.03 11:33:40.
