data_PCOD9002667
_publ_section_title
;
Structure prediction by ZEFSAII (Michael W. Deem and Ramdas Pophale) SiO2 
 PCOD9002667
Probable space group: P -1
;
_chemical_formula_sum "Si O2"
_cell_formula_units_Z 12
_cell_length_a 11.386865
_cell_length_b 10.027812
_cell_length_c 22.058657
_cell_angle_alpha 23.358907
_cell_angle_beta 149.629540
_cell_angle_gamma 139.799723
_cell_volume 499.870271
_symmetry_space_group_name_H-M "P -1"
_symmetry_group_IT_number 2
_symmetry_cell_setting 'triclinic'
loop_
_space_group_symop_operation_xyz
x,y,z
-x,-y,-z
loop_
_atom_site_type_symbol
_atom_site_label
_atom_site_fract_x
_atom_site_fract_y
_atom_site_fract_z
Si Si1 0.357438 0.139486 0.963130
Si Si2 0.326841 0.488460 0.590347
Si Si3 0.020405 0.380127 0.326161
Si Si4 0.319854 0.464915 0.990241
Si Si5 0.488979 0.145040 0.593452
Si Si6 0.819744 0.333513 0.421000
O O1 0.591663 0.300883 0.016913
O O2 0.277895 0.271930 0.805736
O O3 0.142466 0.338983 0.824043
O O4 0.438845 0.757590 0.180588
O O5 0.383893 0.692387 0.471936
O O6 0.239415 0.714366 0.515378
O O7 0.100572 0.301348 0.551407
O O8 0.294176 0.393928 0.439810
O O9 0.000000 0.000000 0.500000
O O10 0.926295 0.436311 0.192311
O O11 0.355314 0.096588 0.189313
O O12 0.500000 0.500000 0.000000
O O13 0.324119 0.894854 0.589547
#
# Coordination Sequence:
#
# PCOD9002667 Si02
#       6
#     2   2   2   2   2   2
#     4  10  21  36  63  89 124 163 201 249 310 359
#     4  11  24  39  63  95 121 161 210 255 297 361
#     4  11  19  36  64  90 121 163 200 246 310 366
#     4   9  18  35  60  87 119 164 201 236 307 366
#     4  11  22  39  65  92 123 162 205 248 306 371
#     4  10  22  44  63  84 130 164 202 254 308 352
#
# _framework density 24.006229999999999
#
# number of rings (size 3 to 8) (size 9 to 14) (size 15 to 20)
#    0.000    1.667    5.000    2.000    0.000    2.000 
#    0.000    5.833    0.000   12.000    0.000    0.000 
#    0.000    0.000    0.000    0.000    0.000    0.000 
#
# Total GULP energy -67042.955816 kJ/mol
# GULP energy per Si atom -5586.912985 kJ/mol
# Density = 2.395159 g / cm^3
# Si number density = 24.006230 Si / 1000 Ang^3
#
#
#
# Elastic Constant Matrix: (Units=GPa)
#
#
# Indices 1 2 3 4 5 6 
#
# 1 137.8020 29.5401 66.3806 -5.0301 -32.4274 28.6342
# 2 29.5401 43.2246 26.9376 5.1225 -0.8907 11.5206
# 3 66.3806 26.9376 194.1503 16.0699 -20.2923 26.7584
# 4 -5.0301 5.1225 16.0699 40.3558 1.7694 -3.6300
# 5 -32.4274 -0.8907 -20.2923 1.7694 41.2084 5.8694
# 6 28.6342 11.5206 26.7584 -3.6300 5.8694 38.2362
#
#
#
# Elastic Compliance Matrix: (Units=1/GPa)
#
#
# Indices 1 2 3 4 5 6 
#
# 1 0.013937 -0.006083 -0.001666 0.001873 0.011214 -0.008982
# 2 -0.006083 0.029503 -0.001781 -0.003847 -0.004467 -0.002767
# 3 -0.001666 -0.001781 0.007073 -0.003274 0.002831 -0.003911
# 4 0.001873 -0.003847 -0.003274 0.027344 -0.002103 0.004966
# 5 0.011214 -0.004467 0.002831 -0.002103 0.036595 -0.014851
# 6 -0.008982 -0.002767 -0.003911 0.004966 -0.014851 0.039202
#
#
# Mechanical properties :
#
#
# Convention : Reuss Voigt Hill
#
# Bulk Modulus (GPa) = 31.79287 68.98817 50.39052
# Shear Modulus (GPa) = 27.29269 40.78131 34.03700
#
# Velocity S-wave (km/s) = 3.37545 4.12610 3.76951
# Velocity P-wave (km/s) = 5.33516 7.17632 6.32311
#
# Compressibility (1/GPa) = 0.03145359
#
# Stress axis : x y z
#
# Youngs Moduli (GPa) = 71.75083 33.89429 141.37563
#
# Poissons Ratio (x) = 0.20619 0.23555
# Poissons Ratio (y) = 0.43649 0.25174
# Poissons Ratio (z) = 0.11955 0.06035
#
# Static dielectric constant tensor:
#      x y z
#    x 1.930530 -0.055820 0.047240 
#    y -0.055820 2.065380 -0.053430 
#    z 0.047240 -0.053430 1.977360 
# 
# From -- ./inp_files/175773.got.cif
#   From: 2010.05.17/outbox.cif.g08.bks.cpg/sg2_88_cif.got.tgz:175773.got - 2010.06.03 11:33:40.
