data_PCOD9002407
_publ_section_title
;
Structure prediction by ZEFSAII (Michael W. Deem and Ramdas Pophale) SiO2 
 PCOD9002407
Probable space group: P -1
;
_chemical_formula_sum "Si O2"
_cell_formula_units_Z 16
_cell_length_a 13.702825
_cell_length_b 10.517710
_cell_length_c 10.528950
_cell_angle_alpha 142.785365
_cell_angle_beta 69.740517
_cell_angle_gamma 119.758504
_cell_volume 793.254199
_symmetry_space_group_name_H-M "P -1"
_symmetry_group_IT_number 2
_symmetry_cell_setting 'triclinic'
loop_
_space_group_symop_operation_xyz
x,y,z
-x,-y,-z
loop_
_atom_site_type_symbol
_atom_site_label
_atom_site_fract_x
_atom_site_fract_y
_atom_site_fract_z
Si Si1 0.430399 0.292551 0.771378
Si Si2 0.093704 0.090164 0.638455
Si Si3 0.715163 0.463804 0.075190
Si Si4 0.595052 0.442968 0.584967
Si Si5 0.517126 0.257530 0.199070
Si Si6 0.737687 0.160097 0.605126
Si Si7 0.031316 0.875867 0.770777
Si Si8 0.174546 0.597217 0.485157
O O1 0.328926 0.370996 0.850816
O O2 0.518789 0.326441 0.645959
O O3 0.361494 0.016598 0.581036
O O4 0.500000 0.500000 0.000000
O O5 0.157978 0.364847 0.814485
O O6 0.181178 0.963757 0.483157
O O7 0.000000 0.000000 0.500000
O O8 0.048942 0.016974 0.744218
O O9 0.632049 0.392247 0.176261
O O10 0.699000 0.252571 0.822039
O O11 0.531973 0.326553 0.393420
O O12 0.585070 0.689525 0.775667
O O13 0.713971 0.420994 0.521942
O O14 0.500000 0.000000 0.000000
O O15 0.805506 0.373693 0.653148
O O16 0.928389 0.631174 0.608856
O O17 0.139723 0.811602 0.701401
O O18 0.000000 0.000000 0.000000
#
# Coordination Sequence:
#
# PCOD9002407 Si02
#       8
#     2   2   2   2   2   2   2   2
#     4  10  21  36  60  91 123 159 203 253 312 378
#     4  10  23  41  64  90 125 166 214 267 322 372
#     4  10  21  38  61  88 121 162 208 254 312 373
#     4  10  22  38  57  86 125 160 204 252 306 375
#     4  10  22  39  58  86 127 164 205 250 307 377
#     4  10  21  40  62  90 127 159 208 266 309 380
#     4  10  22  42  62  89 125 160 212 267 314 372
#     4  10  22  38  62  87 121 161 203 257 318 364
#
# _framework density 20.170079000000001
#
# number of rings (size 3 to 8) (size 9 to 14) (size 15 to 20)
#    0.000    2.000    0.000    2.250    1.750    8.500 
#    2.250    0.000    0.000    0.000    0.000    0.000 
#    0.000    0.000    0.000    0.000    0.000    0.000 
#
# Total GULP energy -89068.388504 kJ/mol
# GULP energy per Si atom -5566.774281 kJ/mol
# Density = 2.012417 g / cm^3
# Si number density = 20.170079 Si / 1000 Ang^3
#
#
#
# Elastic Constant Matrix: (Units=GPa)
#
#
# Indices 1 2 3 4 5 6 
#
# 1 123.0524 23.2306 33.4265 3.2762 -8.8848 2.1158
# 2 23.2306 67.9148 46.5383 -9.2160 0.4532 2.5202
# 3 33.4265 46.5383 95.2076 -9.3610 2.5427 2.2031
# 4 3.2762 -9.2160 -9.3610 38.9854 6.1468 -5.7217
# 5 -8.8848 0.4532 2.5427 6.1468 31.2821 3.1851
# 6 2.1158 2.5202 2.2031 -5.7217 3.1851 22.3138
#
#
#
# Elastic Compliance Matrix: (Units=1/GPa)
#
#
# Indices 1 2 3 4 5 6 
#
# 1 0.009587 -0.001624 -0.002899 -0.002710 0.003684 -0.001660
# 2 -0.001624 0.022711 -0.010205 0.003054 -0.000505 -0.000548
# 3 -0.002899 -0.010205 0.016795 0.002381 -0.002585 0.000749
# 4 -0.002710 0.003054 0.002381 0.029610 -0.007678 0.008366
# 5 0.003684 -0.000505 -0.002585 -0.007678 0.035459 -0.007067
# 6 -0.001660 -0.000548 0.000749 0.008366 -0.007067 0.048115
#
#
# Mechanical properties :
#
#
# Convention : Reuss Voigt Hill
#
# Bulk Modulus (GPa) = 50.91979 54.72950 52.82464
# Shear Modulus (GPa) = 25.21723 30.71489 27.96606
#
# Velocity S-wave (km/s) = 3.53969 3.90653 3.72763
# Velocity P-wave (km/s) = 6.48120 6.89499 6.69129
#
# Compressibility (1/GPa) = 0.01963873
#
# Stress axis : x y z
#
# Youngs Moduli (GPa) = 104.30510 44.03247 59.54155
#
# Poissons Ratio (x) = 0.07150 0.17259
# Poissons Ratio (y) = 0.16937 0.60759
# Poissons Ratio (z) = 0.30235 0.44933
#
# Static dielectric constant tensor:
#      x y z
#    x 1.752490 0.000060 0.016460 
#    y 0.000060 1.704320 0.092120 
#    z 0.016460 0.092120 1.817380 
# 
# From -- ./inp_files/118659.got.cif
#   From: 2010.05.17/outbox.cif.g08.bks.cpg/sg2_60_cif.got.tgz:118659.got - 2010.06.03 11:33:40.
