data_PCOD9002945
_publ_section_title
;
Structure prediction by ZEFSAII (Michael W. Deem and Ramdas Pophale) SiO2 
 PCOD9002945
Probable space group: P -1
;
_chemical_formula_sum "Si O2"
_cell_formula_units_Z 16
_cell_length_a 17.002285
_cell_length_b 20.255814
_cell_length_c 9.201376
_cell_angle_alpha 142.633600
_cell_angle_beta 149.694399
_cell_angle_gamma 37.035577
_cell_volume 903.140426
_symmetry_space_group_name_H-M "P -1"
_symmetry_group_IT_number 2
_symmetry_cell_setting 'triclinic'
loop_
_space_group_symop_operation_xyz
x,y,z
-x,-y,-z
loop_
_atom_site_type_symbol
_atom_site_label
_atom_site_fract_x
_atom_site_fract_y
_atom_site_fract_z
Si Si1 0.508852 0.003481 0.769916
Si Si2 0.132841 0.536148 0.511868
Si Si3 0.639522 0.462178 0.879822
Si Si4 0.592319 0.143348 0.407412
Si Si5 0.741498 0.852565 0.628725
Si Si6 0.771698 0.606214 0.146404
Si Si7 0.880991 0.233793 0.988012
Si Si8 0.662598 0.611584 0.663705
O O1 0.437076 0.928473 0.629867
O O2 0.654497 0.920050 0.752343
O O3 0.367145 0.081833 0.569281
O O4 0.575713 0.079020 0.118749
O O5 0.181735 0.469281 0.323211
O O6 0.969559 0.529796 0.318562
O O7 0.294154 0.485686 0.785357
O O8 0.103289 0.674771 0.704290
O O9 0.771020 0.327249 0.854544
O O10 0.459604 0.458615 0.618684
O O11 0.665740 0.532665 0.908680
O O12 0.768310 0.161633 0.728354
O O13 0.447809 0.271846 0.393403
O O14 0.745253 0.720335 0.399282
O O15 0.933619 0.840837 0.898289
O O16 0.719631 0.644663 0.965962
#
# Coordination Sequence:
#
# PCOD9002945 Si02
#       8
#     2   2   2   2   2   2   2   2
#     4  10  22  37  56  76  98 135 184 214 256 300
#     4   9  20  33  53  79 106 136 171 200 253 318
#     4   9  20  33  53  79 106 136 171 200 253 318
#     4  10  21  37  55  77 102 136 173 218 256 299
#     4  10  21  37  55  77 102 136 173 218 256 299
#     4  11  20  34  53  78 110 137 166 211 255 303
#     4   8  20  35  56  76 108 131 170 210 258 308
#     4  11  20  34  53  78 110 137 166 211 255 303
#
# _framework density 17.715959999999999
#
# number of rings (size 3 to 8) (size 9 to 14) (size 15 to 20)
#    0.750    1.500    1.250    1.500    1.750    1.000 
#    0.000    0.000    0.000    0.000    0.000    0.000 
#    0.000    0.000    0.000    0.000    0.000    0.000 
#
# Total GULP energy -89115.887327 kJ/mol
# GULP energy per Si atom -5569.742958 kJ/mol
# Density = 1.767564 g / cm^3
# Si number density = 17.715960 Si / 1000 Ang^3
#
#
#
# Elastic Constant Matrix: (Units=GPa)
#
#
# Indices 1 2 3 4 5 6 
#
# 1 90.8777 52.2699 22.9977 13.9435 2.1365 -14.4046
# 2 52.2699 65.2670 22.8545 7.8276 12.0141 -23.1013
# 3 22.9977 22.8545 -16.8822 -2.6829 6.0225 11.9232
# 4 13.9435 7.8276 -2.6829 17.9233 4.5625 7.2254
# 5 2.1365 12.0141 6.0225 4.5625 23.1812 3.0020
# 6 -14.4046 -23.1013 11.9232 7.2254 3.0020 20.1998
#
#
#
# Elastic Compliance Matrix: (Units=1/GPa)
#
#
# Indices 1 2 3 4 5 6 
#
# 1 0.024466 -0.024294 -0.000165 -0.008044 0.013169 -0.009319
# 2 -0.024294 0.037753 0.019523 0.005294 -0.025543 0.016230
# 3 -0.000165 0.019523 -0.007446 -0.021712 -0.008510 0.035636
# 4 -0.008044 0.005294 -0.021712 0.061518 -0.007464 -0.007762
# 5 0.013169 -0.025543 -0.008510 -0.007464 0.061599 -0.021283
# 6 -0.009319 0.016230 0.035636 -0.007762 -0.021283 0.046326
#
#
# Mechanical properties :
#
#
# Convention : Reuss Voigt Hill
#
# Bulk Modulus (GPa) = 22.27075 37.27850 29.77463
# Shear Modulus (GPa) = 20.07586 15.00356 17.53971
#
# Velocity S-wave (km/s) = 3.36997 2.91330 3.14992
# Velocity P-wave (km/s) = 5.26693 5.69249 5.48384
#
# Compressibility (1/GPa) = 0.04490195
#
# Stress axis : x y z
#
# Youngs Moduli (GPa) = 40.87270 26.48796 -134.30280
#
# Poissons Ratio (x) = 0.64350 -0.02217
# Poissons Ratio (y) = 0.99296 2.62205
# Poissons Ratio (z) = 0.00675 -0.51714
#
# Static dielectric constant tensor:
#      x y z
#    x 1.595580 0.010540 -0.020460 
#    y 0.010540 1.599880 -0.009710 
#    z -0.020460 -0.009710 1.618020 
# 
# From -- ./inp_files/319129.got.cif
#   From: 2010.05.17/outbox.cif.g08.bks.cpg/sg2_160_cif.got.tgz:319129.got - 2010.06.03 11:33:40.
