data_PCOD9002498
_publ_section_title
;
Structure prediction by ZEFSAII (Michael W. Deem and Ramdas Pophale) SiO2 
 PCOD9002498
Probable space group: P -1
;
_chemical_formula_sum "Si O2"
_cell_formula_units_Z 14
_cell_length_a 19.885117
_cell_length_b 9.363060
_cell_length_c 8.991276
_cell_angle_alpha 45.823642
_cell_angle_beta 139.352567
_cell_angle_gamma 144.267452
_cell_volume 622.250363
_symmetry_space_group_name_H-M "P -1"
_symmetry_group_IT_number 2
_symmetry_cell_setting 'triclinic'
loop_
_space_group_symop_operation_xyz
x,y,z
-x,-y,-z
loop_
_atom_site_type_symbol
_atom_site_label
_atom_site_fract_x
_atom_site_fract_y
_atom_site_fract_z
Si Si1 0.103729 0.800178 0.090870
Si Si2 0.535614 0.229408 0.537944
Si Si3 0.170937 0.497200 0.226196
Si Si4 0.796774 0.806196 0.270550
Si Si5 0.377917 0.730536 0.773643
Si Si6 0.394390 0.280894 0.780708
Si Si7 0.317663 0.066719 0.504433
O O1 0.951005 0.612239 0.008971
O O2 0.111776 0.968935 0.848716
O O3 0.151316 0.646849 0.209870
O O4 0.204260 0.977279 0.260376
O O5 0.684948 0.335767 0.724108
O O6 0.541119 0.426623 0.295473
O O7 0.460951 0.248025 0.538787
O O8 0.439105 0.925354 0.593175
O O9 0.158884 0.272921 0.456990
O O10 0.719172 0.553400 0.228692
O O11 0.700506 0.858447 0.139900
O O12 0.311306 0.820162 0.697465
O O13 0.500228 0.766364 0.024697
O O14 0.314383 0.186206 0.562024
#
# Coordination Sequence:
#
# PCOD9002498 Si02
#       7
#     2   2   2   2   2   2   2
#     4  11  22  40  64  86 123 158 204 246 300 347
#     4   9  21  36  60  87 120 151 201 243 297 349
#     4  10  21  40  61  90 117 160 203 251 287 359
#     4  11  22  37  62  93 119 156 204 247 297 357
#     4  10  21  36  61  89 124 153 201 244 302 349
#     4  11  21  37  58  91 128 155 190 253 305 353
#     4  10  22  39  60  90 126 153 200 245 303 360
#
# _framework density 22.498981000000001
#
# number of rings (size 3 to 8) (size 9 to 14) (size 15 to 20)
#    0.857    0.857    1.429    3.429    0.000    6.286 
#    0.000    2.857    0.000    9.429    0.000    0.000 
#    0.000    0.000    0.000    0.000    0.000    0.000 
#
# Total GULP energy -78006.838536 kJ/mol
# GULP energy per Si atom -5571.917038 kJ/mol
# Density = 2.244777 g / cm^3
# Si number density = 22.498981 Si / 1000 Ang^3
#
#
#
# Elastic Constant Matrix: (Units=GPa)
#
#
# Indices 1 2 3 4 5 6 
#
# 1 38.8628 43.1760 19.6998 25.4165 10.0250 -2.5668
# 2 43.1760 48.6333 35.8046 8.3526 15.7506 5.3905
# 3 19.6998 35.8046 74.8289 18.1298 19.6834 0.4217
# 4 25.4165 8.3526 18.1298 39.7828 6.2484 5.5443
# 5 10.0250 15.7506 19.6834 6.2484 18.5736 4.1132
# 6 -2.5668 5.3905 0.4217 5.5443 4.1132 27.2471
#
#
#
# Elastic Compliance Matrix: (Units=1/GPa)
#
#
# Indices 1 2 3 4 5 6 
#
# 1 -0.049179 0.057924 -0.020798 0.032793 -0.006826 -0.021413
# 2 0.057924 -0.032524 0.011132 -0.036900 -0.007578 0.020372
# 3 -0.020798 0.011132 0.016448 0.006591 -0.017161 -0.003167
# 4 0.032793 -0.036900 0.006591 0.007400 0.002248 0.008442
# 5 -0.006826 -0.007578 -0.017161 0.002248 0.084043 -0.012023
# 6 -0.021413 0.020372 -0.003167 0.008442 -0.012023 0.030800
#
#
# Mechanical properties :
#
#
# Convention : Reuss Voigt Hill
#
# Bulk Modulus (GPa) = 31.98879 39.96511 35.97695
# Shear Modulus (GPa) = -171.76646 21.36367 -75.20140
#
# Velocity S-wave (km/s) = -8.74699 3.08480 -5.78765
# Velocity P-wave (km/s) = 9.36826 5.52174 5.35139
#
# Compressibility (1/GPa) = 0.03126095
#
# Stress axis : x y z
#
# Youngs Moduli (GPa) = -20.33380 -30.74650 60.79863
#
# Poissons Ratio (x) = 1.78097 1.26448
# Poissons Ratio (y) = 1.17782 -0.67679
# Poissons Ratio (z) = -0.42290 0.34226
#
# Static dielectric constant tensor:
#      x y z
#    x 1.844330 0.016320 0.007740 
#    y 0.016320 1.913000 0.007280 
#    z 0.007740 0.007280 1.891040 
# 
# From -- ./inp_files/476436.got.cif
#   From: 2010.05.17/outbox.cif.g08.bks.cpg/sg2_239_cif.got.tgz:476436.got - 2010.06.03 11:33:40.
