data_PCOD9002656
_publ_section_title
;
Structure prediction by ZEFSAII (Michael W. Deem and Ramdas Pophale) SiO2 
 PCOD9002656
Probable space group: P -1
;
_chemical_formula_sum "Si O2"
_cell_formula_units_Z 16
_cell_length_a 17.737510
_cell_length_b 6.446275
_cell_length_c 23.628908
_cell_angle_alpha 69.856177
_cell_angle_beta 162.046249
_cell_angle_gamma 103.521717
_cell_volume 739.664951
_symmetry_space_group_name_H-M "P -1"
_symmetry_group_IT_number 2
_symmetry_cell_setting 'triclinic'
loop_
_space_group_symop_operation_xyz
x,y,z
-x,-y,-z
loop_
_atom_site_type_symbol
_atom_site_label
_atom_site_fract_x
_atom_site_fract_y
_atom_site_fract_z
Si Si1 0.611718 0.754211 0.132926
Si Si2 0.040433 0.923808 0.471629
Si Si3 0.074730 0.768046 0.794038
Si Si4 0.922559 0.873414 0.802704
Si Si5 0.306811 0.739191 0.576036
Si Si6 0.253681 0.546909 0.153535
Si Si7 0.519453 0.359414 0.469371
Si Si8 0.035680 0.564521 0.675076
O O1 0.720830 0.582186 0.174779
O O2 0.848169 0.776677 0.336401
O O3 0.377500 0.729244 0.004114
O O4 0.500000 0.000000 0.000000
O O5 0.295784 0.779854 0.632088
O O6 0.000000 0.000000 0.500000
O O7 0.978136 0.173885 0.373834
O O8 0.034123 0.571440 0.741507
O O9 0.016821 0.764191 0.818983
O O10 0.887822 0.026506 0.614971
O O11 0.695387 0.771998 0.668670
O O12 0.792176 0.152379 0.678646
O O13 0.149976 0.781470 0.020074
O O14 0.585285 0.660497 0.753725
O O15 0.189994 0.530867 0.498482
O O16 0.439083 0.529454 0.341643
O O17 0.000000 0.500000 0.000000
O O18 0.500000 0.500000 0.500000
#
# Coordination Sequence:
#
# PCOD9002656 Si02
#       8
#     2   2   2   2   2   2   2   2
#     4  11  20  38  59  89 125 165 215 261 310 383
#     4  10  23  39  59  91 127 168 209 265 321 378
#     4  11  21  36  63  93 123 166 217 264 313 384
#     4  10  23  40  64  95 122 165 209 260 323 376
#     4  10  21  40  61  88 132 166 209 269 322 377
#     4  10  22  43  65  92 132 165 207 270 321 380
#     4  10  22  43  67  90 126 164 207 263 323 382
#     4  10  21  36  63  87 122 170 210 257 330 371
#
# _framework density 21.631416000000002
#
# number of rings (size 3 to 8) (size 9 to 14) (size 15 to 20)
#    0.000    1.750    5.000    0.375    1.750    4.500 
#    0.000    6.250    0.000    0.000    0.000    0.000 
#    0.000    0.000    0.000    0.000    0.000    0.000 
#
# Total GULP energy -89161.925627 kJ/mol
# GULP energy per Si atom -5572.620352 kJ/mol
# Density = 2.158218 g / cm^3
# Si number density = 21.631416 Si / 1000 Ang^3
#
#
#
# Elastic Constant Matrix: (Units=GPa)
#
#
# Indices 1 2 3 4 5 6 
#
# 1 169.1708 21.9786 71.1575 -10.0067 6.9474 -40.2439
# 2 21.9786 63.4629 30.1220 -8.5328 0.7788 -24.6783
# 3 71.1575 30.1220 97.0002 -21.4325 6.9657 -13.7648
# 4 -10.0067 -8.5328 -21.4325 19.8648 0.5296 4.8409
# 5 6.9474 0.7788 6.9657 0.5296 55.5614 0.0167
# 6 -40.2439 -24.6783 -13.7648 4.8409 0.0167 43.1141
#
#
#
# Elastic Compliance Matrix: (Units=1/GPa)
#
#
# Indices 1 2 3 4 5 6 
#
# 1 0.011532 0.003828 -0.009254 -0.005100 -0.000290 0.010574
# 2 0.003828 0.024040 -0.008253 -0.000245 0.000217 0.014726
# 3 -0.009254 -0.008253 0.022666 0.018287 -0.001741 -0.008178
# 4 -0.005100 -0.000245 0.018287 0.069121 -0.002308 -0.006822
# 5 -0.000290 0.000217 -0.001741 -0.002308 0.018272 -0.000450
# 6 0.010574 0.014726 -0.008178 -0.006822 -0.000450 0.039648
#
#
# Mechanical properties :
#
#
# Convention : Reuss Voigt Hill
#
# Bulk Modulus (GPa) = 32.38445 64.01668 48.20056
# Shear Modulus (GPa) = 22.42871 37.46644 29.94758
#
# Velocity S-wave (km/s) = 3.22352 4.16629 3.72485
# Velocity P-wave (km/s) = 5.37199 7.26654 6.38987
#
# Compressibility (1/GPa) = 0.03087902
#
# Stress axis : x y z
#
# Youngs Moduli (GPa) = 86.71652 41.59807 44.11953
#
# Poissons Ratio (x) = -0.15924 0.40827
# Poissons Ratio (y) = -0.33195 0.36413
# Poissons Ratio (z) = 0.80246 0.34332
#
# Static dielectric constant tensor:
#      x y z
#    x 1.913940 0.022260 -0.011830 
#    y 0.022260 1.893700 0.100480 
#    z -0.011830 0.100480 1.956820 
# 
# From -- ./inp_files/128234.got.cif
#   From: 2010.05.17/outbox.cif.g08.bks.cpg/sg2_65_cif.got.tgz:128234.got - 2010.06.03 11:33:40.
