data_PCOD9002735
_publ_section_title
;
Structure prediction by ZEFSAII (Michael W. Deem and Ramdas Pophale) SiO2 
 PCOD9002735
Probable space group: P -1
;
_chemical_formula_sum "Si O2"
_cell_formula_units_Z 11
_cell_length_a 7.615420
_cell_length_b 11.035121
_cell_length_c 7.841154
_cell_angle_alpha 105.474761
_cell_angle_beta 142.751616
_cell_angle_gamma 74.728250
_cell_volume 382.911088
_symmetry_space_group_name_H-M "P -1"
_symmetry_group_IT_number 2
_symmetry_cell_setting 'triclinic'
loop_
_space_group_symop_operation_xyz
x,y,z
-x,-y,-z
loop_
_atom_site_type_symbol
_atom_site_label
_atom_site_fract_x
_atom_site_fract_y
_atom_site_fract_z
Si Si1 0.538594 0.403728 0.834624
Si Si2 0.981173 0.257511 0.328411
Si Si3 0.230408 0.983876 0.407594
Si Si4 0.157457 0.230415 0.973590
Si Si5 0.663600 0.372312 0.462717
Si Si6 0.500000 0.000000 0.000000
O O1 0.475857 0.490724 0.652819
O O2 0.297455 0.304686 0.617388
O O3 0.500000 0.500000 0.000000
O O4 0.845044 0.327515 0.081824
O O5 0.785256 0.309113 0.354170
O O6 0.995411 0.106579 0.273739
O O7 0.057779 0.869491 0.164373
O O8 0.500000 0.000000 0.500000
O O9 0.357466 0.969243 0.690353
O O10 0.310708 0.140730 0.910254
O O11 0.953928 0.349715 0.789569
O O12 0.412920 0.286138 0.297030
#
# Coordination Sequence:
#
# PCOD9002735 Si02
#       6
#     2   2   2   2   2   1
#     4  10  21  36  64 103 141 184 237 300 357 415
#     4  11  22  40  65 103 146 183 239 299 351 430
#     4  12  29  47  72 109 150 192 240 296 362 435
#     4  12  23  41  69 104 142 184 237 297 358 420
#     4  11  20  38  69 102 143 184 243 298 356 430
#     4  12  24  48  72 108 140 196 240 292 372 418
#
# _framework density 28.727294000000001
#
# number of rings (size 3 to 8) (size 9 to 14) (size 15 to 20)
#    0.000    0.727    3.636    7.091    2.545    0.727 
#    0.000    0.000    0.000    6.545    0.000    0.000 
#    0.000    0.000    0.000    0.000    0.000    0.000 
#
# Total GULP energy -61552.691531 kJ/mol
# GULP energy per Si atom -5595.699230 kJ/mol
# Density = 2.866191 g / cm^3
# Si number density = 28.727294 Si / 1000 Ang^3
#
#
#
# Elastic Constant Matrix: (Units=GPa)
#
#
# Indices 1 2 3 4 5 6 
#
# 1 88.8834 2.6884 30.3470 1.3123 -5.0906 -2.4307
# 2 2.6884 141.8006 32.8645 -24.6207 -17.2884 -18.0269
# 3 30.3470 32.8645 138.8647 -14.0845 -1.5430 -1.9706
# 4 1.3123 -24.6207 -14.0845 77.2397 6.0924 3.0046
# 5 -5.0906 -17.2884 -1.5430 6.0924 57.2995 -0.8253
# 6 -2.4307 -18.0269 -1.9706 3.0046 -0.8253 51.8283
#
#
#
# Elastic Compliance Matrix: (Units=1/GPa)
#
#
# Indices 1 2 3 4 5 6 
#
# 1 0.012316 0.000559 -0.002869 -0.000682 0.001269 0.000723
# 2 0.000559 0.008477 -0.001853 0.002057 0.002379 0.002823
# 3 -0.002869 -0.001853 0.008359 0.001059 -0.000709 -0.000534
# 4 -0.000682 0.002057 0.001059 0.013881 -0.000889 -0.000095
# 5 0.001269 0.002379 -0.000709 -0.000889 0.018376 0.001204
# 6 0.000723 0.002823 -0.000534 -0.000095 0.001204 0.020315
#
#
# Mechanical properties :
#
#
# Convention : Reuss Voigt Hill
#
# Bulk Modulus (GPa) = 48.01559 55.70538 51.86049
# Shear Modulus (GPa) = 51.55160 57.51675 54.53417
#
# Velocity S-wave (km/s) = 4.24077 4.47941 4.36172
# Velocity P-wave (km/s) = 6.38196 6.79608 6.59227
#
# Compressibility (1/GPa) = 0.02082657
#
# Stress axis : x y z
#
# Youngs Moduli (GPa) = 81.19708 117.96232 119.63530
#
# Poissons Ratio (x) = -0.06600 0.34320
# Poissons Ratio (y) = -0.04543 0.22173
# Poissons Ratio (z) = 0.23293 0.21863
#
# Static dielectric constant tensor:
#      x y z
#    x 2.129630 -0.070470 -0.059170 
#    y -0.070470 2.170710 -0.089240 
#    z -0.059170 -0.089240 2.109340 
# 
# From -- ./inp_files/182141.got.cif
#   From: 2010.05.17/outbox.cif.g08.bks.cpg/sg2_92_cif.got.tgz:182141.got - 2010.06.03 11:33:40.
