data_PCOD9002418
_publ_section_title
;
Structure prediction by ZEFSAII (Michael W. Deem and Ramdas Pophale) SiO2 
 PCOD9002418
Probable space group: P -1
;
_chemical_formula_sum "Si O2"
_cell_formula_units_Z 16
_cell_length_a 6.264414
_cell_length_b 11.107518
_cell_length_c 16.519422
_cell_angle_alpha 118.688181
_cell_angle_beta 52.661926
_cell_angle_gamma 89.093552
_cell_volume 719.888153
_symmetry_space_group_name_H-M "P -1"
_symmetry_group_IT_number 2
_symmetry_cell_setting 'triclinic'
loop_
_space_group_symop_operation_xyz
x,y,z
-x,-y,-z
loop_
_atom_site_type_symbol
_atom_site_label
_atom_site_fract_x
_atom_site_fract_y
_atom_site_fract_z
Si Si1 0.519074 0.089235 0.104398
Si Si2 0.020611 0.146957 0.949118
Si Si3 0.655439 0.645005 0.073506
Si Si4 0.251515 0.378433 0.460004
Si Si5 0.830383 0.625531 0.200766
Si Si6 0.628269 0.527653 0.373649
Si Si7 0.012330 0.878699 0.238988
Si Si8 0.017621 0.184311 0.376004
O O1 0.199667 0.172845 0.247580
O O2 0.738674 0.973198 0.083833
O O3 0.689275 0.188954 0.070998
O O4 0.500000 0.000000 0.000000
O O5 0.106356 0.285476 0.968916
O O6 0.043277 0.085427 0.832370
O O7 0.619029 0.641400 0.177586
O O8 0.355220 0.758277 0.136158
O O9 0.831737 0.478036 0.941692
O O10 0.555827 0.383787 0.360686
O O11 0.193177 0.446678 0.584949
O O12 0.217736 0.223040 0.407953
O O13 0.000000 0.500000 0.500000
O O14 0.766922 0.539127 0.261171
O O15 0.816520 0.789782 0.279841
O O16 0.308610 0.676676 0.501301
O O17 0.979586 0.029813 0.341649
#
# Coordination Sequence:
#
# PCOD9002418 Si02
#       8
#     2   2   2   2   2   2   2   2
#     4  11  21  37  59  96 128 163 202 256 322 374
#     4  10  21  36  60  92 128 159 208 253 316 377
#     4  10  21  43  64  91 125 161 210 268 311 370
#     4   9  22  44  61  88 124 168 207 254 304 369
#     4  10  24  41  66  89 122 171 210 255 313 374
#     4  10  23  45  64  92 128 164 215 252 310 379
#     4  11  22  41  61  94 126 160 207 264 313 370
#     4  11  23  38  65  91 129 163 201 260 316 372
#
# _framework density 22.225674999999999
#
# number of rings (size 3 to 8) (size 9 to 14) (size 15 to 20)
#    0.000    1.750    2.500    0.375    3.500    2.500 
#   11.250    1.250    0.000    0.000    0.000    0.000 
#    0.000    0.000    0.000    0.000    0.000    0.000 
#
# Total GULP energy -89334.552713 kJ/mol
# GULP energy per Si atom -5583.409545 kJ/mol
# Density = 2.217509 g / cm^3
# Si number density = 22.225675 Si / 1000 Ang^3
#
#
#
# Elastic Constant Matrix: (Units=GPa)
#
#
# Indices 1 2 3 4 5 6 
#
# 1 109.4487 28.7815 36.5858 2.8495 26.4161 -10.5657
# 2 28.7815 70.5757 7.0554 -1.0328 26.6707 8.4535
# 3 36.5858 7.0554 51.6554 -4.8403 15.4290 -1.8272
# 4 2.8495 -1.0328 -4.8403 43.6594 -3.3857 10.2932
# 5 26.4161 26.6707 15.4290 -3.3857 35.6126 5.9035
# 6 -10.5657 8.4535 -1.8272 10.2932 5.9035 40.6100
#
#
#
# Elastic Compliance Matrix: (Units=1/GPa)
#
#
# Indices 1 2 3 4 5 6 
#
# 1 0.015189 -0.003843 -0.008564 -0.003981 -0.006094 0.006261
# 2 -0.003843 0.021044 0.003991 0.000907 -0.013989 -0.003397
# 3 -0.008564 0.003991 0.027533 0.003448 -0.007983 -0.001534
# 4 -0.003981 0.000907 0.003448 0.025883 0.004616 -0.008301
# 5 -0.006094 -0.013989 -0.007983 0.004616 0.048169 -0.007205
# 6 0.006261 -0.003397 -0.001534 -0.008301 -0.007205 0.030043
#
#
# Mechanical properties :
#
#
# Convention : Reuss Voigt Hill
#
# Bulk Modulus (GPa) = 21.30677 41.83615 31.57146
# Shear Modulus (GPa) = 24.95769 34.59352 29.77560
#
# Velocity S-wave (km/s) = 3.35464 3.94949 3.66415
# Velocity P-wave (km/s) = 4.96106 6.29779 5.66896
#
# Compressibility (1/GPa) = 0.04693344
#
# Stress axis : x y z
#
# Youngs Moduli (GPa) = 65.83649 47.51880 36.32017
#
# Poissons Ratio (x) = 0.18263 0.31105
# Poissons Ratio (y) = 0.25303 -0.14495
# Poissons Ratio (z) = 0.56384 -0.18965
#
# Static dielectric constant tensor:
#      x y z
#    x 1.865220 0.029980 0.030300 
#    y 0.029980 1.858980 0.022030 
#    z 0.030300 0.022030 1.819610 
# 
# From -- ./inp_files/95090.got.cif
#   From: 2010.05.17/outbox.cif.g08.bks.cpg/sg2_48_cif.got.tgz:95090.got - 2010.06.03 11:33:40.
