data_PCOD9002042
_publ_section_title
;
Structure prediction by ZEFSAII (Michael W. Deem and Ramdas Pophale) SiO2 
 PCOD9002042
Probable space group: P -1
;
_chemical_formula_sum "Si O2"
_cell_formula_units_Z 16
_cell_length_a 5.607521
_cell_length_b 7.548134
_cell_length_c 17.815289
_cell_angle_alpha 131.005863
_cell_angle_beta 88.731567
_cell_angle_gamma 91.598465
_cell_volume 568.813595
_symmetry_space_group_name_H-M "P -1"
_symmetry_group_IT_number 2
_symmetry_cell_setting 'triclinic'
loop_
_space_group_symop_operation_xyz
x,y,z
-x,-y,-z
loop_
_atom_site_type_symbol
_atom_site_label
_atom_site_fract_x
_atom_site_fract_y
_atom_site_fract_z
Si Si1 0.938609 0.838185 0.105112
Si Si2 0.907412 0.563025 0.180641
Si Si3 0.106681 0.957756 0.590400
Si Si4 0.936491 0.315386 0.330369
Si Si5 0.444138 0.374337 0.386525
Si Si6 0.397994 0.439247 0.205417
Si Si7 0.556907 0.066354 0.932708
Si Si8 0.608715 0.015771 0.604772
O O1 0.959298 0.667208 0.127857
O O2 0.941742 0.099653 0.213435
O O3 0.676593 0.805850 0.061427
O O4 0.179864 0.822572 0.050338
O O5 0.901056 0.784268 0.299964
O O6 0.640904 0.457082 0.158977
O O7 0.135492 0.412532 0.161000
O O8 0.363693 0.931569 0.545977
O O9 0.853979 0.923634 0.543834
O O10 0.092954 0.783036 0.612558
O O11 0.681882 0.433571 0.353394
O O12 0.193342 0.442200 0.369038
O O13 0.500000 0.500000 0.500000
O O14 0.409195 0.100955 0.341588
O O15 0.428449 0.191402 0.178567
O O16 0.387535 0.704211 0.310788
O O17 0.500000 0.000000 0.000000
#
# Coordination Sequence:
#
# PCOD9002042 Si02
#       8
#     2   2   2   2   2   2   2   2
#     4  11  22  41  64  85 116 159 201 244 293 362
#     4   9  17  33  59  83 103 141 194 241 280 337
#     4   7  12  22  41  67  94 122 165 220 253 293
#     4   9  17  30  49  75 108 150 189 219 273 350
#     4  10  17  27  48  86 122 142 174 242 299 325
#     4  10  19  36  58  82 114 151 194 241 287 357
#     4  12  26  42  58  86 121 153 193 253 313 353
#     4   8  14  25  43  68 100 138 174 208 262 327
#
# _framework density 28.128720000000001
#
# number of rings (size 3 to 8) (size 9 to 14) (size 15 to 20)
#    0.000    2.500    0.000    4.500    0.000    2.000 
#    0.000    3.750    0.000    0.000    0.000    5.250 
#    0.000    0.000    0.000    0.000    0.000    0.000 
#
# Total GULP energy -89534.259985 kJ/mol
# GULP energy per Si atom -5595.891249 kJ/mol
# Density = 2.806470 g / cm^3
# Si number density = 28.128720 Si / 1000 Ang^3
#
#
#
# Elastic Constant Matrix: (Units=GPa)
#
#
# Indices 1 2 3 4 5 6 
#
# 1 338.1634 64.0631 35.1846 -6.8037 -8.4926 2.3128
# 2 64.0631 94.0696 -0.1945 -3.7692 -4.2984 4.8748
# 3 35.1846 -0.1945 74.9334 18.1056 -6.9537 7.4760
# 4 -6.8037 -3.7692 18.1056 38.4289 -3.3228 3.4286
# 5 -8.4926 -4.2984 -6.9537 -3.3228 32.2862 -15.1170
# 6 2.3128 4.8748 7.4760 3.4286 -15.1170 54.1484
#
#
#
# Elastic Compliance Matrix: (Units=1/GPa)
#
#
# Indices 1 2 3 4 5 6 
#
# 1 0.003673 -0.002447 -0.002058 0.001390 0.000531 0.000408
# 2 -0.002447 0.012403 0.001275 0.000344 0.000864 -0.000969
# 3 -0.002058 0.001275 0.016479 -0.007733 0.001764 -0.001320
# 4 0.001390 0.000344 -0.007733 0.030128 0.001623 -0.000477
# 5 0.000531 0.000864 0.001764 0.001623 0.036312 0.009691
# 6 0.000408 -0.000969 -0.001320 -0.000477 0.009691 0.021455
#
#
# Mechanical properties :
#
#
# Convention : Reuss Voigt Hill
#
# Bulk Modulus (GPa) = 38.32252 78.36365 58.34309
# Shear Modulus (GPa) = 36.87051 52.18026 44.52539
#
# Velocity S-wave (km/s) = 3.62439 4.31171 3.98290
# Velocity P-wave (km/s) = 5.58288 7.25997 6.47594
#
# Compressibility (1/GPa) = 0.02609431
#
# Stress axis : x y z
#
# Youngs Moduli (GPa) = 272.22636 80.62548 60.68399
#
# Poissons Ratio (x) = 0.19730 0.12491
# Poissons Ratio (y) = 0.66617 -0.07737
# Poissons Ratio (z) = 0.56034 -0.10280
#
# Static dielectric constant tensor:
#      x y z
#    x 2.214490 -0.024690 -0.006720 
#    y -0.024690 2.203960 -0.003550 
#    z -0.006720 -0.003550 2.247830 
# 
# From -- ./inp_files/582594.got.cif
#   From: 2010.05.17/outbox.cif.g08.bks.cpg/sg2_292_cif.got.tgz:582594.got - 2010.06.03 11:33:40.
