data_PCOD9002637
_publ_section_title
;
Structure prediction by ZEFSAII (Michael W. Deem and Ramdas Pophale) SiO2 
 PCOD9002637
Probable space group: P -1
;
_chemical_formula_sum "Si O2"
_cell_formula_units_Z 14
_cell_length_a 7.766051
_cell_length_b 4.803206
_cell_length_c 17.112831
_cell_angle_alpha 94.363288
_cell_angle_beta 122.521590
_cell_angle_gamma 96.223510
_cell_volume 528.151820
_symmetry_space_group_name_H-M "P -1"
_symmetry_group_IT_number 2
_symmetry_cell_setting 'triclinic'
loop_
_space_group_symop_operation_xyz
x,y,z
-x,-y,-z
loop_
_atom_site_type_symbol
_atom_site_label
_atom_site_fract_x
_atom_site_fract_y
_atom_site_fract_z
Si Si1 0.006795 0.177683 0.084322
Si Si2 0.423944 0.790071 0.048739
Si Si3 0.139986 0.246485 0.819088
Si Si4 0.469184 0.806377 0.599213
Si Si5 0.254712 0.212852 0.482121
Si Si6 0.442567 0.211205 0.209198
Si Si7 0.101728 0.680686 0.703179
O O1 0.957638 0.942611 0.135776
O O2 0.238454 0.352477 0.153047
O O3 0.000000 0.000000 0.000000
O O4 0.813916 0.343394 0.032053
O O5 0.614879 0.625037 0.102793
O O6 0.423011 0.980228 0.130503
O O7 0.500000 0.000000 0.000000
O O8 0.029050 0.481864 0.756177
O O9 0.136867 0.003213 0.747637
O O10 0.402452 0.469722 0.566741
O O11 0.643053 0.873696 0.575881
O O12 0.562234 0.907567 0.707038
O O13 0.268098 0.946656 0.534229
O O14 0.052896 0.327655 0.406661
O O15 0.674132 0.390028 0.265349
#
# Coordination Sequence:
#
# PCOD9002637 Si02
#       7
#     2   2   2   2   2   2   2
#     4   9  18  39  64  92 125 164 210 261 311 369
#     4   8  17  37  62  90 125 164 204 253 312 369
#     4  10  21  40  64  91 126 167 209 253 311 376
#     4  10  22  39  63  91 123 163 211 258 309 372
#     4  10  22  41  62  89 126 167 205 255 318 375
#     4  10  21  36  62  97 128 163 213 263 310 372
#     4  11  23  40  64  92 126 165 206 255 315 374
#
# _framework density 26.507528000000001
#
# number of rings (size 3 to 8) (size 9 to 14) (size 15 to 20)
#    0.000    2.286    0.000    1.714    0.000    5.714 
#    0.000   32.857    0.000    0.000    0.000    0.000 
#    0.000    0.000    0.000    0.000    0.000    0.000 
#
# Total GULP energy -78299.769925 kJ/mol
# GULP energy per Si atom -5592.840709 kJ/mol
# Density = 2.644720 g / cm^3
# Si number density = 26.507528 Si / 1000 Ang^3
#
#
#
# Elastic Constant Matrix: (Units=GPa)
#
#
# Indices 1 2 3 4 5 6 
#
# 1 101.4224 2.8161 62.5185 2.8454 12.1096 -14.8150
# 2 2.8161 76.1862 25.3469 -14.9700 -0.5556 -5.8199
# 3 62.5185 25.3469 164.0696 -9.8278 5.0869 -9.6580
# 4 2.8454 -14.9700 -9.8278 27.8263 -2.1936 3.9034
# 5 12.1096 -0.5556 5.0869 -2.1936 51.5724 -0.4825
# 6 -14.8150 -5.8199 -9.6580 3.9034 -0.4825 21.6247
#
#
#
# Elastic Compliance Matrix: (Units=1/GPa)
#
#
# Indices 1 2 3 4 5 6 
#
# 1 0.015025 0.001076 -0.005540 -0.004395 -0.003074 0.008834
# 2 0.001076 0.015420 -0.002229 0.007066 0.000458 0.002627
# 3 -0.005540 -0.002229 0.008631 0.002597 0.000527 -0.000997
# 4 -0.004395 0.007066 0.002597 0.042367 0.002584 -0.007540
# 5 -0.003074 0.000458 0.000527 0.002584 0.020159 -0.001764
# 6 0.008834 0.002627 -0.000997 -0.007540 -0.001764 0.053879
#
#
# Mechanical properties :
#
#
# Convention : Reuss Voigt Hill
#
# Bulk Modulus (GPa) = 38.92243 58.11567 48.51905
# Shear Modulus (GPa) = 28.18046 36.93779 32.55912
#
# Velocity S-wave (km/s) = 3.26408 3.73699 3.50851
# Velocity P-wave (km/s) = 5.37783 6.37118 5.89546
#
# Compressibility (1/GPa) = 0.02569213
#
# Stress axis : x y z
#
# Youngs Moduli (GPa) = 66.55382 64.85139 115.86575
#
# Poissons Ratio (x) = -0.06981 0.64186
# Poissons Ratio (y) = -0.07164 0.25823
# Poissons Ratio (z) = 0.36868 0.14453
#
# Static dielectric constant tensor:
#      x y z
#    x 2.191270 -0.009430 0.021750 
#    y -0.009430 1.999790 -0.031040 
#    z 0.021750 -0.031040 2.105650 
# 
# From -- ./inp_files/553557.got.cif
#   From: 2010.05.17/outbox.cif.g08.bks.cpg/sg2_277_cif.got.tgz:553557.got - 2010.06.03 11:33:40.
