data_PCOD9002057
_publ_section_title
;
Structure prediction by ZEFSAII (Michael W. Deem and Ramdas Pophale) SiO2 
 PCOD9002057
Probable space group: P -1
;
_chemical_formula_sum "Si O2"
_cell_formula_units_Z 16
_cell_length_a 5.514893
_cell_length_b 25.466834
_cell_length_c 23.915135
_cell_angle_alpha 168.932115
_cell_angle_beta 107.070174
_cell_angle_gamma 71.928877
_cell_volume 611.898682
_symmetry_space_group_name_H-M "P -1"
_symmetry_group_IT_number 2
_symmetry_cell_setting 'triclinic'
loop_
_space_group_symop_operation_xyz
x,y,z
-x,-y,-z
loop_
_atom_site_type_symbol
_atom_site_label
_atom_site_fract_x
_atom_site_fract_y
_atom_site_fract_z
Si Si1 0.268635 0.373473 0.410984
Si Si2 0.459037 0.087469 0.350745
Si Si3 0.900665 0.768960 0.310728
Si Si4 0.960284 0.000967 0.181750
Si Si5 0.505789 0.864061 0.936933
Si Si6 0.880000 0.582901 0.828358
Si Si7 0.373128 0.667208 0.996593
Si Si8 0.396813 0.946529 0.511682
O O1 0.408200 0.609790 0.696800
O O2 0.435140 0.253930 0.244366
O O3 0.000000 0.500000 0.500000
O O4 0.277677 0.111981 0.178114
O O5 0.512535 0.394904 0.691013
O O6 0.243954 0.089076 0.289812
O O7 0.668537 0.835827 0.088861
O O8 0.344078 0.954272 0.259426
O O9 0.662480 0.744808 0.311320
O O10 0.166953 0.866028 0.451729
O O11 0.754411 0.001433 0.502613
O O12 0.000000 0.500000 0.000000
O O13 0.824077 0.273803 0.490140
O O14 0.767039 0.959770 0.076164
O O15 0.995142 0.706571 0.908546
O O16 0.087602 0.586555 0.895491
O O17 0.519652 0.761915 0.158564
#
# Coordination Sequence:
#
# PCOD9002057 Si02
#       8
#     2   2   2   2   2   2   2   2
#     4  10  21  38  56  83 116 150 196 238 293 352
#     4  10  22  41  59  87 120 152 201 248 303 360
#     4  10  22  42  61  91 128 163 211 264 315 381
#     4  10  21  37  57  86 116 150 197 240 301 356
#     4  10  21  36  57  83 116 151 191 246 288 355
#     4  10  21  39  58  85 118 152 194 251 294 367
#     4  10  23  38  61  90 117 159 201 250 304 367
#     4  10  23  39  61  94 123 165 214 259 319 383
#
# _framework density 26.148121
#
# number of rings (size 3 to 8) (size 9 to 14) (size 15 to 20)
#    0.000    2.000    0.000    2.250    3.500    2.000 
#    0.000    0.000    0.000    0.000    0.000    0.000 
#    0.000    0.000    0.000    0.000    0.000    0.000 
#
# Total GULP energy -89253.796228 kJ/mol
# GULP energy per Si atom -5578.362264 kJ/mol
# Density = 2.608861 g / cm^3
# Si number density = 26.148121 Si / 1000 Ang^3
#
#
#
# Elastic Constant Matrix: (Units=GPa)
#
#
# Indices 1 2 3 4 5 6 
#
# 1 95.8497 17.2451 52.7289 8.2879 -8.3422 -30.5759
# 2 17.2451 69.7063 45.7126 4.5460 6.7711 -24.6362
# 3 52.7289 45.7126 196.7072 9.0965 9.5199 -18.9337
# 4 8.2879 4.5460 9.0965 45.1990 -14.3318 -0.2488
# 5 -8.3422 6.7711 9.5199 -14.3318 37.0737 4.1065
# 6 -30.5759 -24.6362 -18.9337 -0.2488 4.1065 28.2045
#
#
#
# Elastic Compliance Matrix: (Units=1/GPa)
#
#
# Indices 1 2 3 4 5 6 
#
# 1 0.019630 0.006688 -0.004375 -0.003118 0.000445 0.024094
# 2 0.006688 0.026966 -0.004702 -0.005178 -0.007391 0.028679
# 3 -0.004375 -0.004702 0.007104 -0.000752 -0.001817 -0.003823
# 4 -0.003118 -0.005178 -0.000752 0.027126 0.012022 -0.009919
# 5 0.000445 -0.007391 -0.001817 0.012022 0.034885 -0.012167
# 6 0.024094 0.028679 -0.003823 -0.009919 -0.012167 0.085743
#
#
# Mechanical properties :
#
#
# Convention : Reuss Voigt Hill
#
# Bulk Modulus (GPa) = 20.44004 65.95961 43.19982
# Shear Modulus (GPa) = 22.46793 38.53386 30.50090
#
# Velocity S-wave (km/s) = 2.93449 3.84301 3.41906
# Velocity P-wave (km/s) = 4.39495 6.70610 5.66954
#
# Compressibility (1/GPa) = 0.04892358
#
# Stress axis : x y z
#
# Youngs Moduli (GPa) = 50.94121 37.08317 140.77111
#
# Poissons Ratio (x) = -0.24801 0.61581
# Poissons Ratio (y) = -0.34069 0.66188
# Poissons Ratio (z) = 0.22284 0.17436
#
# Static dielectric constant tensor:
#      x y z
#    x 2.286930 0.090590 0.020680 
#    y 0.090590 2.105800 -0.001400 
#    z 0.020680 -0.001400 2.026950 
# 
# From -- ./inp_files/12920.got.cif
#   From: 2010.05.17/outbox.cif.g08.bks.cpg/sg2_7_cif.got.tgz:12920.got - 2010.06.03 11:33:40.
