data_PCOD9002435
_publ_section_title
;
Structure prediction by ZEFSAII (Michael W. Deem and Ramdas Pophale) SiO2 
 PCOD9002435
Probable space group: P -1
;
_chemical_formula_sum "Si O2"
_cell_formula_units_Z 16
_cell_length_a 10.415820
_cell_length_b 12.272080
_cell_length_c 14.226343
_cell_angle_alpha 21.551059
_cell_angle_beta 90.666702
_cell_angle_gamma 87.473506
_cell_volume 660.427787
_symmetry_space_group_name_H-M "P -1"
_symmetry_group_IT_number 2
_symmetry_cell_setting 'triclinic'
loop_
_space_group_symop_operation_xyz
x,y,z
-x,-y,-z
loop_
_atom_site_type_symbol
_atom_site_label
_atom_site_fract_x
_atom_site_fract_y
_atom_site_fract_z
Si Si1 0.395427 0.487910 0.426623
Si Si2 0.347431 0.362511 0.177768
Si Si3 0.995431 0.790108 0.577457
Si Si4 0.219196 0.888494 0.227496
Si Si5 0.722148 0.457169 0.308041
Si Si6 0.936339 0.122854 0.116598
Si Si7 0.640227 0.263396 0.280261
Si Si8 0.343843 0.838859 0.960297
O O1 0.500000 0.500000 0.500000
O O2 0.257973 0.641325 0.346595
O O3 0.412685 0.684809 0.176977
O O4 0.394403 0.139387 0.686470
O O5 0.499210 0.243839 0.249991
O O6 0.347003 0.605260 0.063045
O O7 0.289304 0.074008 0.441451
O O8 0.288951 0.520400 0.956634
O O9 0.142155 0.675963 0.634081
O O10 0.000000 0.000000 0.500000
O O11 0.929786 0.968461 0.342715
O O12 0.940833 0.477691 0.845477
O O13 0.286679 0.738545 0.442796
O O14 0.068389 0.978415 0.180856
O O15 0.273960 0.192912 0.955543
O O16 0.620695 0.400593 0.273068
O O17 0.811043 0.078962 0.090091
#
# Coordination Sequence:
#
# PCOD9002435 Si02
#       8
#     2   2   2   2   2   2   2   2
#     4  12  28  45  69  95 121 166 215 267 336 371
#     4  10  23  37  58  89 125 159 211 248 303 378
#     4  10  21  36  60  94 130 167 208 251 301 371
#     4  10  23  43  62  93 124 161 217 261 305 382
#     4  10  21  36  65  89 122 171 201 256 313 358
#     4  10  23  41  63  93 127 166 212 254 318 369
#     4  10  21  38  58  88 123 171 202 244 307 374
#     4  12  26  44  68  95 128 167 207 276 317 369
#
# _framework density 24.226721000000001
#
# number of rings (size 3 to 8) (size 9 to 14) (size 15 to 20)
#    0.000    1.500    0.000    3.750    7.000    1.000 
#    0.000    0.000    0.000    0.000    0.000    0.000 
#    0.000    0.000    0.000    0.000    0.000    0.000 
#
# Total GULP energy -89562.000729 kJ/mol
# GULP energy per Si atom -5597.625046 kJ/mol
# Density = 2.417158 g / cm^3
# Si number density = 24.226721 Si / 1000 Ang^3
#
#
#
# Elastic Constant Matrix: (Units=GPa)
#
#
# Indices 1 2 3 4 5 6 
#
# 1 65.3276 6.8894 17.5403 9.1109 6.9695 4.2937
# 2 6.8894 66.0223 31.2119 12.0268 14.0546 -10.3940
# 3 17.5403 31.2119 181.9740 14.5847 2.4038 -1.9756
# 4 9.1109 12.0268 14.5847 43.0603 9.1845 7.1892
# 5 6.9695 14.0546 2.4038 9.1845 17.6152 -6.4865
# 6 4.2937 -10.3940 -1.9756 7.1892 -6.4865 36.4475
#
#
#
# Elastic Compliance Matrix: (Units=1/GPa)
#
#
# Indices 1 2 3 4 5 6 
#
# 1 0.016807 0.000196 -0.001508 -0.001054 -0.007183 -0.003076
# 2 0.000196 0.020479 -0.003114 -0.002500 -0.013298 0.003775
# 3 -0.001508 -0.003114 0.006277 -0.001745 0.003344 0.000569
# 4 -0.001054 -0.002500 -0.001745 0.029814 -0.016385 -0.009480
# 5 -0.007183 -0.013298 0.003344 -0.016385 0.083984 0.015414
# 6 -0.003076 0.003775 0.000569 -0.009480 0.015414 0.033520
#
#
# Mechanical properties :
#
#
# Convention : Reuss Voigt Hill
#
# Bulk Modulus (GPa) = 28.80979 47.17857 37.99418
# Shear Modulus (GPa) = 23.66278 36.60342 30.13310
#
# Velocity S-wave (km/s) = 3.12865 3.89121 3.53058
# Velocity P-wave (km/s) = 4.99688 6.30117 5.68654
#
# Compressibility (1/GPa) = 0.03471043
#
# Stress axis : x y z
#
# Youngs Moduli (GPa) = 59.49832 48.83091 159.32001
#
# Poissons Ratio (x) = -0.00956 0.24019
# Poissons Ratio (y) = -0.01165 0.49618
# Poissons Ratio (z) = 0.08970 0.15208
#
# Static dielectric constant tensor:
#      x y z
#    x 2.033440 -0.021930 0.030370 
#    y -0.021930 1.890270 0.042330 
#    z 0.030370 0.042330 1.941450 
# 
# From -- ./inp_files/364494.got.cif
#   From: 2010.05.17/outbox.cif.g08.bks.cpg/sg2_183_cif.got.tgz:364494.got - 2010.06.03 11:33:40.
