data_PCOD9002921
_publ_section_title
;
Structure prediction by ZEFSAII (Michael W. Deem and Ramdas Pophale) SiO2 
 PCOD9002921
Probable space group: P -1
;
_chemical_formula_sum "Si O2"
_cell_formula_units_Z 14
_cell_length_a 12.574609
_cell_length_b 15.545490
_cell_length_c 5.320067
_cell_angle_alpha 94.364407
_cell_angle_beta 103.094720
_cell_angle_gamma 140.669661
_cell_volume 586.352899
_symmetry_space_group_name_H-M "P -1"
_symmetry_group_IT_number 2
_symmetry_cell_setting 'triclinic'
loop_
_space_group_symop_operation_xyz
x,y,z
-x,-y,-z
loop_
_atom_site_type_symbol
_atom_site_label
_atom_site_fract_x
_atom_site_fract_y
_atom_site_fract_z
Si Si1 0.000039 0.558533 0.264424
Si Si2 0.891875 0.213939 0.366132
Si Si3 0.767592 0.953162 0.228172
Si Si4 0.833137 0.855046 0.607598
Si Si5 0.740719 0.642641 0.168816
Si Si6 0.816096 0.558537 0.827806
Si Si7 0.503612 0.656034 0.767500
O O1 0.147482 0.729433 0.463138
O O2 0.000000 0.500000 0.500000
O O3 0.825302 0.507024 0.073357
O O4 0.000000 0.500000 0.000000
O O5 0.066327 0.273574 0.593177
O O6 0.982657 0.306391 0.174068
O O7 0.746329 0.042372 0.221877
O O8 0.818177 0.944311 0.525226
O O9 0.581312 0.785482 0.998354
O O10 0.955997 0.041832 0.197981
O O11 0.761387 0.752449 0.306276
O O12 0.681264 0.744248 0.713592
O O13 0.573424 0.479808 0.169998
O O14 0.754797 0.615071 0.887839
O O15 0.664233 0.423824 0.525793
#
# Coordination Sequence:
#
# PCOD9002921 Si02
#       7
#     2   2   2   2   2   2   2
#     4  11  21  40  70 101 119 152 202 257 313 382
#     4   9  20  38  60  91 120 160 199 255 308 372
#     4  10  22  36  55  84 123 168 211 249 309 359
#     4  10  21  37  53  81 120 172 223 256 293 353
#     4   9  20  35  55  81 119 164 217 259 299 350
#     4  10  21  38  60  90 123 154 204 261 314 363
#     4  11  21  34  55  84 121 170 207 260 308 358
#
# _framework density 23.876407
#
# number of rings (size 3 to 8) (size 9 to 14) (size 15 to 20)
#    0.000    2.000    1.429    1.714    0.000   10.286 
#    0.000    0.000    0.000    1.714    0.000    0.000 
#    0.000    0.000    0.000    0.000    0.000    0.000 
#
# Total GULP energy -78068.049433 kJ/mol
# GULP energy per Si atom -5576.289245 kJ/mol
# Density = 2.382206 g / cm^3
# Si number density = 23.876407 Si / 1000 Ang^3
#
#
#
# Elastic Constant Matrix: (Units=GPa)
#
#
# Indices 1 2 3 4 5 6 
#
# 1 42.4098 37.6247 17.3087 -2.0795 -23.9826 -24.5355
# 2 37.6247 125.4614 60.9905 20.1886 -9.5011 -27.7051
# 3 17.3087 60.9905 131.6736 5.8036 -7.6324 -19.4347
# 4 -2.0795 20.1886 5.8036 36.3322 -0.5844 -1.2161
# 5 -23.9826 -9.5011 -7.6324 -0.5844 44.9066 -1.5394
# 6 -24.5355 -27.7051 -19.4347 -1.2161 -1.5394 44.2487
#
#
#
# Elastic Compliance Matrix: (Units=1/GPa)
#
#
# Indices 1 2 3 4 5 6 
#
# 1 0.090995 -0.019791 0.005443 0.017518 0.047022 0.042572
# 2 -0.019791 0.016914 -0.005789 -0.009856 -0.008223 -0.003484
# 3 0.005443 -0.005789 0.010281 0.002081 0.003597 0.004091
# 4 0.017518 -0.009856 0.002081 0.033993 0.008261 0.005678
# 5 0.047022 -0.008223 0.003597 0.008261 0.047195 0.024373
# 6 0.042572 -0.003484 0.004091 0.005678 0.024373 0.046825
#
#
# Mechanical properties :
#
#
# Convention : Reuss Voigt Hill
#
# Bulk Modulus (GPa) = 12.83455 59.04361 35.93908
# Shear Modulus (GPa) = 16.00248 37.33890 26.67069
#
# Velocity S-wave (km/s) = 2.59167 3.95883 3.34583
# Velocity P-wave (km/s) = 3.78718 6.75862 5.47822
#
# Compressibility (1/GPa) = 0.07791466
#
# Stress axis : x y z
#
# Youngs Moduli (GPa) = 10.98960 59.12210 97.26433
#
# Poissons Ratio (x) = 1.17011 -0.52939
# Poissons Ratio (y) = 0.21750 0.56310
# Poissons Ratio (z) = -0.05981 0.34228
#
# Static dielectric constant tensor:
#      x y z
#    x 2.134560 -0.032150 -0.013620 
#    y -0.032150 1.982730 -0.010970 
#    z -0.013620 -0.010970 2.032450 
# 
# From -- ./inp_files/38027.got.cif
#   From: 2010.05.17/outbox.cif.g08.bks.cpg/sg2_20_cif.got.tgz:38027.got - 2010.06.03 11:33:40.
