data_PCOD9002227
_publ_section_title
;
Structure prediction by ZEFSAII (Michael W. Deem and Ramdas Pophale) SiO2 
 PCOD9002227
Probable space group: P -1
;
_chemical_formula_sum "Si O2"
_cell_formula_units_Z 16
_cell_length_a 5.518206
_cell_length_b 12.947225
_cell_length_c 14.325359
_cell_angle_alpha 53.041841
_cell_angle_beta 66.384797
_cell_angle_gamma 70.055707
_cell_volume 742.290998
_symmetry_space_group_name_H-M "P -1"
_symmetry_group_IT_number 2
_symmetry_cell_setting 'triclinic'
loop_
_space_group_symop_operation_xyz
x,y,z
-x,-y,-z
loop_
_atom_site_type_symbol
_atom_site_label
_atom_site_fract_x
_atom_site_fract_y
_atom_site_fract_z
Si Si1 0.071172 0.681909 0.826501
Si Si2 0.674206 0.645065 0.238397
Si Si3 0.958054 0.023193 0.103893
Si Si4 0.076047 0.565051 0.548410
Si Si5 0.850336 0.420868 0.932215
Si Si6 0.766950 0.175638 0.701471
Si Si7 0.335555 0.089085 0.170342
Si Si8 0.438226 0.445101 0.252701
O O1 0.333627 0.678042 0.724611
O O2 0.967719 0.549703 0.879691
O O3 0.833406 0.800051 0.802106
O O4 0.165749 0.665423 0.928161
O O5 0.731028 0.550201 0.369410
O O6 0.497860 0.778083 0.221771
O O7 0.507249 0.560006 0.245530
O O8 0.947719 0.651592 0.136839
O O9 0.652083 0.093613 0.120185
O O10 0.189111 0.088985 0.089586
O O11 0.000785 0.884248 0.229411
O O12 0.000000 0.000000 0.000000
O O13 0.174121 0.699871 0.432356
O O14 0.000000 0.500000 0.500000
O O15 0.833663 0.593844 0.644023
O O16 0.591973 0.481040 0.882483
O O17 0.711303 0.055218 0.711792
#
# Coordination Sequence:
#
# PCOD9002227 Si02
#       8
#     2   2   2   2   2   2   2   2
#     4  10  21  40  60  90 126 171 215 265 317 389
#     4  10  21  36  58  97 121 162 207 267 326 386
#     4  10  24  42  63  95 129 175 215 260 318 390
#     4  11  22  38  63  94 126 166 210 276 324 386
#     4   9  21  36  63  88 127 161 216 263 327 376
#     4  10  24  37  62  91 131 165 211 263 329 381
#     4  10  25  40  64  91 131 173 209 262 319 387
#     4  10  21  37  61  91 123 163 212 271 321 380
#
# _framework density 21.554887999999998
#
# number of rings (size 3 to 8) (size 9 to 14) (size 15 to 20)
#    0.750    1.250    1.250    1.125    5.250    1.000 
#    0.000    0.625    0.000    7.500    0.000    0.000 
#    0.000    0.000    0.000    0.000    0.000    0.000 
#
# Total GULP energy -89214.524641 kJ/mol
# GULP energy per Si atom -5575.907790 kJ/mol
# Density = 2.150583 g / cm^3
# Si number density = 21.554888 Si / 1000 Ang^3
#
#
#
# Elastic Constant Matrix: (Units=GPa)
#
#
# Indices 1 2 3 4 5 6 
#
# 1 96.4020 26.4345 5.7295 2.5034 13.5174 -20.9089
# 2 26.4345 113.0348 11.2170 -1.9978 -6.6397 -43.8189
# 3 5.7295 11.2170 40.6384 -4.1181 8.1677 -6.1176
# 4 2.5034 -1.9978 -4.1181 16.8115 -0.2544 -1.6181
# 5 13.5174 -6.6397 8.1677 -0.2544 32.7833 12.7186
# 6 -20.9089 -43.8189 -6.1176 -1.6181 12.7186 49.0459
#
#
#
# Elastic Compliance Matrix: (Units=1/GPa)
#
#
# Indices 1 2 3 4 5 6 
#
# 1 0.013414 -0.000990 0.001111 -0.001282 -0.008818 0.007217
# 2 -0.000990 0.013941 -0.001364 0.002632 -0.001161 0.012251
# 3 0.001111 -0.001364 0.028374 0.007012 -0.009921 0.005598
# 4 -0.001282 0.002632 0.007012 0.062182 -0.002266 0.005318
# 5 -0.008818 -0.001161 -0.009921 -0.002266 0.043060 -0.017275
# 6 0.007217 0.012251 0.005598 0.005318 -0.017275 0.039764
#
#
# Mechanical properties :
#
#
# Convention : Reuss Voigt Hill
#
# Bulk Modulus (GPa) = 18.78205 37.42636 28.10420
# Shear Modulus (GPa) = 22.62744 33.50774 28.06759
#
# Velocity S-wave (km/s) = 3.24351 3.94703 3.61244
# Velocity P-wave (km/s) = 4.77071 6.17843 5.51963
#
# Compressibility (1/GPa) = 0.05324233
#
# Stress axis : x y z
#
# Youngs Moduli (GPa) = 74.55066 71.72913 35.24302
#
# Poissons Ratio (x) = 0.07103 -0.03915
# Poissons Ratio (y) = 0.07382 0.04808
# Poissons Ratio (z) = -0.08282 0.09786
#
# Static dielectric constant tensor:
#      x y z
#    x 1.817730 -0.034420 -0.057280 
#    y -0.034420 1.790990 -0.037510 
#    z -0.057280 -0.037510 1.720640 
# 
# From -- ./inp_files/482716.got.cif
#   From: 2010.05.17/outbox.cif.g08.bks.cpg/sg2_242_cif.got.tgz:482716.got - 2010.06.03 11:33:40.
