data_PCOD9002688
_publ_section_title
;
Structure prediction by ZEFSAII (Michael W. Deem and Ramdas Pophale) SiO2 
 PCOD9002688
Probable space group: P -1
;
_chemical_formula_sum "Si O2"
_cell_formula_units_Z 16
_cell_length_a 10.035401
_cell_length_b 14.376200
_cell_length_c 18.856339
_cell_angle_alpha 150.285806
_cell_angle_beta 37.078793
_cell_angle_gamma 144.867549
_cell_volume 738.557161
_symmetry_space_group_name_H-M "P -1"
_symmetry_group_IT_number 2
_symmetry_cell_setting 'triclinic'
loop_
_space_group_symop_operation_xyz
x,y,z
-x,-y,-z
loop_
_atom_site_type_symbol
_atom_site_label
_atom_site_fract_x
_atom_site_fract_y
_atom_site_fract_z
Si Si1 0.287039 0.633605 0.966514
Si Si2 0.579893 0.875541 0.598497
Si Si3 0.080362 0.846671 0.956137
Si Si4 0.756765 0.502641 0.366769
Si Si5 0.500559 0.458937 0.315309
Si Si6 0.188653 0.973955 0.156418
Si Si7 0.364250 0.175703 0.941091
Si Si8 0.011425 0.942906 0.571250
O O1 0.388953 0.663800 0.022407
O O2 0.329014 0.851043 0.053432
O O3 0.428904 0.536691 0.792983
O O4 0.000000 0.500000 0.000000
O O5 0.413198 0.633179 0.492670
O O6 0.767255 0.921791 0.616877
O O7 0.428249 0.009480 0.761552
O O8 0.759788 0.946770 0.502369
O O9 0.208395 0.704729 0.778192
O O10 0.205439 0.061638 0.002570
O O11 0.799401 0.748847 0.987239
O O12 0.110228 0.882301 0.051042
O O13 0.500000 0.500000 0.500000
O O14 0.748774 0.529626 0.302821
O O15 0.965393 0.705263 0.444163
O O16 0.341120 0.221955 0.248464
O O17 0.982906 0.950752 0.286017
#
# Coordination Sequence:
#
# PCOD9002688 Si02
#       8
#     2   2   2   2   2   2   2   2
#     4  12  24  39  64  98 132 167 217 275 328 383
#     4  10  22  39  59  94 130 168 208 270 334 377
#     4  11  24  42  64  98 132 172 216 268 327 385
#     4  11  20  35  62  97 121 163 220 269 313 377
#     4  11  21  35  63  94 122 161 226 273 309 372
#     4  12  21  40  64  99 123 167 227 274 308 379
#     4  11  24  43  64  92 137 175 209 268 335 391
#     4  10  21  36  63  92 127 162 218 275 320 374
#
# _framework density 21.663861000000001
#
# number of rings (size 3 to 8) (size 9 to 14) (size 15 to 20)
#    0.000    1.000    5.000    3.375    3.500    0.000 
#    0.000    5.000    0.000    0.000    0.000    0.000 
#    0.000    0.000    0.000    0.000    0.000    0.000 
#
# Total GULP energy -89327.627937 kJ/mol
# GULP energy per Si atom -5582.976746 kJ/mol
# Density = 2.161455 g / cm^3
# Si number density = 21.663861 Si / 1000 Ang^3
#
#
#
# Elastic Constant Matrix: (Units=GPa)
#
#
# Indices 1 2 3 4 5 6 
#
# 1 85.1584 19.7915 54.6385 -2.7040 9.9364 13.2050
# 2 19.7915 66.8127 23.7072 -1.6148 3.9005 1.2250
# 3 54.6385 23.7072 144.3816 -0.6807 19.6386 2.0441
# 4 -2.7040 -1.6148 -0.6807 28.2862 -3.1385 7.7204
# 5 9.9364 3.9005 19.6386 -3.1385 25.9999 -6.4520
# 6 13.2050 1.2250 2.0441 7.7204 -6.4520 23.9071
#
#
#
# Elastic Compliance Matrix: (Units=1/GPa)
#
#
# Indices 1 2 3 4 5 6 
#
# 1 0.018752 -0.002892 -0.005751 0.004339 -0.004957 -0.012457
# 2 -0.002892 0.016388 -0.001622 0.000417 0.000119 0.000794
# 3 -0.005751 -0.001622 0.010008 -0.001360 -0.004906 0.001519
# 4 0.004339 0.000417 -0.001360 0.039920 0.000381 -0.015090
# 5 -0.004957 0.000119 -0.004906 0.000381 0.048059 0.015998
# 6 -0.012457 0.000794 0.001519 -0.015090 0.015998 0.057729
#
#
# Mechanical properties :
#
#
# Convention : Reuss Voigt Hill
#
# Bulk Modulus (GPa) = 40.61839 54.73632 47.67736
# Shear Modulus (GPa) = 22.76956 28.85302 25.81129
#
# Velocity S-wave (km/s) = 3.24549 3.65341 3.45548
# Velocity P-wave (km/s) = 5.73013 6.56640 6.16246
#
# Compressibility (1/GPa) = 0.02461939
#
# Stress axis : x y z
#
# Youngs Moduli (GPa) = 53.32696 61.02052 99.92048
#
# Poissons Ratio (x) = 0.17646 0.57460
# Poissons Ratio (y) = 0.15421 0.16207
# Poissons Ratio (z) = 0.30666 0.09898
#
# Static dielectric constant tensor:
#      x y z
#    x 1.815000 -0.026430 0.000860 
#    y -0.026430 1.891640 0.037880 
#    z 0.000860 0.037880 1.829680 
# 
# From -- ./inp_files/561408.got.cif
#   From: 2010.05.17/outbox.cif.g08.bks.cpg/sg2_281_cif.got.tgz:561408.got - 2010.06.03 11:33:40.
