data_PCOD9002999
_publ_section_title
;
Structure prediction by ZEFSAII (Michael W. Deem and Ramdas Pophale) SiO2 
 PCOD9002999
Probable space group: P -1
;
_chemical_formula_sum "Si O2"
_cell_formula_units_Z 10
_cell_length_a 8.664826
_cell_length_b 11.951865
_cell_length_c 9.306582
_cell_angle_alpha 62.538963
_cell_angle_beta 82.073039
_cell_angle_gamma 35.133657
_cell_volume 434.810432
_symmetry_space_group_name_H-M "P -1"
_symmetry_group_IT_number 2
_symmetry_cell_setting 'triclinic'
loop_
_space_group_symop_operation_xyz
x,y,z
-x,-y,-z
loop_
_atom_site_type_symbol
_atom_site_label
_atom_site_fract_x
_atom_site_fract_y
_atom_site_fract_z
Si Si1 0.767544 0.523259 0.453440
Si Si2 0.069599 0.162079 0.883446
Si Si3 0.485755 0.635213 0.144840
Si Si4 0.887128 0.450554 0.970775
Si Si5 0.647604 0.766011 0.573797
O O1 0.977375 0.298822 0.669601
O O2 0.592581 0.559336 0.341014
O O3 0.558845 0.757290 0.442505
O O4 0.998333 0.446997 0.375116
O O5 0.767549 0.293649 0.888826
O O6 0.129289 0.214679 0.976439
O O7 0.330655 0.879431 0.997087
O O8 0.760887 0.444192 0.111015
O O9 0.631192 0.676630 0.756916
O O10 0.000000 0.500000 0.000000
O O11 0.500000 0.000000 0.500000
#
# Coordination Sequence:
#
# PCOD9002999 Si02
#       5
#     2   2   2   2   2
#     4  10  21  38  59  85 116 151 194 239 284 343
#     4  10  24  40  58  89 119 152 197 237 286 350
#     4  11  22  40  63  84 118 158 191 238 293 342
#     4  11  22  38  59  87 117 152 193 241 288 340
#     4  10  21  37  56  87 119 147 191 242 288 343
#
# _framework density 22.998528
#
# number of rings (size 3 to 8) (size 9 to 14) (size 15 to 20)
#    0.000    1.600    2.000    2.400    2.800    0.800 
#    0.000    0.000    0.000   13.200    0.000    0.000 
#    0.000    0.000    0.000    0.000    0.000    0.000 
#
# Total GULP energy -55884.890406 kJ/mol
# GULP energy per Si atom -5588.489041 kJ/mol
# Density = 2.294618 g / cm^3
# Si number density = 22.998528 Si / 1000 Ang^3
#
#
#
# Elastic Constant Matrix: (Units=GPa)
#
#
# Indices 1 2 3 4 5 6 
#
# 1 42.9305 10.9002 0.0692 15.8646 3.4583 5.3520
# 2 10.9002 80.0174 35.8139 19.3509 3.0530 22.1979
# 3 0.0692 35.8139 101.2802 15.0777 -1.5367 15.6359
# 4 15.8646 19.3509 15.0777 36.9688 9.8769 -3.1075
# 5 3.4583 3.0530 -1.5367 9.8769 33.6873 5.2264
# 6 5.3520 22.1979 15.6359 -3.1075 5.2264 36.1640
#
#
#
# Elastic Compliance Matrix: (Units=1/GPa)
#
#
# Indices 1 2 3 4 5 6 
#
# 1 0.029803 0.000267 0.003496 -0.015799 0.002928 -0.007867
# 2 0.000267 0.019932 -0.003490 -0.010977 0.003112 -0.012158
# 3 0.003496 -0.003490 0.012823 -0.006144 0.003103 -0.004896
# 4 -0.015799 -0.010977 -0.006144 0.047415 -0.014339 0.017879
# 5 0.002928 0.003112 0.003103 -0.014339 0.034995 -0.009975
# 6 -0.007867 -0.012158 -0.004896 0.017879 -0.009975 0.041373
#
#
# Mechanical properties :
#
#
# Convention : Reuss Voigt Hill
#
# Bulk Modulus (GPa) = 15.84698 35.31051 25.57875
# Shear Modulus (GPa) = 24.17438 33.19367 28.68403
#
# Velocity S-wave (km/s) = 3.24563 3.80319 3.53542
# Velocity P-wave (km/s) = 4.57721 5.88833 5.27367
#
# Compressibility (1/GPa) = 0.06310350
#
# Stress axis : x y z
#
# Youngs Moduli (GPa) = 33.55346 50.17130 77.98576
#
# Poissons Ratio (x) = -0.01337 -0.27266
# Poissons Ratio (y) = -0.00894 0.27216
# Poissons Ratio (z) = -0.11731 0.17509
#
# Static dielectric constant tensor:
#      x y z
#    x 1.879920 0.036970 0.033280 
#    y 0.036970 1.855930 0.012050 
#    z 0.033280 0.012050 1.873930 
# 
# From -- ./inp_files/15322.got.cif
#   From: 2010.05.17/outbox.cif.g08.bks.cpg/sg2_8_cif.got.tgz:15322.got - 2010.06.03 11:33:40.
