data_PCOD9002353
_publ_section_title
;
Structure prediction by ZEFSAII (Michael W. Deem and Ramdas Pophale) SiO2 
 PCOD9002353
Probable space group: P -1
;
_chemical_formula_sum "Si O2"
_cell_formula_units_Z 14
_cell_length_a 9.408180
_cell_length_b 9.585077
_cell_length_c 16.337211
_cell_angle_alpha 134.465032
_cell_angle_beta 62.621024
_cell_angle_gamma 135.137733
_cell_volume 739.720497
_symmetry_space_group_name_H-M "P -1"
_symmetry_group_IT_number 2
_symmetry_cell_setting 'triclinic'
loop_
_space_group_symop_operation_xyz
x,y,z
-x,-y,-z
loop_
_atom_site_type_symbol
_atom_site_label
_atom_site_fract_x
_atom_site_fract_y
_atom_site_fract_z
Si Si1 0.100307 0.026125 0.606979
Si Si2 0.710744 0.121658 0.203875
Si Si3 0.362195 0.671047 0.203900
Si Si4 0.537148 0.255028 0.610281
Si Si5 0.060829 0.216334 0.273826
Si Si6 0.215679 0.148057 0.045403
Si Si7 0.014424 0.337099 0.657153
O O1 0.030182 0.792579 0.472520
O O2 0.033925 0.941571 0.683441
O O3 0.343282 0.220039 0.611093
O O4 0.007395 0.154222 0.647518
O O5 0.881205 0.169911 0.244547
O O6 0.772881 0.391625 0.287251
O O7 0.494999 0.907145 0.209375
O O8 0.710758 0.004409 0.069744
O O9 0.477494 0.736595 0.285437
O O10 0.329624 0.419946 0.087169
O O11 0.151576 0.622932 0.258936
O O12 0.761912 0.498484 0.629565
O O13 0.500000 0.000000 0.500000
O O14 0.180785 0.160338 0.156211
O O15 0.000000 0.000000 0.000000
#
# Coordination Sequence:
#
# PCOD9002353 Si02
#       7
#     2   2   2   2   2   2   2
#     4  11  24  39  57  84 128 155 184 241 298 335
#     4  11  20  37  64  87 114 153 198 241 291 331
#     4  11  20  35  62  90 112 153 196 235 293 338
#     4  11  20  35  58  88 114 147 202 238 270 351
#     4  10  21  36  60  85 114 155 193 240 287 336
#     4   9  18  37  59  91 115 140 201 253 271 338
#     4  11  24  39  55  90 121 153 193 238 288 356
#
# _framework density 18.926067
#
# number of rings (size 3 to 8) (size 9 to 14) (size 15 to 20)
#    0.000    1.429    7.143    0.429    2.000    2.286 
#    0.000    3.571    0.000    4.286    0.000    0.000 
#    0.000    0.000    0.000    0.000    0.000    0.000 
#
# Total GULP energy -77943.559663 kJ/mol
# GULP energy per Si atom -5567.397119 kJ/mol
# Density = 1.888299 g / cm^3
# Si number density = 18.926067 Si / 1000 Ang^3
#
#
#
# Elastic Constant Matrix: (Units=GPa)
#
#
# Indices 1 2 3 4 5 6 
#
# 1 36.2538 7.9618 16.8262 -1.6753 0.6806 -3.2319
# 2 7.9618 109.2714 39.4823 2.3824 7.4440 5.2093
# 3 16.8262 39.4823 75.0648 20.3606 9.6236 -6.8569
# 4 -1.6753 2.3824 20.3606 33.4682 2.2770 6.4621
# 5 0.6806 7.4440 9.6236 2.2770 11.3215 3.9086
# 6 -3.2319 5.2093 -6.8569 6.4621 3.9086 23.8479
#
#
#
# Elastic Compliance Matrix: (Units=1/GPa)
#
#
# Indices 1 2 3 4 5 6 
#
# 1 0.032574 0.001184 -0.011153 0.008374 0.005846 -0.002278
# 2 0.001184 0.012565 -0.009269 0.006110 0.000743 -0.007027
# 3 -0.011153 -0.009269 0.030787 -0.020734 -0.021632 0.018529
# 4 0.008374 0.006110 -0.020734 0.045657 0.010938 -0.020326
# 5 0.005846 0.000743 -0.021632 0.010938 0.113024 -0.027078
# 6 -0.002278 -0.007027 0.018529 -0.020326 -0.027078 0.058432
#
#
# Mechanical properties :
#
#
# Convention : Reuss Voigt Hill
#
# Bulk Modulus (GPa) = 26.70223 38.79228 32.74726
# Shear Modulus (GPa) = 14.53497 24.14883 19.34190
#
# Velocity S-wave (km/s) = 2.77426 3.57593 3.20030
# Velocity P-wave (km/s) = 4.93978 6.13114 5.56742
#
# Compressibility (1/GPa) = 0.03745006
#
# Stress axis : x y z
#
# Youngs Moduli (GPa) = 30.69944 79.58309 32.48155
#
# Poissons Ratio (x) = -0.09425 0.36228
# Poissons Ratio (y) = -0.03636 0.30107
# Poissons Ratio (z) = 0.34240 0.73765
#
# Static dielectric constant tensor:
#      x y z
#    x 1.656510 0.039630 -0.010650 
#    y 0.039630 1.679760 -0.014720 
#    z -0.010650 -0.014720 1.667110 
# 
# From -- ./inp_files/177010.got.cif
#   From: 2010.05.17/outbox.cif.g08.bks.cpg/sg2_89_cif.got.tgz:177010.got - 2010.06.03 11:33:40.
