data_PCOD9002484
_publ_section_title
;
Structure prediction by ZEFSAII (Michael W. Deem and Ramdas Pophale) SiO2 
 PCOD9002484
Probable space group: P -1
;
_chemical_formula_sum "Si O2"
_cell_formula_units_Z 16
_cell_length_a 14.611353
_cell_length_b 8.745461
_cell_length_c 15.107171
_cell_angle_alpha 93.955752
_cell_angle_beta 140.376450
_cell_angle_gamma 115.656941
_cell_volume 792.342613
_symmetry_space_group_name_H-M "P -1"
_symmetry_group_IT_number 2
_symmetry_cell_setting 'triclinic'
loop_
_space_group_symop_operation_xyz
x,y,z
-x,-y,-z
loop_
_atom_site_type_symbol
_atom_site_label
_atom_site_fract_x
_atom_site_fract_y
_atom_site_fract_z
Si Si1 0.270902 0.212429 0.137080
Si Si2 0.571264 0.411194 0.607489
Si Si3 0.873656 0.326916 0.554574
Si Si4 0.986422 0.806588 0.478055
Si Si5 0.128966 0.942676 0.203347
Si Si6 0.563089 0.297206 0.217253
Si Si7 0.260288 0.750469 0.347790
Si Si8 0.267266 0.886195 0.849179
O O1 0.325717 0.425478 0.224659
O O2 0.472052 0.310979 0.235591
O O3 0.209079 0.051083 0.167134
O O4 0.054277 0.078520 0.913908
O O5 0.500000 0.500000 0.500000
O O6 0.737925 0.427239 0.685741
O O7 0.333540 0.137477 0.430447
O O8 0.936196 0.212933 0.555981
O O9 0.708593 0.272838 0.359160
O O10 0.763009 0.247040 0.564885
O O11 0.095259 0.612651 0.737273
O O12 0.145030 0.872164 0.677174
O O13 0.736259 0.542173 0.301382
O O14 0.000000 0.000000 0.500000
O O15 0.085210 0.725733 0.171845
O O16 0.347782 0.066420 0.993273
O O17 0.500000 0.000000 0.500000
O O18 0.500000 0.000000 0.000000
#
# Coordination Sequence:
#
# PCOD9002484 Si02
#       8
#     2   2   2   2   2   2   2   2
#     4  10  21  36  61  87 121 164 202 252 302 370
#     4   9  18  35  56  79 118 156 197 244 298 357
#     4  11  22  41  67  91 126 169 214 255 316 385
#     4  11  25  42  65  96 130 158 207 272 325 376
#     4   9  20  38  55  84 127 156 205 248 303 364
#     4  11  22  41  67  93 121 170 215 253 317 381
#     4  10  21  38  62  90 125 166 203 258 310 371
#     4  11  21  44  68  89 122 168 216 257 307 382
#
# _framework density 20.193283000000001
#
# number of rings (size 3 to 8) (size 9 to 14) (size 15 to 20)
#    0.000    1.750    2.500    3.000    0.000    9.000 
#    2.250    2.500    0.000    0.000    0.000    0.000 
#    0.000    0.000    0.000    0.000    0.000    0.000 
#
# Total GULP energy -89160.362543 kJ/mol
# GULP energy per Si atom -5572.522659 kJ/mol
# Density = 2.014732 g / cm^3
# Si number density = 20.193283 Si / 1000 Ang^3
#
#
#
# Elastic Constant Matrix: (Units=GPa)
#
#
# Indices 1 2 3 4 5 6 
#
# 1 136.5982 56.7186 12.2642 12.0960 -2.2612 -15.6053
# 2 56.7186 90.9815 21.6763 -2.2951 -3.3772 -21.3657
# 3 12.2642 21.6763 74.4922 7.5173 -7.6829 -1.4031
# 4 12.0960 -2.2951 7.5173 17.7501 -4.0797 3.5312
# 5 -2.2612 -3.3772 -7.6829 -4.0797 29.3709 3.0817
# 6 -15.6053 -21.3657 -1.4031 3.5312 3.0817 33.5330
#
#
#
# Elastic Compliance Matrix: (Units=1/GPa)
#
#
# Indices 1 2 3 4 5 6 
#
# 1 0.011226 -0.007113 0.001110 -0.009689 -0.001205 0.001870
# 2 -0.007113 0.018537 -0.004820 0.007963 0.000653 0.007400
# 3 0.001110 -0.004820 0.015618 -0.007074 0.002782 -0.001412
# 4 -0.009689 0.007963 -0.007074 0.070617 0.008967 -0.007992
# 5 -0.001205 0.000653 0.002782 0.008967 0.036456 -0.004323
# 6 0.001870 0.007400 -0.001412 -0.007992 -0.004323 0.036587
#
#
# Mechanical properties :
#
#
# Convention : Reuss Voigt Hill
#
# Bulk Modulus (GPa) = 42.13015 53.71003 47.92009
# Shear Modulus (GPa) = 22.87298 30.22497 26.54897
#
# Velocity S-wave (km/s) = 3.36922 3.87303 3.62987
# Velocity P-wave (km/s) = 6.00368 6.83053 6.43041
#
# Compressibility (1/GPa) = 0.02373597
#
# Stress axis : x y z
#
# Youngs Moduli (GPa) = 89.07708 53.94627 64.02796
#
# Poissons Ratio (x) = 0.38373 -0.07109
# Poissons Ratio (y) = 0.63362 0.30860
# Poissons Ratio (z) = -0.09890 0.26001
#
# Static dielectric constant tensor:
#      x y z
#    x 1.760340 -0.051530 -0.043540 
#    y -0.051530 1.789980 0.060520 
#    z -0.043540 0.060520 1.821600 
# 
# From -- ./inp_files/528661.got.cif
#   From: 2010.05.17/outbox.cif.g08.bks.cpg/sg2_265_cif.got.tgz:528661.got - 2010.06.03 11:33:40.
