data_PCOD9002626
_publ_section_title
;
Structure prediction by ZEFSAII (Michael W. Deem and Ramdas Pophale) SiO2 
 PCOD9002626
Probable space group: P -1
;
_chemical_formula_sum "Si O2"
_cell_formula_units_Z 16
_cell_length_a 7.430731
_cell_length_b 10.058686
_cell_length_c 13.062301
_cell_angle_alpha 58.931220
_cell_angle_beta 55.067845
_cell_angle_gamma 72.998475
_cell_volume 685.589720
_symmetry_space_group_name_H-M "P -1"
_symmetry_group_IT_number 2
_symmetry_cell_setting 'triclinic'
loop_
_space_group_symop_operation_xyz
x,y,z
-x,-y,-z
loop_
_atom_site_type_symbol
_atom_site_label
_atom_site_fract_x
_atom_site_fract_y
_atom_site_fract_z
Si Si1 0.912853 0.585007 0.096178
Si Si2 0.715775 0.588268 0.860778
Si Si3 0.446924 0.583788 0.326722
Si Si4 0.890093 0.201714 0.727564
Si Si5 0.900954 0.847500 0.851205
Si Si6 0.741473 0.121922 0.439428
Si Si7 0.657054 0.721554 0.399083
Si Si8 0.889220 0.778513 0.569319
O O1 0.673107 0.525698 0.227298
O O2 0.085193 0.532783 0.145084
O O3 0.904316 0.762965 0.992815
O O4 0.000000 0.500000 0.000000
O O5 0.763345 0.735703 0.862943
O O6 0.719025 0.655941 0.718592
O O7 0.500000 0.500000 0.000000
O O8 0.305667 0.676802 0.252768
O O9 0.527240 0.701196 0.343472
O O10 0.331548 0.444982 0.481567
O O11 0.099452 0.216375 0.727050
O O12 0.006428 0.246525 0.564187
O O13 0.815703 0.023002 0.815376
O O14 0.145032 0.860407 0.715579
O O15 0.493809 0.173195 0.519351
O O16 0.905148 0.220371 0.420001
O O17 0.779082 0.946940 0.535059
#
# Coordination Sequence:
#
# PCOD9002626 Si02
#       8
#     2   2   2   2   2   2   2   2
#     4  10  22  43  64  85 122 167 205 258 318 366
#     4  10  21  36  62  95 122 164 208 261 308 365
#     4  11  24  42  62  89 132 162 202 265 311 377
#     4  11  23  40  64  95 124 167 207 257 318 371
#     4   9  21  40  62  89 126 165 212 256 308 367
#     4   9  17  36  63  92 124 162 202 260 307 360
#     4  11  23  38  63  95 126 164 206 253 319 373
#     4   9  18  34  62  91 128 161 203 257 313 358
#
# _framework density 23.337574
#
# number of rings (size 3 to 8) (size 9 to 14) (size 15 to 20)
#    0.000    2.000    1.250    3.375    1.750    6.500 
#    4.500    0.625    0.000    0.000    0.000    0.000 
#    0.000    0.000    0.000    0.000    0.000    0.000 
#
# Total GULP energy -89457.733823 kJ/mol
# GULP energy per Si atom -5591.108364 kJ/mol
# Density = 2.328446 g / cm^3
# Si number density = 23.337574 Si / 1000 Ang^3
#
#
#
# Elastic Constant Matrix: (Units=GPa)
#
#
# Indices 1 2 3 4 5 6 
#
# 1 61.3861 23.5391 12.0546 -15.4938 -21.6553 -10.1303
# 2 23.5391 73.8221 23.1537 -4.8641 -20.4962 -17.3055
# 3 12.0546 23.1537 95.2812 -31.6007 -5.1052 2.2286
# 4 -15.4938 -4.8641 -31.6007 32.1837 -4.2732 1.3682
# 5 -21.6553 -20.4962 -5.1052 -4.2732 37.5868 2.8163
# 6 -10.1303 -17.3055 2.2286 1.3682 2.8163 26.0604
#
#
#
# Elastic Compliance Matrix: (Units=1/GPa)
#
#
# Indices 1 2 3 4 5 6 
#
# 1 0.028602 -0.003081 0.004457 0.019718 0.017211 0.005796
# 2 -0.003081 0.021244 -0.005828 -0.003521 0.007661 0.012765
# 3 0.004457 -0.005828 0.018405 0.020167 0.004577 -0.005265
# 4 0.019718 -0.003521 0.020167 0.062488 0.019417 -0.001777
# 5 0.017211 0.007661 0.004577 0.019417 0.043100 0.005709
# 6 0.005796 0.012765 -0.005265 -0.001777 0.005709 0.049028
#
#
# Mechanical properties :
#
#
# Convention : Reuss Voigt Hill
#
# Bulk Modulus (GPa) = 16.85090 38.66491 27.75791
# Shear Modulus (GPa) = 19.87642 30.61565 25.24603
#
# Velocity S-wave (km/s) = 2.92154 3.62589 3.29260
# Velocity P-wave (km/s) = 4.31471 5.84235 5.13565
#
# Compressibility (1/GPa) = 0.05934399
#
# Stress axis : x y z
#
# Youngs Moduli (GPa) = 34.96292 47.07233 54.33364
#
# Poissons Ratio (x) = 0.14505 -0.24214
# Poissons Ratio (y) = 0.10773 0.31668
# Poissons Ratio (z) = -0.15581 0.27436
#
# Static dielectric constant tensor:
#      x y z
#    x 1.982450 0.030250 0.006430 
#    y 0.030250 1.911820 0.003160 
#    z 0.006430 0.003160 1.857230 
# 
# From -- ./inp_files/559002.got.cif
#   From: 2010.05.17/outbox.cif.g08.bks.cpg/sg2_280_cif.got.tgz:559002.got - 2010.06.03 11:33:40.
