data_PCOD9002152
_publ_section_title
;
Structure prediction by ZEFSAII (Michael W. Deem and Ramdas Pophale) SiO2 
 PCOD9002152
Probable space group: P -1
;
_chemical_formula_sum "Si O2"
_cell_formula_units_Z 16
_cell_length_a 7.720353
_cell_length_b 14.896716
_cell_length_c 8.723754
_cell_angle_alpha 95.021224
_cell_angle_beta 44.445240
_cell_angle_gamma 85.625008
_cell_volume 685.853525
_symmetry_space_group_name_H-M "P -1"
_symmetry_group_IT_number 2
_symmetry_cell_setting 'triclinic'
loop_
_space_group_symop_operation_xyz
x,y,z
-x,-y,-z
loop_
_atom_site_type_symbol
_atom_site_label
_atom_site_fract_x
_atom_site_fract_y
_atom_site_fract_z
Si Si1 0.333748 0.626252 0.086118
Si Si2 0.132499 0.020752 0.630635
Si Si3 0.012220 0.824427 0.758761
Si Si4 0.527622 0.745528 0.518869
Si Si5 0.284391 0.502770 0.365770
Si Si6 0.367780 0.106914 0.760275
Si Si7 0.013627 0.202769 0.573473
Si Si8 0.139663 0.448945 0.756630
O O1 0.393515 0.578286 0.208495
O O2 0.225207 0.733132 0.186062
O O3 0.091489 0.586481 0.181891
O O4 0.545912 0.592143 0.820331
O O5 0.158246 0.074036 0.781479
O O6 0.002223 0.097896 0.606511
O O7 0.035515 0.929809 0.723201
O O8 0.411733 0.982092 0.379525
O O9 0.223431 0.767724 0.733252
O O10 0.011232 0.777243 0.587997
O O11 0.743109 0.841649 0.011708
O O12 0.533797 0.817670 0.389908
O O13 0.722368 0.773861 0.525464
O O14 0.648954 0.643526 0.371196
O O15 0.260156 0.508980 0.565219
O O16 0.000000 0.500000 0.500000
O O17 0.000000 0.500000 0.000000
#
# Coordination Sequence:
#
# PCOD9002152 Si02
#       8
#     2   2   2   2   2   2   2   2
#     4   9  20  39  57  81 117 151 187 237 287 338
#     4   9  19  37  55  82 117 146 187 236 279 338
#     4  11  21  36  61  84 109 154 192 228 288 338
#     4   9  22  40  54  84 120 145 187 238 280 339
#     4   9  19  37  59  81 110 148 190 231 283 343
#     4   9  19  37  59  81 115 152 186 235 285 334
#     4  10  21  38  59  84 116 148 189 238 282 338
#     4  10  21  36  58  85 113 149 191 236 287 341
#
# _framework density 23.328596000000001
#
# number of rings (size 3 to 8) (size 9 to 14) (size 15 to 20)
#    0.000    2.500    0.000    1.500    0.000    8.000 
#    0.000   13.750    0.000    0.000    0.000    0.000 
#    0.000    0.000    0.000    0.000    0.000    0.000 
#
# Total GULP energy -89242.281951 kJ/mol
# GULP energy per Si atom -5577.642622 kJ/mol
# Density = 2.327550 g / cm^3
# Si number density = 23.328596 Si / 1000 Ang^3
#
#
#
# Elastic Constant Matrix: (Units=GPa)
#
#
# Indices 1 2 3 4 5 6 
#
# 1 62.6396 14.4651 16.8019 11.5037 -4.7185 -5.8483
# 2 14.4651 73.5619 16.2306 25.3954 -2.1725 -17.7980
# 3 16.8019 16.2306 111.4994 25.0573 6.3060 -11.0528
# 4 11.5037 25.3954 25.0573 28.2074 -3.7236 -9.7862
# 5 -4.7185 -2.1725 6.3060 -3.7236 24.2115 3.3189
# 6 -5.8483 -17.7980 -11.0528 -9.7862 3.3189 22.5600
#
#
#
# Elastic Compliance Matrix: (Units=1/GPa)
#
#
# Indices 1 2 3 4 5 6 
#
# 1 0.017761 -0.001663 -0.001758 -0.003632 0.003158 0.000391
# 2 -0.001663 0.022147 0.002324 -0.017984 -0.003195 0.010849
# 3 -0.001758 0.002324 0.012177 -0.011882 -0.005545 0.003005
# 4 -0.003632 -0.017984 -0.011882 0.067377 0.010207 0.006775
# 5 0.003158 -0.003195 -0.005545 0.010207 0.045563 -0.006694
# 6 0.000391 0.010849 0.003005 0.006775 -0.006694 0.058382
#
#
# Mechanical properties :
#
#
# Convention : Reuss Voigt Hill
#
# Bulk Modulus (GPa) = 20.04310 38.07734 29.06022
# Shear Modulus (GPa) = 20.64142 28.34269 24.49206
#
# Velocity S-wave (km/s) = 2.97781 3.48937 3.24369
# Velocity P-wave (km/s) = 4.52033 5.70893 5.14904
#
# Compressibility (1/GPa) = 0.04989249
#
# Stress axis : x y z
#
# Youngs Moduli (GPa) = 56.30212 45.15269 82.12197
#
# Poissons Ratio (x) = 0.07508 0.14437
# Poissons Ratio (y) = 0.09362 -0.19088
# Poissons Ratio (z) = 0.09898 -0.10495
#
# Static dielectric constant tensor:
#      x y z
#    x 1.962920 -0.009440 0.007600 
#    y -0.009440 1.875620 -0.011640 
#    z 0.007600 -0.011640 1.916250 
# 
# From -- ./inp_files/53897.got.cif
#   From: 2010.05.17/outbox.cif.g08.bks.cpg/sg2_27_cif.got.tgz:53897.got - 2010.06.03 11:33:40.
