data_PCOD9002638
_publ_section_title
;
Structure prediction by ZEFSAII (Michael W. Deem and Ramdas Pophale) SiO2 
 PCOD9002638
Probable space group: P -1
;
_chemical_formula_sum "Si O2"
_cell_formula_units_Z 16
_cell_length_a 7.557091
_cell_length_b 8.694140
_cell_length_c 11.522385
_cell_angle_alpha 88.005632
_cell_angle_beta 71.809234
_cell_angle_gamma 80.588785
_cell_volume 709.425859
_symmetry_space_group_name_H-M "P -1"
_symmetry_group_IT_number 2
_symmetry_cell_setting 'triclinic'
loop_
_space_group_symop_operation_xyz
x,y,z
-x,-y,-z
loop_
_atom_site_type_symbol
_atom_site_label
_atom_site_fract_x
_atom_site_fract_y
_atom_site_fract_z
Si Si1 0.994274 0.710674 0.509757
Si Si2 0.945239 0.167661 0.067240
Si Si3 0.581394 0.322664 0.454246
Si Si4 0.707687 0.836251 0.374858
Si Si5 0.412989 0.622264 0.814876
Si Si6 0.858643 0.636072 0.147145
Si Si7 0.931261 0.119618 0.338605
Si Si8 0.829639 0.467529 0.719479
O O1 0.924314 0.882740 0.586525
O O2 0.164848 0.670524 0.374588
O O3 0.830516 0.718136 0.441237
O O4 0.915290 0.589648 0.618120
O O5 0.721553 0.236898 0.096479
O O6 0.988081 0.152055 0.196518
O O7 0.062423 0.291956 0.984572
O O8 0.000000 0.000000 0.000000
O O9 0.500000 0.500000 0.500000
O O10 0.497336 0.190282 0.543647
O O11 0.556476 0.313247 0.321913
O O12 0.808798 0.277100 0.420006
O O13 0.738658 0.776425 0.239667
O O14 0.798319 0.991593 0.360460
O O15 0.274499 0.493130 0.837772
O O16 0.621490 0.538670 0.807635
O O17 0.035663 0.577145 0.196764
#
# Coordination Sequence:
#
# PCOD9002638 Si02
#       8
#     2   2   2   2   2   2   2   2
#     4  10  21  36  62  97 135 158 200 268 328 394
#     4  11  24  44  64  88 130 174 227 264 307 373
#     4  11  20  35  60  96 123 157 213 255 324 393
#     4  11  21  37  61  93 132 161 203 260 329 390
#     4  11  22  39  69  95 126 172 213 265 324 381
#     4  11  23  41  68  94 126 176 215 265 315 375
#     4  11  23  38  63  87 125 177 202 263 324 379
#     4  10  21  40  65 104 131 158 212 272 324 383
#
# _framework density 22.553450000000002
#
# number of rings (size 3 to 8) (size 9 to 14) (size 15 to 20)
#    0.000    1.250    3.750    3.375    1.750    0.500 
#    0.000    0.000    2.750    3.750    0.000    0.000 
#    0.000    0.000    0.000    0.000    0.000    0.000 
#
# Total GULP energy -89132.241614 kJ/mol
# GULP energy per Si atom -5570.765101 kJ/mol
# Density = 2.250212 g / cm^3
# Si number density = 22.553450 Si / 1000 Ang^3
#
#
#
# Elastic Constant Matrix: (Units=GPa)
#
#
# Indices 1 2 3 4 5 6 
#
# 1 76.8787 24.2101 33.6017 -0.5923 -17.8754 7.1757
# 2 24.2101 74.3318 50.5830 5.0063 -6.2400 13.2104
# 3 33.6017 50.5830 136.2323 -6.8797 -21.1018 10.8594
# 4 -0.5923 5.0063 -6.8797 50.8275 -2.0991 -4.2499
# 5 -17.8754 -6.2400 -21.1018 -2.0991 32.1527 1.4338
# 6 7.1757 13.2104 10.8594 -4.2499 1.4338 28.0408
#
#
#
# Elastic Compliance Matrix: (Units=1/GPa)
#
#
# Indices 1 2 3 4 5 6 
#
# 1 0.016771 -0.003425 -0.001428 0.000459 0.007861 -0.002458
# 2 -0.003425 0.020361 -0.006735 -0.003599 -0.002316 -0.006535
# 3 -0.001428 -0.006735 0.011212 0.002328 0.005442 -0.000729
# 4 0.000459 -0.003599 0.002328 0.020753 0.002274 0.003706
# 5 0.007861 -0.002316 0.005442 0.002274 0.038951 -0.004675
# 6 -0.002458 -0.006535 -0.000729 0.003706 -0.004675 0.040453
#
#
# Mechanical properties :
#
#
# Convention : Reuss Voigt Hill
#
# Bulk Modulus (GPa) = 39.73226 56.02580 47.87903
# Shear Modulus (GPa) = 27.76754 34.14076 30.95415
#
# Velocity S-wave (km/s) = 3.51264 3.89494 3.70872
# Velocity P-wave (km/s) = 5.84009 6.71734 6.29402
#
# Compressibility (1/GPa) = 0.02516846
#
# Stress axis : x y z
#
# Youngs Moduli (GPa) = 59.62660 49.11319 89.19025
#
# Poissons Ratio (x) = 0.16819 0.12739
# Poissons Ratio (y) = 0.20420 0.60070
# Poissons Ratio (z) = 0.08516 0.33078
#
# Static dielectric constant tensor:
#      x y z
#    x 2.019520 -0.078480 -0.058390 
#    y -0.078480 2.045700 0.103780 
#    z -0.058390 0.103780 1.905530 
# 
# From -- ./inp_files/379019.got.cif
#   From: 2010.05.17/outbox.cif.g08.bks.cpg/sg2_190_cif.got.tgz:379019.got - 2010.06.03 11:33:40.
