data_PCOD9002412
_publ_section_title
;
Structure prediction by ZEFSAII (Michael W. Deem and Ramdas Pophale) SiO2 
 PCOD9002412
Probable space group: P -1
;
_chemical_formula_sum "Si O2"
_cell_formula_units_Z 14
_cell_length_a 28.091609
_cell_length_b 28.589293
_cell_length_c 11.501195
_cell_angle_alpha 155.475826
_cell_angle_beta 22.940499
_cell_angle_gamma 169.696973
_cell_volume 643.006173
_symmetry_space_group_name_H-M "P -1"
_symmetry_group_IT_number 2
_symmetry_cell_setting 'triclinic'
loop_
_space_group_symop_operation_xyz
x,y,z
-x,-y,-z
loop_
_atom_site_type_symbol
_atom_site_label
_atom_site_fract_x
_atom_site_fract_y
_atom_site_fract_z
Si Si1 0.610162 0.859088 0.123633
Si Si2 0.228219 0.353948 0.791035
Si Si3 0.094652 0.342973 0.809266
Si Si4 0.114552 0.779120 0.355516
Si Si5 0.821268 0.736536 0.785418
Si Si6 0.496456 0.871867 0.162727
Si Si7 0.308650 0.719657 0.681496
O O1 0.501445 0.869765 0.472107
O O2 0.567893 0.857798 0.083432
O O3 0.368289 0.568033 0.036814
O O4 0.930413 0.077058 0.898377
O O5 0.500000 0.500000 0.500000
O O6 0.157128 0.338400 0.785267
O O7 0.180231 0.325761 0.478645
O O8 0.760027 0.082138 0.960076
O O9 0.236292 0.586179 0.045032
O O10 0.950613 0.749335 0.607975
O O11 0.932592 0.572097 0.401767
O O12 0.438258 0.079729 0.339290
O O13 0.151577 0.708042 0.019955
O O14 0.500000 0.500000 0.000000
O O15 0.000000 0.000000 0.000000
O O16 0.500000 0.000000 0.500000
#
# Coordination Sequence:
#
# PCOD9002412 Si02
#       7
#     2   2   2   2   2   2   2
#     4  10  21  36  60  92 117 153 209 246 312 389
#     4  10  21  38  59  88 125 159 198 251 314 375
#     4  10  23  41  59  91 126 159 206 260 307 372
#     4  10  23  41  62  90 127 166 216 272 319 373
#     4  12  26  44  65  94 128 178 226 260 320 388
#     4  10  21  39  62  94 123 156 197 251 326 386
#     4  10  21  41  63  92 124 162 215 270 325 377
#
# _framework density 21.772729999999999
#
# number of rings (size 3 to 8) (size 9 to 14) (size 15 to 20)
#    0.000    1.714    0.000    3.429    2.000    3.429 
#    5.143    0.000    0.000    0.000    0.000    0.000 
#    0.000    0.000    0.000    0.000    0.000    0.000 
#
# Total GULP energy -77961.584715 kJ/mol
# GULP energy per Si atom -5568.684622 kJ/mol
# Density = 2.172317 g / cm^3
# Si number density = 21.772730 Si / 1000 Ang^3
#
#
#
# Elastic Constant Matrix: (Units=GPa)
#
#
# Indices 1 2 3 4 5 6 
#
# 1 -0.3461 39.4657 15.6599 -5.4044 -5.0918 -5.2917
# 2 39.4657 88.9126 36.6807 7.0908 18.4924 -4.6412
# 3 15.6599 36.6807 120.5962 -14.2477 16.6643 -12.0863
# 4 -5.4044 7.0908 -14.2477 40.8882 -6.1400 5.3668
# 5 -5.0918 18.4924 16.6643 -6.1400 39.3499 -10.8211
# 6 -5.2917 -4.6412 -12.0863 5.3668 -10.8211 15.3492
#
#
#
# Elastic Compliance Matrix: (Units=1/GPa)
#
#
# Indices 1 2 3 4 5 6 
#
# 1 -0.034131 0.019660 -0.001731 -0.009103 -0.019158 -0.017508
# 2 0.019660 0.003293 -0.003319 0.000491 0.004776 0.008356
# 3 -0.001731 -0.003319 0.010558 0.003214 -0.001361 0.004631
# 4 -0.009103 0.000491 0.003214 0.025417 -0.001704 -0.010547
# 5 -0.019158 0.004776 -0.001361 -0.001704 0.024127 0.011374
# 6 -0.017508 0.008356 0.004631 -0.010547 0.011374 0.076993
#
#
# Mechanical properties :
#
#
# Convention : Reuss Voigt Hill
#
# Bulk Modulus (GPa) = 111.83994 43.64167 77.74081
# Shear Modulus (GPa) = 62.48569 26.94122 44.71346
#
# Velocity S-wave (km/s) = 5.36296 3.52146 4.53663
# Velocity P-wave (km/s) = 9.47771 6.05161 7.95138
#
# Compressibility (1/GPa) = 0.00894135
#
# Stress axis : x y z
#
# Youngs Moduli (GPa) = -29.29915 303.64234 94.71291
#
# Poissons Ratio (x) = -5.96964 0.16392
# Poissons Ratio (y) = 0.57602 0.31437
# Poissons Ratio (z) = -0.05071 1.00785
#
# Static dielectric constant tensor:
#      x y z
#    x 1.795240 -0.016560 0.018060 
#    y -0.016560 1.851770 0.085470 
#    z 0.018060 0.085470 1.922140 
# 
# From -- ./inp_files/477843.got.cif
#   From: 2010.05.17/outbox.cif.g08.bks.cpg/sg2_239_cif.got.tgz:477843.got - 2010.06.03 11:33:40.
