data_PCOD9002742
_publ_section_title
;
Structure prediction by ZEFSAII (Michael W. Deem and Ramdas Pophale) SiO2 
 PCOD9002742
Probable space group: P -1
;
_chemical_formula_sum "Si O2"
_cell_formula_units_Z 12
_cell_length_a 14.193179
_cell_length_b 11.308324
_cell_length_c 20.752894
_cell_angle_alpha 27.728793
_cell_angle_beta 15.412902
_cell_angle_gamma 31.279912
_cell_volume 411.873711
_symmetry_space_group_name_H-M "P -1"
_symmetry_group_IT_number 2
_symmetry_cell_setting 'triclinic'
loop_
_space_group_symop_operation_xyz
x,y,z
-x,-y,-z
loop_
_atom_site_type_symbol
_atom_site_label
_atom_site_fract_x
_atom_site_fract_y
_atom_site_fract_z
Si Si1 0.176823 0.445232 0.102767
Si Si2 0.971606 0.653005 0.010832
Si Si3 0.729853 0.662511 0.463138
Si Si4 0.818184 0.271945 0.689479
Si Si5 0.501124 0.086223 0.150631
Si Si6 0.524443 0.994199 0.644095
O O1 0.915051 0.511361 0.184942
O O2 0.448187 0.260577 0.973348
O O3 0.182827 0.270627 0.246904
O O4 0.326669 0.725295 0.888507
O O5 0.384787 0.750359 0.692284
O O6 0.644981 0.846094 0.131826
O O7 0.000000 0.500000 0.000000
O O8 0.763932 0.374311 0.604007
O O9 0.126545 0.758942 0.168974
O O10 0.653265 0.771518 0.389774
O O11 0.000000 0.500000 0.500000
O O12 0.084950 0.040256 0.626250
O O13 0.446807 0.996400 0.302960
#
# Coordination Sequence:
#
# PCOD9002742 Si02
#       6
#     2   2   2   2   2   2
#     4  10  21  36  64  88 122 149 196 246 294 345
#     4  11  26  42  59  84 120 163 203 236 287 355
#     4  11  21  36  63  87 117 154 195 247 292 344
#     4   9  18  31  52  88 118 145 187 234 297 335
#     4  12  22  36  64  94 117 150 197 247 300 343
#     4  11  21  33  60 101 120 142 188 257 302 340
#
# _framework density 29.135145999999999
#
# number of rings (size 3 to 8) (size 9 to 14) (size 15 to 20)
#    0.000    1.333    5.000    2.500    2.333    0.667 
#    0.000    0.833    0.000    5.000    0.000    0.000 
#    0.000    0.000    0.000    0.000    0.000    0.000 
#
# Total GULP energy -67100.050040 kJ/mol
# GULP energy per Si atom -5591.670837 kJ/mol
# Density = 2.906883 g / cm^3
# Si number density = 29.135146 Si / 1000 Ang^3
#
#
#
# Elastic Constant Matrix: (Units=GPa)
#
#
# Indices 1 2 3 4 5 6 
#
# 1 193.8693 58.5931 13.6906 -30.0955 30.8781 -23.1616
# 2 58.5931 89.7055 3.7212 -10.1940 4.0728 -31.5234
# 3 13.6906 3.7212 92.8152 2.6944 20.1285 1.5501
# 4 -30.0955 -10.1940 2.6944 44.3319 -6.0624 15.8368
# 5 30.8781 4.0728 20.1285 -6.0624 56.6052 -5.3982
# 6 -23.1616 -31.5234 1.5501 15.8368 -5.3982 66.0570
#
#
#
# Elastic Compliance Matrix: (Units=1/GPa)
#
#
# Indices 1 2 3 4 5 6 
#
# 1 0.007643 -0.004641 -0.000312 0.003947 -0.003373 -0.000749
# 2 -0.004641 0.016284 -0.000471 -0.001488 0.002005 0.006675
# 3 -0.000312 -0.000471 0.011801 -0.001390 -0.004200 -0.000621
# 4 0.003947 -0.001488 -0.001390 0.027138 0.000808 -0.005734
# 5 -0.003373 0.002005 -0.004200 0.000808 0.021076 0.001401
# 6 -0.000749 0.006675 -0.000621 -0.005734 0.001401 0.019565
#
#
# Mechanical properties :
#
#
# Convention : Reuss Voigt Hill
#
# Bulk Modulus (GPa) = 40.19375 58.71112 49.45243
# Shear Modulus (GPa) = 40.76693 53.42449 47.09571
#
# Velocity S-wave (km/s) = 3.74469 4.28679 4.02488
# Velocity P-wave (km/s) = 5.70285 6.68559 6.21368
#
# Compressibility (1/GPa) = 0.02487949
#
# Stress axis : x y z
#
# Youngs Moduli (GPa) = 130.83404 61.40894 84.74129
#
# Poissons Ratio (x) = 0.28501 0.02643
# Poissons Ratio (y) = 0.60722 0.03995
# Poissons Ratio (z) = 0.04080 0.02895
#
# Static dielectric constant tensor:
#      x y z
#    x 2.432510 -0.010350 -0.051790 
#    y -0.010350 2.228250 -0.101570 
#    z -0.051790 -0.101570 2.448180 
# 
# From -- ./inp_files/263772.got.cif
#   From: 2010.05.17/outbox.cif.g08.bks.cpg/sg2_132_cif.got.tgz:263772.got - 2010.06.03 11:33:40.
