data_PCOD9002747
_publ_section_title
;
Structure prediction by ZEFSAII (Michael W. Deem and Ramdas Pophale) SiO2 
 PCOD9002747
Probable space group: P -1
;
_chemical_formula_sum "Si O2"
_cell_formula_units_Z 12
_cell_length_a 14.487861
_cell_length_b 10.655275
_cell_length_c 13.708346
_cell_angle_alpha 40.303946
_cell_angle_beta 159.830891
_cell_angle_gamma 135.767230
_cell_volume 471.962973
_symmetry_space_group_name_H-M "P -1"
_symmetry_group_IT_number 2
_symmetry_cell_setting 'triclinic'
loop_
_space_group_symop_operation_xyz
x,y,z
-x,-y,-z
loop_
_atom_site_type_symbol
_atom_site_label
_atom_site_fract_x
_atom_site_fract_y
_atom_site_fract_z
Si Si1 0.860772 0.888954 0.124873
Si Si2 0.354139 0.163080 0.462113
Si Si3 0.793107 0.233885 0.196940
Si Si4 0.415210 0.222676 0.276047
Si Si5 0.279014 0.214896 0.567702
Si Si6 0.596927 0.563544 0.164539
O O1 0.792751 0.788413 0.013312
O O2 0.646351 0.064340 0.821281
O O3 0.806755 0.733457 0.249310
O O4 0.150347 0.982441 0.357717
O O5 0.330621 0.277132 0.269503
O O6 0.280551 0.276713 0.420127
O O7 0.069453 0.306970 0.380823
O O8 0.808427 0.012298 0.381952
O O9 0.574656 0.227913 0.896715
O O10 0.651388 0.354109 0.069483
O O11 0.653450 0.365425 0.394894
O O12 0.500000 0.000000 0.500000
O O13 0.500000 0.500000 0.000000
#
# Coordination Sequence:
#
# PCOD9002747 Si02
#       6
#     2   2   2   2   2   2
#     4  10  21  37  63  92 125 159 212 254 308 366
#     4  11  20  39  63  92 122 167 206 252 313 370
#     4  10  21  38  59  95 122 162 208 260 306 364
#     4   9  21  41  62  91 130 169 205 259 319 376
#     4  10  21  36  64  89 126 163 208 254 307 375
#     4  10  21  41  65  96 128 163 212 265 313 371
#
# _framework density 25.425725
#
# number of rings (size 3 to 8) (size 9 to 14) (size 15 to 20)
#    0.000    2.000    1.667    1.500    4.667    0.000 
#    0.000   32.500    0.000    0.000    0.000    0.000 
#    0.000    0.000    0.000    0.000    0.000    0.000 
#
# Total GULP energy -67158.084310 kJ/mol
# GULP energy per Si atom -5596.507026 kJ/mol
# Density = 2.536785 g / cm^3
# Si number density = 25.425725 Si / 1000 Ang^3
#
#
#
# Elastic Constant Matrix: (Units=GPa)
#
#
# Indices 1 2 3 4 5 6 
#
# 1 205.9791 22.8209 23.4253 -8.2212 -20.1197 17.9513
# 2 22.8209 61.9459 3.7805 -14.4025 -4.3601 17.8965
# 3 23.4253 3.7805 58.1195 1.8359 13.0335 9.9807
# 4 -8.2212 -14.4025 1.8359 20.4511 -6.3952 -1.9501
# 5 -20.1197 -4.3601 13.0335 -6.3952 33.3476 -4.8322
# 6 17.9513 17.8965 9.9807 -1.9501 -4.8322 45.3874
#
#
#
# Elastic Compliance Matrix: (Units=1/GPa)
#
#
# Indices 1 2 3 4 5 6 
#
# 1 0.006129 -0.000450 -0.003781 0.004256 0.005844 -0.000610
# 2 -0.000450 0.022879 -0.001928 0.017230 0.005754 -0.007067
# 3 -0.003781 -0.001928 0.023161 -0.009841 -0.014164 -0.004768
# 4 0.004256 0.017230 -0.009841 0.070426 0.022036 -0.000941
# 5 0.005844 0.005754 -0.014164 0.022036 0.044641 0.004234
# 6 -0.000610 -0.007067 -0.004768 -0.000941 0.004234 0.026519
#
#
# Mechanical properties :
#
#
# Convention : Reuss Voigt Hill
#
# Bulk Modulus (GPa) = 25.09349 47.34419 36.21884
# Shear Modulus (GPa) = 22.79391 38.23841 30.51616
#
# Velocity S-wave (km/s) = 2.99739 3.88226 3.46816
# Velocity P-wave (km/s) = 4.67653 6.22550 5.50576
#
# Compressibility (1/GPa) = 0.03985097
#
# Stress axis : x y z
#
# Youngs Moduli (GPa) = 163.16907 43.70806 43.17544
#
# Poissons Ratio (x) = 0.01967 0.16325
# Poissons Ratio (y) = 0.07343 0.08324
# Poissons Ratio (z) = 0.61697 0.08426
#
# Static dielectric constant tensor:
#      x y z
#    x 2.038580 -0.019720 -0.002390 
#    y -0.019720 2.017480 -0.035570 
#    z -0.002390 -0.035570 1.991920 
# 
# From -- ./inp_files/72623.got.cif
#   From: 2010.05.17/outbox.cif.g08.bks.cpg/sg2_37_cif.got.tgz:72623.got - 2010.06.03 11:33:40.
