data_PCOD9002145
_publ_section_title
;
Structure prediction by ZEFSAII (Michael W. Deem and Ramdas Pophale) SiO2 
 PCOD9002145
Probable space group: P -1
;
_chemical_formula_sum "Si O2"
_cell_formula_units_Z 14
_cell_length_a 15.345163
_cell_length_b 8.631620
_cell_length_c 5.403398
_cell_angle_alpha 96.853213
_cell_angle_beta 103.119752
_cell_angle_gamma 107.297393
_cell_volume 651.925515
_symmetry_space_group_name_H-M "P -1"
_symmetry_group_IT_number 2
_symmetry_cell_setting 'triclinic'
loop_
_space_group_symop_operation_xyz
x,y,z
-x,-y,-z
loop_
_atom_site_type_symbol
_atom_site_label
_atom_site_fract_x
_atom_site_fract_y
_atom_site_fract_z
Si Si1 0.894821 0.129793 0.042472
Si Si2 0.539850 0.946574 0.767754
Si Si3 0.932233 0.874669 0.630351
Si Si4 0.723840 0.136421 0.688582
Si Si5 0.242907 0.119314 0.711281
Si Si6 0.390843 0.450621 0.004696
Si Si7 0.381623 0.627896 0.547776
O O1 0.000390 0.221618 0.234532
O O2 0.824714 0.024877 0.188048
O O3 0.831620 0.217400 0.870559
O O4 0.910041 0.990523 0.846320
O O5 0.490980 0.749471 0.678607
O O6 0.500000 0.000000 0.500000
O O7 0.650484 0.052041 0.845041
O O8 0.500000 0.000000 0.000000
O O9 0.829861 0.791389 0.425676
O O10 0.000000 0.000000 0.500000
O O11 0.683370 0.260659 0.539924
O O12 0.720664 0.977951 0.491622
O O13 0.330963 0.256487 0.918265
O O14 0.350935 0.534364 0.769094
O O15 0.500000 0.500000 0.000000
O O16 0.380564 0.519259 0.282605
#
# Coordination Sequence:
#
# PCOD9002145 Si02
#       7
#     2   2   2   2   2   2   2
#     4   9  18  32  64  92 124 149 211 267 315 367
#     4  10  21  36  58  84 119 160 209 257 304 355
#     4   8  16  35  56  96 120 156 197 269 316 367
#     4  10  22  36  63  92 118 162 214 270 314 361
#     4  10  22  36  64  92 125 165 214 259 311 377
#     4  12  27  43  61  87 132 176 211 250 310 383
#     4  11  25  42  60  88 128 167 209 260 312 365
#
# _framework density 21.474845999999999
#
# number of rings (size 3 to 8) (size 9 to 14) (size 15 to 20)
#    0.000    2.000    0.000    3.000   12.000    0.000 
#    0.000    0.000    0.000    1.714    0.000    0.000 
#    0.000    0.000    0.000    0.000    0.000    0.000 
#
# Total GULP energy -78061.413778 kJ/mol
# GULP energy per Si atom -5575.815270 kJ/mol
# Density = 2.142597 g / cm^3
# Si number density = 21.474846 Si / 1000 Ang^3
#
#
#
# Elastic Constant Matrix: (Units=GPa)
#
#
# Indices 1 2 3 4 5 6 
#
# 1 117.3303 2.6165 33.9242 2.6490 18.8381 -20.8919
# 2 2.6165 43.1330 9.2628 -4.6273 7.2072 -10.5603
# 3 33.9242 9.2628 106.0372 5.5548 -6.8063 -7.8389
# 4 2.6490 -4.6273 5.5548 30.8227 -1.4036 6.0312
# 5 18.8381 7.2072 -6.8063 -1.4036 60.1149 -17.0196
# 6 -20.8919 -10.5603 -7.8389 6.0312 -17.0196 24.0267
#
#
#
# Elastic Compliance Matrix: (Units=1/GPa)
#
#
# Indices 1 2 3 4 5 6 
#
# 1 0.011317 0.002296 -0.003149 -0.001925 -0.001633 0.009149
# 2 0.002296 0.026814 -0.002334 0.001863 -0.000752 0.012020
# 3 -0.003149 -0.002334 0.011193 -0.002503 0.003279 0.002839
# 4 -0.001925 0.001863 -0.002503 0.035660 -0.002600 -0.012465
# 5 -0.001633 -0.000752 0.003279 -0.002600 0.021939 0.015513
# 6 0.009149 0.012020 0.002839 -0.012465 0.015513 0.069903
#
#
# Mechanical properties :
#
#
# Convention : Reuss Voigt Hill
#
# Bulk Modulus (GPa) = 23.28245 39.78973 31.53609
# Shear Modulus (GPa) = 25.31409 37.70600 31.51004
#
# Velocity S-wave (km/s) = 3.43706 4.19480 3.83469
# Velocity P-wave (km/s) = 5.15911 6.48310 5.85862
#
# Compressibility (1/GPa) = 0.04295081
#
# Stress axis : x y z
#
# Youngs Moduli (GPa) = 88.36410 37.29328 89.33780
#
# Poissons Ratio (x) = -0.08562 0.28130
# Poissons Ratio (y) = -0.20288 0.20852
# Poissons Ratio (z) = 0.27824 0.08705
#
# Static dielectric constant tensor:
#      x y z
#    x 1.705960 -0.080620 0.152560 
#    y -0.080620 1.808800 -0.053360 
#    z 0.152560 -0.053360 1.788640 
# 
# From -- ./inp_files/91020.got.cif
#   From: 2010.05.17/outbox.cif.g08.bks.cpg/sg2_46_cif.got.tgz:91020.got - 2010.06.03 11:33:40.
