data_PCOD9002122
_publ_section_title
;
Structure prediction by ZEFSAII (Michael W. Deem and Ramdas Pophale) SiO2 
 PCOD9002122
Probable space group: P -1
;
_chemical_formula_sum "Si O2"
_cell_formula_units_Z 16
_cell_length_a 10.819942
_cell_length_b 15.676117
_cell_length_c 12.316631
_cell_angle_alpha 145.755276
_cell_angle_beta 39.173325
_cell_angle_gamma 123.849810
_cell_volume 721.636269
_symmetry_space_group_name_H-M "P -1"
_symmetry_group_IT_number 2
_symmetry_cell_setting 'triclinic'
loop_
_space_group_symop_operation_xyz
x,y,z
-x,-y,-z
loop_
_atom_site_type_symbol
_atom_site_label
_atom_site_fract_x
_atom_site_fract_y
_atom_site_fract_z
Si Si1 0.540712 0.872825 0.058299
Si Si2 0.362501 0.379091 0.452087
Si Si3 0.514684 0.224528 0.393657
Si Si4 0.416688 0.237168 0.721351
Si Si5 0.256191 0.953903 0.542538
Si Si6 0.775466 0.502767 0.724288
Si Si7 0.993303 0.855024 0.771010
Si Si8 0.829141 0.420577 0.381944
O O1 0.530685 0.754596 0.844508
O O2 0.767314 0.833793 0.910459
O O3 0.375887 0.886721 0.280946
O O4 0.526827 0.041939 0.192434
O O5 0.500000 0.500000 0.500000
O O6 0.354404 0.307611 0.500539
O O7 0.172594 0.479792 0.621315
O O8 0.453218 0.269177 0.605839
O O9 0.725631 0.276383 0.283420
O O10 0.604160 0.117412 0.524320
O O11 0.244579 0.138220 0.739433
O O12 0.378254 0.394342 0.980033
O O13 0.050581 0.908898 0.668931
O O14 0.858011 0.316428 0.491379
O O15 0.692385 0.519609 0.675729
O O16 0.959850 0.586439 0.710916
O O17 0.000000 0.000000 0.000000
#
# Coordination Sequence:
#
# PCOD9002122 Si02
#       8
#     2   2   2   2   2   2   2   2
#     4  11  22  42  65  94 126 167 214 263 314 381
#     4  10  21  40  65  88 122 170 217 259 307 374
#     4  10  22  39  64  88 122 170 214 252 320 375
#     4  10  21  39  58  92 129 167 208 262 317 383
#     4  10  23  39  62  94 134 165 205 265 327 377
#     4  11  23  36  61  95 130 160 207 265 326 377
#     4  12  24  38  63  97 135 169 202 260 327 384
#     4  10  21  36  57  94 120 158 209 256 313 379
#
# _framework density 22.171835000000002
#
# number of rings (size 3 to 8) (size 9 to 14) (size 15 to 20)
#    0.000    1.500    1.250    4.875    7.000    4.000 
#    0.000    0.625    5.500    2.250    0.000    0.000 
#    0.000    0.000    0.000    0.000    0.000    0.000 
#
# Total GULP energy -89223.029659 kJ/mol
# GULP energy per Si atom -5576.439354 kJ/mol
# Density = 2.212137 g / cm^3
# Si number density = 22.171835 Si / 1000 Ang^3
#
#
#
# Elastic Constant Matrix: (Units=GPa)
#
#
# Indices 1 2 3 4 5 6 
#
# 1 73.7564 32.6116 12.8835 3.6335 19.6871 -16.7436
# 2 32.6116 142.7437 41.2218 0.5628 7.0605 -11.3263
# 3 12.8835 41.2218 97.3228 12.5420 24.8473 3.8668
# 4 3.6335 0.5628 12.5420 24.0358 2.5592 0.8166
# 5 19.6871 7.0605 24.8473 2.5592 29.5611 4.7408
# 6 -16.7436 -11.3263 3.8668 0.8166 4.7408 49.1811
#
#
#
# Elastic Compliance Matrix: (Units=1/GPa)
#
#
# Indices 1 2 3 4 5 6 
#
# 1 0.021377 -0.004441 0.003552 -0.003422 -0.017097 0.007681
# 2 -0.004441 0.009215 -0.004801 0.002465 0.004497 0.000513
# 3 0.003552 -0.004801 0.016489 -0.007498 -0.014482 0.000328
# 4 -0.003422 0.002465 -0.007498 0.045565 0.004236 -0.001173
# 5 -0.017097 0.004497 -0.014482 0.004236 0.057431 -0.009253
# 6 0.007681 0.000513 0.000328 -0.001173 -0.009253 0.023952
#
#
# Mechanical properties :
#
#
# Convention : Reuss Voigt Hill
#
# Bulk Modulus (GPa) = 28.01073 54.13964 41.07518
# Shear Modulus (GPa) = 25.34082 35.69600 30.51841
#
# Velocity S-wave (km/s) = 3.38439 4.01680 3.71408
# Velocity P-wave (km/s) = 5.28517 6.78116 6.07936
#
# Compressibility (1/GPa) = 0.03570061
#
# Stress axis : x y z
#
# Youngs Moduli (GPa) = 46.77921 108.51487 60.64600
#
# Poissons Ratio (x) = 0.48191 -0.21541
# Poissons Ratio (y) = 0.20775 0.29118
# Poissons Ratio (z) = -0.16616 0.52102
#
# Static dielectric constant tensor:
#      x y z
#    x 1.868920 -0.003160 -0.044590 
#    y -0.003160 1.956860 -0.055050 
#    z -0.044590 -0.055050 1.926950 
# 
# From -- ./inp_files/434288.got.cif
#   From: 2010.05.17/outbox.cif.g08.bks.cpg/sg2_218_cif.got.tgz:434288.got - 2010.06.03 11:33:40.
