data_PCOD9002390
_publ_section_title
;
Structure prediction by ZEFSAII (Michael W. Deem and Ramdas Pophale) SiO2 
 PCOD9002390
Probable space group: P -1
;
_chemical_formula_sum "Si O2"
_cell_formula_units_Z 14
_cell_length_a 6.244548
_cell_length_b 24.237160
_cell_length_c 11.952825
_cell_angle_alpha 30.838279
_cell_angle_beta 112.786998
_cell_angle_gamma 91.298768
_cell_volume 645.535316
_symmetry_space_group_name_H-M "P -1"
_symmetry_group_IT_number 2
_symmetry_cell_setting 'triclinic'
loop_
_space_group_symop_operation_xyz
x,y,z
-x,-y,-z
loop_
_atom_site_type_symbol
_atom_site_label
_atom_site_fract_x
_atom_site_fract_y
_atom_site_fract_z
Si Si1 0.649060 0.618777 0.267297
Si Si2 0.178383 0.106616 0.810427
Si Si3 0.306651 0.623604 0.366834
Si Si4 0.726668 0.590365 0.874181
Si Si5 0.162669 0.634060 0.573227
Si Si6 0.630043 0.845349 0.756702
Si Si7 0.348170 0.871286 0.416873
O O1 0.558755 0.631044 0.358142
O O2 0.528556 0.543131 0.321998
O O3 0.000000 0.500000 0.500000
O O4 0.534946 0.769367 0.942958
O O5 0.114267 0.239538 0.625259
O O6 0.906114 0.147312 0.602767
O O7 0.500000 0.000000 0.000000
O O8 0.186116 0.021217 0.064635
O O9 0.169081 0.665372 0.391030
O O10 0.001700 0.733453 0.037489
O O11 0.449033 0.611430 0.722802
O O12 0.617879 0.742445 0.617199
O O13 0.794784 0.504664 0.151666
O O14 0.000000 0.500000 0.000000
O O15 0.495916 0.859959 0.582533
O O16 0.500000 0.000000 0.500000
#
# Coordination Sequence:
#
# PCOD9002390 Si02
#       7
#     2   2   2   2   2   2   2
#     4   9  21  40  60  87 120 162 210 252 306 366
#     4  10  21  40  63  85 117 158 195 246 309 365
#     4  10  21  39  63  88 122 163 203 257 314 369
#     4  10  21  36  60  89 118 152 195 253 306 355
#     4  10  21  37  58  90 118 150 203 246 301 371
#     4  11  23  39  59  90 126 163 208 253 304 368
#     4  10  22  39  58  87 120 153 201 248 299 366
#
# _framework density 21.687428000000001
#
# number of rings (size 3 to 8) (size 9 to 14) (size 15 to 20)
#    0.000    2.000    0.000    2.571    0.000    7.429 
#    0.000    7.143    0.000    0.000    0.000    0.000 
#    0.000    0.000    0.000    0.000    0.000    0.000 
#
# Total GULP energy -78045.955844 kJ/mol
# GULP energy per Si atom -5574.711132 kJ/mol
# Density = 2.163807 g / cm^3
# Si number density = 21.687428 Si / 1000 Ang^3
#
#
#
# Elastic Constant Matrix: (Units=GPa)
#
#
# Indices 1 2 3 4 5 6 
#
# 1 65.6308 29.1894 26.3341 6.3541 3.5455 -22.3508
# 2 29.1894 108.2430 49.2630 7.2417 12.3558 -5.1894
# 3 26.3341 49.2630 98.0391 -9.2308 -5.7405 5.3156
# 4 6.3541 7.2417 -9.2308 47.0465 1.6958 -0.5347
# 5 3.5455 12.3558 -5.7405 1.6958 39.1476 -9.8832
# 6 -22.3508 -5.1894 5.3156 -0.5347 -9.8832 29.7923
#
#
#
# Elastic Compliance Matrix: (Units=1/GPa)
#
#
# Indices 1 2 3 4 5 6 
#
# 1 0.027363 -0.003085 -0.007242 -0.004506 0.003254 0.022282
# 2 -0.003085 0.013855 -0.006674 -0.002848 -0.005060 -0.000440
# 3 -0.007242 -0.006674 0.016603 0.005064 0.002824 -0.008530
# 4 -0.004506 -0.002848 0.005064 0.023249 -0.000064 -0.004384
# 5 0.003254 -0.005060 0.002824 -0.000064 0.030046 0.011022
# 6 0.022282 -0.000440 -0.008530 -0.004384 0.011022 0.055305
#
#
# Mechanical properties :
#
#
# Convention : Reuss Voigt Hill
#
# Bulk Modulus (GPa) = 41.98056 53.49842 47.73949
# Shear Modulus (GPa) = 23.99678 34.33902 29.16790
#
# Velocity S-wave (km/s) = 3.32999 3.98346 3.67130
# Velocity P-wave (km/s) = 5.84673 6.77339 6.32705
#
# Compressibility (1/GPa) = 0.02382055
#
# Stress axis : x y z
#
# Youngs Moduli (GPa) = 36.54576 72.17797 60.22925
#
# Poissons Ratio (x) = 0.22266 0.43616
# Poissons Ratio (y) = 0.11274 0.40195
# Poissons Ratio (z) = 0.26465 0.48169
#
# Static dielectric constant tensor:
#      x y z
#    x 1.845970 0.000180 -0.001090 
#    y 0.000180 1.814070 0.005550 
#    z -0.001090 0.005550 1.818960 
# 
# From -- ./inp_files/371002.got.cif
#   From: 2010.05.17/outbox.cif.g08.bks.cpg/sg2_186_cif.got.tgz:371002.got - 2010.06.03 11:33:40.
