data_PCOD9002928
_publ_section_title
;
Structure prediction by ZEFSAII (Michael W. Deem and Ramdas Pophale) SiO2 
 PCOD9002928
Probable space group: P -1
;
_chemical_formula_sum "Si O2"
_cell_formula_units_Z 16
_cell_length_a 16.341574
_cell_length_b 17.874767
_cell_length_c 13.365275
_cell_angle_alpha 153.526034
_cell_angle_beta 126.887973
_cell_angle_gamma 35.851456
_cell_volume 894.286515
_symmetry_space_group_name_H-M "P -1"
_symmetry_group_IT_number 2
_symmetry_cell_setting 'triclinic'
loop_
_space_group_symop_operation_xyz
x,y,z
-x,-y,-z
loop_
_atom_site_type_symbol
_atom_site_label
_atom_site_fract_x
_atom_site_fract_y
_atom_site_fract_z
Si Si1 0.028947 0.853624 0.535369
Si Si2 0.970978 0.758828 0.077030
Si Si3 0.558712 0.922998 0.565190
Si Si4 0.741401 0.523595 0.910078
Si Si5 0.920264 0.489576 0.343885
Si Si6 0.558732 0.542997 0.185200
Si Si7 0.741326 0.138862 0.525290
Si Si8 0.920274 0.103912 0.958219
O O1 0.180567 0.577229 0.263436
O O2 0.031380 0.044408 0.727388
O O3 0.870095 0.975858 0.514962
O O4 0.013254 0.879814 0.673949
O O5 0.129789 0.547130 0.007965
O O6 0.819330 0.932921 0.246640
O O7 0.986723 0.625488 0.831329
O O8 0.736963 0.769133 0.523360
O O9 0.564446 0.723247 0.363112
O O10 0.500000 0.000000 0.500000
O O11 0.429409 0.180400 0.845939
O O12 0.733227 0.341611 0.724420
O O13 0.000000 0.500000 0.500000
O O14 0.920309 0.296450 0.150288
O O15 0.429484 0.696729 0.362324
O O16 0.500000 0.500000 0.000000
O O17 0.736984 0.274146 0.028374
O O18 0.000000 0.000000 0.000000
#
# Coordination Sequence:
#
# PCOD9002928 Si02
#       8
#     2   2   2   2   2   2   2   2
#     4   8  15  31  54  77 104 138 174 213 260 310
#     4   8  15  31  54  77 104 138 174 213 260 310
#     4  11  21  34  54  80 109 137 174 221 264 310
#     4   9  16  31  56  80 103 134 173 221 265 304
#     4  10  21  37  54  76 106 142 178 214 259 314
#     4  11  21  34  54  80 109 137 174 221 264 310
#     4   9  16  31  56  80 103 134 173 221 265 304
#     4  10  21  37  54  76 106 142 178 214 259 314
#
# _framework density 17.891358
#
# number of rings (size 3 to 8) (size 9 to 14) (size 15 to 20)
#    0.000    2.500    2.500    2.250    0.000    2.000 
#    0.000    5.000    0.000    7.500    0.000    0.000 
#    0.000    0.000    0.000    0.000    0.000    0.000 
#
# Total GULP energy -89218.177424 kJ/mol
# GULP energy per Si atom -5576.136089 kJ/mol
# Density = 1.785064 g / cm^3
# Si number density = 17.891358 Si / 1000 Ang^3
#
#
#
# Elastic Constant Matrix: (Units=GPa)
#
#
# Indices 1 2 3 4 5 6 
#
# 1 62.3716 39.8029 33.8227 -9.6115 -36.4602 -6.8823
# 2 39.8029 119.1138 70.2753 -13.5430 -34.2117 -2.9341
# 3 33.8227 70.2753 129.7701 -13.1871 -45.5893 -5.6769
# 4 -9.6115 -13.5430 -13.1871 28.7148 5.2241 -0.6572
# 5 -36.4602 -34.2117 -45.5893 5.2241 37.8603 -1.7554
# 6 -6.8823 -2.9341 -5.6769 -0.6572 -1.7554 24.1519
#
#
#
# Elastic Compliance Matrix: (Units=1/GPa)
#
#
# Indices 1 2 3 4 5 6 
#
# 1 0.051051 -0.005953 0.012297 0.009821 0.058219 0.021213
# 2 -0.005953 0.013958 -0.006203 0.001875 -0.000917 -0.001475
# 3 0.012297 -0.006203 0.018844 0.004839 0.028696 0.009397
# 4 0.009821 0.001875 0.004839 0.039202 0.011852 0.006092
# 5 0.058219 -0.000917 0.028696 0.011852 0.116052 0.031981
# 6 0.021213 -0.001475 0.009397 0.006092 0.031981 0.051970
#
#
# Mechanical properties :
#
#
# Convention : Reuss Voigt Hill
#
# Bulk Modulus (GPa) = 11.88581 66.56194 39.22387
# Shear Modulus (GPa) = 15.68182 29.30236 22.49209
#
# Velocity S-wave (km/s) = 2.96379 4.05136 3.54948
# Velocity P-wave (km/s) = 4.28600 7.69213 6.22650
#
# Compressibility (1/GPa) = 0.08413397
#
# Stress axis : x y z
#
# Youngs Moduli (GPa) = 19.58835 71.64365 53.06694
#
# Poissons Ratio (x) = 0.42653 -0.65258
# Poissons Ratio (y) = 0.11662 0.32919
# Poissons Ratio (z) = -0.24088 0.44443
#
# Static dielectric constant tensor:
#      x y z
#    x 1.628400 0.006910 -0.006310 
#    y 0.006910 1.579700 0.005280 
#    z -0.006310 0.005280 1.633100 
# 
# From -- ./inp_files/181669.got.cif
#   From: 2010.05.17/outbox.cif.g08.bks.cpg/sg2_91_cif.got.tgz:181669.got - 2010.06.03 11:33:40.
