data_PCOD9002102
_publ_section_title
;
Structure prediction by ZEFSAII (Michael W. Deem and Ramdas Pophale) SiO2 
 PCOD9002102
Probable space group: P -1
;
_chemical_formula_sum "Si O2"
_cell_formula_units_Z 12
_cell_length_a 9.924273
_cell_length_b 7.447680
_cell_length_c 13.131535
_cell_angle_alpha 108.682050
_cell_angle_beta 138.684482
_cell_angle_gamma 48.765753
_cell_volume 451.048852
_symmetry_space_group_name_H-M "P -1"
_symmetry_group_IT_number 2
_symmetry_cell_setting 'triclinic'
loop_
_space_group_symop_operation_xyz
x,y,z
-x,-y,-z
loop_
_atom_site_type_symbol
_atom_site_label
_atom_site_fract_x
_atom_site_fract_y
_atom_site_fract_z
Si Si1 0.399477 0.000779 0.313465
Si Si2 0.956471 0.712366 0.645280
Si Si3 0.423169 0.763745 0.086610
Si Si4 0.133915 0.987765 0.744124
Si Si5 0.323715 0.441341 0.093852
Si Si6 0.181471 0.517434 0.246051
O O1 0.180742 0.108532 0.298822
O O2 0.407298 0.223966 0.351637
O O3 0.707033 0.742118 0.466666
O O4 0.320794 0.964348 0.154307
O O5 0.246429 0.429553 0.776209
O O6 0.025220 0.845473 0.635332
O O7 0.268446 0.899590 0.918657
O O8 0.633152 0.412009 0.932854
O O9 0.396360 0.855657 0.798368
O O10 0.899909 0.288518 0.676542
O O11 0.265443 0.557127 0.194089
O O12 0.082465 0.452134 0.923200
#
# Coordination Sequence:
#
# PCOD9002102 Si02
#       6
#     2   2   2   2   2   2
#     4  11  23  39  59  85 117 151 187 232 285 340
#     4  10  23  41  60  83 113 152 194 232 278 336
#     4  11  21  39  63  84 111 150 196 236 274 331
#     4  11  22  38  61  86 114 149 191 236 280 332
#     4  10  21  36  57  88 116 146 190 237 282 328
#     4  11  22  35  56  88 120 147 182 234 291 337
#
# _framework density 26.604655999999999
#
# number of rings (size 3 to 8) (size 9 to 14) (size 15 to 20)
#    0.000    1.333    0.000    8.000    0.000    4.000 
#    0.000    3.333    0.000    0.000    0.000    0.000 
#    0.000    0.000    0.000    0.000    0.000    0.000 
#
# Total GULP energy -67239.566871 kJ/mol
# GULP energy per Si atom -5603.297239 kJ/mol
# Density = 2.654410 g / cm^3
# Si number density = 26.604656 Si / 1000 Ang^3
#
#
#
# Elastic Constant Matrix: (Units=GPa)
#
#
# Indices 1 2 3 4 5 6 
#
# 1 79.0186 -0.8426 14.7186 -9.2037 2.4541 -19.7519
# 2 -0.8426 102.5399 0.6442 2.4423 -7.3711 -9.6215
# 3 14.7186 0.6442 47.7176 -15.1256 10.5059 -11.9646
# 4 -9.2037 2.4423 -15.1256 34.7360 -9.8293 -3.1631
# 5 2.4541 -7.3711 10.5059 -9.8293 21.8387 -3.5981
# 6 -19.7519 -9.6215 -11.9646 -3.1631 -3.5981 38.2934
#
#
#
# Elastic Compliance Matrix: (Units=1/GPa)
#
#
# Indices 1 2 3 4 5 6 
#
# 1 0.015587 0.001034 -0.001836 0.004893 0.003070 0.008419
# 2 0.001034 0.010403 -0.000228 0.001065 0.004576 0.003594
# 3 -0.001836 -0.000228 0.028561 0.010575 -0.007518 0.008087
# 4 0.004893 0.001065 0.010575 0.039647 0.014333 0.010718
# 5 0.003070 0.004576 -0.007518 0.014333 0.058217 0.007038
# 6 0.008419 0.003594 0.008087 0.010718 0.007038 0.035433
#
#
# Mechanical properties :
#
#
# Convention : Reuss Voigt Hill
#
# Bulk Modulus (GPa) = 19.05085 28.70184 23.87634
# Shear Modulus (GPa) = 24.10734 33.29068 28.69901
#
# Velocity S-wave (km/s) = 3.01347 3.54122 3.28795
# Velocity P-wave (km/s) = 4.39138 5.24710 4.83820
#
# Compressibility (1/GPa) = 0.05249109
#
# Stress axis : x y z
#
# Youngs Moduli (GPa) = 64.15515 96.12571 35.01269
#
# Poissons Ratio (x) = -0.09936 0.06428
# Poissons Ratio (y) = -0.06632 0.00798
# Poissons Ratio (z) = 0.11777 0.02192
#
# Static dielectric constant tensor:
#      x y z
#    x 2.086370 0.017580 -0.017540 
#    y 0.017580 2.095790 -0.032360 
#    z -0.017540 -0.032360 2.079840 
# 
# From -- ./inp_files/73580.got.cif
#   From: 2010.05.17/outbox.cif.g08.bks.cpg/sg2_37_cif.got.tgz:73580.got - 2010.06.03 11:33:40.
