data_PCOD9002632
_publ_section_title
;
Structure prediction by ZEFSAII (Michael W. Deem and Ramdas Pophale) SiO2 
 PCOD9002632
Probable space group: P -1
;
_chemical_formula_sum "Si O2"
_cell_formula_units_Z 16
_cell_length_a 8.374418
_cell_length_b 12.404959
_cell_length_c 11.081548
_cell_angle_alpha 128.625345
_cell_angle_beta 64.417455
_cell_angle_gamma 122.121506
_cell_volume 752.962631
_symmetry_space_group_name_H-M "P -1"
_symmetry_group_IT_number 2
_symmetry_cell_setting 'triclinic'
loop_
_space_group_symop_operation_xyz
x,y,z
-x,-y,-z
loop_
_atom_site_type_symbol
_atom_site_label
_atom_site_fract_x
_atom_site_fract_y
_atom_site_fract_z
Si Si1 0.066462 0.714328 0.350395
Si Si2 0.201895 0.989037 0.896325
Si Si3 0.273234 0.709110 0.726708
Si Si4 0.717608 0.578356 0.523603
Si Si5 0.295478 0.997554 0.602936
Si Si6 0.688768 0.865436 0.798694
Si Si7 0.982612 0.857222 0.242904
Si Si8 0.017799 0.425338 0.068838
O O1 0.166758 0.825955 0.501564
O O2 0.130604 0.574233 0.213352
O O3 0.845277 0.646631 0.412451
O O4 0.079105 0.809257 0.291780
O O5 0.176070 0.817972 0.788121
O O6 0.284263 0.044750 0.777303
O O7 0.339899 0.073657 0.019475
O O8 0.000000 0.000000 0.000000
O O9 0.232673 0.563749 0.555876
O O10 0.496963 0.806182 0.740403
O O11 0.180609 0.651818 0.848206
O O12 0.500000 0.500000 0.500000
O O13 0.740557 0.718760 0.696833
O O14 0.500000 0.000000 0.500000
O O15 0.194087 0.094387 0.632324
O O16 0.859368 0.999973 0.773326
O O17 0.915854 0.710613 0.076740
O O18 0.000000 0.500000 0.000000
#
# Coordination Sequence:
#
# PCOD9002632 Si02
#       8
#     2   2   2   2   2   2   2   2
#     4  10  21  40  64  91 127 163 209 263 321 371
#     4  12  23  41  61  89 133 167 209 258 307 381
#     4  10  21  36  62  96 123 162 213 261 315 375
#     4   9  19  36  60  96 126 154 212 265 315 371
#     4  12  27  41  60  96 131 172 211 257 317 380
#     4  11  21  37  67  94 121 159 219 261 316 363
#     4  11  21  40  68  92 122 164 212 269 316 369
#     4   9  19  36  63  93 125 155 207 267 321 366
#
# _framework density 21.249395
#
# number of rings (size 3 to 8) (size 9 to 14) (size 15 to 20)
#    0.000    1.500    3.750    0.750    1.750    2.000 
#    0.000    7.500    0.000    0.000    0.000    0.000 
#    0.000    0.000    0.000    0.000    0.000    0.000 
#
# Total GULP energy -89172.378502 kJ/mol
# GULP energy per Si atom -5573.273656 kJ/mol
# Density = 2.120103 g / cm^3
# Si number density = 21.249395 Si / 1000 Ang^3
#
#
#
# Elastic Constant Matrix: (Units=GPa)
#
#
# Indices 1 2 3 4 5 6 
#
# 1 53.2222 33.5012 24.1348 8.0175 -21.8725 5.2914
# 2 33.5012 82.3209 37.6560 23.4370 -9.9589 -1.6969
# 3 24.1348 37.6560 127.8600 38.1896 -21.4038 -5.6574
# 4 8.0175 23.4370 38.1896 49.4755 -11.2320 -9.9806
# 5 -21.8725 -9.9589 -21.4038 -11.2320 37.3097 2.4775
# 6 5.2914 -1.6969 -5.6574 -9.9806 2.4775 19.4599
#
#
#
# Elastic Compliance Matrix: (Units=1/GPa)
#
#
# Indices 1 2 3 4 5 6 
#
# 1 0.035839 -0.012863 -0.001329 0.003095 0.018545 -0.012027
# 2 -0.012863 0.019589 -0.002326 -0.006278 -0.005671 0.002032
# 3 -0.001329 -0.002326 0.011274 -0.006778 0.003056 -0.000429
# 4 0.003095 -0.006278 -0.006778 0.031487 0.004922 0.012163
# 5 0.018545 -0.005671 0.003056 0.004922 0.039874 -0.007201
# 6 -0.012027 0.002032 -0.000429 0.012163 -0.007201 0.061865
#
#
# Mechanical properties :
#
#
# Convention : Reuss Voigt Hill
#
# Bulk Modulus (GPa) = 29.70237 50.44301 40.07269
# Shear Modulus (GPa) = 20.47623 32.45643 26.46633
#
# Velocity S-wave (km/s) = 3.10758 3.91244 3.53301
# Velocity P-wave (km/s) = 5.18502 6.64829 5.96172
#
# Compressibility (1/GPa) = 0.03366735
#
# Stress axis : x y z
#
# Youngs Moduli (GPa) = 27.90233 51.04875 88.70107
#
# Poissons Ratio (x) = 0.65663 0.11788
# Poissons Ratio (y) = 0.35890 0.20628
# Poissons Ratio (z) = 0.03708 0.11872
#
# Static dielectric constant tensor:
#      x y z
#    x 1.796520 -0.020400 -0.013120 
#    y -0.020400 1.806350 -0.009950 
#    z -0.013120 -0.009950 1.866680 
# 
# From -- ./inp_files/333030.got.cif
#   From: 2010.05.17/outbox.cif.g08.bks.cpg/sg2_167_cif.got.tgz:333030.got - 2010.06.03 11:33:40.
