data_PCOD9002483
_publ_section_title
;
Structure prediction by ZEFSAII (Michael W. Deem and Ramdas Pophale) SiO2 
 PCOD9002483
Probable space group: P -1
;
_chemical_formula_sum "Si O2"
_cell_formula_units_Z 16
_cell_length_a 12.248277
_cell_length_b 9.655243
_cell_length_c 11.651753
_cell_angle_alpha 54.676623
_cell_angle_beta 49.928960
_cell_angle_gamma 83.220873
_cell_volume 785.829995
_symmetry_space_group_name_H-M "P -1"
_symmetry_group_IT_number 2
_symmetry_cell_setting 'triclinic'
loop_
_space_group_symop_operation_xyz
x,y,z
-x,-y,-z
loop_
_atom_site_type_symbol
_atom_site_label
_atom_site_fract_x
_atom_site_fract_y
_atom_site_fract_z
Si Si1 0.627830 0.738549 0.458724
Si Si2 0.369613 0.564256 0.011296
Si Si3 0.783295 0.541530 0.597829
Si Si4 0.899128 0.783266 0.072606
Si Si5 0.680918 0.596606 0.123634
Si Si6 0.581613 0.031001 0.219296
Si Si7 0.535691 0.184454 0.814059
Si Si8 0.928072 0.186485 0.845109
O O1 0.699918 0.679716 0.549142
O O2 0.743468 0.735341 0.279438
O O3 0.454438 0.581119 0.641074
O O4 0.614723 0.933659 0.355872
O O5 0.246834 0.511575 0.223843
O O6 0.500000 0.500000 0.000000
O O7 0.301137 0.458839 0.990919
O O8 0.446556 0.785253 0.829717
O O9 0.689347 0.356138 0.674610
O O10 0.962606 0.654387 0.388313
O O11 0.838981 0.668384 0.053957
O O12 0.019412 0.747101 0.091491
O O13 0.964263 0.002583 0.896245
O O14 0.604956 0.748294 0.105283
O O15 0.461890 0.875382 0.291192
O O16 0.743821 0.111007 0.998784
O O17 0.500000 0.000000 0.000000
#
# Coordination Sequence:
#
# PCOD9002483 Si02
#       8
#     2   2   2   2   2   2   2   2
#     4   9  18  32  61  88 109 146 195 247 277 334
#     4  12  23  40  54  85 127 161 183 234 300 353
#     4  10  21  36  61  87 121 152 192 238 295 338
#     4   9  17  33  58  88 114 146 190 247 294 329
#     4  11  20  34  59  83 122 153 190 236 301 344
#     4  11  22  37  62  91 116 147 200 243 291 336
#     4  11  19  35  58  88 114 152 197 246 272 339
#     4   9  19  35  60  89 113 146 197 249 280 337
#
# _framework density 20.360638000000002
#
# number of rings (size 3 to 8) (size 9 to 14) (size 15 to 20)
#    0.000    1.750    6.250    1.125    3.500    1.000 
#    0.000    1.250    0.000    1.500    0.000    0.000 
#    0.000    0.000    0.000    0.000    0.000    0.000 
#
# Total GULP energy -89269.134924 kJ/mol
# GULP energy per Si atom -5579.320933 kJ/mol
# Density = 2.031430 g / cm^3
# Si number density = 20.360638 Si / 1000 Ang^3
#
#
#
# Elastic Constant Matrix: (Units=GPa)
#
#
# Indices 1 2 3 4 5 6 
#
# 1 42.8707 32.0379 23.6984 -7.0845 11.6504 18.5753
# 2 32.0379 87.8005 26.1108 -9.3456 16.8687 15.9237
# 3 23.6984 26.1108 106.1870 -23.2937 9.9849 3.6111
# 4 -7.0845 -9.3456 -23.2937 19.2318 -4.4809 11.8263
# 5 11.6504 16.8687 9.9849 -4.4809 40.3839 -11.0047
# 6 18.5753 15.9237 3.6111 11.8263 -11.0047 47.5055
#
#
#
# Elastic Compliance Matrix: (Units=1/GPa)
#
#
# Indices 1 2 3 4 5 6 
#
# 1 0.049577 -0.007012 -0.001124 0.026577 -0.015550 -0.027168
# 2 -0.007012 0.017160 -0.000065 0.008247 -0.005969 -0.006441
# 3 -0.001124 -0.000065 0.014696 0.020674 -0.002743 -0.006438
# 4 0.026577 0.008247 0.020674 0.116212 -0.016252 -0.047423
# 5 -0.015550 -0.005969 -0.002743 -0.016252 0.036267 0.020737
# 6 -0.027168 -0.006441 -0.006438 -0.047423 0.020737 0.050931
#
#
# Mechanical properties :
#
#
# Convention : Reuss Voigt Hill
#
# Bulk Modulus (GPa) = 15.37745 44.50582 29.94164
# Shear Modulus (GPa) = 15.48355 31.75830 23.62092
#
# Velocity S-wave (km/s) = 2.76064 3.95370 3.40976
# Velocity P-wave (km/s) = 4.21076 6.53824 5.49905
#
# Compressibility (1/GPa) = 0.06503028
#
# Stress axis : x y z
#
# Youngs Moduli (GPa) = 20.17072 58.27372 68.04432
#
# Poissons Ratio (x) = 0.40864 0.07647
# Poissons Ratio (y) = 0.14145 0.00444
# Poissons Ratio (z) = 0.02267 0.00380
#
# Static dielectric constant tensor:
#      x y z
#    x 1.773020 -0.020890 0.015690 
#    y -0.020890 1.762470 0.005900 
#    z 0.015690 0.005900 1.739590 
# 
# From -- ./inp_files/444174.got.cif
#   From: 2010.05.17/outbox.cif.g08.bks.cpg/sg2_223_cif.got.tgz:444174.got - 2010.06.03 11:33:40.
