data_PCOD9002127
_publ_section_title
;
Structure prediction by ZEFSAII (Michael W. Deem and Ramdas Pophale) SiO2 
 PCOD9002127
Probable space group: P -1
;
_chemical_formula_sum "Si O2"
_cell_formula_units_Z 16
_cell_length_a 9.928990
_cell_length_b 9.148606
_cell_length_c 16.392343
_cell_angle_alpha 76.231413
_cell_angle_beta 138.812307
_cell_angle_gamma 125.510215
_cell_volume 741.078721
_symmetry_space_group_name_H-M "P -1"
_symmetry_group_IT_number 2
_symmetry_cell_setting 'triclinic'
loop_
_space_group_symop_operation_xyz
x,y,z
-x,-y,-z
loop_
_atom_site_type_symbol
_atom_site_label
_atom_site_fract_x
_atom_site_fract_y
_atom_site_fract_z
Si Si1 0.282693 0.028484 0.386831
Si Si2 0.095069 0.259204 0.060900
Si Si3 0.933584 0.007222 0.375329
Si Si4 0.100380 0.667582 0.634225
Si Si5 0.109246 0.160085 0.905765
Si Si6 0.356248 0.728443 0.896012
Si Si7 0.390869 0.819276 0.079635
Si Si8 0.424513 0.647538 0.657017
O O1 0.427081 0.222124 0.372581
O O2 0.139643 0.026992 0.403034
O O3 0.500000 0.000000 0.500000
O O4 0.056795 0.868757 0.243687
O O5 0.391809 0.394066 0.212746
O O6 0.092168 0.254590 0.963564
O O7 0.995623 0.051916 0.080888
O O8 0.876338 0.278265 0.981158
O O9 0.945615 0.192639 0.363946
O O10 0.633898 0.842131 0.228508
O O11 0.000000 0.000000 0.500000
O O12 0.147958 0.594010 0.748209
O O13 0.352559 0.742323 0.680792
O O14 0.853761 0.533374 0.480601
O O15 0.407589 0.277155 0.003040
O O16 0.485200 0.954769 0.907247
O O17 0.290973 0.708306 0.963183
#
# Coordination Sequence:
#
# PCOD9002127 Si02
#       8
#     2   2   2   2   2   2   2   2
#     4  11  23  36  56  82 111 143 182 226 268 325
#     4   9  17  28  51  79 105 135 176 225 266 308
#     4  11  23  37  55  81 111 147 180 221 276 322
#     4  10  21  36  58  80 114 147 176 221 271 325
#     4   9  16  29  50  77 104 132 178 226 266 309
#     4   9  15  30  49  78 103 135 176 222 271 307
#     4   9  18  29  50  77 106 134 177 227 267 311
#     4  10  21  37  55  84 112 145 181 218 270 323
#
# _framework density 21.590150999999999
#
# number of rings (size 3 to 8) (size 9 to 14) (size 15 to 20)
#    0.000    2.250    2.500    0.750   12.250    0.500 
#    0.000    0.000    0.000    3.000    0.000    0.000 
#    0.000    0.000    0.000    0.000    0.000    0.000 
#
# Total GULP energy -89086.227327 kJ/mol
# GULP energy per Si atom -5567.889208 kJ/mol
# Density = 2.154101 g / cm^3
# Si number density = 21.590151 Si / 1000 Ang^3
#
#
#
# Elastic Constant Matrix: (Units=GPa)
#
#
# Indices 1 2 3 4 5 6 
#
# 1 207.9677 13.2946 91.0252 -14.1482 3.4928 4.6553
# 2 13.2946 32.4588 3.8144 -3.4482 3.3040 -7.6068
# 3 91.0252 3.8144 143.7156 -11.4886 -1.6216 1.2638
# 4 -14.1482 -3.4482 -11.4886 15.5882 2.7254 -2.5785
# 5 3.4928 3.3040 -1.6216 2.7254 39.8930 -2.5872
# 6 4.6553 -7.6068 1.2638 -2.5785 -2.5872 9.2271
#
#
#
# Elastic Compliance Matrix: (Units=1/GPa)
#
#
# Indices 1 2 3 4 5 6 
#
# 1 0.007162 -0.003460 -0.004259 0.001837 -0.001006 -0.005651
# 2 -0.003460 0.043338 0.001851 0.014856 -0.001572 0.040931
# 3 -0.004259 0.001851 0.009930 0.004375 0.000564 0.003696
# 4 0.001837 0.014856 0.004375 0.078304 -0.004531 0.031333
# 5 -0.001006 -0.001572 0.000564 -0.004531 0.025951 0.005145
# 6 -0.005651 0.040931 0.003696 0.031333 0.005145 0.154663
#
#
# Mechanical properties :
#
#
# Convention : Reuss Voigt Hill
#
# Bulk Modulus (GPa) = 20.53614 66.71228 43.62421
# Shear Modulus (GPa) = 14.39608 31.34220 22.86914
#
# Velocity S-wave (km/s) = 2.58503 3.81424 3.25813
# Velocity P-wave (km/s) = 4.29445 7.09679 5.86543
#
# Compressibility (1/GPa) = 0.04869465
#
# Stress axis : x y z
#
# Youngs Moduli (GPa) = 139.62115 23.07433 100.70099
#
# Poissons Ratio (x) = 0.07983 0.42892
# Poissons Ratio (y) = 0.48306 -0.18640
# Poissons Ratio (z) = 0.59469 -0.04271
#
# Static dielectric constant tensor:
#      x y z
#    x 2.207060 -1.678770 2.369850 
#    y -1.678770 6.892480 -7.032480 
#    z 2.369850 -7.032480 11.686660 
# 
# From -- ./inp_files/252684.got.cif
#   From: 2010.05.17/outbox.cif.g08.bks.cpg/sg2_127_cif.got.tgz:252684.got - 2010.06.03 11:33:40.
