data_PCOD9002323
_publ_section_title
;
Structure prediction by ZEFSAII (Michael W. Deem and Ramdas Pophale) SiO2 
 PCOD9002323
Probable space group: P -1
;
_chemical_formula_sum "Si O2"
_cell_formula_units_Z 16
_cell_length_a 15.882628
_cell_length_b 7.581225
_cell_length_c 7.238739
_cell_angle_alpha 89.288348
_cell_angle_beta 67.022264
_cell_angle_gamma 57.937858
_cell_volume 658.523521
_symmetry_space_group_name_H-M "P -1"
_symmetry_group_IT_number 2
_symmetry_cell_setting 'triclinic'
loop_
_space_group_symop_operation_xyz
x,y,z
-x,-y,-z
loop_
_atom_site_type_symbol
_atom_site_label
_atom_site_fract_x
_atom_site_fract_y
_atom_site_fract_z
Si Si1 0.055147 0.746379 0.481281
Si Si2 0.144672 0.195412 0.539487
Si Si3 0.746571 0.294290 0.555146
Si Si4 0.307345 0.158342 0.136611
Si Si5 0.209956 0.299837 0.843562
Si Si6 0.919413 0.240813 0.135702
Si Si7 0.490246 0.147775 0.797227
Si Si8 0.582747 0.711292 0.516600
O O1 0.979882 0.706360 0.419958
O O2 0.035679 0.718465 0.714213
O O3 0.184837 0.659442 0.359978
O O4 0.000000 0.000000 0.500000
O O5 0.205784 0.278770 0.366416
O O6 0.155436 0.229656 0.743682
O O7 0.221126 0.941036 0.429552
O O8 0.626523 0.504983 0.609359
O O9 0.811736 0.257222 0.306177
O O10 0.253231 0.156414 0.990786
O O11 0.405767 0.939939 0.156227
O O12 0.376706 0.254359 0.008304
O O13 0.125026 0.553603 0.956632
O O14 0.312772 0.283725 0.647846
O O15 0.000000 0.000000 0.000000
O O16 0.511856 0.927946 0.693638
O O17 0.478417 0.276690 0.621125
#
# Coordination Sequence:
#
# PCOD9002323 Si02
#       8
#     2   2   2   2   2   2   2   2
#     4   8  18  37  59  81 113 162 198 232 296 357
#     4  11  20  39  60  87 128 158 199 256 292 356
#     4   8  19  37  62  83 116 165 203 235 309 358
#     4  10  21  36  59  94 117 154 202 248 306 351
#     4  10  21  37  61  89 122 156 200 248 302 350
#     4   9  19  40  60  85 118 159 205 243 289 362
#     4   9  18  35  63  87 119 152 205 252 294 370
#     4   9  16  37  66  83 111 166 199 245 305 358
#
# _framework density 24.296776000000001
#
# number of rings (size 3 to 8) (size 9 to 14) (size 15 to 20)
#    0.750    2.000    1.250    0.000    0.000    1.500 
#    6.750    3.750    5.500    0.000    0.000    0.000 
#    0.000    0.000    0.000    0.000    0.000    0.000 
#
# Total GULP energy -89171.915960 kJ/mol
# GULP energy per Si atom -5573.244747 kJ/mol
# Density = 2.424148 g / cm^3
# Si number density = 24.296776 Si / 1000 Ang^3
#
#
#
# Elastic Constant Matrix: (Units=GPa)
#
#
# Indices 1 2 3 4 5 6 
#
# 1 132.2504 47.2875 38.0419 -9.2561 27.6074 -26.5478
# 2 47.2875 116.8172 8.8949 1.0361 3.5135 -9.0532
# 3 38.0419 8.8949 82.0769 14.2260 9.7057 -11.8068
# 4 -9.2561 1.0361 14.2260 34.7483 -7.6359 7.1565
# 5 27.6074 3.5135 9.7057 -7.6359 27.7303 -13.1002
# 6 -26.5478 -9.0532 -11.8068 7.1565 -13.1002 37.8907
#
#
#
# Elastic Compliance Matrix: (Units=1/GPa)
#
#
# Indices 1 2 3 4 5 6 
#
# 1 0.013137 -0.004488 -0.004658 0.003010 -0.008562 0.003152
# 2 -0.004488 0.010297 0.001015 -0.001481 0.002819 0.000886
# 3 -0.004658 0.001015 0.016546 -0.009195 -0.002373 0.003051
# 4 0.003010 -0.001481 -0.009195 0.036201 0.007916 -0.005211
# 5 -0.008562 0.002819 -0.002373 0.007916 0.052192 0.010485
# 6 0.003152 0.000886 0.003051 -0.005211 0.010485 0.034372
#
#
# Mechanical properties :
#
#
# Convention : Reuss Voigt Hill
#
# Bulk Modulus (GPa) = 42.16319 57.73255 49.94787
# Shear Modulus (GPa) = 26.75054 35.86853 31.30953
#
# Velocity S-wave (km/s) = 3.32172 3.84639 3.59364
# Velocity P-wave (km/s) = 5.66594 6.59843 6.14988
#
# Compressibility (1/GPa) = 0.02371737
#
# Stress axis : x y z
#
# Youngs Moduli (GPa) = 76.12304 97.11707 60.43807
#
# Poissons Ratio (x) = 0.43585 0.28153
# Poissons Ratio (y) = 0.34163 -0.06135
# Poissons Ratio (z) = 0.35459 -0.09858
#
# Static dielectric constant tensor:
#      x y z
#    x 1.952690 -0.023690 0.000090 
#    y -0.023690 2.070920 -0.014710 
#    z 0.000090 -0.014710 1.950200 
# 
# From -- ./inp_files/328677.got.cif
#   From: 2010.05.17/outbox.cif.g08.bks.cpg/sg2_165_cif.got.tgz:328677.got - 2010.06.03 11:33:40.
