data_PCOD9002023
_publ_section_title
;
Structure prediction by ZEFSAII (Michael W. Deem and Ramdas Pophale) SiO2 
 PCOD9002023
Probable space group: P -1
;
_chemical_formula_sum "Si O2"
_cell_formula_units_Z 16
_cell_length_a 12.488674
_cell_length_b 7.748849
_cell_length_c 13.644979
_cell_angle_alpha 82.848142
_cell_angle_beta 33.948724
_cell_angle_gamma 84.293484
_cell_volume 731.658883
_symmetry_space_group_name_H-M "P -1"
_symmetry_group_IT_number 2
_symmetry_cell_setting 'triclinic'
loop_
_space_group_symop_operation_xyz
x,y,z
-x,-y,-z
loop_
_atom_site_type_symbol
_atom_site_label
_atom_site_fract_x
_atom_site_fract_y
_atom_site_fract_z
Si Si1 0.972800 0.132362 0.871609
Si Si2 0.322324 0.882565 0.605614
Si Si3 0.612399 0.106198 0.036983
Si Si4 0.501623 0.461908 0.201435
Si Si5 0.808333 0.390056 0.131305
Si Si6 0.260867 0.731345 0.262947
Si Si7 0.906800 0.690039 0.417969
Si Si8 0.747558 0.058993 0.570182
O O1 0.046684 0.287225 0.733078
O O2 0.802372 0.037286 0.949778
O O3 0.882852 0.222979 0.026511
O O4 0.141444 0.999011 0.765510
O O5 0.301208 0.695295 0.686643
O O6 0.314888 0.870976 0.493675
O O7 0.500000 0.000000 0.500000
O O8 0.577788 0.302805 0.089236
O O9 0.436438 0.002127 0.223207
O O10 0.663070 0.127171 0.883387
O O11 0.656133 0.486651 0.169037
O O12 0.444540 0.621916 0.165242
O O13 0.293824 0.405448 0.406441
O O14 0.000000 0.500000 0.000000
O O15 0.163859 0.803915 0.431000
O O16 0.094670 0.626941 0.337399
O O17 0.872919 0.888705 0.467122
#
# Coordination Sequence:
#
# PCOD9002023 Si02
#       8
#     2   2   2   2   2   2   2   2
#     4   9  19  37  61  81 108 154 200 233 286 359
#     4  11  22  40  63  83 112 160 202 237 287 348
#     4   9  19  37  57  82 115 150 188 233 287 352
#     4  10  21  38  56  82 117 156 193 225 282 363
#     4  11  24  40  59  88 120 150 194 254 292 323
#     4  11  20  33  58  87 115 150 184 235 296 341
#     4   9  19  37  58  82 115 151 189 233 286 353
#     4  10  21  36  56  87 114 143 193 246 283 333
#
# _framework density 21.868113999999998
#
# number of rings (size 3 to 8) (size 9 to 14) (size 15 to 20)
#    0.000    2.000    0.000    4.875    0.000    3.000 
#    0.000    6.875    0.000    0.000    0.000    0.000 
#    0.000    0.000    0.000    0.000    0.000    0.000 
#
# Total GULP energy -89283.890590 kJ/mol
# GULP energy per Si atom -5580.243162 kJ/mol
# Density = 2.181834 g / cm^3
# Si number density = 21.868114 Si / 1000 Ang^3
#
#
#
# Elastic Constant Matrix: (Units=GPa)
#
#
# Indices 1 2 3 4 5 6 
#
# 1 158.8323 36.3819 48.7452 -15.5650 1.5350 -24.0656
# 2 36.3819 30.5262 2.3705 -6.2911 -2.9527 -11.8922
# 3 48.7452 2.3705 100.0445 -14.4258 7.2420 -6.6767
# 4 -15.5650 -6.2911 -14.4258 25.1847 -2.7095 -5.5779
# 5 1.5350 -2.9527 7.2420 -2.7095 45.2094 5.5356
# 6 -24.0656 -11.8922 -6.6767 -5.5779 5.5356 24.0579
#
#
#
# Elastic Compliance Matrix: (Units=1/GPa)
#
#
# Indices 1 2 3 4 5 6 
#
# 1 0.011120 -0.010072 -0.004273 0.003117 -0.000885 0.005886
# 2 -0.010072 0.057516 0.007717 0.018085 0.000950 0.024472
# 3 -0.004273 0.007717 0.013560 0.008104 -0.001720 0.005578
# 4 0.003117 0.018085 0.008104 0.056872 -0.000186 0.027536
# 5 -0.000885 0.000950 -0.001720 -0.000186 0.023245 -0.006285
# 6 0.005886 0.024472 0.005578 0.027536 -0.006285 0.068929
#
#
# Mechanical properties :
#
#
# Convention : Reuss Voigt Hill
#
# Bulk Modulus (GPa) = 14.50541 51.59980 33.05261
# Shear Modulus (GPa) = 18.69308 32.35077 25.52192
#
# Velocity S-wave (km/s) = 2.92688 3.85041 3.41997
# Velocity P-wave (km/s) = 4.25085 6.58899 5.54457
#
# Compressibility (1/GPa) = 0.06893980
#
# Stress axis : x y z
#
# Youngs Moduli (GPa) = 89.92649 17.38650 73.74567
#
# Poissons Ratio (x) = 0.17511 0.31513
# Poissons Ratio (y) = 0.90572 -0.56907
# Poissons Ratio (z) = 0.38427 -0.13417
#
# Static dielectric constant tensor:
#      x y z
#    x 1.832490 0.026750 -0.005650 
#    y 0.026750 1.877540 -0.060710 
#    z -0.005650 -0.060710 1.821800 
# 
# From -- ./inp_files/278110.got.cif
#   From: 2010.05.17/outbox.cif.g08.bks.cpg/sg2_140_cif.got.tgz:278110.got - 2010.06.03 11:33:40.
