data_PCOD9002876
_publ_section_title
;
Structure prediction by ZEFSAII (Michael W. Deem and Ramdas Pophale) SiO2 
 PCOD9002876
Probable space group: P -1
;
_chemical_formula_sum "Si O2"
_cell_formula_units_Z 16
_cell_length_a 8.088600
_cell_length_b 20.351648
_cell_length_c 5.687564
_cell_angle_alpha 75.042026
_cell_angle_beta 59.194275
_cell_angle_gamma 55.691003
_cell_volume 663.633563
_symmetry_space_group_name_H-M "P -1"
_symmetry_group_IT_number 2
_symmetry_cell_setting 'triclinic'
loop_
_space_group_symop_operation_xyz
x,y,z
-x,-y,-z
loop_
_atom_site_type_symbol
_atom_site_label
_atom_site_fract_x
_atom_site_fract_y
_atom_site_fract_z
Si Si1 0.690114 0.819847 0.257194
Si Si2 0.294088 0.968868 0.921867
Si Si3 0.632458 0.191085 0.838163
Si Si4 0.098570 0.455144 0.219085
Si Si5 0.696262 0.995542 0.611245
Si Si6 0.399262 0.663391 0.987834
Si Si7 0.027518 0.310490 0.478449
Si Si8 0.116185 0.772734 0.718730
O O1 0.590535 0.789255 0.158030
O O2 0.496411 0.910318 0.354792
O O3 0.758287 0.760600 0.479607
O O4 0.919603 0.815517 0.014555
O O5 0.189302 0.018687 0.713961
O O6 0.550935 0.952657 0.765320
O O7 0.307378 0.885276 0.981503
O O8 0.194607 0.009467 0.210388
O O9 0.827078 0.171045 0.522677
O O10 0.604452 0.267259 0.918587
O O11 0.367108 0.417173 0.072623
O O12 0.000000 0.500000 0.500000
O O13 0.063601 0.380435 0.313731
O O14 0.000000 0.500000 0.000000
O O15 0.344345 0.702398 0.734085
O O16 0.187100 0.656112 0.221581
O O17 0.968824 0.270526 0.349674
#
# Coordination Sequence:
#
# PCOD9002876 Si02
#       8
#     2   2   2   2   2   2   2   2
#     4  10  21  36  67  92 124 169 215 265 313 374
#     4   9  19  34  56  91 127 166 212 262 319 372
#     4  10  21  36  67  92 124 169 215 265 313 374
#     4  12  30  46  70 100 129 164 213 256 320 390
#     4   9  19  34  56  91 127 166 212 262 319 372
#     4  10  24  43  67  93 130 167 211 260 316 375
#     4  10  24  43  67  93 130 167 211 260 316 375
#     4  10  22  40  63  96 126 162 224 254 314 374
#
# _framework density 24.109693
#
# number of rings (size 3 to 8) (size 9 to 14) (size 15 to 20)
#    0.000    2.000    0.000    1.500   17.500    1.000 
#    0.000    0.625    0.000    6.750    0.000    0.000 
#    0.000    0.000    0.000    0.000    0.000    0.000 
#
# Total GULP energy -89552.485774 kJ/mol
# GULP energy per Si atom -5597.030361 kJ/mol
# Density = 2.405482 g / cm^3
# Si number density = 24.109693 Si / 1000 Ang^3
#
#
#
# Elastic Constant Matrix: (Units=GPa)
#
#
# Indices 1 2 3 4 5 6 
#
# 1 82.0967 25.3539 31.8660 -7.2218 14.4656 -17.0427
# 2 25.3539 81.8837 52.0298 -19.2670 0.1596 -16.4065
# 3 31.8660 52.0298 149.4371 -17.7429 14.6124 -2.2288
# 4 -7.2218 -19.2670 -17.7429 37.9676 2.9271 -6.1607
# 5 14.4656 0.1596 14.6124 2.9271 52.0454 -6.5443
# 6 -17.0427 -16.4065 -2.2288 -6.1607 -6.5443 22.3378
#
#
#
# Elastic Compliance Matrix: (Units=1/GPa)
#
#
# Indices 1 2 3 4 5 6 
#
# 1 0.016694 0.000160 -0.002664 0.004321 -0.002495 0.013049
# 2 0.000160 0.023568 -0.006882 0.011912 0.003804 0.021145
# 3 -0.002664 -0.006882 0.009789 -0.000347 -0.002853 -0.007042
# 4 0.004321 0.011912 -0.000347 0.036644 -0.000436 0.021990
# 5 -0.002495 0.003804 -0.002853 -0.000436 0.021577 0.006807
# 6 0.013049 0.021145 -0.007042 0.021990 0.006807 0.077611
#
#
# Mechanical properties :
#
#
# Convention : Reuss Voigt Hill
#
# Bulk Modulus (GPa) = 31.97075 59.10188 45.53632
# Shear Modulus (GPa) = 23.24702 36.08135 29.66418
#
# Velocity S-wave (km/s) = 3.10856 3.87272 3.51149
# Velocity P-wave (km/s) = 5.11600 6.67565 5.94717
#
# Compressibility (1/GPa) = 0.03127859
#
# Stress axis : x y z
#
# Youngs Moduli (GPa) = 59.90157 42.43028 102.15894
#
# Poissons Ratio (x) = -0.00679 0.27214
# Poissons Ratio (y) = -0.00958 0.70308
# Poissons Ratio (z) = 0.15957 0.29201
#
# Static dielectric constant tensor:
#      x y z
#    x 1.914480 -0.010450 0.007530 
#    y -0.010450 1.913030 0.083530 
#    z 0.007530 0.083530 2.050210 
# 
# From -- ./inp_files/44404.got.cif
#   From: 2010.05.17/outbox.cif.g08.bks.cpg/sg2_23_cif.got.tgz:44404.got - 2010.06.03 11:33:40.
