data_PCOD9002319
_publ_section_title
;
Structure prediction by ZEFSAII (Michael W. Deem and Ramdas Pophale) SiO2 
 PCOD9002319
Probable space group: P -1
;
_chemical_formula_sum "Si O2"
_cell_formula_units_Z 16
_cell_length_a 8.667133
_cell_length_b 19.189653
_cell_length_c 5.577901
_cell_angle_alpha 102.670159
_cell_angle_beta 117.213077
_cell_angle_gamma 53.709621
_cell_volume 663.286600
_symmetry_space_group_name_H-M "P -1"
_symmetry_group_IT_number 2
_symmetry_cell_setting 'triclinic'
loop_
_space_group_symop_operation_xyz
x,y,z
-x,-y,-z
loop_
_atom_site_type_symbol
_atom_site_label
_atom_site_fract_x
_atom_site_fract_y
_atom_site_fract_z
Si Si1 0.779408 0.953196 0.289215
Si Si2 0.294702 0.377894 0.697788
Si Si3 0.283115 0.868341 0.572482
Si Si4 0.686556 0.211707 0.968856
Si Si5 0.689581 0.468596 0.291262
Si Si6 0.927151 0.686717 0.746973
Si Si7 0.947066 0.430270 0.843153
Si Si8 0.185207 0.128720 0.249473
O O1 0.729924 0.919635 0.470525
O O2 0.033036 0.907562 0.433791
O O3 0.687204 0.054074 0.321339
O O4 0.731977 0.928780 0.978191
O O5 0.536546 0.314192 0.889634
O O6 0.222864 0.475860 0.704393
O O7 0.230832 0.344690 0.400507
O O8 0.152033 0.370070 0.779122
O O9 0.350782 0.828609 0.323824
O O10 0.370739 0.809752 0.831077
O O11 0.933250 0.171722 0.112561
O O12 0.712111 0.483657 0.598893
O O13 0.869288 0.366532 0.322721
O O14 0.500000 0.500000 0.000000
O O15 0.805759 0.788200 0.711910
O O16 0.048437 0.639741 0.039993
O O17 0.000000 0.500000 0.000000
#
# Coordination Sequence:
#
# PCOD9002319 Si02
#       8
#     2   2   2   2   2   2   2   2
#     4   9  18  35  60  89 122 157 197 252 317 371
#     4  11  23  39  60  85 124 164 204 252 310 373
#     4   9  18  35  60  89 122 157 196 253 317 370
#     4  10  21  36  59  93 122 153 206 260 305 363
#     4  11  23  40  61  91 121 155 206 267 310 357
#     4  11  23  40  60  84 121 167 204 247 310 375
#     4  11  21  42  63  83 116 171 216 245 304 384
#     4  10  21  36  59  93 122 154 206 260 305 364
#
# _framework density 24.122304
#
# number of rings (size 3 to 8) (size 9 to 14) (size 15 to 20)
#    0.000    1.750    2.500    2.250    5.250    3.500 
#    2.250    0.000    0.000    4.500    0.000    0.000 
#    0.000    0.000    0.000    0.000    0.000    0.000 
#
# Total GULP energy -89117.440230 kJ/mol
# GULP energy per Si atom -5569.840014 kJ/mol
# Density = 2.406740 g / cm^3
# Si number density = 24.122304 Si / 1000 Ang^3
#
#
#
# Elastic Constant Matrix: (Units=GPa)
#
#
# Indices 1 2 3 4 5 6 
#
# 1 41.3479 11.6860 46.3932 0.2085 5.3742 15.8046
# 2 11.6860 79.7304 20.0117 2.3743 -1.9435 19.5424
# 3 46.3932 20.0117 120.7913 -4.7248 0.2294 9.9030
# 4 0.2085 2.3743 -4.7248 30.5366 3.4865 1.2943
# 5 5.3742 -1.9435 0.2294 3.4865 44.9952 -7.9308
# 6 15.8046 19.5424 9.9030 1.2943 -7.9308 37.9268
#
#
#
# Elastic Compliance Matrix: (Units=1/GPa)
#
#
# Indices 1 2 3 4 5 6 
#
# 1 0.055150 0.001781 -0.019818 -0.001566 -0.009945 -0.020751
# 2 0.001781 0.014863 -0.002543 -0.001129 -0.000859 -0.007878
# 3 -0.019818 -0.002543 0.015901 0.002190 0.003061 0.005982
# 4 -0.001566 -0.001129 0.002190 0.033532 -0.002654 -0.001037
# 5 -0.009945 -0.000859 0.003061 -0.002654 0.025177 0.009143
# 6 -0.020751 -0.007878 0.005982 -0.001037 0.009143 0.039458
#
#
# Mechanical properties :
#
#
# Convention : Reuss Voigt Hill
#
# Bulk Modulus (GPa) = 22.34416 44.22794 33.28605
# Shear Modulus (GPa) = 20.81943 33.61029 27.21486
#
# Velocity S-wave (km/s) = 2.94101 3.73678 3.36252
# Velocity P-wave (km/s) = 4.56242 6.08216 5.37626
#
# Compressibility (1/GPa) = 0.04475442
#
# Stress axis : x y z
#
# Youngs Moduli (GPa) = 18.13224 67.28067 62.88821
#
# Poissons Ratio (x) = -0.11985 1.24633
# Poissons Ratio (y) = -0.03230 0.15994
# Poissons Ratio (z) = 0.35935 0.17111
#
# Static dielectric constant tensor:
#      x y z
#    x 2.068710 -0.105650 -0.259690 
#    y -0.105650 1.991300 0.142040 
#    z -0.259690 0.142040 2.564250 
# 
# From -- ./inp_files/47577.got.cif
#   From: 2010.05.17/outbox.cif.g08.bks.cpg/sg2_24_cif.got.tgz:47577.got - 2010.06.03 11:33:40.
