data_PCOD9002842
_publ_section_title
;
Structure prediction by ZEFSAII (Michael W. Deem and Ramdas Pophale) SiO2 
 PCOD9002842
Probable space group: P -1
;
_chemical_formula_sum "Si O2"
_cell_formula_units_Z 16
_cell_length_a 21.328153
_cell_length_b 5.393154
_cell_length_c 12.730406
_cell_angle_alpha 100.478083
_cell_angle_beta 153.680641
_cell_angle_gamma 80.327100
_cell_volume 638.376291
_symmetry_space_group_name_H-M "P -1"
_symmetry_group_IT_number 2
_symmetry_cell_setting 'triclinic'
loop_
_space_group_symop_operation_xyz
x,y,z
-x,-y,-z
loop_
_atom_site_type_symbol
_atom_site_label
_atom_site_fract_x
_atom_site_fract_y
_atom_site_fract_z
Si Si1 0.838802 0.277105 0.834942
Si Si2 0.134626 0.421073 0.899654
Si Si3 0.845121 0.568128 0.484178
Si Si4 0.543533 0.513442 0.947643
Si Si5 0.878478 0.829600 0.352958
Si Si6 0.177246 0.268408 0.304788
Si Si7 0.554638 0.972260 0.867540
Si Si8 0.433664 0.229901 0.355865
O O1 0.780403 0.508651 0.694051
O O2 0.778609 0.007168 0.691406
O O3 0.831597 0.343198 0.953472
O O4 0.005266 0.266800 0.053473
O O5 0.138588 0.399689 0.776225
O O6 0.971026 0.368232 0.680303
O O7 0.263303 0.236227 0.110847
O O8 0.713542 0.496272 0.209523
O O9 0.918548 0.758455 0.527177
O O10 0.788312 0.674715 0.517057
O O11 0.500000 0.500000 0.000000
O O12 0.498044 0.785411 0.857311
O O13 0.499585 0.257965 0.804519
O O14 0.725555 0.965639 0.137622
O O15 0.000000 0.000000 0.500000
O O16 0.530313 0.824848 0.713943
O O17 0.500000 0.500000 0.500000
O O18 0.500000 0.000000 0.500000
#
# Coordination Sequence:
#
# PCOD9002842 Si02
#       8
#     2   2   2   2   2   2   2   2
#     4   9  19  36  57  85 124 169 218 257 321 378
#     4  10  22  40  66  98 132 176 221 283 336 412
#     4  10  22  40  66 102 142 175 228 277 346 409
#     4  11  23  44  69 102 137 182 227 278 347 409
#     4  10  21  36  66 105 137 174 217 280 355 408
#     4   9  19  36  57  85 128 174 209 265 313 387
#     4  10  23  44  69  96 138 177 229 286 335 418
#     4  11  25  46  68  97 133 180 230 282 348 404
#
# _framework density 25.063586999999998
#
# number of rings (size 3 to 8) (size 9 to 14) (size 15 to 20)
#    0.000    2.000    0.000    2.250    0.000   12.000 
#    6.750    0.000    0.000    0.000    0.000    0.000 
#    0.000    0.000    0.000    0.000    0.000    0.000 
#
# Total GULP energy -89376.176293 kJ/mol
# GULP energy per Si atom -5586.011018 kJ/mol
# Density = 2.500654 g / cm^3
# Si number density = 25.063587 Si / 1000 Ang^3
#
#
#
# Elastic Constant Matrix: (Units=GPa)
#
#
# Indices 1 2 3 4 5 6 
#
# 1 96.4283 36.0604 13.1890 1.8935 -23.7729 2.7479
# 2 36.0604 148.6959 39.5238 11.7220 -21.1106 0.7600
# 3 13.1890 39.5238 94.4175 -7.8066 -8.0434 6.8717
# 4 1.8935 11.7220 -7.8066 34.5452 -15.0042 -0.8943
# 5 -23.7729 -21.1106 -8.0434 -15.0042 54.0356 -0.4320
# 6 2.7479 0.7600 6.8717 -0.8943 -0.4320 42.3905
#
#
#
# Elastic Compliance Matrix: (Units=1/GPa)
#
#
# Indices 1 2 3 4 5 6 
#
# 1 0.012560 -0.002485 -0.000024 0.002396 0.005211 -0.000662
# 2 -0.002485 0.008629 -0.003491 -0.003186 0.000878 0.000514
# 3 -0.000024 -0.003491 0.012749 0.004820 0.001847 -0.001882
# 4 0.002396 -0.003186 0.004820 0.035496 0.010383 -0.000025
# 5 0.005211 0.000878 0.001847 0.010383 0.024298 -0.000186
# 6 -0.000662 0.000514 -0.001882 -0.000025 -0.000186 0.023927
#
#
# Mechanical properties :
#
#
# Convention : Reuss Voigt Hill
#
# Bulk Modulus (GPa) = 45.58512 57.45424 51.51968
# Shear Modulus (GPa) = 36.50434 42.91218 39.70826
#
# Velocity S-wave (km/s) = 3.82051 4.14228 3.98465
# Velocity P-wave (km/s) = 6.13914 6.77135 6.46298
#
# Compressibility (1/GPa) = 0.02193698
#
# Stress axis : x y z
#
# Youngs Moduli (GPa) = 79.62084 115.89007 78.43858
#
# Poissons Ratio (x) = 0.28800 0.00188
# Poissons Ratio (y) = 0.19787 0.27383
# Poissons Ratio (z) = 0.00191 0.40458
#
# Static dielectric constant tensor:
#      x y z
#    x 1.994340 0.014500 0.110430 
#    y 0.014500 2.045590 -0.067070 
#    z 0.110430 -0.067070 2.304380 
# 
# From -- ./inp_files/468411.got.cif
#   From: 2010.05.17/outbox.cif.g08.bks.cpg/sg2_235_cif.got.tgz:468411.got - 2010.06.03 11:33:40.
