data_PCOD9002379
_publ_section_title
;
Structure prediction by ZEFSAII (Michael W. Deem and Ramdas Pophale) SiO2 
 PCOD9002379
Probable space group: P -1
;
_chemical_formula_sum "Si O2"
_cell_formula_units_Z 16
_cell_length_a 5.215989
_cell_length_b 16.536454
_cell_length_c 12.333543
_cell_angle_alpha 49.415137
_cell_angle_beta 70.552952
_cell_angle_gamma 78.131865
_cell_volume 761.728156
_symmetry_space_group_name_H-M "P -1"
_symmetry_group_IT_number 2
_symmetry_cell_setting 'triclinic'
loop_
_space_group_symop_operation_xyz
x,y,z
-x,-y,-z
loop_
_atom_site_type_symbol
_atom_site_label
_atom_site_fract_x
_atom_site_fract_y
_atom_site_fract_z
Si Si1 0.862205 0.929040 0.484787
Si Si2 0.158382 0.407663 0.118820
Si Si3 0.377868 0.874593 0.754283
Si Si4 0.409305 0.405533 0.737847
Si Si5 0.242092 0.740054 0.551378
Si Si6 0.829284 0.405351 0.511213
Si Si7 0.386839 0.411464 0.305015
Si Si8 0.207850 0.240876 0.071684
O O1 0.601592 0.871904 0.628248
O O2 0.097475 0.851890 0.477348
O O3 0.744186 0.007178 0.342124
O O4 0.000000 0.000000 0.500000
O O5 0.350024 0.446986 0.155327
O O6 0.262407 0.326596 0.085037
O O7 0.956117 0.336560 0.283945
O O8 0.000000 0.500000 0.000000
O O9 0.562673 0.846458 0.857126
O O10 0.106037 0.800552 0.843086
O O11 0.701515 0.379005 0.668380
O O12 0.256971 0.472678 0.608644
O O13 0.428798 0.495758 0.749053
O O14 0.262621 0.303134 0.897984
O O15 0.285069 0.685903 0.475457
O O16 0.518806 0.711246 0.598832
O O17 0.137734 0.408310 0.426761
#
# Coordination Sequence:
#
# PCOD9002379 Si02
#       8
#     2   2   2   2   2   2   2   2
#     4  11  22  42  66  91 125 164 205 266 314 387
#     4  11  23  34  52  88 129 166 197 247 314 380
#     4  11  25  42  63  94 123 164 214 254 321 380
#     4  10  22  39  62  84 131 167 217 258 309 369
#     4  10  21  37  60  91 120 158 207 262 311 375
#     4   9  20  40  59  94 116 170 220 257 304 371
#     4  10  21  36  60  88 122 168 215 255 305 373
#     4  12  25  40  60  95 130 169 204 261 317 383
#
# _framework density 21.004867999999998
#
# number of rings (size 3 to 8) (size 9 to 14) (size 15 to 20)
#    0.000    1.500    2.500    2.625    7.000    2.000 
#    0.000    0.000    0.000    1.500    0.000    0.000 
#    0.000    0.000    0.000    0.000    0.000    0.000 
#
# Total GULP energy -89144.707444 kJ/mol
# GULP energy per Si atom -5571.544215 kJ/mol
# Density = 2.095706 g / cm^3
# Si number density = 21.004868 Si / 1000 Ang^3
#
#
#
# Elastic Constant Matrix: (Units=GPa)
#
#
# Indices 1 2 3 4 5 6 
#
# 1 91.7264 22.2631 36.3732 -6.8394 -5.2769 -13.7232
# 2 22.2631 100.1077 46.6325 -9.0318 7.5704 -20.2935
# 3 36.3732 46.6325 100.8519 -10.9580 -12.9384 -16.4335
# 4 -6.8394 -9.0318 -10.9580 35.2084 -11.2335 8.6777
# 5 -5.2769 7.5704 -12.9384 -11.2335 31.7026 -3.0686
# 6 -13.7232 -20.2935 -16.4335 8.6777 -3.0686 29.1409
#
#
#
# Elastic Compliance Matrix: (Units=1/GPa)
#
#
# Indices 1 2 3 4 5 6 
#
# 1 0.013168 -0.000533 -0.003613 0.000868 0.001510 0.003693
# 2 -0.000533 0.014780 -0.006674 -0.001969 -0.006441 0.006186
# 3 -0.003613 -0.006674 0.016539 0.005273 0.009847 0.002444
# 4 0.000868 -0.001969 0.005273 0.036242 0.014911 -0.007211
# 5 0.001510 -0.006441 0.009847 0.014911 0.042814 0.001847
# 6 0.003693 0.006186 0.002444 -0.007211 0.001847 0.044083
#
#
# Mechanical properties :
#
#
# Convention : Reuss Voigt Hill
#
# Bulk Modulus (GPa) = 43.76824 55.91374 49.84099
# Shear Modulus (GPa) = 25.39591 31.70487 28.55039
#
# Velocity S-wave (km/s) = 3.48091 3.88932 3.69077
# Velocity P-wave (km/s) = 6.08589 6.84444 6.47628
#
# Compressibility (1/GPa) = 0.02284762
#
# Stress axis : x y z
#
# Youngs Moduli (GPa) = 75.94095 67.65805 60.46200
#
# Poissons Ratio (x) = 0.03603 0.21846
# Poissons Ratio (y) = 0.04044 0.40354
# Poissons Ratio (z) = 0.27439 0.45157
#
# Static dielectric constant tensor:
#      x y z
#    x 2.088690 -0.021560 0.097850 
#    y -0.021560 1.773330 -0.040920 
#    z 0.097850 -0.040920 1.812800 
# 
# From -- ./inp_files/369357.got.cif
#   From: 2010.05.17/outbox.cif.g08.bks.cpg/sg2_185_cif.got.tgz:369357.got - 2010.06.03 11:33:40.
