data_PCOD9002337
_publ_section_title
;
Structure prediction by ZEFSAII (Michael W. Deem and Ramdas Pophale) SiO2 
 PCOD9002337
Probable space group: P -1
;
_chemical_formula_sum "Si O2"
_cell_formula_units_Z 14
_cell_length_a 16.157205
_cell_length_b 13.612695
_cell_length_c 5.117851
_cell_angle_alpha 64.897674
_cell_angle_beta 113.051315
_cell_angle_gamma 148.027791
_cell_volume 538.559900
_symmetry_space_group_name_H-M "P -1"
_symmetry_group_IT_number 2
_symmetry_cell_setting 'triclinic'
loop_
_space_group_symop_operation_xyz
x,y,z
-x,-y,-z
loop_
_atom_site_type_symbol
_atom_site_label
_atom_site_fract_x
_atom_site_fract_y
_atom_site_fract_z
Si Si1 0.896365 0.243904 0.829004
Si Si2 0.613996 0.104174 0.770411
Si Si3 0.626136 0.745359 0.575094
Si Si4 0.385229 0.512008 0.147637
Si Si5 0.074158 0.444642 0.325848
Si Si6 0.179252 0.065678 0.898130
Si Si7 0.810147 0.676654 0.379707
O O1 0.721802 0.102743 0.867947
O O2 0.942880 0.338950 0.501189
O O3 0.011583 0.405816 0.004927
O O4 0.924284 0.142655 0.972981
O O5 0.753911 0.332784 0.678720
O O6 0.500000 0.000000 0.500000
O O7 0.500000 0.000000 0.000000
O O8 0.507530 0.690728 0.294869
O O9 0.558926 0.557298 0.739080
O O10 0.772638 0.883351 0.403951
O O11 0.683415 0.830843 0.837989
O O12 0.240817 0.365882 0.333565
O O13 0.328062 0.487619 0.817769
O O14 0.086775 0.327273 0.497523
O O15 0.136180 0.147577 0.821275
#
# Coordination Sequence:
#
# PCOD9002337 Si02
#       7
#     2   2   2   2   2   2   2
#     4  12  26  47  74 105 145 189 231 285 356 423
#     4  12  28  52  80 108 136 176 240 306 356 414
#     4   9  17  31  52  83 129 182 229 276 333 394
#     4   9  17  31  52  83 129 182 229 276 333 394
#     4  12  26  47  74 105 145 189 231 285 356 423
#     4  10  21  36  59  96 138 182 230 276 329 407
#     4  10  21  36  59  96 138 182 230 276 329 407
#
# _framework density 25.995252000000001
#
# number of rings (size 3 to 8) (size 9 to 14) (size 15 to 20)
#    0.000    1.429    0.000    5.143    0.000    8.000 
#    0.000    0.000    0.000    0.000    0.000    0.000 
#    0.000    0.000    0.000    0.000    0.000    0.000 
#
# Total GULP energy -78116.987223 kJ/mol
# GULP energy per Si atom -5579.784802 kJ/mol
# Density = 2.593609 g / cm^3
# Si number density = 25.995252 Si / 1000 Ang^3
#
#
#
# Elastic Constant Matrix: (Units=GPa)
#
#
# Indices 1 2 3 4 5 6 
#
# 1 97.2455 28.3635 42.2997 -17.3346 -11.5761 5.6883
# 2 28.3635 117.5380 43.7320 8.8668 -8.3100 -5.6619
# 3 42.2997 43.7320 143.7835 18.6368 -29.9717 1.2864
# 4 -17.3346 8.8668 18.6368 64.1577 2.2109 -3.2907
# 5 -11.5761 -8.3100 -29.9717 2.2109 48.0292 -6.1098
# 6 5.6883 -5.6619 1.2864 -3.2907 -6.1098 40.4951
#
#
#
# Elastic Compliance Matrix: (Units=1/GPa)
#
#
# Indices 1 2 3 4 5 6 
#
# 1 0.013684 -0.002289 -0.003980 0.005083 -0.000033 -0.001708
# 2 -0.002289 0.010072 -0.002222 -0.001280 0.000080 0.001708
# 3 -0.003980 -0.002222 0.010439 -0.003966 0.005405 0.000410
# 4 0.005083 -0.001280 -0.003966 0.018387 -0.002268 0.000385
# 5 -0.000033 0.000080 0.005405 -0.002268 0.024735 0.003392
# 6 -0.001708 0.001708 0.000410 0.000385 0.003392 0.025703
#
#
# Mechanical properties :
#
#
# Convention : Reuss Voigt Hill
#
# Bulk Modulus (GPa) = 58.10161 65.26193 61.68177
# Shear Modulus (GPa) = 39.76429 46.81453 43.28941
#
# Velocity S-wave (km/s) = 3.91535 4.24829 4.08521
# Velocity P-wave (km/s) = 6.54518 7.01597 6.78466
#
# Compressibility (1/GPa) = 0.01721123
#
# Stress axis : x y z
#
# Youngs Moduli (GPa) = 73.07638 99.28699 95.79709
#
# Poissons Ratio (x) = 0.22732 0.38126
# Poissons Ratio (y) = 0.16731 0.21291
# Poissons Ratio (z) = 0.29083 0.22066
#
# Static dielectric constant tensor:
#      x y z
#    x 2.097880 0.045750 0.042930 
#    y 0.045750 2.127460 0.024890 
#    z 0.042930 0.024890 1.987150 
# 
# From -- ./inp_files/110473.got.cif
#   From: 2010.05.17/outbox.cif.g08.bks.cpg/sg2_56_cif.got.tgz:110473.got - 2010.06.03 11:33:40.
