data_PCOD9002112
_publ_section_title
;
Structure prediction by ZEFSAII (Michael W. Deem and Ramdas Pophale) SiO2 
 PCOD9002112
Probable space group: P -1
;
_chemical_formula_sum "Si O2"
_cell_formula_units_Z 16
_cell_length_a 11.418355
_cell_length_b 8.620625
_cell_length_c 17.803982
_cell_angle_alpha 59.724337
_cell_angle_beta 27.460806
_cell_angle_gamma 72.764961
_cell_volume 645.769765
_symmetry_space_group_name_H-M "P -1"
_symmetry_group_IT_number 2
_symmetry_cell_setting 'triclinic'
loop_
_space_group_symop_operation_xyz
x,y,z
-x,-y,-z
loop_
_atom_site_type_symbol
_atom_site_label
_atom_site_fract_x
_atom_site_fract_y
_atom_site_fract_z
Si Si1 0.427921 0.246102 0.520060
Si Si2 0.826553 0.053883 0.380177
Si Si3 0.955334 0.562122 0.300174
Si Si4 0.710855 0.677175 0.056495
Si Si5 0.810233 0.770879 0.747896
Si Si6 0.387875 0.769950 0.114113
Si Si7 0.902623 0.089589 0.101547
Si Si8 0.630059 0.287260 0.111009
O O1 0.698400 0.222583 0.404760
O O2 0.350486 0.434273 0.525812
O O3 0.381717 0.146276 0.488251
O O4 0.204146 0.081935 0.736644
O O5 0.084089 0.150251 0.154219
O O6 0.964097 0.045655 0.383471
O O7 0.351052 0.219160 0.237706
O O8 0.092703 0.694341 0.262287
O O9 0.125852 0.658860 0.103903
O O10 0.855084 0.727701 0.042802
O O11 0.421271 0.691931 0.196588
O O12 0.686403 0.476238 0.083526
O O13 0.564331 0.701458 0.967879
O O14 0.973204 0.627667 0.681705
O O15 0.500000 0.000000 0.000000
O O16 0.659218 0.137057 0.190973
O O17 0.000000 0.000000 0.000000
#
# Coordination Sequence:
#
# PCOD9002112 Si02
#       8
#     2   2   2   2   2   2   2   2
#     4  10  21  36  53  78 108 139 180 214 259 312
#     4   9  19  36  55  77 105 137 179 221 261 302
#     4  11  17  31  52  78 111 125 171 224 260 311
#     4  10  19  35  52  78 107 134 171 213 268 309
#     4  10  19  32  52  80 106 133 173 220 269 306
#     4  10  17  27  49  77 105 130 162 218 267 303
#     4  11  22  34  51  78 107 143 173 208 257 319
#     4  11  19  34  51  78 111 136 168 212 267 319
#
# _framework density 24.776631999999999
#
# number of rings (size 3 to 8) (size 9 to 14) (size 15 to 20)
#    0.000    1.750    5.000    3.375    1.750    0.500 
#    0.000    0.625    0.000    0.000    0.000    8.750 
#    0.000    0.000    0.000    0.000    0.000    0.000 
#
# Total GULP energy -89218.649004 kJ/mol
# GULP energy per Si atom -5576.165563 kJ/mol
# Density = 2.472024 g / cm^3
# Si number density = 24.776632 Si / 1000 Ang^3
#
#
#
# Elastic Constant Matrix: (Units=GPa)
#
#
# Indices 1 2 3 4 5 6 
#
# 1 186.4240 56.4080 31.4879 9.5724 -40.7052 23.9787
# 2 56.4080 98.9773 2.8884 25.5189 -13.9273 -14.1337
# 3 31.4879 2.8884 26.8742 13.5703 -7.8068 6.6036
# 4 9.5724 25.5189 13.5703 26.0359 -1.1169 -14.0785
# 5 -40.7052 -13.9273 -7.8068 -1.1169 40.3074 -6.8385
# 6 23.9787 -14.1337 6.6036 -14.0785 -6.8385 39.0739
#
#
#
# Elastic Compliance Matrix: (Units=1/GPa)
#
#
# Indices 1 2 3 4 5 6 
#
# 1 0.011767 -0.008910 -0.016857 0.012224 0.005500 -0.002228
# 2 -0.008910 0.023557 0.027487 -0.035618 0.002974 -0.002969
# 3 -0.016857 0.027487 0.112671 -0.096822 0.006087 -0.032574
# 4 0.012224 -0.035618 -0.096822 0.144295 -0.006780 0.046781
# 5 0.005500 0.002974 0.006087 -0.006780 0.032365 -0.000107
# 6 -0.002228 -0.002969 -0.032574 0.046781 -0.000107 0.048228
#
#
# Mechanical properties :
#
#
# Convention : Reuss Voigt Hill
#
# Bulk Modulus (GPa) = 6.60350 54.87157 30.73754
# Shear Modulus (GPa) = 11.90696 35.84952 23.87824
#
# Velocity S-wave (km/s) = 2.19457 3.80795 3.10778
# Velocity P-wave (km/s) = 3.01538 6.44427 5.03096
#
# Compressibility (1/GPa) = 0.15143486
#
# Stress axis : x y z
#
# Youngs Moduli (GPa) = 84.98017 42.45016 8.87540
#
# Poissons Ratio (x) = 0.37825 0.14961
# Poissons Ratio (y) = 0.75720 -0.24396
# Poissons Ratio (z) = 1.43253 -1.16684
#
# Static dielectric constant tensor:
#      x y z
#    x 2.046000 0.016560 -0.035610 
#    y 0.016560 2.059220 0.089810 
#    z -0.035610 0.089810 2.060260 
# 
# From -- ./inp_files/593146.got.cif
#   From: 2010.05.17/outbox.cif.g08.bks.cpg/sg2_297_cif.got.tgz:593146.got - 2010.06.03 11:33:40.
