data_PCOD9002267
_publ_section_title
;
Structure prediction by ZEFSAII (Michael W. Deem and Ramdas Pophale) SiO2 
 PCOD9002267
Probable space group: P -1
;
_chemical_formula_sum "Si O2"
_cell_formula_units_Z 12
_cell_length_a 10.466781
_cell_length_b 6.483720
_cell_length_c 8.481700
_cell_angle_alpha 85.274603
_cell_angle_beta 60.370730
_cell_angle_gamma 81.817939
_cell_volume 495.194086
_symmetry_space_group_name_H-M "P -1"
_symmetry_group_IT_number 2
_symmetry_cell_setting 'triclinic'
loop_
_space_group_symop_operation_xyz
x,y,z
-x,-y,-z
loop_
_atom_site_type_symbol
_atom_site_label
_atom_site_fract_x
_atom_site_fract_y
_atom_site_fract_z
Si Si1 0.536203 0.719408 0.525176
Si Si2 0.490986 0.024279 0.773974
Si Si3 0.789265 0.709678 0.163331
Si Si4 0.786438 0.095490 0.723551
Si Si5 0.010125 0.676614 0.612371
Si Si6 0.905185 0.347927 0.922894
O O1 0.500000 0.500000 0.500000
O O2 0.458061 0.872848 0.428638
O O3 0.710676 0.720663 0.381490
O O4 0.496972 0.788032 0.722725
O O5 0.325014 0.138295 0.882640
O O6 0.612904 0.073013 0.820778
O O7 0.951108 0.779841 0.078698
O O8 0.794489 0.476975 0.103266
O O9 0.842827 0.220974 0.530211
O O10 0.832008 0.221570 0.841210
O O11 0.880368 0.868607 0.673399
O O12 0.000000 0.500000 0.500000
O O13 0.982987 0.542809 0.790503
#
# Coordination Sequence:
#
# PCOD9002267 Si02
#       6
#     2   2   2   2   2   2
#     4   9  20  36  59  81 111 147 188 230 280 325
#     4   9  21  36  58  85 111 139 194 239 269 325
#     4   9  21  40  56  82 117 149 188 231 273 346
#     4  10  21  36  59  88 110 147 190 237 273 330
#     4   9  21  34  57  82 117 147 184 227 281 333
#     4  10  21  40  56  82 120 150 184 226 288 335
#
# _framework density 24.232921000000001
#
# number of rings (size 3 to 8) (size 9 to 14) (size 15 to 20)
#    1.000    1.667    0.000    0.000    9.333    2.000 
#    3.000    2.500    0.000    0.000    0.000    0.000 
#    0.000    0.000    0.000    0.000    0.000    0.000 
#
# Total GULP energy -66880.970722 kJ/mol
# GULP energy per Si atom -5573.414227 kJ/mol
# Density = 2.417777 g / cm^3
# Si number density = 24.232921 Si / 1000 Ang^3
#
#
#
# Elastic Constant Matrix: (Units=GPa)
#
#
# Indices 1 2 3 4 5 6 
#
# 1 177.7597 49.9084 48.9433 25.0434 -1.5927 8.0666
# 2 49.9084 101.2804 28.1176 20.3416 -4.9292 15.0394
# 3 48.9433 28.1176 68.1434 29.3396 -11.0845 4.3354
# 4 25.0434 20.3416 29.3396 47.3789 2.6418 -0.7975
# 5 -1.5927 -4.9292 -11.0845 2.6418 37.0761 6.9725
# 6 8.0666 15.0394 4.3354 -0.7975 6.9725 21.6852
#
#
#
# Elastic Compliance Matrix: (Units=1/GPa)
#
#
# Indices 1 2 3 4 5 6 
#
# 1 0.007603 -0.002593 -0.004703 0.000098 -0.001506 0.000398
# 2 -0.002593 0.013907 -0.000679 -0.004554 0.003722 -0.009909
# 3 -0.004703 -0.000679 0.026560 -0.014339 0.009952 -0.006816
# 4 0.000098 -0.004554 -0.014339 0.032568 -0.009111 0.010116
# 5 -0.001506 0.003722 0.009952 -0.009111 0.033893 -0.015244
# 6 0.000398 -0.009909 -0.006816 0.010116 -0.015244 0.059475
#
#
# Mechanical properties :
#
#
# Convention : Reuss Voigt Hill
#
# Bulk Modulus (GPa) = 31.13469 66.79137 48.96303
# Shear Modulus (GPa) = 24.91737 35.90899 30.41318
#
# Velocity S-wave (km/s) = 3.21010 3.85363 3.54649
# Velocity P-wave (km/s) = 5.15904 6.88641 6.08434
#
# Compressibility (1/GPa) = 0.03211851
#
# Stress axis : x y z
#
# Youngs Moduli (GPa) = 131.52230 71.90535 37.65116
#
# Poissons Ratio (x) = 0.18645 0.17709
# Poissons Ratio (y) = 0.34103 0.02558
# Poissons Ratio (z) = 0.61860 0.04885
#
# Static dielectric constant tensor:
#      x y z
#    x 1.953860 -0.025970 -0.010900 
#    y -0.025970 2.116300 0.046730 
#    z -0.010900 0.046730 2.129540 
# 
# From -- ./inp_files/407897.got.cif
#   From: 2010.05.17/outbox.cif.g08.bks.cpg/sg2_204_cif.got.tgz:407897.got - 2010.06.03 11:33:40.
