data_PCOD9002711
_publ_section_title
;
Structure prediction by ZEFSAII (Michael W. Deem and Ramdas Pophale) SiO2 
 PCOD9002711
Probable space group: P -1
;
_chemical_formula_sum "Si O2"
_cell_formula_units_Z 16
_cell_length_a 9.518173
_cell_length_b 12.862914
_cell_length_c 16.571764
_cell_angle_alpha 36.545354
_cell_angle_beta 135.607060
_cell_angle_gamma 110.448756
_cell_volume 711.681544
_symmetry_space_group_name_H-M "P -1"
_symmetry_group_IT_number 2
_symmetry_cell_setting 'triclinic'
loop_
_space_group_symop_operation_xyz
x,y,z
-x,-y,-z
loop_
_atom_site_type_symbol
_atom_site_label
_atom_site_fract_x
_atom_site_fract_y
_atom_site_fract_z
Si Si1 0.915605 0.791795 0.723248
Si Si2 0.341332 0.482174 0.515055
Si Si3 0.899277 0.101675 0.763996
Si Si4 0.841915 0.178446 0.517856
Si Si5 0.323229 0.327749 0.166282
Si Si6 0.607858 0.013721 0.905766
Si Si7 0.121296 0.439762 0.676432
Si Si8 0.474220 0.017197 0.289010
O O1 0.813499 0.762359 0.784832
O O2 0.947787 0.986055 0.619677
O O3 0.710551 0.846774 0.539599
O O4 0.153646 0.573643 0.940306
O O5 0.500000 0.500000 0.500000
O O6 0.296983 0.653512 0.455602
O O7 0.066867 0.557778 0.338892
O O8 0.455933 0.244178 0.735754
O O9 0.981789 0.079664 0.719906
O O10 0.757293 0.992882 0.785020
O O11 0.127709 0.022509 0.963299
O O12 0.565028 0.251072 0.362515
O O13 0.835082 0.389721 0.376487
O O14 0.404537 0.230066 0.171540
O O15 0.491637 0.020869 0.767953
O O16 0.661292 0.797261 0.097969
O O17 0.000000 0.500000 0.500000
#
# Coordination Sequence:
#
# PCOD9002711 Si02
#       8
#     2   2   2   2   2   2   2   2
#     4  10  21  36  63  96 124 167 224 271 314 380
#     4  11  24  40  63  98 130 168 218 258 317 395
#     4  11  21  38  63  97 134 169 207 273 330 383
#     4  11  20  43  62  90 134 167 213 270 321 384
#     4  10  21  37  64  93 122 172 219 268 325 374
#     4  11  25  39  63  94 131 174 209 264 335 386
#     4  11  25  45  63  93 137 178 213 263 323 394
#     4  11  20  38  60  93 133 162 212 274 323 378
#
# _framework density 22.481966
#
# number of rings (size 3 to 8) (size 9 to 14) (size 15 to 20)
#    0.000    1.250    6.250    1.125    1.750    5.500 
#    0.000    2.500    0.000    4.500    0.000    0.000 
#    0.000    0.000    0.000    0.000    0.000    0.000 
#
# Total GULP energy -89159.912357 kJ/mol
# GULP energy per Si atom -5572.494522 kJ/mol
# Density = 2.243080 g / cm^3
# Si number density = 22.481966 Si / 1000 Ang^3
#
#
#
# Elastic Constant Matrix: (Units=GPa)
#
#
# Indices 1 2 3 4 5 6 
#
# 1 30.9930 12.2303 -4.0829 -4.6019 2.1201 0.7294
# 2 12.2303 119.1675 44.9195 -11.6172 0.3752 4.2224
# 3 -4.0829 44.9195 119.0691 -22.7771 13.2443 -16.2908
# 4 -4.6019 -11.6172 -22.7771 35.9669 -6.0242 -13.5416
# 5 2.1201 0.3752 13.2443 -6.0242 20.7372 -2.7184
# 6 0.7294 4.2224 -16.2908 -13.5416 -2.7184 29.7594
#
#
#
# Elastic Compliance Matrix: (Units=1/GPa)
#
#
# Indices 1 2 3 4 5 6 
#
# 1 0.036820 -0.005619 0.006585 0.009073 -0.004284 0.007237
# 2 -0.005619 0.011157 -0.005960 -0.002555 0.002700 -0.005624
# 3 0.006585 -0.005960 0.016295 0.014354 -0.004744 0.015702
# 4 0.009073 -0.002555 0.014354 0.050719 0.008865 0.031887
# 5 -0.004284 0.002700 -0.004744 0.008865 0.055028 0.006186
# 6 0.007237 -0.005624 0.015702 0.031887 0.006186 0.057894
#
#
# Mechanical properties :
#
#
# Convention : Reuss Voigt Hill
#
# Bulk Modulus (GPa) = 18.42231 41.70704 30.06468
# Shear Modulus (GPa) = 19.53156 31.70354 25.61755
#
# Velocity S-wave (km/s) = 2.95068 3.75931 3.37927
# Velocity P-wave (km/s) = 4.45205 6.11840 5.35049
#
# Compressibility (1/GPa) = 0.05428200
#
# Stress axis : x y z
#
# Youngs Moduli (GPa) = 27.15895 89.63311 61.36998
#
# Poissons Ratio (x) = 0.50369 -0.40411
# Poissons Ratio (y) = 0.15262 0.36577
# Poissons Ratio (z) = -0.17884 0.53422
#
# Static dielectric constant tensor:
#      x y z
#    x 1.923580 -0.002420 -0.026220 
#    y -0.002420 1.821380 -0.031660 
#    z -0.026220 -0.031660 1.840690 
# 
# From -- ./inp_files/569138.got.cif
#   From: 2010.05.17/outbox.cif.g08.bks.cpg/sg2_285_cif.got.tgz:569138.got - 2010.06.03 11:33:40.
