data_PCOD9002715
_publ_section_title
;
Structure prediction by ZEFSAII (Michael W. Deem and Ramdas Pophale) SiO2 
 PCOD9002715
Probable space group: P -1
;
_chemical_formula_sum "Si O2"
_cell_formula_units_Z 14
_cell_length_a 11.136467
_cell_length_b 7.769196
_cell_length_c 10.997289
_cell_angle_alpha 58.371368
_cell_angle_beta 126.991318
_cell_angle_gamma 91.870927
_cell_volume 588.466319
_symmetry_space_group_name_H-M "P -1"
_symmetry_group_IT_number 2
_symmetry_cell_setting 'triclinic'
loop_
_space_group_symop_operation_xyz
x,y,z
-x,-y,-z
loop_
_atom_site_type_symbol
_atom_site_label
_atom_site_fract_x
_atom_site_fract_y
_atom_site_fract_z
Si Si1 0.288881 0.685682 0.049918
Si Si2 0.431224 0.894112 0.273925
Si Si3 0.230145 0.368059 0.289639
Si Si4 0.519512 0.799074 0.995932
Si Si5 0.881427 0.560771 0.291471
Si Si6 0.988120 0.844332 0.660012
Si Si7 0.080079 0.171453 0.990347
O O1 0.367066 0.767496 0.179819
O O2 0.282046 0.451179 0.164381
O O3 0.390470 0.699314 0.987925
O O4 0.104500 0.849599 0.838122
O O5 0.598477 0.710717 0.501321
O O6 0.482111 0.082965 0.176229
O O7 0.268507 0.032812 0.205911
O O8 0.166861 0.178073 0.358574
O O9 0.065075 0.599993 0.130980
O O10 0.698624 0.610327 0.201821
O O11 0.500000 0.000000 0.000000
O O12 0.934332 0.382191 0.284575
O O13 0.882415 0.771242 0.144115
O O14 0.000000 0.500000 0.500000
O O15 0.000000 0.000000 0.500000
O O16 0.000000 0.000000 0.000000
#
# Coordination Sequence:
#
# PCOD9002715 Si02
#       7
#     2   2   2   2   2   2   2
#     4  11  22  38  63  94 132 170 209 271 328 383
#     4  10  21  39  65  97 127 171 222 265 318 388
#     4  11  23  41  67  96 129 177 220 262 327 398
#     4   9  21  37  65  95 126 165 215 268 323 379
#     4  10  24  40  65  94 124 169 224 265 315 394
#     4  11  26  42  65  95 137 175 213 269 341 382
#     4  10  21  36  63  96 132 157 219 275 317 374
#
# _framework density 23.790658000000001
#
# number of rings (size 3 to 8) (size 9 to 14) (size 15 to 20)
#    0.000    1.714    1.429    1.714   14.000    0.571 
#    0.000    1.429    0.000    9.429    0.000    0.000 
#    0.000    0.000    0.000    0.000    0.000    0.000 
#
# Total GULP energy -77954.131994 kJ/mol
# GULP energy per Si atom -5568.152285 kJ/mol
# Density = 2.373651 g / cm^3
# Si number density = 23.790658 Si / 1000 Ang^3
#
#
#
# Elastic Constant Matrix: (Units=GPa)
#
#
# Indices 1 2 3 4 5 6 
#
# 1 146.4632 44.3937 43.6891 -8.0065 -1.0019 40.0090
# 2 44.3937 79.7888 26.3009 -1.7085 -8.2397 18.7925
# 3 43.6891 26.3009 106.4248 9.7255 -6.9690 18.1085
# 4 -8.0065 -1.7085 9.7255 30.6239 12.2635 -6.3560
# 5 -1.0019 -8.2397 -6.9690 12.2635 36.7310 -14.7087
# 6 40.0090 18.7925 18.1085 -6.3560 -14.7087 51.1911
#
#
#
# Elastic Compliance Matrix: (Units=1/GPa)
#
#
# Indices 1 2 3 4 5 6 
#
# 1 0.011119 -0.003939 -0.003134 0.004403 -0.005518 -0.007174
# 2 -0.003939 0.015930 -0.001792 -0.001029 0.002897 -0.001430
# 3 -0.003134 -0.001792 0.012103 -0.006386 0.003563 -0.000943
# 4 0.004403 -0.001029 -0.006386 0.041909 -0.015315 -0.000002
# 5 -0.005518 0.002897 0.003563 -0.015315 0.037911 0.010980
# 6 -0.007174 -0.001430 -0.000943 -0.000002 0.010980 0.029155
#
#
# Mechanical properties :
#
#
# Convention : Reuss Voigt Hill
#
# Bulk Modulus (GPa) = 46.68450 62.38268 54.53359
# Shear Modulus (GPa) = 28.90184 38.26206 33.58195
#
# Velocity S-wave (km/s) = 3.48924 4.01469 3.76115
# Velocity P-wave (km/s) = 5.99155 6.91149 6.46790
#
# Compressibility (1/GPa) = 0.02142038
#
# Stress axis : x y z
#
# Youngs Moduli (GPa) = 89.93298 62.77549 82.62255
#
# Poissons Ratio (x) = 0.24730 0.25895
# Poissons Ratio (y) = 0.35428 0.14810
# Poissons Ratio (z) = 0.28186 0.11252
#
# Static dielectric constant tensor:
#      x y z
#    x 2.007820 -0.012970 -0.020150 
#    y -0.012970 1.959120 0.002890 
#    z -0.020150 0.002890 2.069890 
# 
# From -- ./inp_files/416394.got.cif
#   From: 2010.05.17/outbox.cif.g08.bks.cpg/sg2_209_cif.got.tgz:416394.got - 2010.06.03 11:33:40.
