data_PCOD9002192
_publ_section_title
;
Structure prediction by ZEFSAII (Michael W. Deem and Ramdas Pophale) SiO2 
 PCOD9002192
Probable space group: P -1
;
_chemical_formula_sum "Si O2"
_cell_formula_units_Z 16
_cell_length_a 5.686713
_cell_length_b 22.669240
_cell_length_c 15.179973
_cell_angle_alpha 27.394334
_cell_angle_beta 84.918289
_cell_angle_gamma 70.081120
_cell_volume 735.790315
_symmetry_space_group_name_H-M "P -1"
_symmetry_group_IT_number 2
_symmetry_cell_setting 'triclinic'
loop_
_space_group_symop_operation_xyz
x,y,z
-x,-y,-z
loop_
_atom_site_type_symbol
_atom_site_label
_atom_site_fract_x
_atom_site_fract_y
_atom_site_fract_z
Si Si1 0.903771 0.871826 0.073394
Si Si2 0.847307 0.980439 0.448651
Si Si3 0.670339 0.563595 0.714828
Si Si4 0.167431 0.060558 0.218333
Si Si5 0.652752 0.516542 0.056521
Si Si6 0.314044 0.260974 0.356363
Si Si7 0.815351 0.760252 0.861263
Si Si8 0.465188 0.793893 0.258084
O O1 0.730304 0.794871 0.207176
O O2 0.227534 0.799000 0.195924
O O3 0.899419 0.882059 0.954568
O O4 0.714306 0.046233 0.890360
O O5 0.525135 0.133720 0.255733
O O6 0.013366 0.975702 0.363674
O O7 0.867270 0.827043 0.682101
O O8 0.000000 0.000000 0.500000
O O9 0.509325 0.481714 0.854117
O O10 0.581620 0.691401 0.624289
O O11 0.591493 0.648031 0.512850
O O12 0.006451 0.425381 0.898115
O O13 0.078236 0.193178 0.117736
O O14 0.505879 0.924743 0.401538
O O15 0.974954 0.363172 0.247323
O O16 0.500000 0.500000 0.000000
O O17 0.636949 0.669789 0.825101
#
# Coordination Sequence:
#
# PCOD9002192 Si02
#       8
#     2   2   2   2   2   2   2   2
#     4  10  23  43  68  97 127 167 221 276 330 394
#     4   9  21  40  61  88 127 173 211 257 311 395
#     4  11  22  39  61  89 124 169 205 265 329 385
#     4  11  22  39  64  91 121 169 215 267 319 384
#     4   9  21  35  56  91 127 157 203 264 321 390
#     4  10  21  36  58  90 123 159 209 260 323 387
#     4  10  23  39  61  91 129 168 215 255 321 391
#     4  10  23  43  67  97 129 167 218 276 335 389
#
# _framework density 21.745325000000001
#
# number of rings (size 3 to 8) (size 9 to 14) (size 15 to 20)
#    0.000    2.000    1.250    0.750    3.500   14.000 
#    0.000    1.250    0.000    0.000    0.000    0.000 
#    0.000    0.000    0.000    0.000    0.000    0.000 
#
# Total GULP energy -89398.679808 kJ/mol
# GULP energy per Si atom -5587.417488 kJ/mol
# Density = 2.169583 g / cm^3
# Si number density = 21.745325 Si / 1000 Ang^3
#
#
#
# Elastic Constant Matrix: (Units=GPa)
#
#
# Indices 1 2 3 4 5 6 
#
# 1 124.5143 42.0040 51.0509 26.1219 3.9964 -9.8080
# 2 42.0040 106.8068 56.1375 26.7787 -5.7526 -7.8812
# 3 51.0509 56.1375 139.5513 29.8091 9.3585 -11.4538
# 4 26.1219 26.7787 29.8091 50.4484 2.6128 -8.9079
# 5 3.9964 -5.7526 9.3585 2.6128 23.3607 -3.3849
# 6 -9.8080 -7.8812 -11.4538 -8.9079 -3.3849 23.1942
#
#
#
# Elastic Compliance Matrix: (Units=1/GPa)
#
#
# Indices 1 2 3 4 5 6 
#
# 1 0.010357 -0.002237 -0.002152 -0.002604 -0.000964 0.001416
# 2 -0.002237 0.013838 -0.004256 -0.003796 0.006077 0.001084
# 3 -0.002152 -0.004256 0.010588 -0.002424 -0.004464 0.001290
# 4 -0.002604 -0.003796 -0.002424 0.025771 -0.001519 0.006088
# 5 -0.000964 0.006077 -0.004464 -0.001519 0.047262 0.005767
# 6 0.001416 0.001084 0.001290 0.006088 0.005767 0.047898
#
#
# Mechanical properties :
#
#
# Convention : Reuss Voigt Hill
#
# Bulk Modulus (GPa) = 57.16338 74.36191 65.76264
# Shear Modulus (GPa) = 27.95857 34.17931 31.06894
#
# Velocity S-wave (km/s) = 3.58959 3.96889 3.78400
# Velocity P-wave (km/s) = 6.59735 7.43464 7.02847
#
# Compressibility (1/GPa) = 0.01749372
#
# Stress axis : x y z
#
# Youngs Moduli (GPa) = 96.55537 72.26273 94.44437
#
# Poissons Ratio (x) = 0.16162 0.20324
# Poissons Ratio (y) = 0.21595 0.40199
# Poissons Ratio (z) = 0.20778 0.30758
#
# Static dielectric constant tensor:
#      x y z
#    x 1.949110 0.044920 -0.035210 
#    y 0.044920 1.780760 -0.027910 
#    z -0.035210 -0.027910 1.764020 
# 
# From -- ./inp_files/466456.got.cif
#   From: 2010.05.17/outbox.cif.g08.bks.cpg/sg2_234_cif.got.tgz:466456.got - 2010.06.03 11:33:40.
