data_PCOD9002317
_publ_section_title
;
Structure prediction by ZEFSAII (Michael W. Deem and Ramdas Pophale) SiO2 
 PCOD9002317
Probable space group: P -1
;
_chemical_formula_sum "Si O2"
_cell_formula_units_Z 16
_cell_length_a 8.573355
_cell_length_b 9.456519
_cell_length_c 24.933209
_cell_angle_alpha 44.985898
_cell_angle_beta 124.557265
_cell_angle_gamma 146.928239
_cell_volume 778.100031
_symmetry_space_group_name_H-M "P -1"
_symmetry_group_IT_number 2
_symmetry_cell_setting 'triclinic'
loop_
_space_group_symop_operation_xyz
x,y,z
-x,-y,-z
loop_
_atom_site_type_symbol
_atom_site_label
_atom_site_fract_x
_atom_site_fract_y
_atom_site_fract_z
Si Si1 0.686481 0.664805 0.545834
Si Si2 0.519170 0.594662 0.191308
Si Si3 0.338150 0.751590 0.489543
Si Si4 0.172605 0.650680 0.291534
Si Si5 0.754477 0.233119 0.851843
Si Si6 0.195290 0.563305 0.941035
Si Si7 0.503832 0.868119 0.683758
Si Si8 0.916811 0.738309 0.895231
O O1 0.500000 0.500000 0.500000
O O2 0.493049 0.660304 0.544560
O O3 0.721166 0.482075 0.631725
O O4 0.000000 0.000000 0.500000
O O5 0.377860 0.663734 0.178369
O O6 0.440819 0.316148 0.273762
O O7 0.379937 0.480698 0.135505
O O8 0.856153 0.907311 0.167920
O O9 0.000000 0.500000 0.500000
O O10 0.500000 0.000000 0.500000
O O11 0.397611 0.898558 0.404343
O O12 0.211452 0.715754 0.218537
O O13 0.835719 0.387754 0.307590
O O14 0.340504 0.946298 0.280720
O O15 0.038326 0.418699 0.892299
O O16 0.526832 0.877853 0.914554
O O17 0.061986 0.654502 0.920048
O O18 0.131082 0.335891 0.031354
#
# Coordination Sequence:
#
# PCOD9002317 Si02
#       8
#     2   2   2   2   2   2   2   2
#     4  12  23  46  68  92 124 167 217 250 303 386
#     4  10  21  37  59  92 121 156 206 253 306 363
#     4  12  26  44  67  98 125 161 207 268 315 361
#     4  12  24  43  65  88 125 172 204 250 307 374
#     4  10  21  36  59  93 118 156 208 256 300 353
#     4   9  17  33  58  89 122 151 203 258 300 356
#     4  12  25  44  63  89 130 167 202 248 319 377
#     4   9  17  33  59  88 120 159 196 253 312 355
#
# _framework density 20.562908
#
# number of rings (size 3 to 8) (size 9 to 14) (size 15 to 20)
#    0.000    1.250    2.500    3.750    1.750    3.000 
#    4.500    0.000    0.000   15.000    0.000    0.000 
#    0.000    0.000    0.000    0.000    0.000    0.000 
#
# Total GULP energy -89408.041130 kJ/mol
# GULP energy per Si atom -5588.002571 kJ/mol
# Density = 2.051611 g / cm^3
# Si number density = 20.562908 Si / 1000 Ang^3
#
#
#
# Elastic Constant Matrix: (Units=GPa)
#
#
# Indices 1 2 3 4 5 6 
#
# 1 54.0548 30.8256 -11.2990 -0.4993 -4.9273 4.0734
# 2 30.8256 140.5715 -7.0642 9.2755 -4.6124 0.9490
# 3 -11.2990 -7.0642 32.6489 6.8893 -15.4747 -6.3544
# 4 -0.4993 9.2755 6.8893 38.0926 -6.8669 -7.5537
# 5 -4.9273 -4.6124 -15.4747 -6.8669 15.6918 5.3206
# 6 4.0734 0.9490 -6.3544 -7.5537 5.3206 30.3375
#
#
#
# Elastic Compliance Matrix: (Units=1/GPa)
#
#
# Indices 1 2 3 4 5 6 
#
# 1 0.029464 -0.004244 0.024263 0.002405 0.034400 -0.004176
# 2 -0.004244 0.008325 0.001618 -0.002078 0.001868 -0.000197
# 3 0.024263 0.001618 0.081021 0.000977 0.089000 -0.001703
# 4 0.002405 -0.002078 0.000977 0.029884 0.012419 0.005210
# 5 0.034400 0.001868 0.089000 0.012419 0.172771 -0.013244
# 6 -0.004176 -0.000197 -0.001703 0.005210 -0.013244 0.036792
#
#
# Mechanical properties :
#
#
# Convention : Reuss Voigt Hill
#
# Bulk Modulus (GPa) = 6.16956 28.02222 17.09589
# Shear Modulus (GPa) = 13.54970 31.14525 22.34748
#
# Velocity S-wave (km/s) = 2.56977 3.89605 3.30022
# Velocity P-wave (km/s) = 3.43683 5.82203 4.78058
#
# Compressibility (1/GPa) = 0.16208621
#
# Stress axis : x y z
#
# Youngs Moduli (GPa) = 33.93995 120.11407 12.34241
#
# Poissons Ratio (x) = 0.50970 -0.29946
# Poissons Ratio (y) = 0.14402 -0.01997
# Poissons Ratio (z) = -0.82348 -0.19439
#
# Static dielectric constant tensor:
#      x y z
#    x 1.579470 0.027800 0.028120 
#    y 0.027800 1.704960 -0.001330 
#    z 0.028120 -0.001330 1.726630 
# 
# From -- ./inp_files/52167.got.cif
#   From: 2010.05.17/outbox.cif.g08.bks.cpg/sg2_27_cif.got.tgz:52167.got - 2010.06.03 11:33:40.
