data_PCOD9002830
_publ_section_title
;
Structure prediction by ZEFSAII (Michael W. Deem and Ramdas Pophale) SiO2 
 PCOD9002830
Probable space group: P -1
;
_chemical_formula_sum "Si O2"
_cell_formula_units_Z 14
_cell_length_a 4.825020
_cell_length_b 5.442035
_cell_length_c 22.903271
_cell_angle_alpha 120.489456
_cell_angle_beta 84.728554
_cell_angle_gamma 98.046670
_cell_volume 512.977841
_symmetry_space_group_name_H-M "P -1"
_symmetry_group_IT_number 2
_symmetry_cell_setting 'triclinic'
loop_
_space_group_symop_operation_xyz
x,y,z
-x,-y,-z
loop_
_atom_site_type_symbol
_atom_site_label
_atom_site_fract_x
_atom_site_fract_y
_atom_site_fract_z
Si Si1 0.592936 0.625836 0.919881
Si Si2 0.090275 0.728971 0.318769
Si Si3 0.559722 0.121018 0.777310
Si Si4 0.994873 0.163860 0.199581
Si Si5 0.249326 0.656681 0.427930
Si Si6 0.210616 0.210766 0.453827
Si Si7 0.242254 0.127967 0.942752
O O1 0.662657 0.427754 0.841333
O O2 0.386880 0.395660 0.934146
O O3 0.449266 0.894909 0.930306
O O4 0.827436 0.732461 0.976702
O O5 0.344244 0.857677 0.288455
O O6 0.162979 0.544188 0.352065
O O7 0.923868 0.487923 0.252657
O O8 0.007414 0.012470 0.387962
O O9 0.232732 0.038175 0.782758
O O10 0.708610 0.895182 0.786548
O O11 0.966063 0.044562 0.119725
O O12 0.393458 0.440913 0.438803
O O13 0.980253 0.691961 0.478574
O O14 0.388572 0.968864 0.445750
#
# Coordination Sequence:
#
# PCOD9002830 Si02
#       7
#     2   2   2   2   2   2   2
#     4   9  20  41  67  94 130 175 225 279 335 398
#     4  10  21  36  65  96 138 176 222 276 339 400
#     4  11  26  43  67  99 139 178 227 281 342 405
#     4  11  26  43  67  99 139 178 227 281 342 405
#     4   8  15  31  57  90 128 172 221 269 325 393
#     4   8  15  31  57  90 128 172 221 269 325 393
#     4   9  20  41  67  94 130 175 225 279 335 398
#
# _framework density 27.291626000000001
#
# number of rings (size 3 to 8) (size 9 to 14) (size 15 to 20)
#    0.857    1.714    0.000    0.857    8.000    0.571 
#    0.000    0.714    0.000    3.429    0.000   12.000 
#    0.000    0.000    0.000    0.000    0.000    0.000 
#
# Total GULP energy -78149.724045 kJ/mol
# GULP energy per Si atom -5582.123146 kJ/mol
# Density = 2.722951 g / cm^3
# Si number density = 27.291626 Si / 1000 Ang^3
#
#
#
# Elastic Constant Matrix: (Units=GPa)
#
#
# Indices 1 2 3 4 5 6 
#
# 1 59.8350 27.4006 24.3991 -1.1704 -4.0033 3.9195
# 2 27.4006 167.6721 17.7124 -25.1120 5.9370 -9.2398
# 3 24.3991 17.7124 176.7008 -17.5402 -19.5337 -1.7765
# 4 -1.1704 -25.1120 -17.5402 52.9948 7.6066 2.3679
# 5 -4.0033 5.9370 -19.5337 7.6066 24.7964 -3.4055
# 6 3.9195 -9.2398 -1.7765 2.3679 -3.4055 25.7615
#
#
#
# Elastic Compliance Matrix: (Units=1/GPa)
#
#
# Indices 1 2 3 4 5 6 
#
# 1 0.019693 -0.003599 -0.002361 -0.002208 0.002317 -0.003941
# 2 -0.003599 0.007382 -0.000218 0.003717 -0.003331 0.002398
# 3 -0.002361 -0.000218 0.006669 0.001323 0.004689 0.001239
# 4 -0.002208 0.003717 0.001323 0.022101 -0.007151 -0.001216
# 5 0.002317 -0.003331 0.004689 -0.007151 0.048185 0.005803
# 6 -0.003941 0.002398 0.001239 -0.001216 0.005803 0.041242
#
#
# Mechanical properties :
#
#
# Convention : Reuss Voigt Hill
#
# Bulk Modulus (GPa) = 46.75420 60.35912 53.55666
# Shear Modulus (GPa) = 30.34747 43.02359 36.68553
#
# Velocity S-wave (km/s) = 3.33824 3.97475 3.67032
# Velocity P-wave (km/s) = 5.65924 6.57489 6.13417
#
# Compressibility (1/GPa) = 0.02138845
#
# Stress axis : x y z
#
# Youngs Moduli (GPa) = 50.77826 135.46401 149.93857
#
# Poissons Ratio (x) = 0.48751 0.35404
# Poissons Ratio (y) = 0.18274 0.03272
# Poissons Ratio (z) = 0.11990 0.02956
#
# Static dielectric constant tensor:
#      x y z
#    x 2.070260 -0.006910 0.056840 
#    y -0.006910 2.240360 0.087530 
#    z 0.056840 0.087530 2.204370 
# 
# From -- ./inp_files/603434.got.cif
#   From: 2010.05.17/outbox.cif.g08.bks.cpg/sg2_302_cif.got.tgz:603434.got - 2010.06.03 11:33:40.
