data_PCOD9002556
_publ_section_title
;
Structure prediction by ZEFSAII (Michael W. Deem and Ramdas Pophale) SiO2 
 PCOD9002556
Probable space group: P -1
;
_chemical_formula_sum "Si O2"
_cell_formula_units_Z 16
_cell_length_a 12.288864
_cell_length_b 5.704902
_cell_length_c 30.936322
_cell_angle_alpha 135.046243
_cell_angle_beta 29.588539
_cell_angle_gamma 124.136701
_cell_volume 747.438838
_symmetry_space_group_name_H-M "P -1"
_symmetry_group_IT_number 2
_symmetry_cell_setting 'triclinic'
loop_
_space_group_symop_operation_xyz
x,y,z
-x,-y,-z
loop_
_atom_site_type_symbol
_atom_site_label
_atom_site_fract_x
_atom_site_fract_y
_atom_site_fract_z
Si Si1 0.144715 0.911463 0.789721
Si Si2 0.432816 0.799949 0.300439
Si Si3 0.425056 0.151939 0.591898
Si Si4 0.667584 0.452895 0.790030
Si Si5 0.258136 0.539636 0.417521
Si Si6 0.697579 0.911887 0.982226
Si Si7 0.380268 0.679471 0.123491
Si Si8 0.016753 0.880581 0.734749
O O1 0.276717 0.527397 0.690465
O O2 0.956422 0.936939 0.894649
O O3 0.022956 0.986136 0.795906
O O4 0.311332 0.176745 0.774099
O O5 0.384304 0.602323 0.248540
O O6 0.327922 0.649886 0.359546
O O7 0.353376 0.182603 0.360758
O O8 0.639661 0.194019 0.552509
O O9 0.500000 0.000000 0.500000
O O10 0.260412 0.912545 0.637335
O O11 0.645957 0.190998 0.801488
O O12 0.918142 0.534152 0.719799
O O13 0.471162 0.743010 0.912144
O O14 0.000000 0.500000 0.500000
O O15 0.652564 0.695154 0.927548
O O16 0.615346 0.723924 0.027525
O O17 0.174144 0.885070 0.195222
#
# Coordination Sequence:
#
# PCOD9002556 Si02
#       8
#     2   2   2   2   2   2   2   2
#     4  11  23  45  64  98 135 182 214 286 344 401
#     4  11  27  47  71  98 145 180 229 277 347 420
#     4  11  25  43  69 101 129 171 230 284 343 409
#     4  11  24  38  65 101 133 182 230 275 331 409
#     4  11  26  50  72  98 138 185 224 285 350 407
#     4  10  21  36  65  91 139 173 225 277 338 394
#     4  10  21  36  62 100 129 176 225 282 334 394
#     4  11  21  40  67  93 136 168 226 281 341 391
#
# _framework density 21.406433
#
# number of rings (size 3 to 8) (size 9 to 14) (size 15 to 20)
#    0.000    1.250    3.750    0.750    8.750    2.000 
#    0.000    0.625    0.000    0.000    0.000    0.000 
#    0.000    0.000    0.000    0.000    0.000    0.000 
#
# Total GULP energy -89145.875642 kJ/mol
# GULP energy per Si atom -5571.617228 kJ/mol
# Density = 2.135771 g / cm^3
# Si number density = 21.406433 Si / 1000 Ang^3
#
#
#
# Elastic Constant Matrix: (Units=GPa)
#
#
# Indices 1 2 3 4 5 6 
#
# 1 158.4419 48.9157 52.1569 -35.9680 22.2735 6.5067
# 2 48.9157 88.1417 57.9793 -53.7268 1.5078 3.8965
# 3 52.1569 57.9793 86.2688 -51.2044 -0.1644 14.3529
# 4 -35.9680 -53.7268 -51.2044 51.7191 -4.4488 -9.0989
# 5 22.2735 1.5078 -0.1644 -4.4488 25.9603 -1.7895
# 6 6.5067 3.8965 14.3529 -9.0989 -1.7895 29.3813
#
#
#
# Elastic Compliance Matrix: (Units=1/GPa)
#
#
# Indices 1 2 3 4 5 6 
#
# 1 0.009682 -0.003657 -0.005030 -0.002902 -0.008667 -0.000629
# 2 -0.003657 0.034851 -0.003307 0.032468 0.007229 0.008299
# 3 -0.005030 -0.003307 0.032930 0.025326 0.008631 -0.006165
# 4 -0.002902 0.032468 0.025326 0.079052 0.014957 0.009357
# 5 -0.008667 0.007229 0.008631 0.014957 0.048453 0.004327
# 6 -0.000629 0.008299 -0.006165 0.009357 0.004327 0.039247
#
#
# Mechanical properties :
#
#
# Convention : Reuss Voigt Hill
#
# Bulk Modulus (GPa) = 18.70075 72.32846 45.51460
# Shear Modulus (GPa) = 17.48090 32.99884 25.23987
#
# Velocity S-wave (km/s) = 2.86075 3.93050 3.43750
# Velocity P-wave (km/s) = 4.43474 7.37970 6.08798
#
# Compressibility (1/GPa) = 0.05347380
#
# Stress axis : x y z
#
# Youngs Moduli (GPa) = 103.28737 28.69392 30.36773
#
# Poissons Ratio (x) = 0.10494 0.15275
# Poissons Ratio (y) = 0.37775 0.10043
# Poissons Ratio (z) = 0.51952 0.09489
#
# Static dielectric constant tensor:
#      x y z
#    x 1.820610 -0.055330 -0.014080 
#    y -0.055330 1.952410 0.025560 
#    z -0.014080 0.025560 1.800850 
# 
# From -- ./inp_files/403165.got.cif
#   From: 2010.05.17/outbox.cif.g08.bks.cpg/sg2_202_cif.got.tgz:403165.got - 2010.06.03 11:33:40.
