data_PCOD9002554
_publ_section_title
;
Structure prediction by ZEFSAII (Michael W. Deem and Ramdas Pophale) SiO2 
 PCOD9002554
Probable space group: P -1
;
_chemical_formula_sum "Si O2"
_cell_formula_units_Z 16
_cell_length_a 5.389100
_cell_length_b 11.942034
_cell_length_c 18.197421
_cell_angle_alpha 39.730116
_cell_angle_beta 65.200674
_cell_angle_gamma 71.861293
_cell_volume 679.394801
_symmetry_space_group_name_H-M "P -1"
_symmetry_group_IT_number 2
_symmetry_cell_setting 'triclinic'
loop_
_space_group_symop_operation_xyz
x,y,z
-x,-y,-z
loop_
_atom_site_type_symbol
_atom_site_label
_atom_site_fract_x
_atom_site_fract_y
_atom_site_fract_z
Si Si1 0.713820 0.471837 0.693385
Si Si2 0.235911 0.380165 0.606074
Si Si3 0.614999 0.567345 0.027958
Si Si4 0.840715 0.169024 0.011813
Si Si5 0.473087 0.150202 0.819033
Si Si6 0.036003 0.030343 0.749039
Si Si7 0.094586 0.728167 0.796618
Si Si8 0.902272 0.475820 0.243610
O O1 0.632885 0.263310 0.803604
O O2 0.418311 0.560063 0.679674
O O3 0.949452 0.481108 0.596882
O O4 0.884889 0.531407 0.712717
O O5 0.500000 0.500000 0.500000
O O6 0.299477 0.286614 0.723932
O O7 0.197264 0.214564 0.641491
O O8 0.419891 0.707037 0.015236
O O9 0.892152 0.663790 0.919803
O O10 0.500000 0.500000 0.000000
O O11 0.652126 0.398055 0.158323
O O12 0.733019 0.008018 0.055513
O O13 0.890599 0.079772 0.130362
O O14 0.070410 0.319967 0.891371
O O15 0.714653 0.073491 0.776147
O O16 0.118048 0.928820 0.715876
O O17 0.005810 0.661449 0.761398
#
# Coordination Sequence:
#
# PCOD9002554 Si02
#       8
#     2   2   2   2   2   2   2   2
#     4  11  25  45  60  96 125 170 218 258 303 397
#     4  10  23  48  75  92 113 154 210 284 341 370
#     4  11  18  32  53  84 124 179 228 249 282 349
#     4  11  21  34  59  91 136 179 212 255 300 355
#     4  10  22  42  63  95 125 159 215 278 304 370
#     4  10  21  36  62 100 126 154 224 269 308 359
#     4  11  21  33  56  89 130 173 214 259 299 360
#     4  12  25  38  61  90 140 187 206 233 311 379
#
# _framework density 23.550369
#
# number of rings (size 3 to 8) (size 9 to 14) (size 15 to 20)
#    0.000    1.250    5.000    1.500    1.750    3.000 
#    0.000    0.000    0.000    1.500    0.000    0.000 
#    0.000    0.000    0.000    0.000    0.000    0.000 
#
# Total GULP energy -89315.427349 kJ/mol
# GULP energy per Si atom -5582.214209 kJ/mol
# Density = 2.349677 g / cm^3
# Si number density = 23.550369 Si / 1000 Ang^3
#
#
#
# Elastic Constant Matrix: (Units=GPa)
#
#
# Indices 1 2 3 4 5 6 
#
# 1 126.0656 53.9817 27.3963 -3.6717 -26.4768 -2.3080
# 2 53.9817 121.3083 31.6447 -5.2903 -21.8408 17.8736
# 3 27.3963 31.6447 72.1852 -4.3018 -29.9895 -2.3601
# 4 -3.6717 -5.2903 -4.3018 21.7693 0.5060 -12.0477
# 5 -26.4768 -21.8408 -29.9895 0.5060 45.7646 4.0595
# 6 -2.3080 17.8736 -2.3601 -12.0477 4.0595 61.8469
#
#
#
# Elastic Compliance Matrix: (Units=1/GPa)
#
#
# Indices 1 2 3 4 5 6 
#
# 1 0.010659 -0.004104 -0.000581 0.001492 0.003668 0.001611
# 2 -0.004104 0.011697 -0.003101 -0.000644 0.001527 -0.003877
# 3 -0.000581 -0.003101 0.020451 0.003841 0.011396 0.001655
# 4 0.001492 -0.000644 0.003841 0.052581 0.001558 0.010529
# 5 0.003668 0.001527 0.011396 0.001558 0.032302 -0.001686
# 6 0.001611 -0.003877 0.001655 0.010529 -0.001686 0.019574
#
#
# Mechanical properties :
#
#
# Convention : Reuss Voigt Hill
#
# Bulk Modulus (GPa) = 36.71667 60.62274 48.66970
# Shear Modulus (GPa) = 29.08437 39.64525 34.36481
#
# Velocity S-wave (km/s) = 3.51805 4.10741 3.82410
# Velocity P-wave (km/s) = 5.66805 6.94924 6.34109
#
# Compressibility (1/GPa) = 0.02723559
#
# Stress axis : x y z
#
# Youngs Moduli (GPa) = 93.81543 85.49459 48.89830
#
# Poissons Ratio (x) = 0.35084 0.02840
# Poissons Ratio (y) = 0.38499 0.15163
# Poissons Ratio (z) = 0.05449 0.26511
#
# Static dielectric constant tensor:
#      x y z
#    x 1.948830 0.000520 -0.001260 
#    y 0.000520 2.002480 0.048050 
#    z -0.001260 0.048050 1.931340 
# 
# From -- ./inp_files/85078.got.cif
#   From: 2010.05.17/outbox.cif.g08.bks.cpg/sg2_43_cif.got.tgz:85078.got - 2010.06.03 11:33:40.
