data_PCOD9002527
_publ_section_title
;
Structure prediction by ZEFSAII (Michael W. Deem and Ramdas Pophale) SiO2 
 PCOD9002527
Probable space group: P -1
;
_chemical_formula_sum "Si O2"
_cell_formula_units_Z 14
_cell_length_a 11.007860
_cell_length_b 16.385416
_cell_length_c 5.259556
_cell_angle_alpha 80.159489
_cell_angle_beta 94.029795
_cell_angle_gamma 137.205639
_cell_volume 632.848650
_symmetry_space_group_name_H-M "P -1"
_symmetry_group_IT_number 2
_symmetry_cell_setting 'triclinic'
loop_
_space_group_symop_operation_xyz
x,y,z
-x,-y,-z
loop_
_atom_site_type_symbol
_atom_site_label
_atom_site_fract_x
_atom_site_fract_y
_atom_site_fract_z
Si Si1 0.166240 0.575563 0.293718
Si Si2 0.854391 0.196739 0.829878
Si Si3 0.101667 0.440007 0.954186
Si Si4 0.569815 0.285380 0.351503
Si Si5 0.353857 0.862006 0.656970
Si Si6 0.811757 0.838501 0.793702
Si Si7 0.016869 0.116311 0.703944
O O1 0.363840 0.693080 0.358959
O O2 0.000000 0.500000 0.500000
O O3 0.090728 0.606705 0.069293
O O4 0.153780 0.476753 0.234665
O O5 0.789463 0.212019 0.558198
O O6 0.047834 0.327819 0.881374
O O7 0.878245 0.115052 0.784738
O O8 0.725534 0.144169 0.084095
O O9 0.268244 0.573137 0.788466
O O10 0.570963 0.193914 0.282998
O O11 0.385568 0.237999 0.291455
O O12 0.500000 0.000000 0.500000
O O13 0.906721 0.830001 0.595569
O O14 0.830025 0.812682 0.094360
O O15 0.918729 0.978946 0.746095
#
# Coordination Sequence:
#
# PCOD9002527 Si02
#       7
#     2   2   2   2   2   2   2
#     4   9  17  34  55  85 126 164 207 239 306 389
#     4  12  24  43  66  92 135 169 210 262 326 389
#     4  10  21  36  61  93 127 175 208 253 324 392
#     4  11  23  38  65  97 131 166 214 269 319 383
#     4  12  26  40  64 101 134 164 207 269 330 381
#     4  10  23  43  68  89 123 167 225 265 309 379
#     4  10  23  45  66  89 120 177 219 261 318 372
#
# _framework density 22.122192999999999
#
# number of rings (size 3 to 8) (size 9 to 14) (size 15 to 20)
#    0.000    1.429    1.429    4.714    4.000    2.286 
#    0.000    1.429    0.000    0.000    0.000    0.000 
#    0.000    0.000    0.000    0.000    0.000    0.000 
#
# Total GULP energy -78020.967645 kJ/mol
# GULP energy per Si atom -5572.926260 kJ/mol
# Density = 2.207184 g / cm^3
# Si number density = 22.122193 Si / 1000 Ang^3
#
#
#
# Elastic Constant Matrix: (Units=GPa)
#
#
# Indices 1 2 3 4 5 6 
#
# 1 47.8918 13.1100 20.0829 10.1647 -8.9392 6.3175
# 2 13.1100 82.4772 21.6036 6.6391 -12.6218 5.3522
# 3 20.0829 21.6036 90.3925 17.2738 -18.0151 2.6931
# 4 10.1647 6.6391 17.2738 36.0999 2.2238 5.4576
# 5 -8.9392 -12.6218 -18.0151 2.2238 31.7602 15.4655
# 6 6.3175 5.3522 2.6931 5.4576 15.4655 37.3372
#
#
#
# Elastic Compliance Matrix: (Units=1/GPa)
#
#
# Indices 1 2 3 4 5 6 
#
# 1 0.026058 -0.001178 -0.002377 -0.005480 0.009386 -0.007156
# 2 -0.001178 0.014081 -0.001391 -0.001356 0.006652 -0.004276
# 3 -0.002377 -0.001391 0.015144 -0.006378 0.009520 -0.003501
# 4 -0.005480 -0.001356 -0.006378 0.033028 -0.008055 0.000091
# 5 0.009386 0.006652 0.009520 -0.008055 0.054783 -0.024743
# 6 -0.007156 -0.004276 -0.003501 0.000091 -0.024743 0.039095
#
#
# Mechanical properties :
#
#
# Convention : Reuss Voigt Hill
#
# Bulk Modulus (GPa) = 22.03077 36.70606 29.36842
# Shear Modulus (GPa) = 24.12993 32.10380 28.11686
#
# Velocity S-wave (km/s) = 3.30624 3.81360 3.56895
# Velocity P-wave (km/s) = 4.95533 6.00165 5.50341
#
# Compressibility (1/GPa) = 0.04539106
#
# Stress axis : x y z
#
# Youngs Moduli (GPa) = 38.37525 71.01845 66.03299
#
# Poissons Ratio (x) = 0.08363 0.15697
# Poissons Ratio (y) = 0.04519 0.09188
# Poissons Ratio (z) = 0.09122 0.09882
#
# Static dielectric constant tensor:
#      x y z
#    x 1.830670 -0.053720 0.048700 
#    y -0.053720 1.872680 0.015080 
#    z 0.048700 0.015080 2.123340 
# 
# From -- ./inp_files/38801.got.cif
#   From: 2010.05.17/outbox.cif.g08.bks.cpg/sg2_20_cif.got.tgz:38801.got - 2010.06.03 11:33:40.
