data_PCOD9002710
_publ_section_title
;
Structure prediction by ZEFSAII (Michael W. Deem and Ramdas Pophale) SiO2 
 PCOD9002710
Probable space group: P -1
;
_chemical_formula_sum "Si O2"
_cell_formula_units_Z 16
_cell_length_a 8.560495
_cell_length_b 14.658832
_cell_length_c 8.038375
_cell_angle_alpha 93.652295
_cell_angle_beta 84.495784
_cell_angle_gamma 38.424028
_cell_volume 608.078172
_symmetry_space_group_name_H-M "P -1"
_symmetry_group_IT_number 2
_symmetry_cell_setting 'triclinic'
loop_
_space_group_symop_operation_xyz
x,y,z
-x,-y,-z
loop_
_atom_site_type_symbol
_atom_site_label
_atom_site_fract_x
_atom_site_fract_y
_atom_site_fract_z
Si Si1 0.649245 0.671568 0.148435
Si Si2 0.784609 0.912314 0.922797
Si Si3 0.561273 0.907077 0.285253
Si Si4 0.969413 0.583561 0.668606
Si Si5 0.278486 0.611242 0.715833
Si Si6 0.309107 0.715264 0.415611
Si Si7 0.401739 0.824634 0.870413
Si Si8 0.253729 0.993915 0.624169
O O1 0.676889 0.768210 0.157164
O O2 0.458375 0.732768 0.326911
O O3 0.910439 0.509138 0.179159
O O4 0.509630 0.708265 0.992240
O O5 0.066366 0.737505 0.889508
O O6 0.727698 0.941521 0.733964
O O7 0.500000 0.000000 0.000000
O O8 0.774298 0.021264 0.995134
O O9 0.732067 0.918962 0.255523
O O10 0.507315 0.895838 0.474675
O O11 0.673815 0.738006 0.762236
O O12 0.000000 0.500000 0.500000
O O13 0.127458 0.602895 0.623774
O O14 0.340755 0.667483 0.597070
O O15 0.543640 0.436909 0.715497
O O16 0.016647 0.870321 0.421249
O O17 0.255696 0.898529 0.716282
#
# Coordination Sequence:
#
# PCOD9002710 Si02
#       8
#     2   2   2   2   2   2   2   2
#     4  10  24  40  61  95 131 172 207 266 331 381
#     4  11  18  37  66  97 123 164 212 269 321 369
#     4  10  21  36  63  96 123 161 225 267 310 373
#     4  11  22  39  68  98 127 162 217 275 321 371
#     4  10  21  42  67  94 129 169 216 259 326 394
#     4  10  23  41  65  89 134 173 207 262 322 401
#     4  11  23  39  64  95 132 165 217 272 316 377
#     4  11  21  37  65  92 126 170 216 268 312 376
#
# _framework density 26.312404000000001
#
# number of rings (size 3 to 8) (size 9 to 14) (size 15 to 20)
#    0.000    1.500    3.750    1.125    3.500    1.000 
#    0.000    0.625    8.250    0.000    0.000    0.000 
#    0.000    0.000    0.000    0.000    0.000    0.000 
#
# Total GULP energy -89113.657540 kJ/mol
# GULP energy per Si atom -5569.603596 kJ/mol
# Density = 2.625252 g / cm^3
# Si number density = 26.312404 Si / 1000 Ang^3
#
#
#
# Elastic Constant Matrix: (Units=GPa)
#
#
# Indices 1 2 3 4 5 6 
#
# 1 54.4183 19.8229 4.2029 4.8290 -13.1318 19.5034
# 2 19.8229 137.4406 35.2421 -4.2716 -7.8778 0.8955
# 3 4.2029 35.2421 87.0527 -0.4201 -18.8426 0.1365
# 4 4.8290 -4.2716 -0.4201 53.8092 -0.4168 -5.8977
# 5 -13.1318 -7.8778 -18.8426 -0.4168 28.4185 2.3957
# 6 19.5034 0.8955 0.1365 -5.8977 2.3957 38.2821
#
#
#
# Elastic Compliance Matrix: (Units=1/GPa)
#
#
# Indices 1 2 3 4 5 6 
#
# 1 0.030317 -0.004469 0.003982 -0.004793 0.016786 -0.017144
# 2 -0.004469 0.008799 -0.003856 0.001318 -0.002369 0.002436
# 3 0.003982 -0.003856 0.015263 -0.000766 0.011117 -0.002807
# 4 -0.004793 0.001318 -0.000766 0.019708 -0.002541 0.005609
# 5 0.016786 -0.002369 0.011117 -0.002541 0.050641 -0.012097
# 6 -0.017144 0.002436 -0.002807 0.005609 -0.012097 0.036430
#
#
# Mechanical properties :
#
#
# Convention : Reuss Voigt Hill
#
# Bulk Modulus (GPa) = 21.88530 44.16081 33.02306
# Shear Modulus (GPa) = 27.01610 38.74488 32.88049
#
# Velocity S-wave (km/s) = 3.20776 3.84147 3.53883
# Velocity P-wave (km/s) = 4.69629 6.04116 5.41067
#
# Compressibility (1/GPa) = 0.04569277
#
# Stress axis : x y z
#
# Youngs Moduli (GPa) = 32.98511 113.65483 65.51721
#
# Poissons Ratio (x) = 0.50791 -0.26092
# Poissons Ratio (y) = 0.14741 0.25266
# Poissons Ratio (z) = -0.13136 0.43830
#
# Static dielectric constant tensor:
#      x y z
#    x 2.096890 0.010120 0.096280 
#    y 0.010120 2.104680 -0.090550 
#    z 0.096280 -0.090550 2.394560 
# 
# From -- ./inp_files/207300.got.cif
#   From: 2010.05.17/outbox.cif.g08.bks.cpg/sg2_104_cif.got.tgz:207300.got - 2010.06.03 11:33:40.
