data_PCOD9002777
_publ_section_title
;
Structure prediction by ZEFSAII (Michael W. Deem and Ramdas Pophale) SiO2 
 PCOD9002777
Probable space group: P -1
;
_chemical_formula_sum "Si O2"
_cell_formula_units_Z 10
_cell_length_a 5.576595
_cell_length_b 14.680419
_cell_length_c 14.232277
_cell_angle_alpha 19.010222
_cell_angle_beta 96.307199
_cell_angle_gamma 95.539676
_cell_volume 377.138361
_symmetry_space_group_name_H-M "P -1"
_symmetry_group_IT_number 2
_symmetry_cell_setting 'triclinic'
loop_
_space_group_symop_operation_xyz
x,y,z
-x,-y,-z
loop_
_atom_site_type_symbol
_atom_site_label
_atom_site_fract_x
_atom_site_fract_y
_atom_site_fract_z
Si Si1 0.444554 0.956250 0.649104
Si Si2 0.877418 0.863338 0.884550
Si Si3 0.276530 0.831520 0.245986
Si Si4 0.788719 0.834305 0.274099
Si Si5 0.880848 0.535391 0.857652
O O1 0.500000 0.000000 0.500000
O O2 0.684011 0.017646 0.657883
O O3 0.362034 0.645023 0.972355
O O4 0.209237 0.150482 0.466051
O O5 0.953659 0.586147 0.100783
O O6 0.741879 0.904514 0.939512
O O7 0.131804 0.995544 0.797655
O O8 0.535611 0.686417 0.415191
O O9 0.036729 0.667055 0.424169
O O10 0.249780 0.950262 0.024356
O O11 0.000000 0.500000 0.000000
#
# Coordination Sequence:
#
# PCOD9002777 Si02
#       5
#     2   2   2   2   2
#     4  12  26  44  67  96 136 182 230 283 343 404
#     4  10  21  36  64  94 136 174 233 272 348 396
#     4   8  15  31  57  92 131 174 221 277 338 403
#     4   8  15  31  57  92 131 174 221 277 338 403
#     4  12  26  44  67  96 136 182 230 283 343 404
#
# _framework density 26.515464999999999
#
# number of rings (size 3 to 8) (size 9 to 14) (size 15 to 20)
#    1.200    0.800    2.000    2.400    0.000    0.000 
#    0.000    0.000    0.000    4.800    0.000   16.800 
#    0.000    0.000    0.000    0.000    0.000    0.000 
#
# Total GULP energy -55855.621863 kJ/mol
# GULP energy per Si atom -5585.562186 kJ/mol
# Density = 2.645511 g / cm^3
# Si number density = 26.515465 Si / 1000 Ang^3
#
#
#
# Elastic Constant Matrix: (Units=GPa)
#
#
# Indices 1 2 3 4 5 6 
#
# 1 197.4522 38.9086 9.4174 2.1172 16.0028 31.6807
# 2 38.9086 224.9459 32.0955 14.4101 20.5000 5.9241
# 3 9.4174 32.0955 27.8430 4.0181 7.8008 2.5467
# 4 2.1172 14.4101 4.0181 31.1322 1.5506 4.9403
# 5 16.0028 20.5000 7.8008 1.5506 36.6557 6.9816
# 6 31.6807 5.9241 2.5467 4.9403 6.9816 51.5781
#
#
#
# Elastic Compliance Matrix: (Units=1/GPa)
#
#
# Indices 1 2 3 4 5 6 
#
# 1 0.005889 -0.000771 -0.000487 0.000625 -0.001420 -0.003372
# 2 -0.000771 0.005624 -0.005542 -0.001833 -0.001647 0.000500
# 3 -0.000487 -0.005542 0.044580 -0.002827 -0.006021 -0.000180
# 4 0.000625 -0.001833 -0.002827 0.033795 0.000562 -0.003347
# 5 -0.001420 -0.001647 -0.006021 0.000562 0.030621 -0.002840
# 6 -0.003372 0.000500 -0.000180 -0.003347 -0.002840 0.022116
#
#
# Mechanical properties :
#
#
# Convention : Reuss Voigt Hill
#
# Bulk Modulus (GPa) = 23.53304 67.89823 45.71564
# Shear Modulus (GPa) = 29.34466 48.52784 38.93625
#
# Velocity S-wave (km/s) = 3.33032 4.28269 3.83617
# Velocity P-wave (km/s) = 4.86647 7.07940 6.07455
#
# Compressibility (1/GPa) = 0.04249344
#
# Stress axis : x y z
#
# Youngs Moduli (GPa) = 169.80380 177.81182 22.43152
#
# Poissons Ratio (x) = 0.13708 0.01092
# Poissons Ratio (y) = 0.13091 0.12431
# Poissons Ratio (z) = 0.08270 0.98542
#
# Static dielectric constant tensor:
#      x y z
#    x 2.187320 -0.071310 -0.070180 
#    y -0.071310 2.060660 -0.019600 
#    z -0.070180 -0.019600 1.999380 
# 
# From -- ./inp_files/2608.got.cif
#   From: 2010.05.17/outbox.cif.g08.bks.cpg/sg2_2_cif.got.tgz:2608.got - 2010.06.03 11:33:40.
