data_PCOD9002340
_publ_section_title
;
Structure prediction by ZEFSAII (Michael W. Deem and Ramdas Pophale) SiO2 
 PCOD9002340
Probable space group: P -1
;
_chemical_formula_sum "Si O2"
_cell_formula_units_Z 16
_cell_length_a 14.540004
_cell_length_b 11.352877
_cell_length_c 19.999030
_cell_angle_alpha 152.718160
_cell_angle_beta 33.120361
_cell_angle_gamma 129.338168
_cell_volume 742.040633
_symmetry_space_group_name_H-M "P -1"
_symmetry_group_IT_number 2
_symmetry_cell_setting 'triclinic'
loop_
_space_group_symop_operation_xyz
x,y,z
-x,-y,-z
loop_
_atom_site_type_symbol
_atom_site_label
_atom_site_fract_x
_atom_site_fract_y
_atom_site_fract_z
Si Si1 0.469431 0.459479 0.824950
Si Si2 0.480784 0.637235 0.653950
Si Si3 0.069645 0.736141 0.993367
Si Si4 0.921386 0.312380 0.877276
Si Si5 0.019477 0.313419 0.521560
Si Si6 0.256234 0.642943 0.518401
Si Si7 0.332311 0.690602 0.246907
Si Si8 0.291974 0.012624 0.310695
O O1 0.606817 0.435715 0.668698
O O2 0.589972 0.233832 0.694827
O O3 0.287041 0.458738 0.902511
O O4 0.381934 0.751407 0.070357
O O5 0.500000 0.500000 0.500000
O O6 0.616515 0.450555 0.538594
O O7 0.549499 0.881132 0.724263
O O8 0.265921 0.735461 0.855104
O O9 0.059421 0.721378 0.072097
O O10 0.893801 0.024626 0.221307
O O11 0.052782 0.449074 0.837344
O O12 0.947510 0.997613 0.682204
O O13 0.132045 0.466253 0.495485
O O14 0.108354 0.258049 0.513000
O O15 0.795481 0.467199 0.736001
O O16 0.227263 0.937942 0.382315
O O17 0.500000 0.500000 0.000000
#
# Coordination Sequence:
#
# PCOD9002340 Si02
#       8
#     2   2   2   2   2   2   2   2
#     4  10  21  41  68 100 132 166 223 286 332 383
#     4  11  26  46  66  95 139 183 219 272 334 405
#     4  11  25  44  67  97 140 177 223 267 337 406
#     4  10  23  43  65  99 135 176 217 281 330 396
#     4  10  22  40  68  97 130 173 226 279 332 385
#     4  11  25  44  73 103 129 175 226 281 332 395
#     4  10  21  36  59  98 130 170 214 274 332 393
#     4   9  22  40  66  94 133 176 219 278 330 389
#
# _framework density 21.562161
#
# number of rings (size 3 to 8) (size 9 to 14) (size 15 to 20)
#    0.000    1.750    1.250    1.125    7.000    4.500 
#    4.500    0.000    0.000    0.000    0.000    0.000 
#    0.000    0.000    0.000    0.000    0.000    0.000 
#
# Total GULP energy -89159.308832 kJ/mol
# GULP energy per Si atom -5572.456802 kJ/mol
# Density = 2.151308 g / cm^3
# Si number density = 21.562161 Si / 1000 Ang^3
#
#
#
# Elastic Constant Matrix: (Units=GPa)
#
#
# Indices 1 2 3 4 5 6 
#
# 1 79.1198 25.6579 36.7243 -2.5868 -1.0765 -13.6612
# 2 25.6579 84.9199 21.9308 -15.2479 4.6350 16.3254
# 3 36.7243 21.9308 72.3611 -14.4255 -5.2536 7.5629
# 4 -2.5868 -15.2479 -14.4255 29.2384 8.9879 2.3479
# 5 -1.0765 4.6350 -5.2536 8.9879 29.8652 -5.8424
# 6 -13.6612 16.3254 7.5629 2.3479 -5.8424 35.9448
#
#
#
# Elastic Compliance Matrix: (Units=1/GPa)
#
#
# Indices 1 2 3 4 5 6 
#
# 1 0.026093 -0.011270 -0.014310 -0.014932 0.008663 0.020430
# 2 -0.011270 0.021322 0.003638 0.016918 -0.011635 -0.017729
# 3 -0.014310 0.003638 0.024091 0.014856 -0.004010 -0.013782
# 4 -0.014932 0.016918 0.014856 0.057925 -0.022669 -0.023953
# 5 0.008663 -0.011635 -0.004010 -0.022669 0.045291 0.018263
# 6 0.020430 -0.017729 -0.013782 -0.023953 0.018263 0.051070
#
#
# Mechanical properties :
#
#
# Convention : Reuss Voigt Hill
#
# Bulk Modulus (GPa) = 36.20232 45.00296 40.60264
# Shear Modulus (GPa) = 17.92866 29.14886 23.53876
#
# Velocity S-wave (km/s) = 2.88668 3.68074 3.30763
# Velocity P-wave (km/s) = 5.28552 6.24343 5.78434
#
# Compressibility (1/GPa) = 0.02762254
#
# Stress axis : x y z
#
# Youngs Moduli (GPa) = 38.32422 46.89913 41.51001
#
# Poissons Ratio (x) = 0.52854 0.59402
# Poissons Ratio (y) = 0.43190 -0.15102
# Poissons Ratio (z) = 0.54843 -0.17063
#
# Static dielectric constant tensor:
#      x y z
#    x 1.815150 -0.002620 -0.091500 
#    y -0.002620 1.801740 0.059700 
#    z -0.091500 0.059700 1.935890 
# 
# From -- ./inp_files/598022.got.cif
#   From: 2010.05.17/outbox.cif.g08.bks.cpg/sg2_300_cif.got.tgz:598022.got - 2010.06.03 11:33:40.
