data_PCOD9002402
_publ_section_title
;
Structure prediction by ZEFSAII (Michael W. Deem and Ramdas Pophale) SiO2 
 PCOD9002402
Probable space group: P -1
;
_chemical_formula_sum "Si O2"
_cell_formula_units_Z 16
_cell_length_a 13.797241
_cell_length_b 20.340228
_cell_length_c 8.999202
_cell_angle_alpha 50.561520
_cell_angle_beta 119.068009
_cell_angle_gamma 158.731116
_cell_volume 654.788820
_symmetry_space_group_name_H-M "P -1"
_symmetry_group_IT_number 2
_symmetry_cell_setting 'triclinic'
loop_
_space_group_symop_operation_xyz
x,y,z
-x,-y,-z
loop_
_atom_site_type_symbol
_atom_site_label
_atom_site_fract_x
_atom_site_fract_y
_atom_site_fract_z
Si Si1 0.715021 0.556425 0.726404
Si Si2 0.407706 0.253683 0.498209
Si Si3 0.870554 0.084453 0.052221
Si Si4 0.865586 0.827809 0.326977
Si Si5 0.124076 0.586954 0.710667
Si Si6 0.040909 0.663525 0.308475
Si Si7 0.360189 0.688779 0.033689
Si Si8 0.348121 0.292894 0.077083
O O1 0.925223 0.774105 0.500423
O O2 0.392111 0.356098 0.720081
O O3 0.762351 0.493643 0.806072
O O4 0.665992 0.524244 0.912599
O O5 0.282992 0.228361 0.564666
O O6 0.747570 0.481711 0.436028
O O7 0.350441 0.253132 0.297604
O O8 0.258723 0.056865 0.699314
O O9 0.187072 0.269188 0.997094
O O10 0.833498 0.159012 0.911887
O O11 0.677626 0.913285 0.016642
O O12 0.150278 0.083805 0.141317
O O13 0.048037 0.458512 0.721777
O O14 0.347220 0.719071 0.815862
O O15 0.207998 0.725371 0.466791
O O16 0.840609 0.405231 0.861143
#
# Coordination Sequence:
#
# PCOD9002402 Si02
#       8
#     2   2   2   2   2   2   2   2
#     4  11  21  38  62  89 127 167 195 246 308 372
#     4  11  22  42  61  93 130 161 200 255 302 373
#     4  11  23  40  69  92 127 165 202 254 317 370
#     4  10  21  36  60  90 130 163 196 238 307 372
#     4  10  24  44  66  90 121 162 214 272 307 359
#     4  11  23  44  69  89 121 166 213 257 316 363
#     4  11  22  43  65  91 128 161 208 264 315 356
#     4  11  23  37  62  96 130 159 207 242 298 386
#
# _framework density 24.435359999999999
#
# number of rings (size 3 to 8) (size 9 to 14) (size 15 to 20)
#    0.000    1.250    3.750    3.375    0.000    7.000 
#    0.000    0.000    0.000    0.000    0.000    0.000 
#    0.000    0.000    0.000    0.000    0.000    0.000 
#
# Total GULP energy -89559.572820 kJ/mol
# GULP energy per Si atom -5597.473301 kJ/mol
# Density = 2.437974 g / cm^3
# Si number density = 24.435360 Si / 1000 Ang^3
#
#
#
# Elastic Constant Matrix: (Units=GPa)
#
#
# Indices 1 2 3 4 5 6 
#
# 1 62.0150 3.5683 36.6455 2.3572 18.8055 -8.8862
# 2 3.5683 39.0289 26.9650 13.8223 7.2897 -3.3846
# 3 36.6455 26.9650 156.8973 12.5430 27.5473 -13.7257
# 4 2.3572 13.8223 12.5430 44.7761 -5.8349 4.8131
# 5 18.8055 7.2897 27.5473 -5.8349 47.6143 -3.8973
# 6 -8.8862 -3.3846 -13.7257 4.8131 -3.8973 22.8525
#
#
#
# Elastic Compliance Matrix: (Units=1/GPa)
#
#
# Indices 1 2 3 4 5 6 
#
# 1 0.020984 0.003202 -0.003580 -0.002578 -0.006539 0.005911
# 2 0.003202 0.033343 -0.004394 -0.010372 -0.004695 0.004928
# 3 -0.003580 -0.004394 0.008903 -0.001680 -0.003013 0.003145
# 4 -0.002578 -0.010372 -0.001680 0.027860 0.006310 -0.008339
# 5 -0.006539 -0.004695 -0.003013 0.006310 0.026670 -0.001828
# 6 0.005911 0.004928 0.003145 -0.008339 -0.001828 0.050121
#
#
# Mechanical properties :
#
#
# Convention : Reuss Voigt Hill
#
# Bulk Modulus (GPa) = 18.62668 43.58875 31.10772
# Shear Modulus (GPa) = 25.59896 35.76607 30.68251
#
# Velocity S-wave (km/s) = 3.24021 3.82999 3.54737
# Velocity P-wave (km/s) = 4.65166 6.11846 5.43477
#
# Compressibility (1/GPa) = 0.05368643
#
# Stress axis : x y z
#
# Youngs Moduli (GPa) = 47.65454 29.99171 112.31824
#
# Poissons Ratio (x) = -0.09603 0.40212
# Poissons Ratio (y) = -0.15259 0.49348
# Poissons Ratio (z) = 0.17061 0.13177
#
# Static dielectric constant tensor:
#      x y z
#    x 1.927660 -0.015630 -0.001130 
#    y -0.015630 1.994230 0.056440 
#    z -0.001130 0.056440 1.985400 
# 
# From -- ./inp_files/187342.got.cif
#   From: 2010.05.17/outbox.cif.g08.bks.cpg/sg2_94_cif.got.tgz:187342.got - 2010.06.03 11:33:40.
