data_PCOD9002685
_publ_section_title
;
Structure prediction by ZEFSAII (Michael W. Deem and Ramdas Pophale) SiO2 
 PCOD9002685
Probable space group: P -1
;
_chemical_formula_sum "Si O2"
_cell_formula_units_Z 14
_cell_length_a 21.431857
_cell_length_b 5.156941
_cell_length_c 7.954828
_cell_angle_alpha 87.733127
_cell_angle_beta 138.139624
_cell_angle_gamma 92.684034
_cell_volume 586.040973
_symmetry_space_group_name_H-M "P -1"
_symmetry_group_IT_number 2
_symmetry_cell_setting 'triclinic'
loop_
_space_group_symop_operation_xyz
x,y,z
-x,-y,-z
loop_
_atom_site_type_symbol
_atom_site_label
_atom_site_fract_x
_atom_site_fract_y
_atom_site_fract_z
Si Si1 0.327985 0.442587 0.345302
Si Si2 0.913178 0.567335 0.564372
Si Si3 0.246640 0.559139 0.513613
Si Si4 0.653411 0.953144 0.147562
Si Si5 0.543213 0.043876 0.399707
Si Si6 0.771733 0.889798 0.095919
Si Si7 0.924750 0.201458 0.272042
O O1 0.249243 0.482335 0.326468
O O2 0.395420 0.692794 0.475543
O O3 0.277910 0.364274 0.073769
O O4 0.392019 0.194352 0.513519
O O5 0.855463 0.437359 0.603870
O O6 0.908455 0.396439 0.389113
O O7 0.850931 0.814386 0.389531
O O8 0.692398 0.669230 0.273525
O O9 0.021905 0.660020 0.780489
O O10 0.302831 0.830073 0.647454
O O11 0.542862 0.940201 0.902361
O O12 0.695981 0.035478 0.047987
O O13 0.500000 0.000000 0.500000
O O14 0.826470 0.048356 0.056788
O O15 0.000000 0.000000 0.500000
#
# Coordination Sequence:
#
# PCOD9002685 Si02
#       7
#     2   2   2   2   2   2   2
#     4  12  27  41  64  94 133 162 209 263 321 363
#     4   9  19  35  64  89 124 158 209 256 298 377
#     4  11  24  42  62  97 127 169 203 259 318 374
#     4  11  23  41  67  85 126 170 217 252 310 369
#     4  12  26  43  65  94 124 166 218 268 301 364
#     4  10  21  36  63  92 120 167 207 257 306 371
#     4   9  17  35  61  95 115 156 214 252 298 364
#
# _framework density 23.889112000000001
#
# number of rings (size 3 to 8) (size 9 to 14) (size 15 to 20)
#    0.000    1.429    2.857    2.143    6.000    3.429 
#    0.000    0.714    0.000    7.714    0.000    0.000 
#    0.000    0.000    0.000    0.000    0.000    0.000 
#
# Total GULP energy -78230.707058 kJ/mol
# GULP energy per Si atom -5587.907647 kJ/mol
# Density = 2.383474 g / cm^3
# Si number density = 23.889112 Si / 1000 Ang^3
#
#
#
# Elastic Constant Matrix: (Units=GPa)
#
#
# Indices 1 2 3 4 5 6 
#
# 1 118.6271 29.2402 16.9196 18.4630 5.6478 -4.4003
# 2 29.2402 110.3719 10.7347 12.6412 13.5920 4.4206
# 3 16.9196 10.7347 35.0037 5.0305 5.2711 -0.4974
# 4 18.4630 12.6412 5.0305 38.2704 -3.3611 5.9520
# 5 5.6478 13.5920 5.2711 -3.3611 31.8414 10.1492
# 6 -4.4003 4.4206 -0.4974 5.9520 10.1492 40.6740
#
#
#
# Elastic Compliance Matrix: (Units=1/GPa)
#
#
# Indices 1 2 3 4 5 6 
#
# 1 0.010208 -0.001746 -0.003478 -0.004400 -0.001692 0.002318
# 2 -0.001746 0.010502 -0.001316 -0.002854 -0.004303 0.000145
# 3 -0.003478 -0.001316 0.031826 -0.002786 -0.004958 0.001801
# 4 -0.004400 -0.002854 -0.002786 0.031307 0.007918 -0.006757
# 5 -0.001692 -0.004303 -0.004958 0.007918 0.038564 -0.010557
# 6 0.002318 0.000145 0.001801 -0.006757 -0.010557 0.028466
#
#
# Mechanical properties :
#
#
# Convention : Reuss Voigt Hill
#
# Bulk Modulus (GPa) = 25.34657 41.97685 33.66171
# Shear Modulus (GPa) = 28.23162 35.96438 32.09800
#
# Velocity S-wave (km/s) = 3.44143 3.88425 3.66953
# Velocity P-wave (km/s) = 5.14046 6.14217 5.66351
#
# Compressibility (1/GPa) = 0.03945307
#
# Stress axis : x y z
#
# Youngs Moduli (GPa) = 97.96569 95.22105 31.42089
#
# Poissons Ratio (x) = 0.16630 0.10929
# Poissons Ratio (y) = 0.17110 0.04136
# Poissons Ratio (z) = 0.34076 0.12535
#
# Static dielectric constant tensor:
#      x y z
#    x 1.996500 0.056840 0.001030 
#    y 0.056840 1.920170 -0.046640 
#    z 0.001030 -0.046640 1.891600 
# 
# From -- ./inp_files/322789.got.cif
#   From: 2010.05.17/outbox.cif.g08.bks.cpg/sg2_162_cif.got.tgz:322789.got - 2010.06.03 11:33:40.
