data_PCOD9002480
_publ_section_title
;
Structure prediction by ZEFSAII (Michael W. Deem and Ramdas Pophale) SiO2 
 PCOD9002480
Probable space group: P -1
;
_chemical_formula_sum "Si O2"
_cell_formula_units_Z 14
_cell_length_a 7.469455
_cell_length_b 14.134880
_cell_length_c 14.204935
_cell_angle_alpha 38.199768
_cell_angle_beta 40.288907
_cell_angle_gamma 44.952423
_cell_volume 577.342263
_symmetry_space_group_name_H-M "P -1"
_symmetry_group_IT_number 2
_symmetry_cell_setting 'triclinic'
loop_
_space_group_symop_operation_xyz
x,y,z
-x,-y,-z
loop_
_atom_site_type_symbol
_atom_site_label
_atom_site_fract_x
_atom_site_fract_y
_atom_site_fract_z
Si Si1 0.654789 0.198990 0.285495
Si Si2 0.184844 0.334557 0.974075
Si Si3 0.037960 0.920785 0.443617
Si Si4 0.592967 0.497014 0.756133
Si Si5 0.324148 0.556334 0.620300
Si Si6 0.815609 0.192354 0.017178
Si Si7 0.586148 0.019016 0.082780
O O1 0.408356 0.336592 0.325620
O O2 0.645213 0.222977 0.159050
O O3 0.758736 0.017151 0.421439
O O4 0.934157 0.258048 0.160822
O O5 0.303932 0.429967 0.933266
O O6 0.128379 0.443711 0.820174
O O7 0.460556 0.188274 0.951947
O O8 0.113861 0.732125 0.567054
O O9 0.325599 0.944173 0.261957
O O10 0.000000 0.000000 0.500000
O O11 0.561594 0.531524 0.629900
O O12 0.812743 0.346819 0.834153
O O13 0.500000 0.500000 0.500000
O O14 0.688012 0.072112 0.100815
O O15 0.141183 0.096383 0.984415
#
# Coordination Sequence:
#
# PCOD9002480 Si02
#       7
#     2   2   2   2   2   2   2
#     4  11  20  34  65  88 111 158 205 249 288 351
#     4   8  19  35  58  84 112 150 203 245 285 342
#     4  11  22  40  63  88 120 156 199 255 298 345
#     4   9  19  37  55  83 123 152 193 243 297 351
#     4  10  22  35  60  87 123 148 195 248 302 348
#     4  10  21  36  61  87 120 155 202 243 290 359
#     4   9  21  38  61  84 116 160 201 243 294 349
#
# _framework density 24.249048999999999
#
# number of rings (size 3 to 8) (size 9 to 14) (size 15 to 20)
#    0.857    1.429    1.429    0.857    4.000    2.286 
#    0.000    1.429    3.143    0.000    0.000    0.000 
#    0.000    0.000    0.000    0.000    0.000    0.000 
#
# Total GULP energy -78118.322468 kJ/mol
# GULP energy per Si atom -5579.880176 kJ/mol
# Density = 2.419386 g / cm^3
# Si number density = 24.249049 Si / 1000 Ang^3
#
#
#
# Elastic Constant Matrix: (Units=GPa)
#
#
# Indices 1 2 3 4 5 6 
#
# 1 84.5729 25.8471 9.1979 -0.5470 18.8213 9.2189
# 2 25.8471 127.5449 32.4448 -23.5231 30.5414 -9.9019
# 3 9.1979 32.4448 68.7451 -14.5434 25.8708 -8.7383
# 4 -0.5470 -23.5231 -14.5434 42.4159 -2.9703 22.5989
# 5 18.8213 30.5414 25.8708 -2.9703 34.4854 12.1862
# 6 9.2189 -9.9019 -8.7383 22.5989 12.1862 28.0945
#
#
#
# Elastic Compliance Matrix: (Units=1/GPa)
#
#
# Indices 1 2 3 4 5 6 
#
# 1 0.013842 -0.001860 0.000711 0.000857 -0.005155 -0.003430
# 2 -0.001860 0.012525 0.002026 -0.000526 -0.016287 0.013143
# 3 0.000711 0.002026 0.029559 -0.008563 -0.036550 0.032416
# 4 0.000857 -0.000526 -0.008563 0.056184 0.033467 -0.062840
# 5 -0.005155 -0.016287 -0.036550 0.033467 0.108063 -0.089210
# 6 -0.003430 0.013143 0.032416 -0.062840 -0.089210 0.140678
#
#
# Mechanical properties :
#
#
# Convention : Reuss Voigt Hill
#
# Bulk Modulus (GPa) = 17.33664 46.20470 31.77067
# Shear Modulus (GPa) = 13.21626 35.22404 24.22015
#
# Velocity S-wave (km/s) = 2.33710 3.81543 3.16382
# Velocity P-wave (km/s) = 3.80101 6.20529 5.14554
#
# Compressibility (1/GPa) = 0.05768131
#
# Stress axis : x y z
#
# Youngs Moduli (GPa) = 72.24491 79.83851 33.83080
#
# Poissons Ratio (x) = 0.14847 -0.02406
# Poissons Ratio (y) = 0.13435 -0.06855
# Poissons Ratio (z) = -0.05138 -0.16177
#
# Static dielectric constant tensor:
#      x y z
#    x 1.990860 -0.002500 -0.042250 
#    y -0.002500 2.085830 -0.051190 
#    z -0.042250 -0.051190 1.942840 
# 
# From -- ./inp_files/413755.got.cif
#   From: 2010.05.17/outbox.cif.g08.bks.cpg/sg2_207_cif.got.tgz:413755.got - 2010.06.03 11:33:40.
