data_PCOD9002541
_publ_section_title
;
Structure prediction by ZEFSAII (Michael W. Deem and Ramdas Pophale) SiO2 
 PCOD9002541
Probable space group: P -1
;
_chemical_formula_sum "Si O2"
_cell_formula_units_Z 12
_cell_length_a 5.362438
_cell_length_b 9.673121
_cell_length_c 12.414302
_cell_angle_alpha 105.653984
_cell_angle_beta 93.047344
_cell_angle_gamma 116.337630
_cell_volume 544.433741
_symmetry_space_group_name_H-M "P -1"
_symmetry_group_IT_number 2
_symmetry_cell_setting 'triclinic'
loop_
_space_group_symop_operation_xyz
x,y,z
-x,-y,-z
loop_
_atom_site_type_symbol
_atom_site_label
_atom_site_fract_x
_atom_site_fract_y
_atom_site_fract_z
Si Si1 0.635539 0.546597 0.631624
Si Si2 0.790363 0.055124 0.452061
Si Si3 0.622673 0.132602 0.769293
Si Si4 0.009120 0.368066 0.642202
Si Si5 0.598043 0.875420 0.024816
Si Si6 0.795407 0.875445 0.811010
O O1 0.500000 0.500000 0.500000
O O2 0.855296 0.478200 0.644112
O O3 0.784686 0.737586 0.703425
O O4 0.347934 0.460648 0.679144
O O5 0.934003 0.249251 0.510665
O O6 0.500000 0.000000 0.500000
O O7 0.677198 0.954497 0.318889
O O8 0.000000 0.000000 0.500000
O O9 0.860006 0.255526 0.719244
O O10 0.602124 0.214811 0.897726
O O11 0.669522 0.979281 0.769867
O O12 0.628711 0.789496 0.900380
O O13 0.902243 0.989724 0.109223
O O14 0.500000 0.000000 0.000000
#
# Coordination Sequence:
#
# PCOD9002541 Si02
#       6
#     2   2   2   2   2   2
#     4  12  27  44  66  97 146 180 210 268 354 414
#     4  10  21  36  61  96 133 170 215 270 324 383
#     4  10  22  39  71  95 131 174 234 285 321 386
#     4  11  25  42  63 103 136 173 220 273 335 400
#     4   9  21  41  70  96 127 172 241 280 328 385
#     4  10  23  42  70  97 131 181 231 274 332 410
#
# _framework density 22.041250000000002
#
# number of rings (size 3 to 8) (size 9 to 14) (size 15 to 20)
#    0.000    1.667    0.000    3.500   14.000    0.000 
#    0.000    1.667    0.000    0.000    0.000    0.000 
#    0.000    0.000    0.000    0.000    0.000    0.000 
#
# Total GULP energy -67006.253573 kJ/mol
# GULP energy per Si atom -5583.854464 kJ/mol
# Density = 2.199108 g / cm^3
# Si number density = 22.041250 Si / 1000 Ang^3
#
#
#
# Elastic Constant Matrix: (Units=GPa)
#
#
# Indices 1 2 3 4 5 6 
#
# 1 101.4967 22.3600 14.7218 -6.3546 6.0837 -21.2429
# 2 22.3600 66.9133 25.8461 1.2127 -10.1635 -9.2875
# 3 14.7218 25.8461 121.5489 -16.0478 -22.7779 -11.5651
# 4 -6.3546 1.2127 -16.0478 35.4520 2.5627 -6.2443
# 5 6.0837 -10.1635 -22.7779 2.5627 49.6939 -8.7160
# 6 -21.2429 -9.2875 -11.5651 -6.2443 -8.7160 44.1138
#
#
#
# Elastic Compliance Matrix: (Units=1/GPa)
#
#
# Indices 1 2 3 4 5 6 
#
# 1 0.012027 -0.003563 -0.000049 0.003278 -0.001480 0.005200
# 2 -0.003563 0.018037 -0.003005 -0.002570 0.003153 0.001553
# 3 -0.000049 -0.003005 0.010840 0.005340 0.004766 0.003883
# 4 0.003278 -0.002570 0.005340 0.032498 0.001118 0.007259
# 5 -0.001480 0.003153 0.004766 0.001118 0.024151 0.006130
# 6 0.005200 0.001553 0.003883 0.007259 0.006130 0.028757
#
#
# Mechanical properties :
#
#
# Convention : Reuss Voigt Hill
#
# Bulk Modulus (GPa) = 36.13863 46.20163 41.17013
# Shear Modulus (GPa) = 33.61025 40.98734 37.29879
#
# Velocity S-wave (km/s) = 3.90921 4.31696 4.11813
# Velocity P-wave (km/s) = 6.06691 6.77164 6.42894
#
# Compressibility (1/GPa) = 0.02767122
#
# Stress axis : x y z
#
# Youngs Moduli (GPa) = 83.14733 55.44232 92.25499
#
# Poissons Ratio (x) = 0.19751 0.00451
# Poissons Ratio (y) = 0.29621 0.27718
# Poissons Ratio (z) = 0.00407 0.16658
#
# Static dielectric constant tensor:
#      x y z
#    x 1.820620 0.077470 -0.123440 
#    y 0.077470 1.812090 -0.020020 
#    z -0.123440 -0.020020 1.789330 
# 
# From -- ./inp_files/20262.got.cif
#   From: 2010.05.17/outbox.cif.g08.bks.cpg/sg2_11_cif.got.tgz:20262.got - 2010.06.03 11:33:40.
