data_PCOD9002171
_publ_section_title
;
Structure prediction by ZEFSAII (Michael W. Deem and Ramdas Pophale) SiO2 
 PCOD9002171
Probable space group: P -1
;
_chemical_formula_sum "Si O2"
_cell_formula_units_Z 14
_cell_length_a 17.017724
_cell_length_b 9.751908
_cell_length_c 11.519404
_cell_angle_alpha 106.061916
_cell_angle_beta 132.502474
_cell_angle_gamma 36.915656
_cell_volume 680.358660
_symmetry_space_group_name_H-M "P -1"
_symmetry_group_IT_number 2
_symmetry_cell_setting 'triclinic'
loop_
_space_group_symop_operation_xyz
x,y,z
-x,-y,-z
loop_
_atom_site_type_symbol
_atom_site_label
_atom_site_fract_x
_atom_site_fract_y
_atom_site_fract_z
Si Si1 0.068074 0.267772 0.418013
Si Si2 0.651942 0.639325 0.560825
Si Si3 0.736915 0.186314 0.200851
Si Si4 0.337128 0.136370 0.199934
Si Si5 0.959766 0.645208 0.221942
Si Si6 0.640083 0.841705 0.219214
Si Si7 0.137761 0.881330 0.426875
O O1 0.000320 0.461846 0.300074
O O2 0.856948 0.500160 0.341400
O O3 0.264645 0.112832 0.644443
O O4 0.120555 0.049019 0.380121
O O5 0.671166 0.694670 0.716560
O O6 0.716980 0.400946 0.559886
O O7 0.822284 0.525267 0.623683
O O8 0.427378 0.935524 0.347565
O O9 0.771012 0.186842 0.369958
O O10 0.798363 0.949620 0.183964
O O11 0.500000 0.500000 0.000000
O O12 0.908509 0.076528 0.270473
O O13 0.498782 0.952044 0.209849
O O14 0.129051 0.310653 0.977383
O O15 0.500000 0.000000 0.000000
#
# Coordination Sequence:
#
# PCOD9002171 Si02
#       7
#     2   2   2   2   2   2   2
#     4  11  23  37  59  92 123 154 193 250 310 351
#     4  10  23  43  60  86 122 161 202 244 294 355
#     4  10  21  36  58  87 121 155 200 248 297 352
#     4  11  22  39  67  85 114 163 211 241 287 365
#     4  11  21  39  63  90 119 155 204 249 295 354
#     4  11  22  37  61  91 121 154 201 251 296 354
#     4  10  23  37  56  86 125 157 189 249 307 348
#
# _framework density 20.577383000000001
#
# number of rings (size 3 to 8) (size 9 to 14) (size 15 to 20)
#    0.000    1.429    2.857    3.000    6.000    0.000 
#    0.000    1.429    0.000    0.000    0.000    0.000 
#    0.000    0.000    0.000    0.000    0.000    0.000 
#
# Total GULP energy -78232.462637 kJ/mol
# GULP energy per Si atom -5588.033045 kJ/mol
# Density = 2.053055 g / cm^3
# Si number density = 20.577383 Si / 1000 Ang^3
#
#
#
# Elastic Constant Matrix: (Units=GPa)
#
#
# Indices 1 2 3 4 5 6 
#
# 1 30.8636 23.3739 9.2625 -3.4910 -0.4176 18.4719
# 2 23.3739 147.8023 48.0769 13.1190 -2.9111 35.5274
# 3 9.2625 48.0769 134.6065 4.8805 -3.6583 16.4416
# 4 -3.4910 13.1190 4.8805 26.6172 -2.5926 1.0690
# 5 -0.4176 -2.9111 -3.6583 -2.5926 13.1882 0.9889
# 6 18.4719 35.5274 16.4416 1.0690 0.9889 37.0629
#
#
#
# Elastic Compliance Matrix: (Units=1/GPa)
#
#
# Indices 1 2 3 4 5 6 
#
# 1 0.048953 -0.003356 0.000258 0.009321 0.004339 -0.021680
# 2 -0.003356 0.010157 -0.002355 -0.004631 0.001091 -0.006914
# 3 0.000258 -0.002355 0.008517 -0.000108 0.001957 -0.001699
# 4 0.009321 -0.004631 -0.000108 0.041897 0.007597 -0.001570
# 5 0.004339 0.001091 0.001957 0.007597 0.078719 -0.006395
# 6 -0.021680 -0.006914 -0.001699 -0.001570 -0.006395 0.045384
#
#
# Mechanical properties :
#
#
# Convention : Reuss Voigt Hill
#
# Bulk Modulus (GPa) = 17.62988 52.74432 35.18710
# Shear Modulus (GPa) = 18.97965 30.87762 24.92863
#
# Velocity S-wave (km/s) = 3.04032 3.87791 3.48438
# Velocity P-wave (km/s) = 4.57285 6.76304 5.77277
#
# Compressibility (1/GPa) = 0.05672189
#
# Stress axis : x y z
#
# Youngs Moduli (GPa) = 20.42764 98.45393 117.41318
#
# Poissons Ratio (x) = 0.33044 -0.03032
# Poissons Ratio (y) = 0.06856 0.27647
# Poissons Ratio (z) = -0.00528 0.23183
#
# Static dielectric constant tensor:
#      x y z
#    x 1.752820 -0.018400 0.011460 
#    y -0.018400 1.752470 0.000000 
#    z 0.011460 0.000000 1.741760 
# 
# From -- ./inp_files/255724.got.cif
#   From: 2010.05.17/outbox.cif.g08.bks.cpg/sg2_128_cif.got.tgz:255724.got - 2010.06.03 11:33:40.
