data_PCOD9002821
_publ_section_title
;
Structure prediction by ZEFSAII (Michael W. Deem and Ramdas Pophale) SiO2 
 PCOD9002821
Probable space group: P -1
;
_chemical_formula_sum "Si O2"
_cell_formula_units_Z 14
_cell_length_a 15.799635
_cell_length_b 28.826807
_cell_length_c 28.992402
_cell_angle_alpha 10.083255
_cell_angle_beta 16.504583
_cell_angle_gamma 17.772511
_cell_volume 647.598879
_symmetry_space_group_name_H-M "P -1"
_symmetry_group_IT_number 2
_symmetry_cell_setting 'triclinic'
loop_
_space_group_symop_operation_xyz
x,y,z
-x,-y,-z
loop_
_atom_site_type_symbol
_atom_site_label
_atom_site_fract_x
_atom_site_fract_y
_atom_site_fract_z
Si Si1 0.798715 0.902496 0.255031
Si Si2 0.595156 0.466441 0.365048
Si Si3 0.176057 0.028378 0.021295
Si Si4 0.154390 0.551466 0.649237
Si Si5 0.820629 0.289458 0.322658
Si Si6 0.841953 0.060693 0.260847
Si Si7 0.666088 0.411479 0.780491
O O1 0.671920 0.635485 0.597912
O O2 0.039977 0.751284 0.239660
O O3 0.983023 0.018825 0.085081
O O4 0.566510 0.150175 0.112344
O O5 0.806105 0.467001 0.298499
O O6 0.771878 0.329563 0.362785
O O7 0.438577 0.767793 0.139325
O O8 0.331545 0.292318 0.683853
O O9 0.972809 0.010634 0.189824
O O10 0.500000 0.500000 0.500000
O O11 0.020902 0.845219 0.413292
O O12 0.936834 0.346301 0.946071
O O13 0.502730 0.397050 0.358524
O O14 0.000000 0.000000 0.500000
O O15 0.000000 0.500000 0.000000
O O16 0.500000 0.000000 0.500000
#
# Coordination Sequence:
#
# PCOD9002821 Si02
#       7
#     2   2   2   2   2   2   2
#     4  10  21  36  65  92 124 165 224 278 323 400
#     4  12  25  42  74 100 130 184 245 283 339 426
#     4  12  22  42  70 102 134 177 233 288 345 427
#     4  12  23  47  76 105 139 185 244 287 347 447
#     4  12  26  45  64  93 141 181 230 293 349 402
#     4  12  26  46  71 107 149 180 222 305 369 413
#     4  10  21  39  61  90 124 172 216 276 338 394
#
# _framework density 21.618320000000001
#
# number of rings (size 3 to 8) (size 9 to 14) (size 15 to 20)
#    0.000    0.571    4.286    4.286    4.000    0.000 
#    7.714    0.000    0.000    0.000    0.000    0.000 
#    0.000    0.000    0.000    0.000    0.000    0.000 
#
# Total GULP energy -78103.627315 kJ/mol
# GULP energy per Si atom -5578.830523 kJ/mol
# Density = 2.156912 g / cm^3
# Si number density = 21.618320 Si / 1000 Ang^3
#
#
#
# Elastic Constant Matrix: (Units=GPa)
#
#
# Indices 1 2 3 4 5 6 
#
# 1 111.0919 30.7613 19.3118 -0.6450 -6.6954 2.9164
# 2 30.7613 70.2009 15.2174 0.4549 7.1102 2.8889
# 3 19.3118 15.2174 115.9976 -24.0088 -3.2422 5.3733
# 4 -0.6450 0.4549 -24.0088 45.9334 -8.1374 7.4513
# 5 -6.6954 7.1102 -3.2422 -8.1374 37.2787 -5.1094
# 6 2.9164 2.8889 5.3733 7.4513 -5.1094 20.7932
#
#
#
# Elastic Compliance Matrix: (Units=1/GPa)
#
#
# Indices 1 2 3 4 5 6 
#
# 1 0.010659 -0.004725 -0.001055 0.000123 0.002760 0.000068
# 2 -0.004725 0.017321 -0.001918 -0.001826 -0.004966 -0.001814
# 3 -0.001055 -0.001918 0.010668 0.006615 0.001969 -0.004229
# 4 0.000123 -0.001826 0.006615 0.027884 0.005651 -0.010077
# 5 0.002760 -0.004966 0.001969 0.005651 0.030390 0.005237
# 6 0.000068 -0.001814 -0.004229 -0.010077 0.005237 0.054326
#
#
# Mechanical properties :
#
#
# Convention : Reuss Voigt Hill
#
# Bulk Modulus (GPa) = 43.00996 47.54126 45.27561
# Shear Modulus (GPa) = 28.67062 36.26772 32.46917
#
# Velocity S-wave (km/s) = 3.64568 4.10034 3.87968
# Velocity P-wave (km/s) = 6.13674 6.66753 6.40764
#
# Compressibility (1/GPa) = 0.02325043
#
# Stress axis : x y z
#
# Youngs Moduli (GPa) = 93.82120 57.73490 93.73526
#
# Poissons Ratio (x) = 0.27279 0.09892
# Poissons Ratio (y) = 0.44329 0.17982
# Poissons Ratio (z) = 0.09901 0.11076
#
# Static dielectric constant tensor:
#      x y z
#    x 1.751900 0.001990 -0.037240 
#    y 0.001990 1.770010 0.082800 
#    z -0.037240 0.082800 1.912470 
# 
# From -- ./inp_files/619963.got.cif
#   From: 2010.05.17/outbox.cif.g08.bks.cpg/sg2_310_cif.got.tgz:619963.got - 2010.06.03 11:33:40.
