data_PCOD9002120
_publ_section_title
;
Structure prediction by ZEFSAII (Michael W. Deem and Ramdas Pophale) SiO2 
 PCOD9002120
Probable space group: P -1
;
_chemical_formula_sum "Si O2"
_cell_formula_units_Z 16
_cell_length_a 12.421035
_cell_length_b 5.692825
_cell_length_c 27.686343
_cell_angle_alpha 65.127101
_cell_angle_beta 26.380428
_cell_angle_gamma 73.681355
_cell_volume 766.564126
_symmetry_space_group_name_H-M "P -1"
_symmetry_group_IT_number 2
_symmetry_cell_setting 'triclinic'
loop_
_space_group_symop_operation_xyz
x,y,z
-x,-y,-z
loop_
_atom_site_type_symbol
_atom_site_label
_atom_site_fract_x
_atom_site_fract_y
_atom_site_fract_z
Si Si1 0.172962 0.618775 0.781063
Si Si2 0.501123 0.322898 0.172601
Si Si3 0.649934 0.389536 0.877173
Si Si4 0.102639 0.297841 0.414701
Si Si5 0.387245 0.591036 0.367813
Si Si6 0.243090 0.847419 0.832667
Si Si7 0.859478 0.076385 0.002150
Si Si8 0.197989 0.142430 0.152321
O O1 0.408562 0.521151 0.674707
O O2 0.296137 0.786946 0.762507
O O3 0.980677 0.365991 0.905177
O O4 0.028794 0.778808 0.791504
O O5 0.489008 0.552596 0.120120
O O6 0.246679 0.281410 0.308593
O O7 0.706500 0.360802 0.129985
O O8 0.583959 0.091676 0.127250
O O9 0.778554 0.680899 0.823176
O O10 0.810765 0.173985 0.817576
O O11 0.448642 0.260301 0.010012
O O12 0.283416 0.453001 0.370671
O O13 0.857727 0.414217 0.501955
O O14 0.000000 0.000000 0.500000
O O15 0.551125 0.882471 0.261561
O O16 0.963036 0.888051 0.940541
O O17 0.000000 0.000000 0.000000
#
# Coordination Sequence:
#
# PCOD9002120 Si02
#       8
#     2   2   2   2   2   2   2   2
#     4  11  20  38  61  89 123 165 201 258 310 380
#     4  11  20  39  58  90 127 158 204 255 314 379
#     4  10  23  42  59  91 122 175 211 259 308 369
#     4  11  21  39  59  88 126 160 204 251 313 384
#     4  10  21  37  59  89 121 163 200 248 317 372
#     4  10  21  36  57  93 125 155 199 249 324 387
#     4   9  21  34  51  91 125 158 187 246 321 386
#     4  10  23  41  63  85 128 168 221 252 306 376
#
# _framework density 20.872354999999999
#
# number of rings (size 3 to 8) (size 9 to 14) (size 15 to 20)
#    0.000    1.750    3.750    0.000    3.500    4.000 
#    4.500    0.000    0.000    1.500    0.000    0.000 
#    0.000    0.000    0.000    0.000    0.000    0.000 
#
# Total GULP energy -89075.729416 kJ/mol
# GULP energy per Si atom -5567.233088 kJ/mol
# Density = 2.082485 g / cm^3
# Si number density = 20.872355 Si / 1000 Ang^3
#
#
#
# Elastic Constant Matrix: (Units=GPa)
#
#
# Indices 1 2 3 4 5 6 
#
# 1 86.4923 56.1110 18.7944 -0.9432 -18.8572 -14.1924
# 2 56.1110 126.9623 52.4097 25.2156 -17.6453 -21.9764
# 3 18.7944 52.4097 82.9935 30.2056 -7.1697 7.6323
# 4 -0.9432 25.2156 30.2056 50.1258 -2.0422 -13.4677
# 5 -18.8572 -17.6453 -7.1697 -2.0422 19.6391 4.4300
# 6 -14.1924 -21.9764 7.6323 -13.4677 4.4300 34.8691
#
#
#
# Elastic Compliance Matrix: (Units=1/GPa)
#
#
# Indices 1 2 3 4 5 6 
#
# 1 0.019993 -0.006579 -0.002538 0.007269 0.011794 0.005856
# 2 -0.006579 0.016992 -0.009894 0.000057 0.003128 0.009821
# 3 -0.002538 -0.009894 0.026747 -0.016410 0.001155 -0.019608
# 4 0.007269 0.000057 -0.016410 0.035389 0.000156 0.020235
# 5 0.011794 0.003128 0.001155 0.000156 0.065896 -0.001793
# 6 0.005856 0.009821 -0.019608 0.020235 -0.001793 0.049587
#
#
# Mechanical properties :
#
#
# Convention : Reuss Voigt Hill
#
# Bulk Modulus (GPa) = 38.89626 61.23094 50.06360
# Shear Modulus (GPa) = 19.14274 32.20233 25.67254
#
# Velocity S-wave (km/s) = 3.03171 3.93214 3.51091
# Velocity P-wave (km/s) = 5.56154 7.07214 6.36184
#
# Compressibility (1/GPa) = 0.02570941
#
# Stress axis : x y z
#
# Youngs Moduli (GPa) = 50.01805 58.85265 37.38731
#
# Poissons Ratio (x) = 0.38719 0.09489
# Poissons Ratio (y) = 0.32907 0.36991
# Poissons Ratio (z) = 0.12695 0.58228
#
# Static dielectric constant tensor:
#      x y z
#    x 1.918540 0.999710 0.228040 
#    y 0.999710 7.708110 1.496350 
#    z 0.228040 1.496350 2.153220 
# 
# From -- ./inp_files/617822.got.cif
#   From: 2010.05.17/outbox.cif.g08.bks.cpg/sg2_309_cif.got.tgz:617822.got - 2010.06.03 11:33:40.
