data_PCOD9002677
_publ_section_title
;
Structure prediction by ZEFSAII (Michael W. Deem and Ramdas Pophale) SiO2 
 PCOD9002677
Probable space group: P -1
;
_chemical_formula_sum "Si O2"
_cell_formula_units_Z 16
_cell_length_a 28.468705
_cell_length_b 24.297129
_cell_length_c 10.732963
_cell_angle_alpha 154.117964
_cell_angle_beta 154.024611
_cell_angle_gamma 16.250534
_cell_volume 868.345016
_symmetry_space_group_name_H-M "P -1"
_symmetry_group_IT_number 2
_symmetry_cell_setting 'triclinic'
loop_
_space_group_symop_operation_xyz
x,y,z
-x,-y,-z
loop_
_atom_site_type_symbol
_atom_site_label
_atom_site_fract_x
_atom_site_fract_y
_atom_site_fract_z
Si Si1 0.243028 0.517867 0.586681
Si Si2 0.936445 0.076113 0.363829
Si Si3 0.616170 0.786718 0.902247
Si Si4 0.942317 0.808090 0.270990
Si Si5 0.321800 0.898307 0.551488
Si Si6 0.013893 0.228249 0.285663
Si Si7 0.517321 0.468929 0.125910
Si Si8 0.048528 0.449755 0.658411
O O1 0.282522 0.359286 0.274866
O O2 0.094980 0.713764 0.540274
O O3 0.149097 0.594887 0.651070
O O4 0.424938 0.422528 0.840987
O O5 0.722677 0.289501 0.283666
O O6 0.035660 0.105894 0.605739
O O7 0.000000 0.000000 0.500000
O O8 0.989953 0.900825 0.058307
O O9 0.498810 0.793515 0.705836
O O10 0.745680 0.720101 0.177762
O O11 0.500000 0.000000 0.000000
O O12 0.768355 0.965885 0.261882
O O13 0.969106 0.645260 0.941400
O O14 0.381932 0.700432 0.323596
O O15 0.181980 0.054989 0.426081
O O16 0.016871 0.344748 0.436554
O O17 0.500000 0.500000 0.000000
O O18 0.000000 0.500000 0.500000
#
# Coordination Sequence:
#
# PCOD9002677 Si02
#       8
#     2   2   2   2   2   2   2   2
#     4  10  21  36  63  91 118 149 202 258 293 345
#     4  12  24  41  63  89 125 165 199 241 307 369
#     4  11  21  36  61  88 115 155 202 245 295 350
#     4  10  22  40  62  91 123 158 201 251 303 350
#     4  11  21  37  66  93 118 152 206 260 295 346
#     4  11  22  38  63  94 120 156 205 253 300 352
#     4  12  19  38  63  91 119 153 204 247 298 349
#     4  11  24  42  61  86 126 165 197 242 307 369
#
# _framework density 18.425856
#
# number of rings (size 3 to 8) (size 9 to 14) (size 15 to 20)
#    0.000    1.000    5.000    2.250    1.750    3.500 
#    0.000    4.375    0.000    0.000    0.000    0.000 
#    0.000    0.000    0.000    0.000    0.000    0.000 
#
# Total GULP energy -89121.989073 kJ/mol
# GULP energy per Si atom -5570.124317 kJ/mol
# Density = 1.838392 g / cm^3
# Si number density = 18.425856 Si / 1000 Ang^3
#
#
#
# Elastic Constant Matrix: (Units=GPa)
#
#
# Indices 1 2 3 4 5 6 
#
# 1 86.6331 44.4934 31.0725 6.9936 -15.9745 10.3850
# 2 44.4934 84.6905 37.2264 -0.2584 -19.1557 5.5141
# 3 31.0725 37.2264 70.3863 10.6326 -7.5927 8.1461
# 4 6.9936 -0.2584 10.6326 27.9415 5.5891 0.4297
# 5 -15.9745 -19.1557 -7.5927 5.5891 25.7319 3.4872
# 6 10.3850 5.5141 8.1461 0.4297 3.4872 30.3556
#
#
#
# Elastic Compliance Matrix: (Units=1/GPa)
#
#
# Indices 1 2 3 4 5 6 
#
# 1 0.018147 -0.006436 -0.002416 -0.005118 0.007577 -0.005189
# 2 -0.006436 0.020403 -0.007424 0.002946 0.008433 -0.000523
# 3 -0.002416 -0.007424 0.020888 -0.007611 0.001259 -0.003467
# 4 -0.005118 0.002946 -0.007611 0.042536 -0.013032 0.004153
# 5 0.007577 0.008433 0.001259 -0.013032 0.054474 -0.010535
# 6 -0.005189 -0.000523 -0.003467 0.004153 -0.010535 0.036895
#
#
# Mechanical properties :
#
#
# Convention : Reuss Voigt Hill
#
# Bulk Modulus (GPa) = 37.19670 51.92162 44.55916
# Shear Modulus (GPa) = 21.28952 25.40028 23.34490
#
# Velocity S-wave (km/s) = 3.40283 3.71686 3.56331
# Velocity P-wave (km/s) = 5.97244 6.83081 6.41599
#
# Compressibility (1/GPa) = 0.02688410
#
# Stress axis : x y z
#
# Youngs Moduli (GPa) = 55.10496 49.01270 47.87552
#
# Poissons Ratio (x) = 0.31544 0.11569
# Poissons Ratio (y) = 0.35464 0.35545
# Poissons Ratio (z) = 0.13316 0.36389
#
# Static dielectric constant tensor:
#      x y z
#    x 1.659920 -0.023030 0.048590 
#    y -0.023030 1.743210 0.025800 
#    z 0.048590 0.025800 1.706790 
# 
# From -- ./inp_files/217694.got.cif
#   From: 2010.05.17/outbox.cif.g08.bks.cpg/sg2_109_cif.got.tgz:217694.got - 2010.06.03 11:33:40.
