data_PCOD9002405
_publ_section_title
;
Structure prediction by ZEFSAII (Michael W. Deem and Ramdas Pophale) SiO2 
 PCOD9002405
Probable space group: P -1
;
_chemical_formula_sum "Si O2"
_cell_formula_units_Z 16
_cell_length_a 11.159734
_cell_length_b 13.205251
_cell_length_c 12.809451
_cell_angle_alpha 32.373693
_cell_angle_beta 49.949815
_cell_angle_gamma 55.219907
_cell_volume 772.027205
_symmetry_space_group_name_H-M "P -1"
_symmetry_group_IT_number 2
_symmetry_cell_setting 'triclinic'
loop_
_space_group_symop_operation_xyz
x,y,z
-x,-y,-z
loop_
_atom_site_type_symbol
_atom_site_label
_atom_site_fract_x
_atom_site_fract_y
_atom_site_fract_z
Si Si1 0.382830 0.241449 0.631522
Si Si2 0.108731 0.641986 0.881007
Si Si3 0.919315 0.460569 0.294654
Si Si4 0.626293 0.518077 0.259960
Si Si5 0.118062 0.965366 0.060954
Si Si6 0.830426 0.460955 0.585069
Si Si7 0.947042 0.033541 0.662195
Si Si8 0.589650 0.951063 0.882735
O O1 0.482591 0.407030 0.479698
O O2 0.236809 0.132498 0.852042
O O3 0.500000 0.000000 0.000000
O O4 0.515946 0.069266 0.723386
O O5 0.285362 0.594054 0.787534
O O6 0.056179 0.861441 0.704985
O O7 0.000000 0.500000 0.000000
O O8 0.058525 0.589886 0.072008
O O9 0.764232 0.525175 0.260649
O O10 0.861825 0.464203 0.441136
O O11 0.975645 0.244000 0.425737
O O12 0.577994 0.728685 0.068655
O O13 0.699061 0.633902 0.526589
O O14 0.203304 0.754820 0.180754
O O15 0.040794 0.964901 0.219461
O O16 0.000000 0.000000 0.000000
O O17 0.000000 0.500000 0.500000
O O18 0.768687 0.997282 0.762277
#
# Coordination Sequence:
#
# PCOD9002405 Si02
#       8
#     2   2   2   2   2   2   2   2
#     4  12  23  37  57  87 125 158 192 249 310 364
#     4  10  21  39  58  87 126 162 209 238 286 366
#     4  10  21  36  60  91 122 159 200 248 296 353
#     4  11  24  37  59  91 126 165 198 241 306 365
#     4  11  23  40  61  91 120 158 201 254 303 363
#     4  11  23  40  63  91 119 158 206 248 307 365
#     4  11  21  37  60  93 123 159 203 244 304 359
#     4  12  22  35  56  91 133 156 189 250 317 370
#
# _framework density 20.724658000000002
#
# number of rings (size 3 to 8) (size 9 to 14) (size 15 to 20)
#    0.000    1.000    6.250    2.250    1.750    4.000 
#    0.000    0.000    0.000    1.500    0.000    0.000 
#    0.000    0.000    0.000    0.000    0.000    0.000 
#
# Total GULP energy -89184.031766 kJ/mol
# GULP energy per Si atom -5574.001985 kJ/mol
# Density = 2.067749 g / cm^3
# Si number density = 20.724658 Si / 1000 Ang^3
#
#
#
# Elastic Constant Matrix: (Units=GPa)
#
#
# Indices 1 2 3 4 5 6 
#
# 1 109.3510 33.2123 34.2167 -9.5947 17.4020 -12.8929
# 2 33.2123 75.7493 33.4761 -19.6604 6.8662 -30.8610
# 3 34.2167 33.4761 123.5635 -32.4722 12.7324 -16.6281
# 4 -9.5947 -19.6604 -32.4722 47.9032 -13.6594 12.5023
# 5 17.4020 6.8662 12.7324 -13.6594 34.8842 -7.9342
# 6 -12.8929 -30.8610 -16.6281 12.5023 -7.9342 24.9231
#
#
#
# Elastic Compliance Matrix: (Units=1/GPa)
#
#
# Indices 1 2 3 4 5 6 
#
# 1 0.011832 -0.005365 -0.002187 -0.002198 -0.005507 -0.002632
# 2 -0.005365 0.030650 -0.002078 0.002950 0.006367 0.034338
# 3 -0.002187 -0.002078 0.010904 0.005943 -0.000020 0.000582
# 4 -0.002198 0.002950 0.005943 0.029610 0.008664 -0.005615
# 5 -0.005507 0.006367 -0.000020 0.008664 0.036346 0.012246
# 6 -0.002632 0.034338 0.000582 -0.005615 0.012246 0.088385
#
#
# Mechanical properties :
#
#
# Convention : Reuss Voigt Hill
#
# Bulk Modulus (GPa) = 29.30359 56.71934 43.01147
# Shear Modulus (GPa) = 20.97644 35.39266 28.18455
#
# Velocity S-wave (km/s) = 3.18488 4.13698 3.69175
# Velocity P-wave (km/s) = 5.26258 7.08851 6.24267
#
# Compressibility (1/GPa) = 0.03412551
#
# Stress axis : x y z
#
# Youngs Moduli (GPa) = 84.51707 32.62621 91.70990
#
# Poissons Ratio (x) = 0.17503 0.20061
# Poissons Ratio (y) = 0.45340 0.19059
# Poissons Ratio (z) = 0.18487 0.06780
#
# Static dielectric constant tensor:
#      x y z
#    x 1.767680 -0.006160 0.042480 
#    y -0.006160 1.848060 0.014230 
#    z 0.042480 0.014230 1.795220 
# 
# From -- ./inp_files/532856.got.cif
#   From: 2010.05.17/outbox.cif.g08.bks.cpg/sg2_267_cif.got.tgz:532856.got - 2010.06.03 11:33:40.
