data_PCOD9002215
_publ_section_title
;
Structure prediction by ZEFSAII (Michael W. Deem and Ramdas Pophale) SiO2 
 PCOD9002215
Probable space group: P -1
;
_chemical_formula_sum "Si O2"
_cell_formula_units_Z 14
_cell_length_a 8.649047
_cell_length_b 22.126425
_cell_length_c 11.266026
_cell_angle_alpha 29.361555
_cell_angle_beta 140.249799
_cell_angle_gamma 144.304855
_cell_volume 602.608448
_symmetry_space_group_name_H-M "P -1"
_symmetry_group_IT_number 2
_symmetry_cell_setting 'triclinic'
loop_
_space_group_symop_operation_xyz
x,y,z
-x,-y,-z
loop_
_atom_site_type_symbol
_atom_site_label
_atom_site_fract_x
_atom_site_fract_y
_atom_site_fract_z
Si Si1 0.022252 0.105299 0.484093
Si Si2 0.433832 0.842143 0.205744
Si Si3 0.911705 0.796216 0.895113
Si Si4 0.157097 0.865527 0.411848
Si Si5 0.603851 0.835793 0.047563
Si Si6 0.717976 0.452978 0.759172
Si Si7 0.302722 0.620479 0.862513
O O1 0.353307 0.178224 0.551018
O O2 0.948286 0.156956 0.231355
O O3 0.933096 0.142456 0.491440
O O4 0.916370 0.939043 0.701231
O O5 0.526992 0.829600 0.150165
O O6 0.109060 0.760659 0.155841
O O7 0.500000 0.000000 0.000000
O O8 0.611985 0.674420 0.913816
O O9 0.271484 0.758264 0.637312
O O10 0.897983 0.835831 0.225627
O O11 0.361959 0.022705 0.232562
O O12 0.400151 0.704774 0.079590
O O13 0.500000 0.500000 0.500000
O O14 0.036407 0.533147 0.775457
O O15 0.720388 0.462718 0.886808
#
# Coordination Sequence:
#
# PCOD9002215 Si02
#       7
#     2   2   2   2   2   2   2
#     4   9  20  36  58  91 132 159 198 262 321 374
#     4   9  20  37  57  90 132 162 199 255 322 375
#     4  10  21  36  58  93 125 166 201 255 324 373
#     4  10  21  38  66 104 121 155 220 270 315 373
#     4  10  21  39  68  95 127 168 209 266 319 370
#     4  11  24  45  63  90 131 174 211 258 317 376
#     4  11  25  40  67  96 126 167 216 263 311 381
#
# _framework density 23.232333000000001
#
# number of rings (size 3 to 8) (size 9 to 14) (size 15 to 20)
#    0.000    2.000    1.429    0.857    8.000    3.429 
#    0.000    0.714    0.000    2.571    0.000    0.000 
#    0.000    0.000    0.000    0.000    0.000    0.000 
#
# Total GULP energy -78239.855211 kJ/mol
# GULP energy per Si atom -5588.561086 kJ/mol
# Density = 2.317946 g / cm^3
# Si number density = 23.232333 Si / 1000 Ang^3
#
#
#
# Elastic Constant Matrix: (Units=GPa)
#
#
# Indices 1 2 3 4 5 6 
#
# 1 16.2685 15.3134 -15.6545 -5.1977 -3.1337 5.8635
# 2 15.3134 180.8253 27.4642 10.5148 8.1003 29.6398
# 3 -15.6545 27.4642 70.0622 22.0176 7.2106 10.3096
# 4 -5.1977 10.5148 22.0176 35.2971 2.5742 4.5982
# 5 -3.1337 8.1003 7.2106 2.5742 15.5213 4.9167
# 6 5.8635 29.6398 10.3096 4.5982 4.9167 36.5121
#
#
#
# Elastic Compliance Matrix: (Units=1/GPa)
#
#
# Indices 1 2 3 4 5 6 
#
# 1 0.114057 -0.012024 0.030157 0.002655 0.021274 -0.020270
# 2 -0.012024 0.007895 -0.004903 -0.000482 -0.003373 -0.002579
# 3 0.030157 -0.004903 0.027178 -0.010105 -0.000001 -0.007264
# 4 0.002655 -0.000482 -0.010105 0.035374 0.000140 -0.001656
# 5 0.021274 -0.003373 -0.000001 0.000140 0.073830 -0.010637
# 6 -0.020270 -0.002579 -0.007264 -0.001656 -0.010637 0.036428
#
#
# Mechanical properties :
#
#
# Convention : Reuss Voigt Hill
#
# Bulk Modulus (GPa) = 5.69514 35.71137 20.70326
# Shear Modulus (GPa) = 15.29827 33.46830 24.38329
#
# Velocity S-wave (km/s) = 2.56889 3.79963 3.24318
# Velocity P-wave (km/s) = 3.35494 5.88680 4.79114
#
# Compressibility (1/GPa) = 0.17558818
#
# Stress axis : x y z
#
# Youngs Moduli (GPa) = 8.76754 126.66194 36.79454
#
# Poissons Ratio (x) = 1.52301 -1.10960
# Poissons Ratio (y) = 0.10542 0.18042
# Poissons Ratio (z) = -0.26440 0.62108
#
# Static dielectric constant tensor:
#      x y z
#    x 1.874190 0.062320 0.017130 
#    y 0.062320 1.916980 0.034930 
#    z 0.017130 0.034930 1.851400 
# 
# From -- ./inp_files/344921.got.cif
#   From: 2010.05.17/outbox.cif.g08.bks.cpg/sg2_173_cif.got.tgz:344921.got - 2010.06.03 11:33:40.
