data_PCOD9002744
_publ_section_title
;
Structure prediction by ZEFSAII (Michael W. Deem and Ramdas Pophale) SiO2 
 PCOD9002744
Probable space group: P -1
;
_chemical_formula_sum "Si O2"
_cell_formula_units_Z 14
_cell_length_a 12.293828
_cell_length_b 13.577571
_cell_length_c 10.886999
_cell_angle_alpha 146.896584
_cell_angle_beta 38.886947
_cell_angle_gamma 126.740718
_cell_volume 615.345444
_symmetry_space_group_name_H-M "P -1"
_symmetry_group_IT_number 2
_symmetry_cell_setting 'triclinic'
loop_
_space_group_symop_operation_xyz
x,y,z
-x,-y,-z
loop_
_atom_site_type_symbol
_atom_site_label
_atom_site_fract_x
_atom_site_fract_y
_atom_site_fract_z
Si Si1 0.395299 0.529796 0.997432
Si Si2 0.246382 0.209012 0.706851
Si Si3 0.699804 0.327837 0.349335
Si Si4 0.795403 0.688516 0.642651
Si Si5 0.576750 0.789672 0.695856
Si Si6 0.966844 0.011217 0.892106
Si Si7 0.488080 0.895254 0.275155
O O1 0.252589 0.396977 0.970927
O O2 0.537111 0.441756 0.682174
O O3 0.500000 0.500000 0.000000
O O4 0.355860 0.746605 0.241264
O O5 0.268142 0.246069 0.581478
O O6 0.105238 0.104366 0.787651
O O7 0.421851 0.057927 0.411180
O O8 0.838895 0.469731 0.374312
O O9 0.600139 0.289870 0.271788
O O10 0.787034 0.148567 0.158896
O O11 0.668988 0.724894 0.673954
O O12 0.946206 0.813152 0.647973
O O13 0.672761 0.774480 0.953387
O O14 0.500000 0.000000 0.000000
O O15 0.000000 0.000000 0.000000
O O16 0.500000 0.000000 0.500000
#
# Coordination Sequence:
#
# PCOD9002744 Si02
#       7
#     2   2   2   2   2   2   2
#     4  10  21  36  64  89 119 165 219 268 311 359
#     4  11  24  39  60  97 128 165 215 263 315 386
#     4  10  24  43  65  97 128 167 219 269 316 380
#     4  11  23  44  68  94 126 176 209 273 321 368
#     4  11  20  44  74  94 122 162 230 274 313 364
#     4  12  27  42  61  93 141 177 205 251 331 400
#     4  11  20  36  65  91 121 163 220 265 312 370
#
# _framework density 22.751448
#
# number of rings (size 3 to 8) (size 9 to 14) (size 15 to 20)
#    0.000    1.143    4.286    2.143    4.000    2.286 
#    0.000    0.714    0.000    0.000    0.000    0.000 
#    0.000    0.000    0.000    0.000    0.000    0.000 
#
# Total GULP energy -78062.895028 kJ/mol
# GULP energy per Si atom -5575.921073 kJ/mol
# Density = 2.269966 g / cm^3
# Si number density = 22.751448 Si / 1000 Ang^3
#
#
#
# Elastic Constant Matrix: (Units=GPa)
#
#
# Indices 1 2 3 4 5 6 
#
# 1 105.4760 40.0105 34.9240 6.7545 16.5136 8.2988
# 2 40.0105 154.7991 40.3297 21.7707 14.0542 40.7526
# 3 34.9240 40.3297 59.5927 20.0654 15.3880 14.2097
# 4 6.7545 21.7707 20.0654 52.1423 4.3290 5.7285
# 5 16.5136 14.0542 15.3880 4.3290 40.8035 6.3283
# 6 8.2988 40.7526 14.2097 5.7285 6.3283 45.4148
#
#
#
# Elastic Compliance Matrix: (Units=1/GPa)
#
#
# Indices 1 2 3 4 5 6 
#
# 1 0.012468 -0.002038 -0.006253 0.001663 -0.002415 0.001634
# 2 -0.002038 0.010032 -0.003177 -0.001883 -0.000087 -0.007386
# 3 -0.006253 -0.003177 0.027211 -0.007578 -0.005397 -0.002813
# 4 0.001663 -0.001883 -0.007578 0.022544 0.000306 0.000871
# 5 -0.002415 -0.000087 -0.005397 0.000306 0.027782 -0.001702
# 6 0.001634 -0.007386 -0.002813 0.000871 -0.001702 0.029356
#
#
# Mechanical properties :
#
#
# Convention : Reuss Voigt Hill
#
# Bulk Modulus (GPa) = 37.34995 61.15514 49.25255
# Shear Modulus (GPa) = 31.00730 41.31234 36.15982
#
# Velocity S-wave (km/s) = 3.69571 4.26586 3.99098
# Velocity P-wave (km/s) = 5.88755 7.15552 6.55228
#
# Compressibility (1/GPa) = 0.02677379
#
# Stress axis : x y z
#
# Youngs Moduli (GPa) = 80.20842 99.68574 36.74992
#
# Poissons Ratio (x) = 0.20317 0.22980
# Poissons Ratio (y) = 0.16347 0.11675
# Poissons Ratio (z) = 0.50156 0.31668
#
# Static dielectric constant tensor:
#      x y z
#    x 1.921830 0.049240 -0.029370 
#    y 0.049240 2.034410 -0.054170 
#    z -0.029370 -0.054170 1.795540 
# 
# From -- ./inp_files/277294.got.cif
#   From: 2010.05.17/outbox.cif.g08.bks.cpg/sg2_139_cif.got.tgz:277294.got - 2010.06.03 11:33:40.
