data_PCOD9002369
_publ_section_title
;
Structure prediction by ZEFSAII (Michael W. Deem and Ramdas Pophale) SiO2 
 PCOD9002369
Probable space group: P -1
;
_chemical_formula_sum "Si O2"
_cell_formula_units_Z 16
_cell_length_a 11.927222
_cell_length_b 13.125576
_cell_length_c 9.199016
_cell_angle_alpha 60.481706
_cell_angle_beta 124.301828
_cell_angle_gamma 138.148008
_cell_volume 786.769809
_symmetry_space_group_name_H-M "P -1"
_symmetry_group_IT_number 2
_symmetry_cell_setting 'triclinic'
loop_
_space_group_symop_operation_xyz
x,y,z
-x,-y,-z
loop_
_atom_site_type_symbol
_atom_site_label
_atom_site_fract_x
_atom_site_fract_y
_atom_site_fract_z
Si Si1 0.701620 0.507091 0.996923
Si Si2 0.883130 0.913940 0.330912
Si Si3 0.153553 0.884122 0.415896
Si Si4 0.868761 0.023263 0.956937
Si Si5 0.365343 0.308964 0.074529
Si Si6 0.518703 0.379676 0.661431
Si Si7 0.817590 0.360887 0.388599
Si Si8 0.494104 0.764626 0.529960
O O1 0.501022 0.420810 0.968756
O O2 0.771611 0.434023 0.184612
O O3 0.781917 0.674940 0.000311
O O4 0.672972 0.470659 0.832634
O O5 0.677941 0.769262 0.319080
O O6 0.980968 0.859575 0.361135
O O7 0.000000 0.000000 0.500000
O O8 0.894422 0.030208 0.144200
O O9 0.146673 0.879595 0.236689
O O10 0.160720 0.757956 0.570710
O O11 0.330979 0.054944 0.472599
O O12 0.689266 0.848151 0.918511
O O13 0.000000 0.000000 0.000000
O O14 0.448861 0.320560 0.281630
O O15 0.500000 0.500000 0.500000
O O16 0.564003 0.311616 0.616647
O O17 0.661744 0.270650 0.459566
O O18 0.000000 0.500000 0.500000
#
# Coordination Sequence:
#
# PCOD9002369 Si02
#       8
#     2   2   2   2   2   2   2   2
#     4  10  21  36  60  87 123 159 208 247 318 355
#     4  11  22  39  63 100 128 156 204 261 325 365
#     4  10  22  42  65  90 126 165 209 259 306 374
#     4   9  19  32  61  87 119 151 208 252 303 350
#     4   9  17  34  59  88 113 155 201 264 292 361
#     4  12  23  38  64  97 131 162 194 265 326 374
#     4  11  26  42  64  87 124 172 217 258 299 375
#     4  10  21  41  63  91 123 162 211 254 317 366
#
# _framework density 20.336316
#
# number of rings (size 3 to 8) (size 9 to 14) (size 15 to 20)
#    0.000    1.750    3.750    0.375    5.250    0.000 
#    0.000    2.500    0.000    0.000    0.000    0.000 
#    0.000    0.000    0.000    0.000    0.000    0.000 
#
# Total GULP energy -89075.944891 kJ/mol
# GULP energy per Si atom -5567.246556 kJ/mol
# Density = 2.029003 g / cm^3
# Si number density = 20.336316 Si / 1000 Ang^3
#
#
#
# Elastic Constant Matrix: (Units=GPa)
#
#
# Indices 1 2 3 4 5 6 
#
# 1 39.4726 -2.2637 12.0528 -3.7179 4.0851 -6.2842
# 2 -2.2637 41.6545 24.0346 -1.4737 5.2686 -9.9027
# 3 12.0528 24.0346 136.5253 6.2617 -7.3657 -26.8597
# 4 -3.7179 -1.4737 6.2617 36.3763 -9.2660 2.4647
# 5 4.0851 5.2686 -7.3657 -9.2660 27.9293 -2.3929
# 6 -6.2842 -9.9027 -26.8597 2.4647 -2.3929 31.1318
#
#
#
# Elastic Compliance Matrix: (Units=1/GPa)
#
#
# Indices 1 2 3 4 5 6 
#
# 1 0.027815 0.004800 -0.002824 0.002048 -0.004681 0.004183
# 2 0.004800 0.029285 -0.004887 0.000383 -0.006916 0.005506
# 3 -0.002824 -0.004887 0.010116 -0.001673 0.004051 0.007047
# 4 0.002048 0.000383 -0.001673 0.030494 0.009079 -0.002625
# 5 -0.004681 -0.006916 0.004051 0.009079 0.042120 0.002869
# 6 0.004183 0.005506 0.007047 -0.002625 0.002869 0.041226
#
#
# Mechanical properties :
#
#
# Convention : Reuss Voigt Hill
#
# Bulk Modulus (GPa) = 16.28817 31.69999 23.99408
# Shear Modulus (GPa) = 24.11477 31.34273 27.72875
#
# Velocity S-wave (km/s) = 3.44728 3.93010 3.69658
# Velocity P-wave (km/s) = 4.88587 6.01797 5.48123
#
# Compressibility (1/GPa) = 0.06139425
#
# Stress axis : x y z
#
# Youngs Moduli (GPa) = 35.95195 34.14744 98.85306
#
# Poissons Ratio (x) = -0.16391 0.27917
# Poissons Ratio (y) = -0.17257 0.48306
# Poissons Ratio (z) = 0.10153 0.16687
#
# Static dielectric constant tensor:
#      x y z
#    x 1.741760 -0.084600 -0.024320 
#    y -0.084600 -1.406090 -0.394270 
#    z -0.024320 -0.394270 1.729600 
# 
# From -- ./inp_files/257685.got.cif
#   From: 2010.05.17/outbox.cif.g08.bks.cpg/sg2_129_cif.got.tgz:257685.got - 2010.06.03 11:33:40.
