data_PCOD9002140
_publ_section_title
;
Structure prediction by ZEFSAII (Michael W. Deem and Ramdas Pophale) SiO2 
 PCOD9002140
Probable space group: P -1
;
_chemical_formula_sum "Si O2"
_cell_formula_units_Z 16
_cell_length_a 20.593547
_cell_length_b 5.444444
_cell_length_c 23.663251
_cell_angle_alpha 103.125042
_cell_angle_beta 161.912287
_cell_angle_gamma 85.443610
_cell_volume 715.921994
_symmetry_space_group_name_H-M "P -1"
_symmetry_group_IT_number 2
_symmetry_cell_setting 'triclinic'
loop_
_space_group_symop_operation_xyz
x,y,z
-x,-y,-z
loop_
_atom_site_type_symbol
_atom_site_label
_atom_site_fract_x
_atom_site_fract_y
_atom_site_fract_z
Si Si1 0.822130 0.546396 0.105635
Si Si2 0.205566 0.286677 0.709633
Si Si3 0.944126 0.966788 0.315259
Si Si4 0.733258 0.865763 0.671679
Si Si5 0.678547 0.452305 0.294363
Si Si6 0.415704 0.878895 0.024568
Si Si7 0.738734 0.258921 0.787474
Si Si8 0.022736 0.502994 0.893512
O O1 0.993067 0.841450 0.291976
O O2 0.891790 0.503118 0.099277
O O3 0.564768 0.533336 0.895498
O O4 0.785404 0.302243 0.106882
O O5 0.116926 0.270002 0.698893
O O6 0.242890 0.517456 0.705067
O O7 0.445495 0.258828 0.901258
O O8 0.000000 0.000000 0.500000
O O9 0.706584 0.996357 0.112430
O O10 0.132612 0.275889 0.504251
O O11 0.480833 0.723382 0.423827
O O12 0.856901 0.661558 0.763950
O O13 0.713721 0.964488 0.724872
O O14 0.886039 0.174205 0.784166
O O15 0.613956 0.132117 0.238690
O O16 0.760304 0.310374 0.875185
O O17 0.000000 0.500000 0.000000
#
# Coordination Sequence:
#
# PCOD9002140 Si02
#       8
#     2   2   2   2   2   2   2   2
#     4  10  24  40  56  83 125 162 206 257 311 386
#     4   9  19  35  57  83 114 145 199 259 327 381
#     4  10  21  37  58  82 114 155 201 258 322 386
#     4  10  23  41  71 103 134 173 223 268 322 390
#     4   9  21  39  58  82 115 152 204 259 321 383
#     4  10  21  36  58  84 111 154 204 260 314 379
#     4   9  21  43  70 105 137 173 216 274 327 373
#     4  11  24  42  67  95 141 176 223 266 324 387
#
# _framework density 22.348806
#
# number of rings (size 3 to 8) (size 9 to 14) (size 15 to 20)
#    0.000    2.250    0.000    0.750    3.500   18.000 
#    0.000    0.000    0.000    0.000    0.000    0.000 
#    0.000    0.000    0.000    0.000    0.000    0.000 
#
# Total GULP energy -89232.036647 kJ/mol
# GULP energy per Si atom -5577.002290 kJ/mol
# Density = 2.229794 g / cm^3
# Si number density = 22.348806 Si / 1000 Ang^3
#
#
#
# Elastic Constant Matrix: (Units=GPa)
#
#
# Indices 1 2 3 4 5 6 
#
# 1 134.6400 27.3260 20.9298 15.2517 -33.3651 -15.3960
# 2 27.3260 85.5441 30.5450 13.4767 -4.6637 -4.1418
# 3 20.9298 30.5450 129.8575 19.4975 -24.7367 -5.9299
# 4 15.2517 13.4767 19.4975 33.7254 -6.0776 3.5460
# 5 -33.3651 -4.6637 -24.7367 -6.0776 29.8115 10.3339
# 6 -15.3960 -4.1418 -5.9299 3.5460 10.3339 24.5019
#
#
#
# Elastic Compliance Matrix: (Units=1/GPa)
#
#
# Indices 1 2 3 4 5 6 
#
# 1 0.011443 -0.003032 0.001788 -0.003006 0.012401 0.002315
# 2 -0.003032 0.014220 -0.003229 -0.003705 -0.005495 0.002571
# 3 0.001788 -0.003229 0.010564 -0.003858 0.009598 -0.000355
# 4 -0.003006 -0.003705 -0.003858 0.036515 0.003896 -0.010376
# 5 0.012401 -0.005495 0.009598 0.003896 0.061294 -0.017229
# 6 0.002315 0.002571 -0.000355 -0.010376 -0.017229 0.051385
#
#
# Mechanical properties :
#
#
# Convention : Reuss Voigt Hill
#
# Bulk Modulus (GPa) = 36.65650 56.40480 46.53065
# Shear Modulus (GPa) = 24.57486 35.69049 30.13267
#
# Velocity S-wave (km/s) = 3.31963 4.00055 3.67589
# Velocity P-wave (km/s) = 5.57950 6.82879 6.23551
#
# Compressibility (1/GPa) = 0.02728029
#
# Stress axis : x y z
#
# Youngs Moduli (GPa) = 87.38994 70.32338 94.66521
#
# Poissons Ratio (x) = 0.21323 -0.16928
# Poissons Ratio (y) = 0.26498 0.30569
# Poissons Ratio (z) = -0.15627 0.22709
#
# Static dielectric constant tensor:
#      x y z
#    x 1.853270 0.050950 -0.056780 
#    y 0.050950 1.905250 0.008080 
#    z -0.056780 0.008080 1.901030 
# 
# From -- ./inp_files/613402.got.cif
#   From: 2010.05.17/outbox.cif.g08.bks.cpg/sg2_307_cif.got.tgz:613402.got - 2010.06.03 11:33:40.
