data_PCOD9002727
_publ_section_title
;
Structure prediction by ZEFSAII (Michael W. Deem and Ramdas Pophale) SiO2 
 PCOD9002727
Probable space group: P -1
;
_chemical_formula_sum "Si O2"
_cell_formula_units_Z 14
_cell_length_a 11.441924
_cell_length_b 7.934703
_cell_length_c 8.769044
_cell_angle_alpha 67.795505
_cell_angle_beta 96.450432
_cell_angle_gamma 120.897298
_cell_volume 629.131160
_symmetry_space_group_name_H-M "P -1"
_symmetry_group_IT_number 2
_symmetry_cell_setting 'triclinic'
loop_
_space_group_symop_operation_xyz
x,y,z
-x,-y,-z
loop_
_atom_site_type_symbol
_atom_site_label
_atom_site_fract_x
_atom_site_fract_y
_atom_site_fract_z
Si Si1 0.621586 0.095289 0.859515
Si Si2 0.496744 0.481070 0.685502
Si Si3 0.614505 0.230423 0.483336
Si Si4 0.904597 0.542955 0.363223
Si Si5 0.914360 0.289456 0.964097
Si Si6 0.645485 0.696217 0.898561
Si Si7 0.789488 0.817583 0.175127
O O1 0.611574 0.228246 0.669826
O O2 0.763404 0.242743 0.916648
O O3 0.638132 0.909775 0.843011
O O4 0.500000 0.000000 0.000000
O O5 0.500000 0.500000 0.500000
O O6 0.429900 0.624746 0.661994
O O7 0.638365 0.604040 0.758946
O O8 0.368023 0.249171 0.785215
O O9 0.766222 0.313198 0.415130
O O10 0.500000 0.000000 0.500000
O O11 0.843502 0.698091 0.331991
O O12 0.000000 0.500000 0.500000
O O13 0.998399 0.659153 0.193524
O O14 0.000000 0.500000 0.000000
O O15 0.886101 0.069074 0.107721
O O16 0.500000 0.500000 0.000000
O O17 0.765762 0.737945 0.020616
#
# Coordination Sequence:
#
# PCOD9002727 Si02
#       7
#     2   2   2   2   2   2   2
#     4  11  24  40  65  96 132 173 224 272 325 399
#     4  10  21  36  63  99 136 166 212 277 336 388
#     4  11  23  40  66  97 129 174 217 276 337 385
#     4  11  23  46  67  90 135 173 222 272 334 399
#     4  11  25  44  66  96 132 179 224 274 329 395
#     4   9  19  38  58  94 129 170 216 263 330 391
#     4   9  22  42  65  92 128 179 226 262 329 400
#
# _framework density 22.252911000000001
#
# number of rings (size 3 to 8) (size 9 to 14) (size 15 to 20)
#    0.000    1.714    2.857    0.429    8.000    0.000 
#    0.000    0.714    0.000    0.000    0.000    0.000 
#    0.000    0.000    0.000    0.000    0.000    0.000 
#
# Total GULP energy -77938.901360 kJ/mol
# GULP energy per Si atom -5567.064383 kJ/mol
# Density = 2.220226 g / cm^3
# Si number density = 22.252911 Si / 1000 Ang^3
#
#
#
# Elastic Constant Matrix: (Units=GPa)
#
#
# Indices 1 2 3 4 5 6 
#
# 1 71.9957 29.9218 22.3219 -7.2706 15.3134 23.8423
# 2 29.9218 163.6201 37.1143 -7.4907 9.3267 26.2517
# 3 22.3219 37.1143 95.9666 -9.2056 15.4024 1.4398
# 4 -7.2706 -7.4907 -9.2056 44.5081 3.8627 -0.5996
# 5 15.3134 9.3267 15.4024 3.8627 48.2553 -10.9009
# 6 23.8423 26.2517 1.4398 -0.5996 -10.9009 32.9642
#
#
#
# Elastic Compliance Matrix: (Units=1/GPa)
#
#
# Indices 1 2 3 4 5 6 
#
# 1 0.025315 0.000716 -0.003385 0.004341 -0.012593 -0.022818
# 2 0.000716 0.008009 -0.002603 0.001063 -0.002764 -0.007677
# 3 -0.003385 -0.002603 0.012633 0.001827 -0.001834 0.003397
# 4 0.004341 0.001063 0.001827 0.024122 -0.005313 -0.005384
# 5 -0.012593 -0.002764 -0.001834 -0.005313 0.031142 0.021591
# 6 -0.022818 -0.007677 0.003397 -0.005384 0.021591 0.059847
#
#
# Mechanical properties :
#
#
# Convention : Reuss Voigt Hill
#
# Bulk Modulus (GPa) = 28.23883 56.69982 42.46932
# Shear Modulus (GPa) = 27.26017 41.29381 34.27699
#
# Velocity S-wave (km/s) = 3.50382 4.31241 3.92897
# Velocity P-wave (km/s) = 5.39319 7.09443 6.30148
#
# Compressibility (1/GPa) = 0.03541224
#
# Stress axis : x y z
#
# Youngs Moduli (GPa) = 39.50201 124.85610 79.15715
#
# Poissons Ratio (x) = -0.08939 0.26797
# Poissons Ratio (y) = -0.02828 0.20607
# Poissons Ratio (z) = 0.13372 0.32504
#
# Static dielectric constant tensor:
#      x y z
#    x 1.931030 -0.076370 -0.025150 
#    y -0.076370 1.935500 0.040990 
#    z -0.025150 0.040990 1.992020 
# 
# From -- ./inp_files/237792.got.cif
#   From: 2010.05.17/outbox.cif.g08.bks.cpg/sg2_119_cif.got.tgz:237792.got - 2010.06.03 11:33:40.
