data_PCOD9002124
_publ_section_title
;
Structure prediction by ZEFSAII (Michael W. Deem and Ramdas Pophale) SiO2 
 PCOD9002124
Probable space group: P -1
;
_chemical_formula_sum "Si O2"
_cell_formula_units_Z 16
_cell_length_a 6.171705
_cell_length_b 12.153235
_cell_length_c 12.701474
_cell_angle_alpha 105.740488
_cell_angle_beta 63.517192
_cell_angle_gamma 90.095957
_cell_volume 812.837684
_symmetry_space_group_name_H-M "P -1"
_symmetry_group_IT_number 2
_symmetry_cell_setting 'triclinic'
loop_
_space_group_symop_operation_xyz
x,y,z
-x,-y,-z
loop_
_atom_site_type_symbol
_atom_site_label
_atom_site_fract_x
_atom_site_fract_y
_atom_site_fract_z
Si Si1 0.244733 0.463555 0.080382
Si Si2 0.448589 0.677888 0.855184
Si Si3 0.752516 0.641504 0.468775
Si Si4 0.140988 0.941228 0.553354
Si Si5 0.145595 0.230138 0.313155
Si Si6 0.243623 0.607292 0.668830
Si Si7 0.025681 0.319274 0.911818
Si Si8 0.335069 0.169206 0.641447
O O1 0.330479 0.403135 0.155778
O O2 0.055136 0.578681 0.129445
O O3 0.500000 0.500000 0.000000
O O4 0.159192 0.372170 0.993897
O O5 0.581348 0.775833 0.794376
O O6 0.337084 0.606541 0.768144
O O7 0.226857 0.715805 0.994235
O O8 0.866821 0.679264 0.562728
O O9 0.470392 0.630346 0.553049
O O10 0.846215 0.513333 0.373935
O O11 0.762667 0.743452 0.409326
O O12 0.370939 0.850562 0.439880
O O13 0.952013 0.881662 0.648691
O O14 0.251170 0.043761 0.615250
O O15 0.000000 0.000000 0.500000
O O16 0.957131 0.283786 0.279903
O O17 0.215105 0.224998 0.787979
#
# Coordination Sequence:
#
# PCOD9002124 Si02
#       8
#     2   2   2   2   2   2   2   2
#     4   9  20  38  59  92 129 170 203 237 308 368
#     4  10  22  37  61  90 130 168 199 244 309 371
#     4  10  21  36  57  96 123 162 198 248 315 372
#     4  11  24  45  63  89 117 165 212 264 307 352
#     4  11  21  40  64  87 123 167 206 254 306 368
#     4  10  21  37  58  91 134 160 199 248 308 383
#     4  10  22  40  58  93 129 165 204 251 302 370
#     4  11  24  40  66  87 125 159 209 257 310 362
#
# _framework density 19.684128000000001
#
# number of rings (size 3 to 8) (size 9 to 14) (size 15 to 20)
#    0.000    1.750    2.500    1.125    7.000    2.000 
#    0.000    0.625    0.000    3.750    0.000    0.000 
#    0.000    0.000    0.000    0.000    0.000    0.000 
#
# Total GULP energy -89207.684609 kJ/mol
# GULP energy per Si atom -5575.480288 kJ/mol
# Density = 1.963933 g / cm^3
# Si number density = 19.684128 Si / 1000 Ang^3
#
#
#
# Elastic Constant Matrix: (Units=GPa)
#
#
# Indices 1 2 3 4 5 6 
#
# 1 81.2869 30.4310 32.1170 -6.7041 3.9013 -1.0096
# 2 30.4310 97.3240 41.9756 -19.7930 -5.8025 13.9176
# 3 32.1170 41.9756 99.4956 -7.2609 -19.9496 4.5034
# 4 -6.7041 -19.7930 -7.2609 34.4971 1.1795 -6.6591
# 5 3.9013 -5.8025 -19.9496 1.1795 33.3317 -14.5037
# 6 -1.0096 13.9176 4.5034 -6.6591 -14.5037 37.0284
#
#
#
# Elastic Compliance Matrix: (Units=1/GPa)
#
#
# Indices 1 2 3 4 5 6 
#
# 1 0.015617 -0.003077 -0.004744 0.000493 -0.005113 0.000245
# 2 -0.003077 0.015374 -0.005330 0.006202 -0.002599 -0.005117
# 3 -0.004744 -0.005330 0.015815 -0.000216 0.010924 0.004191
# 4 0.000493 0.006202 -0.000216 0.033380 0.001599 0.004338
# 5 -0.005113 -0.002599 0.010924 0.001599 0.044048 0.017050
# 6 0.000245 -0.005117 0.004191 0.004338 0.017050 0.035885
#
#
# Mechanical properties :
#
#
# Convention : Reuss Voigt Hill
#
# Bulk Modulus (GPa) = 48.76563 54.12822 51.44692
# Shear Modulus (GPa) = 25.87253 32.54364 29.20808
#
# Velocity S-wave (km/s) = 3.62938 4.07048 3.85624
# Velocity P-wave (km/s) = 6.51084 7.04627 6.78384
#
# Compressibility (1/GPa) = 0.02050625
#
# Stress axis : x y z
#
# Youngs Moduli (GPa) = 64.03142 65.04549 63.22947
#
# Poissons Ratio (x) = 0.20014 0.29993
# Poissons Ratio (y) = 0.19702 0.33700
# Poissons Ratio (z) = 0.30373 0.34668
#
# Static dielectric constant tensor:
#      x y z
#    x 1.694580 0.014710 -0.016080 
#    y 0.014710 1.701510 -0.043350 
#    z -0.016080 -0.043350 1.721980 
# 
# From -- ./inp_files/364951.got.cif
#   From: 2010.05.17/outbox.cif.g08.bks.cpg/sg2_183_cif.got.tgz:364951.got - 2010.06.03 11:33:40.
