data_PCOD9002277
_publ_section_title
;
Structure prediction by ZEFSAII (Michael W. Deem and Ramdas Pophale) SiO2 
 PCOD9002277
Probable space group: P -1
;
_chemical_formula_sum "Si O2"
_cell_formula_units_Z 16
_cell_length_a 13.963874
_cell_length_b 8.411379
_cell_length_c 11.849894
_cell_angle_alpha 125.287551
_cell_angle_beta 49.999807
_cell_angle_gamma 122.988229
_cell_volume 836.274656
_symmetry_space_group_name_H-M "P -1"
_symmetry_group_IT_number 2
_symmetry_cell_setting 'triclinic'
loop_
_space_group_symop_operation_xyz
x,y,z
-x,-y,-z
loop_
_atom_site_type_symbol
_atom_site_label
_atom_site_fract_x
_atom_site_fract_y
_atom_site_fract_z
Si Si1 0.767962 0.316116 0.153039
Si Si2 0.579438 0.039155 0.337080
Si Si3 0.406778 0.270987 0.461849
Si Si4 0.325291 0.124447 0.227598
Si Si5 0.847459 0.767134 0.231915
Si Si6 0.245996 0.264627 0.955385
Si Si7 0.381650 0.715796 0.981997
Si Si8 0.112793 0.034765 0.169907
O O1 0.700606 0.237185 0.292264
O O2 0.853497 0.547520 0.181493
O O3 0.661802 0.301861 0.125514
O O4 0.846522 0.161538 0.989234
O O5 0.476556 0.092688 0.351499
O O6 0.500000 0.000000 0.500000
O O7 0.644285 0.858590 0.187930
O O8 0.500000 0.500000 0.500000
O O9 0.337160 0.244704 0.383648
O O10 0.296474 0.231681 0.623392
O O11 0.462635 0.222045 0.100554
O O12 0.200225 0.117091 0.245556
O O13 0.328114 0.892416 0.146539
O O14 0.846456 0.778512 0.102185
O O15 0.959920 0.951130 0.270885
O O16 0.318676 0.500631 0.995723
O O17 0.158642 0.196842 0.103141
#
# Coordination Sequence:
#
# PCOD9002277 Si02
#       8
#     2   2   2   2   2   2   2   2
#     4   9  18  35  58  84 110 145 196 235 272 332
#     4  11  20  33  55  93 116 136 187 245 292 323
#     4  12  22  39  62  84 111 148 192 240 285 341
#     4  10  21  37  57  84 116 147 195 232 277 347
#     4  11  20  36  60  81 117 158 187 227 279 343
#     4  10  21  36  59  89 117 145 190 240 286 328
#     4   9  18  36  60  83 112 150 183 240 289 320
#     4  10  22  36  55  87 116 152 190 232 282 334
#
# _framework density 19.132470000000001
#
# number of rings (size 3 to 8) (size 9 to 14) (size 15 to 20)
#    0.000    1.750    3.750    1.500    1.750    1.000 
#    0.000    0.000    0.000    0.750    0.000    0.000 
#    0.000    0.000    0.000    0.000    0.000    0.000 
#
# Total GULP energy -89155.439712 kJ/mol
# GULP energy per Si atom -5572.214982 kJ/mol
# Density = 1.908892 g / cm^3
# Si number density = 19.132470 Si / 1000 Ang^3
#
#
#
# Elastic Constant Matrix: (Units=GPa)
#
#
# Indices 1 2 3 4 5 6 
#
# 1 69.6667 51.9574 6.9075 -10.9955 14.0726 14.8384
# 2 51.9574 137.4355 23.4945 -12.9792 10.9474 0.5642
# 3 6.9075 23.4945 34.4301 -9.1629 16.4720 1.9871
# 4 -10.9955 -12.9792 -9.1629 19.7783 5.6816 3.6760
# 5 14.0726 10.9474 16.4720 5.6816 24.4626 -0.6997
# 6 14.8384 0.5642 1.9871 3.6760 -0.6997 27.6314
#
#
#
# Elastic Compliance Matrix: (Units=1/GPa)
#
#
# Indices 1 2 3 4 5 6 
#
# 1 0.136306 -0.042103 0.180326 0.221937 -0.235996 -0.120808
# 2 -0.042103 0.021524 -0.058546 -0.063235 0.069743 0.036559
# 3 0.180326 -0.058546 0.315234 0.348147 -0.375640 -0.174140
# 4 0.221937 -0.063235 0.348147 0.462350 -0.447357 -0.215766
# 5 -0.235996 0.069743 -0.375640 -0.447357 0.508697 0.224719
# 6 -0.120808 0.036559 -0.174140 -0.215766 0.224719 0.147238
#
#
# Mechanical properties :
#
#
# Convention : Reuss Voigt Hill
#
# Bulk Modulus (GPa) = 1.58124 45.13899 23.36011
# Shear Modulus (GPa) = 3.04358 24.98597 14.01477
#
# Velocity S-wave (km/s) = 1.26263 3.61771 2.70943
# Velocity P-wave (km/s) = 1.71870 6.41050 4.69300
#
# Compressibility (1/GPa) = 0.63241691
#
# Stress axis : x y z
#
# Youngs Moduli (GPa) = 7.33644 46.45889 3.17225
#
# Poissons Ratio (x) = 1.95607 -0.57204
# Poissons Ratio (y) = 0.30889 0.18572
# Poissons Ratio (z) = -1.32295 2.71998
#
# Static dielectric constant tensor:
#      x y z
#    x 1.706230 -0.006060 -0.018570 
#    y -0.006060 1.658970 -0.013110 
#    z -0.018570 -0.013110 1.711400 
# 
# From -- ./inp_files/269586.got.cif
#   From: 2010.05.17/outbox.cif.g08.bks.cpg/sg2_135_cif.got.tgz:269586.got - 2010.06.03 11:33:40.
