data_PCOD9002870
_publ_section_title
;
Structure prediction by ZEFSAII (Michael W. Deem and Ramdas Pophale) SiO2 
 PCOD9002870
Probable space group: P -1
;
_chemical_formula_sum "Si O2"
_cell_formula_units_Z 16
_cell_length_a 9.730391
_cell_length_b 11.666638
_cell_length_c 9.018290
_cell_angle_alpha 118.033972
_cell_angle_beta 56.196859
_cell_angle_gamma 122.897272
_cell_volume 693.315675
_symmetry_space_group_name_H-M "P -1"
_symmetry_group_IT_number 2
_symmetry_cell_setting 'triclinic'
loop_
_space_group_symop_operation_xyz
x,y,z
-x,-y,-z
loop_
_atom_site_type_symbol
_atom_site_label
_atom_site_fract_x
_atom_site_fract_y
_atom_site_fract_z
Si Si1 0.420477 0.093978 0.305378
Si Si2 0.519160 0.190160 0.973124
Si Si3 0.256251 0.801611 0.644133
Si Si4 0.880561 0.037282 0.384822
Si Si5 0.947231 0.643111 0.540999
Si Si6 0.068695 0.626062 0.150272
Si Si7 0.325273 0.366296 0.058880
Si Si8 0.010574 0.199032 0.936109
O O1 0.556240 0.192665 0.406429
O O2 0.221166 0.042641 0.457518
O O3 0.466344 0.954038 0.177652
O O4 0.457858 0.166159 0.166876
O O5 0.718358 0.311063 0.912915
O O6 0.384283 0.239542 0.994015
O O7 0.125787 0.667886 0.547306
O O8 0.265781 0.930452 0.609994
O O9 0.146213 0.812371 0.862255
O O10 0.966283 0.946476 0.188045
O O11 0.019983 0.194713 0.422682
O O12 0.961251 0.576536 0.336693
O O13 0.779060 0.596112 0.720400
O O14 0.031217 0.750262 0.165613
O O15 0.000000 0.500000 0.000000
O O16 0.500000 0.500000 0.000000
O O17 0.188969 0.312141 0.971073
#
# Coordination Sequence:
#
# PCOD9002870 Si02
#       8
#     2   2   2   2   2   2   2   2
#     4  11  21  38  66 109 139 173 207 292 348 405
#     4  11  24  41  68 100 141 173 227 275 351 391
#     4   9  19  39  64 100 138 170 214 266 345 406
#     4  10  21  36  67 101 139 159 223 275 343 404
#     4   9  24  42  69  99 131 178 227 280 338 404
#     4  12  25  48  66  93 137 184 232 279 328 404
#     4  11  25  48  68  96 136 187 233 278 324 404
#     4  11  23  41  69  99 132 181 219 274 348 398
#
# _framework density 23.077511000000001
#
# number of rings (size 3 to 8) (size 9 to 14) (size 15 to 20)
#    0.750    0.750    2.500    2.250    3.500    1.500 
#    2.250    8.125    0.000    0.000    0.000    0.000 
#    0.000    0.000    0.000    0.000    0.000    0.000 
#
# Total GULP energy -89528.078897 kJ/mol
# GULP energy per Si atom -5595.504931 kJ/mol
# Density = 2.302499 g / cm^3
# Si number density = 23.077511 Si / 1000 Ang^3
#
#
#
# Elastic Constant Matrix: (Units=GPa)
#
#
# Indices 1 2 3 4 5 6 
#
# 1 67.3340 11.0047 23.1362 -5.8832 -0.4844 3.5505
# 2 11.0047 48.4127 28.4540 -11.3171 -4.7072 12.2282
# 3 23.1362 28.4540 127.1568 -11.8494 14.4726 12.3344
# 4 -5.8832 -11.3171 -11.8494 36.2469 2.8541 -0.8555
# 5 -0.4844 -4.7072 14.4726 2.8541 27.8055 -3.8904
# 6 3.5505 12.2282 12.3344 -0.8555 -3.8904 40.5285
#
#
#
# Elastic Compliance Matrix: (Units=1/GPa)
#
#
# Indices 1 2 3 4 5 6 
#
# 1 0.016132 -0.001786 -0.002573 0.001125 0.001209 0.000049
# 2 -0.001786 0.027724 -0.005446 0.005970 0.006067 -0.005842
# 3 -0.002573 -0.005446 0.010724 0.001893 -0.007027 -0.002030
# 4 0.001125 0.005970 0.001893 0.030470 -0.003385 -0.002158
# 5 0.001209 0.006067 -0.007027 -0.003385 0.041594 0.004123
# 6 0.000049 -0.005842 -0.002030 -0.002158 0.004123 0.027401
#
#
# Mechanical properties :
#
#
# Convention : Reuss Voigt Hill
#
# Bulk Modulus (GPa) = 28.59673 40.89924 34.74798
# Shear Modulus (GPa) = 26.98157 32.93674 29.95916
#
# Velocity S-wave (km/s) = 3.42302 3.78196 3.60696
# Velocity P-wave (km/s) = 5.29540 6.06894 5.69532
#
# Compressibility (1/GPa) = 0.03496904
#
# Stress axis : x y z
#
# Youngs Moduli (GPa) = 61.98928 36.06999 93.24646
#
# Poissons Ratio (x) = 0.06443 0.23991
# Poissons Ratio (y) = 0.11073 0.50784
# Poissons Ratio (z) = 0.15949 0.19644
#
# Static dielectric constant tensor:
#      x y z
#    x 1.868510 -0.007420 0.008260 
#    y -0.007420 1.919240 0.009040 
#    z 0.008260 0.009040 1.822390 
# 
# From -- ./inp_files/189045.got.cif
#   From: 2010.05.17/outbox.cif.g08.bks.cpg/sg2_95_cif.got.tgz:189045.got - 2010.06.03 11:33:40.
