data_PCOD9002251
_publ_section_title
;
Structure prediction by ZEFSAII (Michael W. Deem and Ramdas Pophale) SiO2 
 PCOD9002251
Probable space group: P -1
;
_chemical_formula_sum "Si O2"
_cell_formula_units_Z 16
_cell_length_a 10.938931
_cell_length_b 18.420416
_cell_length_c 7.151817
_cell_angle_alpha 45.145535
_cell_angle_beta 44.903322
_cell_angle_gamma 41.477191
_cell_volume 625.002027
_symmetry_space_group_name_H-M "P -1"
_symmetry_group_IT_number 2
_symmetry_cell_setting 'triclinic'
loop_
_space_group_symop_operation_xyz
x,y,z
-x,-y,-z
loop_
_atom_site_type_symbol
_atom_site_label
_atom_site_fract_x
_atom_site_fract_y
_atom_site_fract_z
Si Si1 0.501784 0.004252 0.715965
Si Si2 0.363739 0.881606 0.372987
Si Si3 0.118956 0.703682 0.368111
Si Si4 0.808426 0.627712 0.948974
Si Si5 0.165189 0.774784 0.555998
Si Si6 0.097903 0.237777 0.858212
Si Si7 0.418481 0.441700 0.417225
Si Si8 0.671105 0.639506 0.672616
O O1 0.671327 0.023147 0.600342
O O2 0.297811 0.123201 0.780759
O O3 0.500000 0.000000 0.500000
O O4 0.514680 0.096100 0.966454
O O5 0.195703 0.870760 0.460168
O O6 0.486225 0.759920 0.576166
O O7 0.913613 0.705188 0.651535
O O8 0.158788 0.782209 0.326318
O O9 0.072969 0.746564 0.128824
O O10 0.349772 0.643506 0.640655
O O11 0.303896 0.569510 0.405400
O O12 0.682273 0.630716 0.898487
O O13 0.000000 0.500000 0.000000
O O14 0.674751 0.636642 0.253063
O O15 0.971857 0.774869 0.842135
O O16 0.135302 0.348188 0.607221
O O17 0.351350 0.456847 0.245568
#
# Coordination Sequence:
#
# PCOD9002251 Si02
#       8
#     2   2   2   2   2   2   2   2
#     4  10  22  44  70  90 111 146 201 255 301 361
#     4   9  22  40  64  92 115 152 195 243 307 356
#     4  10  22  37  57  86 122 164 203 240 289 345
#     4   9  19  34  56  84 113 154 207 250 286 328
#     4  11  23  38  56  86 129 159 191 241 293 362
#     4  10  23  38  58  89 120 156 195 244 307 353
#     4  10  21  36  59  86 118 167 209 242 286 339
#     4   9  19  37  60  86 120 155 205 254 284 341
#
# _framework density 25.599916
#
# number of rings (size 3 to 8) (size 9 to 14) (size 15 to 20)
#    0.000    2.250    0.000    1.125    0.000   19.500 
#    0.000    1.250    0.000    0.000    0.000    0.000 
#    0.000    0.000    0.000    0.000    0.000    0.000 
#
# Total GULP energy -89439.146960 kJ/mol
# GULP energy per Si atom -5589.946685 kJ/mol
# Density = 2.554165 g / cm^3
# Si number density = 25.599916 Si / 1000 Ang^3
#
#
#
# Elastic Constant Matrix: (Units=GPa)
#
#
# Indices 1 2 3 4 5 6 
#
# 1 163.7558 32.6189 11.7597 0.1622 23.3381 34.3874
# 2 32.6189 76.7087 16.3041 8.0162 -1.5376 0.0247
# 3 11.7597 16.3041 55.6459 5.6021 -0.7158 6.0904
# 4 0.1622 8.0162 5.6021 33.7513 0.1219 -0.6242
# 5 23.3381 -1.5376 -0.7158 0.1219 40.0656 -0.9928
# 6 34.3874 0.0247 6.0904 -0.6242 -0.9928 46.7434
#
#
#
# Elastic Compliance Matrix: (Units=1/GPa)
#
#
# Indices 1 2 3 4 5 6 
#
# 1 0.009170 -0.004066 -0.000157 0.000842 -0.005672 -0.006833
# 2 -0.004066 0.015965 -0.003854 -0.003079 0.003008 0.003507
# 3 -0.000157 -0.003854 0.019647 -0.002392 0.000240 -0.002470
# 4 0.000842 -0.003079 -0.002392 0.030757 -0.000742 0.000089
# 5 -0.005672 0.003008 0.000240 -0.000742 0.028502 0.004735
# 6 -0.006833 0.003507 -0.002470 0.000089 0.004735 0.026842
#
#
# Mechanical properties :
#
#
# Convention : Reuss Voigt Hill
#
# Bulk Modulus (GPa) = 34.92778 46.38620 40.65699
# Shear Modulus (GPa) = 31.93276 39.80725 35.87000
#
# Velocity S-wave (km/s) = 3.53565 3.94760 3.74729
# Velocity P-wave (km/s) = 5.50828 6.23995 5.88550
#
# Compressibility (1/GPa) = 0.02863051
#
# Stress axis : x y z
#
# Youngs Moduli (GPa) = 109.04958 62.63641 50.89792
#
# Poissons Ratio (x) = 0.25465 0.00797
# Poissons Ratio (y) = 0.44335 0.19615
# Poissons Ratio (z) = 0.01707 0.24139
#
# Static dielectric constant tensor:
#      x y z
#    x 2.291910 -0.242150 0.081660 
#    y -0.242150 2.279090 -0.140290 
#    z 0.081660 -0.140290 2.093780 
# 
# From -- ./inp_files/214913.got.cif
#   From: 2010.05.17/outbox.cif.g08.bks.cpg/sg2_108_cif.got.tgz:214913.got - 2010.06.03 11:33:40.
