data_PCOD9002954
_publ_section_title
;
Structure prediction by ZEFSAII (Michael W. Deem and Ramdas Pophale) SiO2 
 PCOD9002954
Probable space group: P -1
;
_chemical_formula_sum "Si O2"
_cell_formula_units_Z 16
_cell_length_a 19.099563
_cell_length_b 9.461374
_cell_length_c 8.974678
_cell_angle_alpha 107.671753
_cell_angle_beta 45.586695
_cell_angle_gamma 131.955932
_cell_volume 819.253260
_symmetry_space_group_name_H-M "P -1"
_symmetry_group_IT_number 2
_symmetry_cell_setting 'triclinic'
loop_
_space_group_symop_operation_xyz
x,y,z
-x,-y,-z
loop_
_atom_site_type_symbol
_atom_site_label
_atom_site_fract_x
_atom_site_fract_y
_atom_site_fract_z
Si Si1 0.649069 0.402917 0.746168
Si Si2 0.981579 0.975114 0.695752
Si Si3 0.184939 0.668214 0.386224
Si Si4 0.941618 0.619446 0.778974
Si Si5 0.394907 0.435323 0.411055
Si Si6 0.688537 0.730134 0.004116
Si Si7 0.880197 0.773439 0.165380
Si Si8 0.359023 0.112149 0.153301
O O1 0.751229 0.374871 0.602483
O O2 0.628983 0.451924 0.629738
O O3 0.552615 0.598895 0.261175
O O4 0.505632 0.198442 0.941510
O O5 0.001007 0.825479 0.673370
O O6 0.829675 0.867617 0.918448
O O7 0.000000 0.000000 0.500000
O O8 0.084783 0.182733 0.697064
O O9 0.168224 0.553146 0.224806
O O10 0.046691 0.594418 0.623702
O O11 0.268921 0.895382 0.286955
O O12 0.895244 0.634878 0.011362
O O13 0.319218 0.427709 0.135291
O O14 0.268682 0.319590 0.670008
O O15 0.371420 0.262694 0.295718
O O16 0.686417 0.861951 0.928281
O O17 0.000000 0.000000 0.000000
#
# Coordination Sequence:
#
# PCOD9002954 Si02
#       8
#     2   2   2   2   2   2   2   2
#     4   9  17  31  56  83 107 137 186 229 267 325
#     4  11  19  34  63  87 108 140 192 233 268 327
#     4  11  19  34  55  76 115 147 187 215 273 341
#     4  10  23  35  51  78 115 149 177 227 279 324
#     4   9  18  35  58  80 110 141 179 239 278 319
#     4   9  17  32  55  86 109 136 188 228 275 323
#     4  10  21  37  55  81 115 143 183 234 283 320
#     4   9  17  30  55  86 106 137 179 231 275 320
#
# _framework density 19.529980999999999
#
# number of rings (size 3 to 8) (size 9 to 14) (size 15 to 20)
#    0.000    2.250    1.250    5.625    0.000    0.000 
#    0.000    3.125    5.500    1.500    0.000    0.000 
#    0.000    0.000    0.000    0.000    0.000    0.000 
#
# Total GULP energy -89182.253011 kJ/mol
# GULP energy per Si atom -5573.890813 kJ/mol
# Density = 1.948553 g / cm^3
# Si number density = 19.529981 Si / 1000 Ang^3
#
#
#
# Elastic Constant Matrix: (Units=GPa)
#
#
# Indices 1 2 3 4 5 6 
#
# 1 85.4683 15.6016 28.9482 8.0272 -25.2011 -3.0270
# 2 15.6016 52.9486 12.5128 0.8166 -3.2876 1.0770
# 3 28.9482 12.5128 85.1238 -4.2088 -12.0984 8.9532
# 4 8.0272 0.8166 -4.2088 30.9023 5.6073 -2.0695
# 5 -25.2011 -3.2876 -12.0984 5.6073 32.1089 -2.4679
# 6 -3.0270 1.0770 8.9532 -2.0695 -2.4679 28.3382
#
#
#
# Elastic Compliance Matrix: (Units=1/GPa)
#
#
# Indices 1 2 3 4 5 6 
#
# 1 0.019170 -0.003583 -0.004769 -0.007889 0.014597 0.004386
# 2 -0.003583 0.020301 -0.001900 0.000375 -0.001566 -0.000663
# 3 -0.004769 -0.001900 0.014373 0.002818 0.000623 -0.004718
# 4 -0.007889 0.000375 0.002818 0.036872 -0.011536 -0.000059
# 5 0.014597 -0.001566 0.000623 -0.011536 0.045035 0.004501
# 6 0.004386 -0.000663 -0.004718 -0.000059 0.004501 0.037660
#
#
# Mechanical properties :
#
#
# Convention : Reuss Voigt Hill
#
# Bulk Modulus (GPa) = 29.99387 37.51843 33.75615
# Shear Modulus (GPa) = 24.38674 29.36843 26.87759
#
# Velocity S-wave (km/s) = 3.53750 3.88204 3.71377
# Velocity P-wave (km/s) = 5.66361 6.27264 5.97589
#
# Compressibility (1/GPa) = 0.03334014
#
# Stress axis : x y z
#
# Youngs Moduli (GPa) = 52.16526 49.25767 69.57526
#
# Poissons Ratio (x) = 0.17647 0.33182
# Poissons Ratio (y) = 0.18689 0.13220
# Poissons Ratio (z) = 0.24879 0.09359
#
# Static dielectric constant tensor:
#      x y z
#    x 1.712060 0.021900 0.016220 
#    y 0.021900 1.666960 -0.042830 
#    z 0.016220 -0.042830 1.764510 
# 
# From -- ./inp_files/329279.got.cif
#   From: 2010.05.17/outbox.cif.g08.bks.cpg/sg2_165_cif.got.tgz:329279.got - 2010.06.03 11:33:40.
