data_PCOD9002266
_publ_section_title
;
Structure prediction by ZEFSAII (Michael W. Deem and Ramdas Pophale) SiO2 
 PCOD9002266
Probable space group: P -1
;
_chemical_formula_sum "Si O2"
_cell_formula_units_Z 16
_cell_length_a 14.366765
_cell_length_b 11.955190
_cell_length_c 11.083270
_cell_angle_alpha 59.631956
_cell_angle_beta 50.096090
_cell_angle_gamma 31.243371
_cell_volume 753.011269
_symmetry_space_group_name_H-M "P -1"
_symmetry_group_IT_number 2
_symmetry_cell_setting 'triclinic'
loop_
_space_group_symop_operation_xyz
x,y,z
-x,-y,-z
loop_
_atom_site_type_symbol
_atom_site_label
_atom_site_fract_x
_atom_site_fract_y
_atom_site_fract_z
Si Si1 0.822644 0.329607 0.448693
Si Si2 0.510077 0.586893 0.775147
Si Si3 0.378337 0.985148 0.959012
Si Si4 0.185622 0.926216 0.541396
Si Si5 0.308012 0.506328 0.076524
Si Si6 0.059366 0.599244 0.899113
Si Si7 0.898925 0.961184 0.167308
Si Si8 0.491879 0.174638 0.797034
O O1 0.626172 0.510858 0.596343
O O2 0.789833 0.243815 0.425244
O O3 0.886753 0.398409 0.281016
O O4 0.002010 0.135434 0.496421
O O5 0.661312 0.464895 0.828734
O O6 0.328563 0.845990 0.799981
O O7 0.411677 0.527627 0.894618
O O8 0.556563 0.737583 0.905687
O O9 0.438589 0.082360 0.830779
O O10 0.378851 0.967952 0.113635
O O11 0.146477 0.153873 0.020475
O O12 0.133266 0.986989 0.691632
O O13 0.383048 0.837935 0.385496
O O14 0.066607 0.706057 0.147754
O O15 0.275933 0.421911 0.882106
O O16 0.000000 0.500000 0.000000
O O17 0.000000 0.000000 0.000000
#
# Coordination Sequence:
#
# PCOD9002266 Si02
#       8
#     2   2   2   2   2   2   2   2
#     4  11  22  37  66  93 121 157 200 255 310 354
#     4  10  21  36  59  87 124 157 195 255 301 354
#     4  10  21  38  61  88 122 162 201 245 303 363
#     4  11  22  38  64  94 122 155 203 255 306 355
#     4  10  21  37  57  86 122 161 200 241 303 364
#     4  10  22  38  60  89 123 157 196 248 302 359
#     4  10  22  39  58  85 124 158 198 245 300 361
#     4  10  21  39  61  89 123 156 200 256 301 355
#
# _framework density 21.248021000000001
#
# number of rings (size 3 to 8) (size 9 to 14) (size 15 to 20)
#    0.000    1.750    2.500    1.500    1.750    5.000 
#    0.000    0.625    0.000    3.750    0.000    0.000 
#    0.000    0.000    0.000    0.000    0.000    0.000 
#
# Total GULP energy -89342.992667 kJ/mol
# GULP energy per Si atom -5583.937042 kJ/mol
# Density = 2.119966 g / cm^3
# Si number density = 21.248021 Si / 1000 Ang^3
#
#
#
# Elastic Constant Matrix: (Units=GPa)
#
#
# Indices 1 2 3 4 5 6 
#
# 1 41.9476 25.9622 36.7096 3.0189 -7.4431 -10.4656
# 2 25.9622 145.7179 38.1560 25.5451 -20.2498 -12.3687
# 3 36.7096 38.1560 146.6628 -1.3217 -9.1120 7.5157
# 4 3.0189 25.5451 -1.3217 40.2187 -6.9876 -2.2893
# 5 -7.4431 -20.2498 -9.1120 -6.9876 17.5975 4.1918
# 6 -10.4656 -12.3687 7.5157 -2.2893 4.1918 32.9335
#
#
#
# Elastic Compliance Matrix: (Units=1/GPa)
#
#
# Indices 1 2 3 4 5 6 
#
# 1 0.037241 -0.002533 -0.008958 0.000144 0.005336 0.012258
# 2 -0.002533 0.009686 -0.001602 -0.004702 0.006904 0.001993
# 3 -0.008958 -0.001602 0.009894 0.001973 0.001651 -0.005779
# 4 0.000144 -0.004702 0.001973 0.029146 0.007507 -0.001100
# 5 0.005336 0.006904 0.001651 0.007507 0.071990 -0.004729
# 6 0.012258 0.001993 -0.005779 -0.001100 -0.004729 0.036852
#
#
# Mechanical properties :
#
#
# Convention : Reuss Voigt Hill
#
# Bulk Modulus (GPa) = 32.64112 59.55376 46.09744
# Shear Modulus (GPa) = 21.62586 33.71663 27.67125
#
# Velocity S-wave (km/s) = 3.19373 3.98780 3.61265
# Velocity P-wave (km/s) = 5.38472 7.02084 6.25649
#
# Compressibility (1/GPa) = 0.03063620
#
# Stress axis : x y z
#
# Youngs Moduli (GPa) = 26.85229 103.24241 101.07494
#
# Poissons Ratio (x) = 0.26149 0.90541
# Poissons Ratio (y) = 0.06801 0.16188
# Poissons Ratio (z) = 0.24054 0.16535
#
# Static dielectric constant tensor:
#      x y z
#    x 1.787610 -0.030080 0.008210 
#    y -0.030080 1.834260 0.017760 
#    z 0.008210 0.017760 1.711540 
# 
# From -- ./inp_files/451235.got.cif
#   From: 2010.05.17/outbox.cif.g08.bks.cpg/sg2_226_cif.got.tgz:451235.got - 2010.06.03 11:33:40.
