data_PCOD9002194
_publ_section_title
;
Structure prediction by ZEFSAII (Michael W. Deem and Ramdas Pophale) SiO2 
 PCOD9002194
Probable space group: P -1
;
_chemical_formula_sum "Si O2"
_cell_formula_units_Z 16
_cell_length_a 12.022901
_cell_length_b 9.310190
_cell_length_c 14.107946
_cell_angle_alpha 53.373381
_cell_angle_beta 39.188352
_cell_angle_gamma 74.024923
_cell_volume 744.250973
_symmetry_space_group_name_H-M "P -1"
_symmetry_group_IT_number 2
_symmetry_cell_setting 'triclinic'
loop_
_space_group_symop_operation_xyz
x,y,z
-x,-y,-z
loop_
_atom_site_type_symbol
_atom_site_label
_atom_site_fract_x
_atom_site_fract_y
_atom_site_fract_z
Si Si1 0.188160 0.579365 0.405575
Si Si2 0.285835 0.022097 0.680638
Si Si3 0.357564 0.003919 0.177318
Si Si4 0.947734 0.729539 0.221361
Si Si5 0.636572 0.997263 0.152471
Si Si6 0.449325 0.424943 0.955001
Si Si7 0.362755 0.670154 0.761600
Si Si8 0.684210 0.611431 0.269344
O O1 0.206622 0.789802 0.348631
O O2 0.159838 0.439108 0.568699
O O3 0.363944 0.573590 0.227726
O O4 0.000000 0.500000 0.500000
O O5 0.114438 0.090172 0.786069
O O6 0.398859 0.050177 0.694715
O O7 0.425997 0.168783 0.456835
O O8 0.235944 0.799320 0.781127
O O9 0.469229 0.020442 0.195393
O O10 0.500000 0.000000 0.000000
O O11 0.314067 0.198389 0.126316
O O12 0.863636 0.658522 0.201516
O O13 0.172668 0.813574 0.052557
O O14 0.670481 0.810512 0.164067
O O15 0.362582 0.560737 0.902313
O O16 0.500000 0.500000 0.000000
O O17 0.319249 0.518457 0.766095
O O18 0.500000 0.500000 0.500000
#
# Coordination Sequence:
#
# PCOD9002194 Si02
#       8
#     2   2   2   2   2   2   2   2
#     4  11  23  41  65  94 124 162 209 263 311 367
#     4  10  21  36  58  90 124 158 200 244 312 363
#     4  10  21  38  63  91 118 163 211 252 310 372
#     4  11  21  38  59  91 128 157 203 258 309 367
#     4  11  21  37  62  90 124 161 206 253 308 373
#     4  11  22  41  64  92 126 169 211 256 310 376
#     4  11  21  36  60  90 122 160 201 253 305 369
#     4  11  18  34  58  87 119 158 204 250 302 364
#
# _framework density 21.498125000000002
#
# number of rings (size 3 to 8) (size 9 to 14) (size 15 to 20)
#    0.000    1.250    3.750    6.000    0.000    0.000 
#    0.000    3.125    0.000    4.500    0.000    0.000 
#    0.000    0.000    0.000    0.000    0.000    0.000 
#
# Total GULP energy -89387.144045 kJ/mol
# GULP energy per Si atom -5586.696503 kJ/mol
# Density = 2.144919 g / cm^3
# Si number density = 21.498125 Si / 1000 Ang^3
#
#
#
# Elastic Constant Matrix: (Units=GPa)
#
#
# Indices 1 2 3 4 5 6 
#
# 1 66.7572 33.9900 32.1916 -16.1980 10.9828 0.2022
# 2 33.9900 143.8518 39.1852 -34.1504 12.3929 18.7752
# 3 32.1916 39.1852 88.3331 -26.4178 3.9423 3.4437
# 4 -16.1980 -34.1504 -26.4178 32.1638 -4.1357 2.3457
# 5 10.9828 12.3929 3.9423 -4.1357 39.9371 -4.6544
# 6 0.2022 18.7752 3.4437 2.3457 -4.6544 24.5956
#
#
#
# Elastic Compliance Matrix: (Units=1/GPa)
#
#
# Indices 1 2 3 4 5 6 
#
# 1 0.020073 -0.002629 -0.005354 0.002318 -0.003742 0.001662
# 2 -0.002629 0.012119 -0.000379 0.011631 -0.003062 -0.010865
# 3 -0.005354 -0.000379 0.016819 0.011023 0.000729 -0.002934
# 4 0.002318 0.011631 0.011023 0.054626 -0.001536 -0.015941
# 5 -0.003742 -0.003062 0.000729 -0.001536 0.027679 0.007651
# 6 0.001662 -0.010865 -0.002934 -0.015941 0.007651 0.052317
#
#
# Mechanical properties :
#
#
# Convention : Reuss Voigt Hill
#
# Bulk Modulus (GPa) = 30.97231 56.63063 43.80147
# Shear Modulus (GPa) = 23.68335 32.24432 27.96383
#
# Velocity S-wave (km/s) = 3.32271 3.87701 3.61051
# Velocity P-wave (km/s) = 5.39989 6.81476 6.14816
#
# Compressibility (1/GPa) = 0.03228690
#
# Stress axis : x y z
#
# Youngs Moduli (GPa) = 49.81859 82.51402 59.45817
#
# Poissons Ratio (x) = 0.21691 0.31831
# Poissons Ratio (y) = 0.13096 0.02256
# Poissons Ratio (z) = 0.26671 0.03131
#
# Static dielectric constant tensor:
#      x y z
#    x 1.764240 -0.019570 0.015930 
#    y -0.019570 1.852760 -0.001650 
#    z 0.015930 -0.001650 1.833460 
# 
# From -- ./inp_files/336177.got.cif
#   From: 2010.05.17/outbox.cif.g08.bks.cpg/sg2_169_cif.got.tgz:336177.got - 2010.06.03 11:33:40.
