data_PCOD9002163
_publ_section_title
;
Structure prediction by ZEFSAII (Michael W. Deem and Ramdas Pophale) SiO2 
 PCOD9002163
Probable space group: P -1
;
_chemical_formula_sum "Si O2"
_cell_formula_units_Z 14
_cell_length_a 5.495011
_cell_length_b 14.479059
_cell_length_c 8.053596
_cell_angle_alpha 79.510176
_cell_angle_beta 58.452414
_cell_angle_gamma 83.136402
_cell_volume 536.712561
_symmetry_space_group_name_H-M "P -1"
_symmetry_group_IT_number 2
_symmetry_cell_setting 'triclinic'
loop_
_space_group_symop_operation_xyz
x,y,z
-x,-y,-z
loop_
_atom_site_type_symbol
_atom_site_label
_atom_site_fract_x
_atom_site_fract_y
_atom_site_fract_z
Si Si1 0.437589 0.748596 0.645717
Si Si2 0.883807 0.496143 0.825776
Si Si3 0.623753 0.022710 0.180257
Si Si4 0.550945 0.459483 0.279912
Si Si5 0.816562 0.908388 0.437135
Si Si6 0.397726 0.848150 0.144668
Si Si7 0.781893 0.716079 0.872566
O O1 0.498141 0.642733 0.594342
O O2 0.582428 0.835386 0.476266
O O3 0.614979 0.747598 0.755381
O O4 0.094920 0.758236 0.771637
O O5 0.725840 0.485802 0.710942
O O6 0.224012 0.483863 0.711433
O O7 0.729257 0.440525 0.046304
O O8 0.831031 0.604978 0.864682
O O9 0.814756 0.994411 0.279457
O O10 0.599095 0.929831 0.109644
O O11 0.313295 0.049838 0.360668
O O12 0.710129 0.109458 0.008799
O O13 0.113976 0.850990 0.354895
O O14 0.573399 0.752120 0.082317
#
# Coordination Sequence:
#
# PCOD9002163 Si02
#       7
#     2   2   2   2   2   2   2
#     4  10  21  36  58  86 120 152 192 242 290 345
#     4   8  14  27  49  79 111 147 188 229 276 337
#     4  10  24  40  58  84 114 152 204 242 294 352
#     4   8  14  27  49  79 111 147 188 229 276 337
#     4  11  23  39  61  84 116 154 198 244 298 350
#     4  11  23  39  61  84 116 154 198 244 298 350
#     4  10  21  36  58  86 120 152 192 242 290 345
#
# _framework density 26.084726
#
# number of rings (size 3 to 8) (size 9 to 14) (size 15 to 20)
#    0.000    2.286    1.429    0.857    4.000    4.571 
#    0.000    0.000    0.000    0.857    0.000    1.000 
#    0.000    0.000    0.000    0.000    0.000    0.000 
#
# Total GULP energy -78241.149593 kJ/mol
# GULP energy per Si atom -5588.653542 kJ/mol
# Density = 2.602536 g / cm^3
# Si number density = 26.084726 Si / 1000 Ang^3
#
#
#
# Elastic Constant Matrix: (Units=GPa)
#
#
# Indices 1 2 3 4 5 6 
#
# 1 180.1989 15.2925 25.6680 6.4805 -19.9055 -8.9619
# 2 15.2925 96.5858 36.5143 10.1568 -6.5137 -2.4437
# 3 25.6680 36.5143 63.5689 11.6146 -12.1678 -9.5643
# 4 6.4805 10.1568 11.6146 45.3925 -8.1876 -9.4239
# 5 -19.9055 -6.5137 -12.1678 -8.1876 42.7284 -3.8212
# 6 -8.9619 -2.4437 -9.5643 -9.4239 -3.8212 27.3132
#
#
#
# Elastic Compliance Matrix: (Units=1/GPa)
#
#
# Indices 1 2 3 4 5 6 
#
# 1 0.006175 -0.000162 -0.001688 0.000467 0.002635 0.001950
# 2 -0.000162 0.013395 -0.007825 -0.001576 -0.000764 -0.002245
# 3 -0.001688 -0.007825 0.023201 -0.001596 0.004949 0.007012
# 4 0.000467 -0.001576 -0.001596 0.025533 0.005220 0.008993
# 5 0.002635 -0.000764 0.004949 0.005220 0.027658 0.008200
# 6 0.001950 -0.002245 0.007012 0.008993 0.008200 0.043757
#
#
# Mechanical properties :
#
#
# Convention : Reuss Voigt Hill
#
# Bulk Modulus (GPa) = 42.69528 55.03371 48.86449
# Shear Modulus (GPa) = 29.96267 40.61206 35.28737
#
# Velocity S-wave (km/s) = 3.39288 3.95007 3.68203
# Velocity P-wave (km/s) = 5.63492 6.47673 6.07043
#
# Compressibility (1/GPa) = 0.02342179
#
# Stress axis : x y z
#
# Youngs Moduli (GPa) = 161.94676 74.65658 43.10121
#
# Poissons Ratio (x) = 0.01206 0.07275
# Poissons Ratio (y) = 0.02617 0.33727
# Poissons Ratio (z) = 0.27336 0.58418
#
# Static dielectric constant tensor:
#      x y z
#    x 2.123720 -0.036420 0.023560 
#    y -0.036420 2.025060 -0.037050 
#    z 0.023560 -0.037050 2.143020 
# 
# From -- ./inp_files/10233.got.cif
#   From: 2010.05.17/outbox.cif.g08.bks.cpg/sg2_6_cif.got.tgz:10233.got - 2010.06.03 11:33:40.
