data_PCOD9002948
_publ_section_title
;
Structure prediction by ZEFSAII (Michael W. Deem and Ramdas Pophale) SiO2 
 PCOD9002948
Probable space group: P -1
;
_chemical_formula_sum "Si O2"
_cell_formula_units_Z 14
_cell_length_a 5.139028
_cell_length_b 17.337417
_cell_length_c 7.447372
_cell_angle_alpha 79.404417
_cell_angle_beta 63.615934
_cell_angle_gamma 90.743693
_cell_volume 580.901066
_symmetry_space_group_name_H-M "P -1"
_symmetry_group_IT_number 2
_symmetry_cell_setting 'triclinic'
loop_
_space_group_symop_operation_xyz
x,y,z
-x,-y,-z
loop_
_atom_site_type_symbol
_atom_site_label
_atom_site_fract_x
_atom_site_fract_y
_atom_site_fract_z
Si Si1 0.840852 0.992629 0.360396
Si Si2 0.996509 0.160630 0.209019
Si Si3 0.674459 0.825167 0.518359
Si Si4 0.034983 0.679663 0.021064
Si Si5 0.787911 0.561297 0.901948
Si Si6 0.887415 0.549696 0.349061
Si Si7 0.417454 0.347470 0.389738
O O1 0.847096 0.901835 0.339640
O O2 0.500000 0.000000 0.500000
O O3 0.984273 0.070414 0.179993
O O4 0.000000 0.000000 0.500000
O O5 0.669611 0.164906 0.384580
O O6 0.032342 0.231130 0.023276
O O7 0.218938 0.174697 0.303874
O O8 0.701656 0.739236 0.468215
O O9 0.292037 0.665220 0.806334
O O10 0.773429 0.618845 0.049668
O O11 0.086136 0.633598 0.208438
O O12 0.792641 0.623276 0.710011
O O13 0.052771 0.508374 0.808323
O O14 0.500000 0.500000 0.000000
O O15 0.590359 0.584574 0.487790
O O16 0.000000 0.500000 0.500000
#
# Coordination Sequence:
#
# PCOD9002948 Si02
#       7
#     2   2   2   2   2   2   2
#     4   8  14  25  46  79 108 135 178 222 266 330
#     4   9  17  29  54  79 106 146 181 223 278 327
#     4   9  16  31  51  79 112 141 180 226 274 331
#     4  11  21  38  58  75 111 145 184 235 277 335
#     4  11  21  38  56  76 108 142 187 231 282 327
#     4  10  23  38  54  80 105 144 187 233 282 332
#     4  10  21  37  55  78 109 144 186 227 283 328
#
# _framework density 24.100489
#
# number of rings (size 3 to 8) (size 9 to 14) (size 15 to 20)
#    0.000    2.286    2.857    0.429    0.000    0.571 
#    5.143    0.000    0.000    0.857    0.000    0.000 
#    0.000   23.429    0.000    0.000    0.000    3.429 
#
# Total GULP energy -77939.972850 kJ/mol
# GULP energy per Si atom -5567.140918 kJ/mol
# Density = 2.404564 g / cm^3
# Si number density = 24.100489 Si / 1000 Ang^3
#
#
#
# Elastic Constant Matrix: (Units=GPa)
#
#
# Indices 1 2 3 4 5 6 
#
# 1 78.7358 1.4691 5.7043 4.2448 -12.0198 -2.7612
# 2 1.4691 173.2447 44.5923 -53.7087 -3.6808 -4.6789
# 3 5.7043 44.5923 98.8028 -18.7536 6.1305 -6.2070
# 4 4.2448 -53.7087 -18.7536 48.6422 -5.4084 1.2152
# 5 -12.0198 -3.6808 6.1305 -5.4084 25.6057 -4.6595
# 6 -2.7612 -4.6789 -6.2070 1.2152 -4.6595 27.1535
#
#
#
# Elastic Compliance Matrix: (Units=1/GPa)
#
#
# Indices 1 2 3 4 5 6 
#
# 1 0.014022 0.000206 -0.001344 -0.000773 0.007212 0.002426
# 2 0.000206 0.009752 -0.002673 0.010190 0.004548 0.001415
# 3 -0.001344 -0.002673 0.011966 0.001374 -0.003316 0.001508
# 4 -0.000773 0.010190 0.001374 0.033265 0.008145 0.001900
# 5 0.007212 0.004548 -0.003316 0.008145 0.047151 0.008486
# 6 0.002426 0.001415 0.001508 0.001900 0.008486 0.039034
#
#
# Mechanical properties :
#
#
# Convention : Reuss Voigt Hill
#
# Bulk Modulus (GPa) = 35.56314 50.47941 43.02127
# Shear Modulus (GPa) = 29.03856 40.21481 34.62668
#
# Velocity S-wave (km/s) = 3.47493 4.08932 3.79458
# Velocity P-wave (km/s) = 5.55773 6.57933 6.08999
#
# Compressibility (1/GPa) = 0.02811900
#
# Stress axis : x y z
#
# Youngs Moduli (GPa) = 71.31658 102.54029 83.56927
#
# Poissons Ratio (x) = -0.02115 0.11235
# Poissons Ratio (y) = -0.01471 0.22334
# Poissons Ratio (z) = 0.09588 0.27404
#
# Static dielectric constant tensor:
#      x y z
#    x 1.999920 0.018920 0.038170 
#    y 0.018920 1.990740 -0.074870 
#    z 0.038170 -0.074870 2.085340 
# 
# From -- ./inp_files/50777.got.cif
#   From: 2010.05.17/outbox.cif.g08.bks.cpg/sg2_26_cif.got.tgz:50777.got - 2010.06.03 11:33:40.
