data_PCOD9002262
_publ_section_title
;
Structure prediction by ZEFSAII (Michael W. Deem and Ramdas Pophale) SiO2 
 PCOD9002262
Probable space group: P -1
;
_chemical_formula_sum "Si O2"
_cell_formula_units_Z 16
_cell_length_a 12.152837
_cell_length_b 10.310699
_cell_length_c 7.402993
_cell_angle_alpha 67.488207
_cell_angle_beta 114.158667
_cell_angle_gamma 130.370733
_cell_volume 635.508358
_symmetry_space_group_name_H-M "P -1"
_symmetry_group_IT_number 2
_symmetry_cell_setting 'triclinic'
loop_
_space_group_symop_operation_xyz
x,y,z
-x,-y,-z
loop_
_atom_site_type_symbol
_atom_site_label
_atom_site_fract_x
_atom_site_fract_y
_atom_site_fract_z
Si Si1 0.342821 0.991040 0.232225
Si Si2 0.515490 0.140159 0.800052
Si Si3 0.032437 0.694593 0.112260
Si Si4 0.444793 0.633714 0.014878
Si Si5 0.075459 0.392824 0.302173
Si Si6 0.027484 0.100528 0.785537
Si Si7 0.693095 0.596075 0.288195
Si Si8 0.206732 0.969727 0.542327
O O1 0.421683 0.892750 0.316560
O O2 0.282261 0.971298 0.403436
O O3 0.192749 0.871010 0.079419
O O4 0.444551 0.186844 0.121434
O O5 0.613326 0.315497 0.882867
O O6 0.352958 0.094280 0.688689
O O7 0.500000 0.000000 0.000000
O O8 0.929011 0.640778 0.897204
O O9 0.059509 0.548523 0.240250
O O10 0.982845 0.744886 0.230882
O O11 0.531528 0.560227 0.201941
O O12 0.326972 0.505550 0.856330
O O13 0.918695 0.218315 0.360417
O O14 0.221868 0.432985 0.482832
O O15 0.191068 0.198548 0.771220
O O16 0.899815 0.977000 0.623818
O O17 0.000000 0.000000 0.000000
#
# Coordination Sequence:
#
# PCOD9002262 Si02
#       8
#     2   2   2   2   2   2   2   2
#     4  10  21  38  61  87 121 157 193 244 297 346
#     4  10  21  36  59  87 119 155 194 243 289 341
#     4  10  22  39  61  89 119 149 196 249 292 351
#     4  10  22  40  60  87 121 156 202 241 289 355
#     4  10  22  39  61  89 117 152 197 246 298 345
#     4  10  22  39  61  87 120 156 192 241 298 350
#     4  10  22  40  62  86 119 161 195 242 295 347
#     4  10  21  37  60  90 119 154 199 240 293 357
#
# _framework density 25.176697000000001
#
# number of rings (size 3 to 8) (size 9 to 14) (size 15 to 20)
#    0.000    2.000    0.000    3.375    0.000   14.500 
#    0.000    3.125    0.000    4.500    0.000    1.750 
#    0.000    1.000    0.000    0.000    0.000    0.000 
#
# Total GULP energy -89294.993479 kJ/mol
# GULP energy per Si atom -5580.937092 kJ/mol
# Density = 2.511939 g / cm^3
# Si number density = 25.176697 Si / 1000 Ang^3
#
#
#
# Elastic Constant Matrix: (Units=GPa)
#
#
# Indices 1 2 3 4 5 6 
#
# 1 72.2120 13.2482 17.4610 15.1078 -3.1689 -3.1841
# 2 13.2482 65.2846 34.4431 17.4043 15.8349 11.3660
# 3 17.4610 34.4431 135.7810 28.4480 16.8417 4.9946
# 4 15.1078 17.4043 28.4480 49.0330 10.0291 2.9168
# 5 -3.1689 15.8349 16.8417 10.0291 38.2697 7.7262
# 6 -3.1841 11.3660 4.9946 2.9168 7.7262 44.5448
#
#
#
# Elastic Compliance Matrix: (Units=1/GPa)
#
#
# Indices 1 2 3 4 5 6 
#
# 1 0.015673 -0.002718 -0.000965 -0.004137 0.003615 0.001566
# 2 -0.002718 0.020512 -0.003361 -0.003110 -0.005637 -0.003870
# 3 -0.000965 -0.003361 0.009309 -0.003536 -0.001922 0.000310
# 4 -0.004137 -0.003110 -0.003536 0.025691 -0.004221 -0.000056
# 5 0.003615 -0.005637 -0.001922 -0.004221 0.031371 -0.003253
# 6 0.001566 -0.003870 0.000310 -0.000056 -0.003253 0.024082
#
#
# Mechanical properties :
#
#
# Convention : Reuss Voigt Hill
#
# Bulk Modulus (GPa) = 31.83968 44.84247 38.34108
# Shear Modulus (GPa) = 33.06972 40.24453 36.65712
#
# Velocity S-wave (km/s) = 3.62816 4.00244 3.81989
# Velocity P-wave (km/s) = 5.49776 6.26172 5.89214
#
# Compressibility (1/GPa) = 0.03140735
#
# Stress axis : x y z
#
# Youngs Moduli (GPa) = 63.80237 48.75117 107.41975
#
# Poissons Ratio (x) = 0.13250 0.10370
# Poissons Ratio (y) = 0.17341 0.36099
# Poissons Ratio (z) = 0.06159 0.16383
#
# Static dielectric constant tensor:
#      x y z
#    x 2.094760 -0.013510 0.015420 
#    y -0.013510 1.992600 0.000890 
#    z 0.015420 0.000890 2.057040 
# 
# From -- ./inp_files/304881.got.cif
#   From: 2010.05.17/outbox.cif.g08.bks.cpg/sg2_153_cif.got.tgz:304881.got - 2010.06.03 11:33:40.
