data_PCOD9002146
_publ_section_title
;
Structure prediction by ZEFSAII (Michael W. Deem and Ramdas Pophale) SiO2 
 PCOD9002146
Probable space group: P -1
;
_chemical_formula_sum "Si O2"
_cell_formula_units_Z 16
_cell_length_a 22.121269
_cell_length_b 7.064427
_cell_length_c 5.282772
_cell_angle_alpha 104.693628
_cell_angle_beta 100.053605
_cell_angle_gamma 48.040640
_cell_volume 593.811288
_symmetry_space_group_name_H-M "P -1"
_symmetry_group_IT_number 2
_symmetry_cell_setting 'triclinic'
loop_
_space_group_symop_operation_xyz
x,y,z
-x,-y,-z
loop_
_atom_site_type_symbol
_atom_site_label
_atom_site_fract_x
_atom_site_fract_y
_atom_site_fract_z
Si Si1 0.297575 0.860749 0.259615
Si Si2 0.051126 0.627773 0.821682
Si Si3 0.608613 0.752435 0.532473
Si Si4 0.442068 0.353722 0.025145
Si Si5 0.389740 0.902505 0.694090
Si Si6 0.779843 0.199281 0.440755
Si Si7 0.771809 0.775801 0.052046
Si Si8 0.957028 0.833930 0.323919
O O1 0.366349 0.658519 0.043859
O O2 0.232130 0.836949 0.285024
O O3 0.357894 0.766248 0.510024
O O4 0.245805 0.154523 0.233933
O O5 0.143508 0.495829 0.906891
O O6 0.049918 0.390718 0.746078
O O7 0.018730 0.756504 0.568231
O O8 0.991545 0.812833 0.067689
O O9 0.586299 0.733092 0.795225
O O10 0.600163 0.992991 0.519158
O O11 0.701736 0.497473 0.447771
O O12 0.554549 0.759101 0.279128
O O13 0.526555 0.269150 0.151153
O O14 0.310470 0.143783 0.869193
O O15 0.777265 0.992400 0.226139
O O16 0.867294 0.100710 0.408435
#
# Coordination Sequence:
#
# PCOD9002146 Si02
#       8
#     2   2   2   2   2   2   2   2
#     4  10  22  38  59  88 121 158 194 246 294 349
#     4   9  19  30  51  84 115 144 186 241 285 338
#     4  11  24  42  62  88 118 157 199 247 290 347
#     4  11  24  43  62  86 119 157 202 246 289 346
#     4  11  25  38  61  88 118 160 198 243 296 352
#     4   9  20  37  58  86 117 155 194 241 291 348
#     4  10  21  36  58  84 122 153 192 241 298 347
#     4   9  18  30  54  83 112 145 190 236 287 337
#
# _framework density 26.944589000000001
#
# number of rings (size 3 to 8) (size 9 to 14) (size 15 to 20)
#    0.000    2.000    1.250    1.125   14.000    0.500 
#    0.000    0.000    0.000    1.500    0.000    0.000 
#    0.000    0.000    0.000    0.000    0.000    0.000 
#
# Total GULP energy -89501.490517 kJ/mol
# GULP energy per Si atom -5593.843157 kJ/mol
# Density = 2.688326 g / cm^3
# Si number density = 26.944589 Si / 1000 Ang^3
#
#
#
# Elastic Constant Matrix: (Units=GPa)
#
#
# Indices 1 2 3 4 5 6 
#
# 1 101.6323 57.7446 43.1288 -9.1217 -14.4115 -39.5931
# 2 57.7446 119.4480 30.0463 -19.0171 -16.1108 -48.5886
# 3 43.1288 30.0463 111.4962 -23.5770 -16.9153 -17.6285
# 4 -9.1217 -19.0171 -23.5770 39.8627 3.0129 2.8196
# 5 -14.4115 -16.1108 -16.9153 3.0129 42.2110 3.7981
# 6 -39.5931 -48.5886 -17.6285 2.8196 3.7981 59.1576
#
#
#
# Elastic Compliance Matrix: (Units=1/GPa)
#
#
# Indices 1 2 3 4 5 6 
#
# 1 0.016765 -0.004473 -0.004323 -0.001432 0.001828 0.006209
# 2 -0.004473 0.015657 0.000825 0.005991 0.003488 0.009602
# 3 -0.004323 0.000825 0.012431 0.006441 0.003273 0.000971
# 4 -0.001432 0.005991 0.006441 0.030988 0.001781 0.004290
# 5 0.001828 0.003488 0.003273 0.001781 0.026536 0.003275
# 6 0.006209 0.009602 0.000971 0.004290 0.003275 0.028821
#
#
# Mechanical properties :
#
#
# Convention : Reuss Voigt Hill
#
# Bulk Modulus (GPa) = 34.58924 66.04620 50.31772
# Shear Modulus (GPa) = 31.89241 41.69005 36.79123
#
# Velocity S-wave (km/s) = 3.44412 3.93778 3.69920
# Velocity P-wave (km/s) = 5.35547 6.72606 6.07951
#
# Compressibility (1/GPa) = 0.02891072
#
# Stress axis : x y z
#
# Youngs Moduli (GPa) = 59.64769 63.86974 80.44366
#
# Poissons Ratio (x) = 0.28568 0.34780
# Poissons Ratio (y) = 0.26679 -0.06638
# Poissons Ratio (z) = 0.25789 -0.05270
#
# Static dielectric constant tensor:
#      x y z
#    x 2.165660 0.107370 0.016540 
#    y 0.107370 2.131640 0.053690 
#    z 0.016540 0.053690 2.262020 
# 
# From -- ./inp_files/51335.got.cif
#   From: 2010.05.17/outbox.cif.g08.bks.cpg/sg2_26_cif.got.tgz:51335.got - 2010.06.03 11:33:40.
