data_PCOD9002388
_publ_section_title
;
Structure prediction by ZEFSAII (Michael W. Deem and Ramdas Pophale) SiO2 
 PCOD9002388
Probable space group: P -1
;
_chemical_formula_sum "Si O2"
_cell_formula_units_Z 16
_cell_length_a 5.051974
_cell_length_b 17.333908
_cell_length_c 11.173315
_cell_angle_alpha 111.157889
_cell_angle_beta 67.939124
_cell_angle_gamma 73.108139
_cell_volume 735.756723
_symmetry_space_group_name_H-M "P -1"
_symmetry_group_IT_number 2
_symmetry_cell_setting 'triclinic'
loop_
_space_group_symop_operation_xyz
x,y,z
-x,-y,-z
loop_
_atom_site_type_symbol
_atom_site_label
_atom_site_fract_x
_atom_site_fract_y
_atom_site_fract_z
Si Si1 0.701454 0.609073 0.289700
Si Si2 0.583773 0.878126 0.531032
Si Si3 0.249295 0.779288 0.643867
Si Si4 0.194411 0.826926 0.128774
Si Si5 0.663298 0.753682 0.789025
Si Si6 0.874070 0.467073 0.388161
Si Si7 0.172733 0.685750 0.234204
Si Si8 0.443741 0.932203 0.308527
O O1 0.459313 0.692272 0.469048
O O2 0.880334 0.517264 0.291659
O O3 0.469286 0.612084 0.224411
O O4 0.953579 0.639196 0.209009
O O5 0.312067 0.863610 0.637275
O O6 0.461563 0.905810 0.430744
O O7 0.922526 0.778115 0.407959
O O8 0.646686 0.958818 0.620435
O O9 0.425934 0.750860 0.726325
O O10 0.881811 0.797978 0.726564
O O11 0.276509 0.731632 0.135378
O O12 0.219426 0.900202 0.257459
O O13 0.823709 0.870308 0.169022
O O14 0.445370 0.807258 0.969313
O O15 0.919926 0.645806 0.719445
O O16 0.500000 0.500000 0.500000
O O17 0.000000 0.500000 0.500000
#
# Coordination Sequence:
#
# PCOD9002388 Si02
#       8
#     2   2   2   2   2   2   2   2
#     4  11  20  36  61  90 116 142 199 250 299 325
#     4   9  21  38  65  92 116 145 202 257 292 325
#     4  11  21  36  60  88 117 150 196 243 297 337
#     4  11  23  41  58  82 124 164 194 227 299 361
#     4  12  24  40  58  85 121 163 191 233 291 368
#     4  12  22  39  60  90 119 150 195 246 291 341
#     4  10  21  36  60  89 115 152 190 249 290 346
#     4  10  22  40  63  89 115 155 198 247 292 344
#
# _framework density 21.746320999999998
#
# number of rings (size 3 to 8) (size 9 to 14) (size 15 to 20)
#    0.000    1.250    2.500    5.250    0.000    8.500 
#    0.000    5.000    0.000    0.000    0.000    0.000 
#    0.000    0.000    0.000    0.000    0.000    0.000 
#
# Total GULP energy -89547.816839 kJ/mol
# GULP energy per Si atom -5596.738552 kJ/mol
# Density = 2.169682 g / cm^3
# Si number density = 21.746321 Si / 1000 Ang^3
#
#
#
# Elastic Constant Matrix: (Units=GPa)
#
#
# Indices 1 2 3 4 5 6 
#
# 1 95.7929 -4.7848 7.1936 -4.9426 -11.5810 -1.0344
# 2 -4.7848 69.6291 -5.7711 -4.3070 -12.0139 6.7735
# 3 7.1936 -5.7711 43.7033 -11.7718 -15.0508 6.8697
# 4 -4.9426 -4.3070 -11.7718 18.8034 4.7302 -8.1954
# 5 -11.5810 -12.0139 -15.0508 4.7302 16.4104 -8.2413
# 6 -1.0344 6.7735 6.8697 -8.1954 -8.2413 32.1343
#
#
#
# Elastic Compliance Matrix: (Units=1/GPa)
#
#
# Indices 1 2 3 4 5 6 
#
# 1 0.012663 0.004195 0.005130 0.004936 0.017368 0.004140
# 2 0.004195 0.021513 0.014756 0.008586 0.031076 0.002606
# 3 0.005130 0.014756 0.048507 0.024229 0.055490 0.007095
# 4 0.004936 0.008586 0.024229 0.074211 0.019139 0.017004
# 5 0.017368 0.031076 0.055490 0.019139 0.154734 0.026711
# 6 0.004140 0.002606 0.007095 0.017004 0.026711 0.040374
#
#
# Mechanical properties :
#
#
# Convention : Reuss Voigt Hill
#
# Bulk Modulus (GPa) = 7.64281 22.48896 15.06589
# Shear Modulus (GPa) = 14.39036 27.63546 21.01291
#
# Velocity S-wave (km/s) = 2.57522 3.56871 3.11187
# Velocity P-wave (km/s) = 3.51632 5.22923 4.45586
#
# Compressibility (1/GPa) = 0.13084188
#
# Stress axis : x y z
#
# Youngs Moduli (GPa) = 78.97269 46.48434 20.61575
#
# Poissons Ratio (x) = -0.19498 -0.10575
# Poissons Ratio (y) = -0.33126 -0.30420
# Poissons Ratio (z) = -0.40511 -0.68591
#
# Static dielectric constant tensor:
#      x y z
#    x 1.763560 -0.011730 -0.019460 
#    y -0.011730 1.813120 -0.002250 
#    z -0.019460 -0.002250 1.771850 
# 
# From -- ./inp_files/368667.got.cif
#   From: 2010.05.17/outbox.cif.g08.bks.cpg/sg2_185_cif.got.tgz:368667.got - 2010.06.03 11:33:40.
