data_PCOD9002351
_publ_section_title
;
Structure prediction by ZEFSAII (Michael W. Deem and Ramdas Pophale) SiO2 
 PCOD9002351
Probable space group: P -1
;
_chemical_formula_sum "Si O2"
_cell_formula_units_Z 16
_cell_length_a 11.014227
_cell_length_b 11.714206
_cell_length_c 11.566775
_cell_angle_alpha 81.318192
_cell_angle_beta 131.820410
_cell_angle_gamma 134.295363
_cell_volume 642.717242
_symmetry_space_group_name_H-M "P -1"
_symmetry_group_IT_number 2
_symmetry_cell_setting 'triclinic'
loop_
_space_group_symop_operation_xyz
x,y,z
-x,-y,-z
loop_
_atom_site_type_symbol
_atom_site_label
_atom_site_fract_x
_atom_site_fract_y
_atom_site_fract_z
Si Si1 0.516111 0.715792 0.485643
Si Si2 0.359713 0.696633 0.869874
Si Si3 0.643634 0.204055 0.919309
Si Si4 0.140652 0.912996 0.475115
Si Si5 0.250693 0.748332 0.440415
Si Si6 0.321000 0.149508 0.190267
Si Si7 0.175306 0.436507 0.116866
Si Si8 0.474401 0.423744 0.873824
O O1 0.314415 0.715792 0.366939
O O2 0.560477 0.706528 0.647982
O O3 0.373311 0.543785 0.337751
O O4 0.790448 0.925413 0.567266
O O5 0.532355 0.770612 0.852834
O O6 0.038296 0.479589 0.669882
O O7 0.345984 0.796810 0.933977
O O8 0.508093 0.696858 0.054927
O O9 0.757687 0.395699 0.916450
O O10 0.349856 0.016986 0.698436
O O11 0.867007 0.245854 0.997686
O O12 0.184490 0.841779 0.413829
O O13 0.824950 0.723093 0.345892
O O14 0.545294 0.893370 0.668931
O O15 0.000000 0.000000 0.000000
O O16 0.273260 0.411019 0.078994
O O17 0.500000 0.500000 0.000000
#
# Coordination Sequence:
#
# PCOD9002351 Si02
#       8
#     2   2   2   2   2   2   2   2
#     4   9  20  35  62  83 115 149 199 237 279 343
#     4  11  20  40  61  83 115 159 198 229 283 351
#     4   9  19  34  59  82 115 154 193 238 281 345
#     4  11  21  36  55  92 119 148 185 245 298 334
#     4  10  21  36  60  85 113 154 193 236 287 341
#     4  10  22  37  58  88 113 152 198 238 279 340
#     4   9  18  35  55  84 114 151 194 235 290 342
#     4  11  23  34  56  88 123 147 183 245 296 341
#
# _framework density 24.894306
#
# number of rings (size 3 to 8) (size 9 to 14) (size 15 to 20)
#    0.750    1.250    2.500    1.500    1.750    6.500 
#    0.000    0.625    0.000    0.750    0.000    0.000 
#    0.000    0.000    0.000    0.000    0.000    0.000 
#
# Total GULP energy -89086.485234 kJ/mol
# GULP energy per Si atom -5567.905327 kJ/mol
# Density = 2.483765 g / cm^3
# Si number density = 24.894306 Si / 1000 Ang^3
#
#
#
# Elastic Constant Matrix: (Units=GPa)
#
#
# Indices 1 2 3 4 5 6 
#
# 1 126.7175 35.3895 70.3785 8.3887 -9.0462 56.2791
# 2 35.3895 38.6300 30.5327 -2.7007 -7.0451 25.1833
# 3 70.3785 30.5327 159.2668 9.5299 -5.2289 33.7562
# 4 8.3887 -2.7007 9.5299 27.8055 13.3493 -2.3208
# 5 -9.0462 -7.0451 -5.2289 13.3493 50.8767 -5.4259
# 6 56.2791 25.1833 33.7562 -2.3208 -5.4259 51.9477
#
#
#
# Elastic Compliance Matrix: (Units=1/GPa)
#
#
# Indices 1 2 3 4 5 6 
#
# 1 0.018921 -0.003860 -0.003624 -0.007491 0.002682 -0.016327
# 2 -0.003860 0.041615 -0.003664 0.004325 0.002158 -0.013193
# 3 -0.003624 -0.003664 0.008754 -0.002452 0.000385 -0.000055
# 4 -0.007491 0.004325 -0.002452 0.046027 -0.012166 0.008398
# 5 0.002682 0.002158 0.000385 -0.012166 0.023418 -0.002299
# 6 -0.016327 -0.013193 -0.000055 0.008398 -0.002299 0.043505
#
#
# Mechanical properties :
#
#
# Convention : Reuss Voigt Hill
#
# Bulk Modulus (GPa) = 21.27975 66.35729 43.81852
# Shear Modulus (GPa) = 22.70653 38.68024 30.69338
#
# Velocity S-wave (km/s) = 3.02340 3.94608 3.51515
# Velocity P-wave (km/s) = 4.55572 6.89025 5.84081
#
# Compressibility (1/GPa) = 0.04699303
#
# Stress axis : x y z
#
# Youngs Moduli (GPa) = 52.85050 24.02955 114.23680
#
# Poissons Ratio (x) = 0.09276 0.41403
# Poissons Ratio (y) = 0.20403 0.41856
# Poissons Ratio (z) = 0.19155 0.08804
#
# Static dielectric constant tensor:
#      x y z
#    x 0.311890 1.097670 -0.416330 
#    y 1.097670 1.351340 0.212830 
#    z -0.416330 0.212830 1.873310 
# 
# From -- ./inp_files/434068.got.cif
#   From: 2010.05.17/outbox.cif.g08.bks.cpg/sg2_218_cif.got.tgz:434068.got - 2010.06.03 11:33:40.
