data_PCOD9002219
_publ_section_title
;
Structure prediction by ZEFSAII (Michael W. Deem and Ramdas Pophale) SiO2 
 PCOD9002219
Probable space group: P -1
;
_chemical_formula_sum "Si O2"
_cell_formula_units_Z 16
_cell_length_a 17.504969
_cell_length_b 13.794646
_cell_length_c 11.655465
_cell_angle_alpha 63.770368
_cell_angle_beta 150.803622
_cell_angle_gamma 137.743073
_cell_volume 722.679588
_symmetry_space_group_name_H-M "P -1"
_symmetry_group_IT_number 2
_symmetry_cell_setting 'triclinic'
loop_
_space_group_symop_operation_xyz
x,y,z
-x,-y,-z
loop_
_atom_site_type_symbol
_atom_site_label
_atom_site_fract_x
_atom_site_fract_y
_atom_site_fract_z
Si Si1 0.242011 0.408007 0.763049
Si Si2 0.039913 0.289741 0.322272
Si Si3 0.032593 0.053583 0.315258
Si Si4 0.191189 0.621587 0.975213
Si Si5 0.218806 0.635879 0.614882
Si Si6 0.433858 0.088669 0.893907
Si Si7 0.404963 0.324475 0.447874
Si Si8 0.658687 0.698205 0.880384
O O1 0.021143 0.271838 0.446680
O O2 0.331342 0.579288 0.797605
O O3 0.500000 0.500000 0.000000
O O4 0.185591 0.320116 0.855275
O O5 0.999013 0.148091 0.289725
O O6 0.344788 0.494803 0.583603
O O7 0.867266 0.301831 0.068935
O O8 0.189043 0.041342 0.589793
O O9 0.207264 0.181380 0.365429
O O10 0.757405 0.849445 0.012790
O O11 0.922933 0.428838 0.659470
O O12 0.380958 0.755367 0.046107
O O13 0.340905 0.613284 0.246366
O O14 0.000000 0.500000 0.500000
O O15 0.443864 0.836990 0.855787
O O16 0.500000 0.000000 0.000000
O O17 0.500000 0.500000 0.500000
O O18 0.275309 0.244170 0.194600
#
# Coordination Sequence:
#
# PCOD9002219 Si02
#       8
#     2   2   2   2   2   2   2   2
#     4   9  19  35  59  88 119 159 197 252 307 380
#     4  10  21  44  63  93 131 164 209 262 326 380
#     4  11  24  41  66  96 127 166 218 261 312 384
#     4   9  22  40  61  90 127 162 214 261 310 382
#     4   9  18  33  58  81 119 157 205 246 311 362
#     4  10  21  36  58  94 129 163 206 267 317 369
#     4  11  23  43  68  90 124 175 220 260 309 370
#     4  11  23  39  68  91 127 167 217 258 317 367
#
# _framework density 22.139827
#
# number of rings (size 3 to 8) (size 9 to 14) (size 15 to 20)
#    0.000    2.000    1.250    1.875    8.750    1.000 
#    6.750    0.625    0.000    0.000    0.000    0.000 
#    0.000    0.000    0.000    0.000    0.000    0.000 
#
# Total GULP energy -89128.350955 kJ/mol
# GULP energy per Si atom -5570.521935 kJ/mol
# Density = 2.208944 g / cm^3
# Si number density = 22.139827 Si / 1000 Ang^3
#
#
#
# Elastic Constant Matrix: (Units=GPa)
#
#
# Indices 1 2 3 4 5 6 
#
# 1 75.6346 44.0670 36.1730 -8.3906 4.8150 -24.6134
# 2 44.0670 140.4108 58.8481 -4.1268 -12.0590 -36.2776
# 3 36.1730 58.8481 83.4347 -13.6899 -11.9111 -26.0559
# 4 -8.3906 -4.1268 -13.6899 35.6941 -1.0746 -7.5097
# 5 4.8150 -12.0590 -11.9111 -1.0746 34.7901 -1.4763
# 6 -24.6134 -36.2776 -26.0559 -7.5097 -1.4763 57.6705
#
#
#
# Elastic Compliance Matrix: (Units=1/GPa)
#
#
# Indices 1 2 3 4 5 6 
#
# 1 0.019653 -0.003283 -0.005149 0.002998 -0.005348 0.004250
# 2 -0.003283 0.011479 -0.005341 -0.000699 0.002727 0.003385
# 3 -0.005149 -0.005341 0.022039 0.008015 0.006893 0.005620
# 4 0.002998 -0.000699 0.008015 0.033700 0.003507 0.008939
# 5 -0.005348 0.002727 0.006893 0.003507 0.033061 0.003850
# 6 0.004250 0.003385 0.005620 0.008939 0.003850 0.025085
#
#
# Mechanical properties :
#
#
# Convention : Reuss Voigt Hill
#
# Bulk Modulus (GPa) = 39.02553 64.18403 51.60478
# Shear Modulus (GPa) = 27.60807 36.32373 31.96590
#
# Velocity S-wave (km/s) = 3.53510 4.05489 3.80388
# Velocity P-wave (km/s) = 5.85898 7.13975 6.53084
#
# Compressibility (1/GPa) = 0.02562425
#
# Stress axis : x y z
#
# Youngs Moduli (GPa) = 50.88285 87.11358 45.37320
#
# Poissons Ratio (x) = 0.28599 0.23364
# Poissons Ratio (y) = 0.16705 0.24236
# Poissons Ratio (z) = 0.26201 0.46531
#
# Static dielectric constant tensor:
#      x y z
#    x 1.570050 -0.539600 -0.181140 
#    y -0.539600 0.661900 -0.386820 
#    z -0.181140 -0.386820 1.768200 
# 
# From -- ./inp_files/464568.got.cif
#   From: 2010.05.17/outbox.cif.g08.bks.cpg/sg2_233_cif.got.tgz:464568.got - 2010.06.03 11:33:40.
