data_PCOD9002310
_publ_section_title
;
Structure prediction by ZEFSAII (Michael W. Deem and Ramdas Pophale) SiO2 
 PCOD9002310
Probable space group: P -1
;
_chemical_formula_sum "Si O2"
_cell_formula_units_Z 16
_cell_length_a 9.557194
_cell_length_b 5.729026
_cell_length_c 18.117564
_cell_angle_alpha 57.625370
_cell_angle_beta 114.342687
_cell_angle_gamma 129.820734
_cell_volume 639.797145
_symmetry_space_group_name_H-M "P -1"
_symmetry_group_IT_number 2
_symmetry_cell_setting 'triclinic'
loop_
_space_group_symop_operation_xyz
x,y,z
-x,-y,-z
loop_
_atom_site_type_symbol
_atom_site_label
_atom_site_fract_x
_atom_site_fract_y
_atom_site_fract_z
Si Si1 0.925924 0.975105 0.113939
Si Si2 0.314926 0.807928 0.540785
Si Si3 0.554195 0.726592 0.121518
Si Si4 0.278364 0.735632 0.171772
Si Si5 0.002888 0.931245 0.427286
Si Si6 0.421389 0.889806 0.720981
Si Si7 0.951671 0.400453 0.242107
Si Si8 0.752609 0.653671 0.980025
O O1 0.765763 0.006813 0.107228
O O2 0.990927 0.764480 0.208617
O O3 0.819843 0.704497 0.069275
O O4 0.090977 0.284654 0.054661
O O5 0.188096 0.407387 0.578567
O O6 0.367412 0.901011 0.623093
O O7 0.175369 0.897124 0.461506
O O8 0.500000 0.000000 0.500000
O O9 0.413745 0.726564 0.146476
O O10 0.570660 0.429861 0.206403
O O11 0.446535 0.649401 0.033294
O O12 0.068948 0.439083 0.187953
O O13 0.382672 0.811386 0.259961
O O14 0.262558 0.036290 0.093757
O O15 0.000000 0.000000 0.500000
O O16 0.025384 0.243172 0.339853
O O17 0.265519 0.844661 0.751379
#
# Coordination Sequence:
#
# PCOD9002310 Si02
#       8
#     2   2   2   2   2   2   2   2
#     4   9  19  39  65  86 129 169 202 263 312 374
#     4  11  27  44  68  97 126 166 212 266 324 382
#     4  10  21  36  59  92 122 162 210 259 309 367
#     4  10  23  38  63  94 124 166 213 261 309 377
#     4  11  25  45  66  96 129 166 212 265 318 384
#     4  10  23  41  60  90 126 163 208 256 318 378
#     4  10  22  42  63  88 129 167 206 260 317 371
#     4   9  19  40  60  89 128 165 209 254 319 368
#
# _framework density 25.007926999999999
#
# number of rings (size 3 to 8) (size 9 to 14) (size 15 to 20)
#    0.000    2.000    1.250    0.375    5.250    2.000 
#    4.500    5.625    0.000    0.000    0.000    0.000 
#    0.000    0.000    0.000    0.000    0.000    0.000 
#
# Total GULP energy -89417.056682 kJ/mol
# GULP energy per Si atom -5588.566043 kJ/mol
# Density = 2.495101 g / cm^3
# Si number density = 25.007927 Si / 1000 Ang^3
#
#
#
# Elastic Constant Matrix: (Units=GPa)
#
#
# Indices 1 2 3 4 5 6 
#
# 1 215.2831 41.6246 41.1615 -10.5294 -16.6909 39.3542
# 2 41.6246 98.4572 40.2126 16.9162 -3.4867 43.0788
# 3 41.1615 40.2126 106.0471 -0.1407 1.1763 16.5501
# 4 -10.5294 16.9162 -0.1407 34.5765 -2.7608 -0.3899
# 5 -16.6909 -3.4867 1.1763 -2.7608 40.2821 -8.6086
# 6 39.3542 43.0788 16.5501 -0.3899 -8.6086 38.3311
#
#
#
# Elastic Compliance Matrix: (Units=1/GPa)
#
#
# Indices 1 2 3 4 5 6 
#
# 1 0.006120 0.000188 -0.001615 0.001829 0.001565 -0.005428
# 2 0.000188 0.028189 -0.005963 -0.014488 -0.004825 -0.030530
# 3 -0.001615 -0.005963 0.011843 0.002453 -0.000697 0.003115
# 4 0.001829 -0.014488 0.002453 0.037156 0.005159 0.014882
# 5 0.001565 -0.004825 -0.000697 0.005159 0.027648 0.010379
# 6 -0.005428 -0.030530 0.003115 0.014882 0.010379 0.067110
#
#
# Mechanical properties :
#
#
# Convention : Reuss Voigt Hill
#
# Bulk Modulus (GPa) = 31.87516 73.97609 52.92563
# Shear Modulus (GPa) = 24.59373 42.42384 33.50878
#
# Velocity S-wave (km/s) = 3.13938 4.12323 3.66447
# Velocity P-wave (km/s) = 5.09064 7.23279 6.25412
#
# Compressibility (1/GPa) = 0.03137239
#
# Stress axis : x y z
#
# Youngs Moduli (GPa) = 163.38724 35.47467 84.44056
#
# Poissons Ratio (x) = -0.00667 0.13635
# Poissons Ratio (y) = -0.03073 0.50354
# Poissons Ratio (z) = 0.26383 0.21154
#
# Static dielectric constant tensor:
#      x y z
#    x 1.993100 -0.043830 0.025020 
#    y -0.043830 2.047420 0.024180 
#    z 0.025020 0.024180 1.896670 
# 
# From -- ./inp_files/585554.got.cif
#   From: 2010.05.17/outbox.cif.g08.bks.cpg/sg2_293_cif.got.tgz:585554.got - 2010.06.03 11:33:40.
