data_PCOD9002256
_publ_section_title
;
Structure prediction by ZEFSAII (Michael W. Deem and Ramdas Pophale) SiO2 
 PCOD9002256
Probable space group: P -1
;
_chemical_formula_sum "Si O2"
_cell_formula_units_Z 12
_cell_length_a 16.271525
_cell_length_b 5.408290
_cell_length_c 16.686044
_cell_angle_alpha 114.489981
_cell_angle_beta 24.491588
_cell_angle_gamma 121.434979
_cell_volume 511.848243
_symmetry_space_group_name_H-M "P -1"
_symmetry_group_IT_number 2
_symmetry_cell_setting 'triclinic'
loop_
_space_group_symop_operation_xyz
x,y,z
-x,-y,-z
loop_
_atom_site_type_symbol
_atom_site_label
_atom_site_fract_x
_atom_site_fract_y
_atom_site_fract_z
Si Si1 0.656914 0.337700 0.911427
Si Si2 0.103563 0.116113 0.540753
Si Si3 0.240741 0.439300 0.309552
Si Si4 0.913759 0.408445 0.855387
Si Si5 0.614058 0.178294 0.500786
Si Si6 0.491831 0.235296 0.305473
O O1 0.791954 0.386796 0.715770
O O2 0.802109 0.425067 0.872488
O O3 0.494527 0.506680 0.086997
O O4 0.500000 0.000000 0.000000
O O5 0.189231 0.401357 0.444516
O O6 0.314983 0.058536 0.370659
O O7 0.007465 0.161661 0.716884
O O8 0.904705 0.881976 0.640138
O O9 0.127266 0.691065 0.721231
O O10 0.730356 0.315218 0.071479
O O11 0.544386 0.458775 0.610415
O O12 0.500000 0.000000 0.500000
O O13 0.549611 0.961817 0.605197
#
# Coordination Sequence:
#
# PCOD9002256 Si02
#       6
#     2   2   2   2   2   2
#     4  11  21  36  58  91 130 180 223 268 328 383
#     4  10  21  41  60  97 130 182 227 272 325 390
#     4  10  21  36  59  86 135 178 229 270 315 386
#     4  11  24  42  68  99 136 178 225 281 337 398
#     4  11  27  49  74 103 133 172 223 280 346 415
#     4  11  25  45  73 102 138 172 223 279 343 404
#
# _framework density 23.444448000000001
#
# number of rings (size 3 to 8) (size 9 to 14) (size 15 to 20)
#    0.000    1.333    3.333    1.500    0.000    8.667 
#    0.000    0.000    0.000    0.000    0.000    0.000 
#    0.000    0.000    0.000    0.000    0.000    0.000 
#
# Total GULP energy -67011.021867 kJ/mol
# GULP energy per Si atom -5584.251822 kJ/mol
# Density = 2.339109 g / cm^3
# Si number density = 23.444448 Si / 1000 Ang^3
#
#
#
# Elastic Constant Matrix: (Units=GPa)
#
#
# Indices 1 2 3 4 5 6 
#
# 1 149.6202 34.7238 57.3918 -32.1451 -4.2415 6.6554
# 2 34.7238 54.3278 23.8312 -21.6911 9.9688 -12.6763
# 3 57.3918 23.8312 179.6128 -30.3283 -4.4453 -7.7030
# 4 -32.1451 -21.6911 -30.3283 41.6259 -7.5457 2.1896
# 5 -4.2415 9.9688 -4.4453 -7.5457 37.1135 -12.3649
# 6 6.6554 -12.6763 -7.7030 2.1896 -12.3649 46.4257
#
#
#
# Elastic Compliance Matrix: (Units=1/GPa)
#
#
# Indices 1 2 3 4 5 6 
#
# 1 0.009503 -0.004618 -0.001780 0.004152 0.002107 -0.002553
# 2 -0.004618 0.027568 -0.000393 0.009467 -0.003837 0.006655
# 3 -0.001780 -0.000393 0.006947 0.003767 0.002057 0.001671
# 4 0.004152 0.009467 0.003767 0.035960 0.006584 0.002672
# 5 0.002107 -0.003837 0.002057 0.006584 0.032220 0.007262
# 6 -0.002553 0.006655 0.001671 0.002672 0.007262 0.025808
#
#
# Mechanical properties :
#
#
# Convention : Reuss Voigt Hill
#
# Bulk Modulus (GPa) = 32.85620 68.38383 50.62001
# Shear Modulus (GPa) = 30.91462 42.87396 36.89429
#
# Velocity S-wave (km/s) = 3.63524 4.28102 3.97128
# Velocity P-wave (km/s) = 5.62715 7.32584 6.53195
#
# Compressibility (1/GPa) = 0.03043565
#
# Stress axis : x y z
#
# Youngs Moduli (GPa) = 105.22469 36.27419 143.94366
#
# Poissons Ratio (x) = 0.16751 0.25626
# Poissons Ratio (y) = 0.48593 0.05658
# Poissons Ratio (z) = 0.18733 0.01426
#
# Static dielectric constant tensor:
#      x y z
#    x 1.917520 -0.086620 -0.044390 
#    y -0.086620 2.089100 0.096900 
#    z -0.044390 0.096900 1.982310 
# 
# From -- ./inp_files/111766.got.cif
#   From: 2010.05.17/outbox.cif.g08.bks.cpg/sg2_56_cif.got.tgz:111766.got - 2010.06.03 11:33:40.
