data_PCOD9002549
_publ_section_title
;
Structure prediction by ZEFSAII (Michael W. Deem and Ramdas Pophale) SiO2 
 PCOD9002549
Probable space group: P -1
;
_chemical_formula_sum "Si O2"
_cell_formula_units_Z 14
_cell_length_a 11.206612
_cell_length_b 7.061216
_cell_length_c 10.808504
_cell_angle_alpha 109.599966
_cell_angle_beta 80.346895
_cell_angle_gamma 60.691747
_cell_volume 642.711456
_symmetry_space_group_name_H-M "P -1"
_symmetry_group_IT_number 2
_symmetry_cell_setting 'triclinic'
loop_
_space_group_symop_operation_xyz
x,y,z
-x,-y,-z
loop_
_atom_site_type_symbol
_atom_site_label
_atom_site_fract_x
_atom_site_fract_y
_atom_site_fract_z
Si Si1 0.468044 0.880878 0.831570
Si Si2 0.137070 0.163509 0.036636
Si Si3 0.141609 0.858940 0.187220
Si Si4 0.381914 0.667852 0.302265
Si Si5 0.615678 0.037894 0.420464
Si Si6 0.058606 0.270795 0.783678
Si Si7 0.582409 0.612569 0.067947
O O1 0.596435 0.593583 0.774235
O O2 0.442245 0.873715 0.688532
O O3 0.315828 0.974967 0.950381
O O4 0.480673 0.108604 0.897405
O O5 0.082754 0.205681 0.912588
O O6 0.068000 0.440488 0.152964
O O7 0.092956 0.048499 0.124686
O O8 0.248439 0.856176 0.271849
O O9 0.005806 0.879406 0.282375
O O10 0.246448 0.588264 0.040841
O O11 0.364184 0.776649 0.464200
O O12 0.536301 0.622866 0.219618
O O13 0.500000 0.000000 0.500000
O O14 0.787246 0.800529 0.316924
O O15 0.500000 0.500000 0.000000
#
# Coordination Sequence:
#
# PCOD9002549 Si02
#       7
#     2   2   2   2   2   2   2
#     4  11  21  41  69  94 132 171 216 273 317 383
#     4  10  21  39  67  98 126 164 215 269 329 380
#     4  11  22  40  64  99 135 160 213 272 328 390
#     4  11  24  40  65  98 133 176 215 262 326 382
#     4  11  24  46  66  90 131 176 229 262 312 392
#     4  10  23  42  65  93 128 173 213 268 326 385
#     4  10  21  36  61  98 131 164 206 264 326 380
#
# _framework density 21.782713999999999
#
# number of rings (size 3 to 8) (size 9 to 14) (size 15 to 20)
#    0.000    1.429    4.286    0.857    0.000    5.143 
#    7.714    0.714    0.000    0.000    0.000    0.000 
#    0.000    0.000    0.000    0.000    0.000    0.000 
#
# Total GULP energy -78037.712341 kJ/mol
# GULP energy per Si atom -5574.122310 kJ/mol
# Density = 2.173314 g / cm^3
# Si number density = 21.782714 Si / 1000 Ang^3
#
#
#
# Elastic Constant Matrix: (Units=GPa)
#
#
# Indices 1 2 3 4 5 6 
#
# 1 71.9469 21.5280 28.1978 -2.8642 -14.9605 12.1785
# 2 21.5280 126.5327 23.4519 6.1876 0.8002 12.4732
# 3 28.1978 23.4519 64.0913 -3.6027 0.5409 4.6349
# 4 -2.8642 6.1876 -3.6027 19.7667 11.6667 3.1947
# 5 -14.9605 0.8002 0.5409 11.6667 35.4845 -3.4740
# 6 12.1785 12.4732 4.6349 3.1947 -3.4740 30.7386
#
#
#
# Elastic Compliance Matrix: (Units=1/GPa)
#
#
# Indices 1 2 3 4 5 6 
#
# 1 0.020134 -0.001340 -0.008244 -0.002726 0.009063 -0.004882
# 2 -0.001340 0.009025 -0.002720 -0.003181 0.000086 -0.002381
# 3 -0.008244 -0.002720 0.020683 0.007028 -0.006056 -0.000163
# 4 -0.002726 -0.003181 0.007028 0.068302 -0.024479 -0.008554
# 5 0.009063 0.000086 -0.006056 -0.024479 0.040573 0.004417
# 6 -0.004882 -0.002381 -0.000163 -0.008554 0.004417 0.036846
#
#
# Mechanical properties :
#
#
# Convention : Reuss Voigt Hill
#
# Bulk Modulus (GPa) = 39.63107 45.43626 42.53367
# Shear Modulus (GPa) = 21.87390 29.82417 25.84903
#
# Velocity S-wave (km/s) = 3.17233 3.70424 3.44855
# Velocity P-wave (km/s) = 5.62597 6.26094 5.95193
#
# Compressibility (1/GPa) = 0.02523273
#
# Stress axis : x y z
#
# Youngs Moduli (GPa) = 49.66790 110.80384 48.34846
#
# Poissons Ratio (x) = 0.14850 0.39860
# Poissons Ratio (y) = 0.06657 0.13151
# Poissons Ratio (z) = 0.40948 0.30139
#
# Static dielectric constant tensor:
#      x y z
#    x 1.839550 0.020870 0.010540 
#    y 0.020870 1.806040 -0.017570 
#    z 0.010540 -0.017570 1.857330 
# 
# From -- ./inp_files/67088.got.cif
#   From: 2010.05.17/outbox.cif.g08.bks.cpg/sg2_34_cif.got.tgz:67088.got - 2010.06.03 11:33:40.
