data_PCOD9002304
_publ_section_title
;
Structure prediction by ZEFSAII (Michael W. Deem and Ramdas Pophale) SiO2 
 PCOD9002304
Probable space group: P -1
;
_chemical_formula_sum "Si O2"
_cell_formula_units_Z 14
_cell_length_a 5.220544
_cell_length_b 18.195378
_cell_length_c 11.269589
_cell_angle_alpha 144.542040
_cell_angle_beta 71.859226
_cell_angle_gamma 93.078948
_cell_volume 549.968702
_symmetry_space_group_name_H-M "P -1"
_symmetry_group_IT_number 2
_symmetry_cell_setting 'triclinic'
loop_
_space_group_symop_operation_xyz
x,y,z
-x,-y,-z
loop_
_atom_site_type_symbol
_atom_site_label
_atom_site_fract_x
_atom_site_fract_y
_atom_site_fract_z
Si Si1 0.722448 0.905407 0.251109
Si Si2 0.223083 0.644382 0.627875
Si Si3 0.678050 0.160686 0.933817
Si Si4 0.852947 0.545877 0.400153
Si Si5 0.745119 0.562514 0.022015
Si Si6 0.309757 0.092025 0.252885
Si Si7 0.669664 0.170098 0.466684
O O1 0.598216 0.803668 0.066308
O O2 0.037973 0.841297 0.180373
O O3 0.500000 0.000000 0.500000
O O4 0.756290 0.016300 0.299543
O O5 0.534175 0.580094 0.434790
O O6 0.176857 0.546859 0.608178
O O7 0.955562 0.661053 0.600060
O O8 0.283526 0.760336 0.849932
O O9 0.692905 0.014044 0.783478
O O10 0.097499 0.473509 0.174321
O O11 0.555611 0.722931 0.273794
O O12 0.500000 0.500000 0.000000
O O13 0.000000 0.500000 0.000000
O O14 0.488995 0.180261 0.387375
O O15 0.973366 0.183140 0.409918
O O16 0.500000 0.000000 0.000000
#
# Coordination Sequence:
#
# PCOD9002304 Si02
#       7
#     2   2   2   2   2   2   2
#     4  10  21  38  59  92 123 154 196 248 322 385
#     4  10  21  41  64  93 123 163 215 270 326 373
#     4  10  21  36  59  92 119 153 205 248 311 387
#     4  10  23  41  62  90 126 165 217 273 317 373
#     4  12  26  44  64  93 129 176 225 260 322 389
#     4  10  21  39  62  90 126 161 201 254 315 375
#     4  10  23  41  60  91 124 160 208 258 307 375
#
# _framework density 25.455995000000001
#
# number of rings (size 3 to 8) (size 9 to 14) (size 15 to 20)
#    0.000    1.714    0.000    3.429    2.000    3.429 
#    2.571    0.000    0.000    0.000    0.000    0.000 
#    0.000    0.000    0.000    0.000    0.000    0.000 
#
# Total GULP energy -78125.619644 kJ/mol
# GULP energy per Si atom -5580.401403 kJ/mol
# Density = 2.539806 g / cm^3
# Si number density = 25.455995 Si / 1000 Ang^3
#
#
#
# Elastic Constant Matrix: (Units=GPa)
#
#
# Indices 1 2 3 4 5 6 
#
# 1 392.6608 99.9659 180.5602 -21.5770 30.0188 211.5827
# 2 99.9659 99.2918 43.7140 -10.2371 10.2388 68.1369
# 3 180.5602 43.7140 221.5395 -33.3981 15.5076 150.5269
# 4 -21.5770 -10.2371 -33.3981 44.1443 10.3840 -22.9716
# 5 30.0188 10.2388 15.5076 10.3840 47.4272 20.0944
# 6 211.5827 68.1369 150.5269 -22.9716 20.0944 174.9627
#
#
#
# Elastic Compliance Matrix: (Units=1/GPa)
#
#
# Indices 1 2 3 4 5 6 
#
# 1 0.007628 -0.001921 -0.000372 -0.001162 -0.000543 -0.008247
# 2 -0.001921 0.014817 0.002638 0.001948 -0.001007 -0.005346
# 3 -0.000372 0.002638 0.011917 0.004370 -0.000885 -0.010155
# 4 -0.001162 0.001948 0.004370 0.028539 -0.008021 0.001555
# 5 -0.000543 -0.001007 -0.000885 -0.008021 0.024566 -0.002064
# 6 -0.008247 -0.005346 -0.010155 0.001555 -0.002064 0.026949
#
#
# Mechanical properties :
#
#
# Convention : Reuss Voigt Hill
#
# Bulk Modulus (GPa) = 28.52759 151.33026 89.92892
# Shear Modulus (GPa) = 39.86948 79.25698 59.56323
#
# Velocity S-wave (km/s) = 3.96183 5.58592 4.84245
# Velocity P-wave (km/s) = 5.67090 10.05884 8.16515
#
# Compressibility (1/GPa) = 0.03505379
#
# Stress axis : x y z
#
# Youngs Moduli (GPa) = 131.08988 67.49136 83.91391
#
# Poissons Ratio (x) = 0.12963 0.03119
# Poissons Ratio (y) = 0.25178 -0.22139
# Poissons Ratio (z) = 0.04873 -0.17806
#
# Static dielectric constant tensor:
#      x y z
#    x 2.071750 0.008560 0.008360 
#    y 0.008560 1.970080 -0.030920 
#    z 0.008360 -0.030920 2.008350 
# 
# From -- ./inp_files/370490.got.cif
#   From: 2010.05.17/outbox.cif.g08.bks.cpg/sg2_186_cif.got.tgz:370490.got - 2010.06.03 11:33:40.
