data_PCOD9002054
_publ_section_title
;
Structure prediction by ZEFSAII (Michael W. Deem and Ramdas Pophale) SiO2 
 PCOD9002054
Probable space group: P -1
;
_chemical_formula_sum "Si O2"
_cell_formula_units_Z 14
_cell_length_a 11.354925
_cell_length_b 11.393981
_cell_length_c 8.807143
_cell_angle_alpha 139.649009
_cell_angle_beta 120.650928
_cell_angle_gamma 48.475285
_cell_volume 552.311671
_symmetry_space_group_name_H-M "P -1"
_symmetry_group_IT_number 2
_symmetry_cell_setting 'triclinic'
loop_
_space_group_symop_operation_xyz
x,y,z
-x,-y,-z
loop_
_atom_site_type_symbol
_atom_site_label
_atom_site_fract_x
_atom_site_fract_y
_atom_site_fract_z
Si Si1 0.779732 0.058363 0.842065
Si Si2 0.380450 0.121510 0.866009
Si Si3 0.932272 0.240069 0.911456
Si Si4 0.379425 0.542924 0.286154
Si Si5 0.737479 0.094934 0.207401
Si Si6 0.471184 0.261640 0.627196
Si Si7 0.159976 0.336737 0.662581
O O1 0.873744 0.167738 0.947801
O O2 0.613482 0.162206 0.744115
O O3 0.871623 0.816775 0.611754
O O4 0.752827 0.084283 0.027349
O O5 0.343948 0.030687 0.901428
O O6 0.225130 0.224581 0.756691
O O7 0.502212 0.925350 0.652149
O O8 0.417337 0.307552 0.098952
O O9 0.785573 0.340871 0.800104
O O10 0.082987 0.039879 0.749945
O O11 0.969054 0.425083 0.161034
O O12 0.501450 0.576153 0.294491
O O13 0.343517 0.677026 0.547551
O O14 0.308119 0.343785 0.687620
#
# Coordination Sequence:
#
# PCOD9002054 Si02
#       7
#     2   2   2   2   2   2   2
#     4  10  21  36  57  83 113 145 180 231 280 321
#     4   9  19  35  58  82 108 145 184 226 274 321
#     4  10  22  37  58  82 109 151 189 220 268 331
#     4   9  20  36  58  83 109 148 186 226 273 322
#     4  11  22  36  54  86 120 141 177 228 282 334
#     4   9  19  39  61  82 106 141 194 232 264 324
#     4  10  21  38  61  82 105 147 193 228 266 323
#
# _framework density 25.348006000000002
#
# number of rings (size 3 to 8) (size 9 to 14) (size 15 to 20)
#    0.000    2.286    0.000    3.429    0.000   11.429 
#    0.000    6.429    0.000   12.000    0.000    0.000 
#    0.000    0.000    0.000    0.000    0.000    0.000 
#
# Total GULP energy -78533.342300 kJ/mol
# GULP energy per Si atom -5609.524450 kJ/mol
# Density = 2.529031 g / cm^3
# Si number density = 25.348006 Si / 1000 Ang^3
#
#
#
# Elastic Constant Matrix: (Units=GPa)
#
#
# Indices 1 2 3 4 5 6 
#
# 1 82.6029 53.3417 35.9938 6.2485 -1.9608 28.4035
# 2 53.3417 103.3157 69.3845 15.8056 -0.0549 23.1953
# 3 35.9938 69.3845 192.4315 16.3178 -3.0709 35.6699
# 4 6.2485 15.8056 16.3178 49.9529 5.4511 -2.2016
# 5 -1.9608 -0.0549 -3.0709 5.4511 31.9083 2.9344
# 6 28.4035 23.1953 35.6699 -2.2016 2.9344 46.6121
#
#
#
# Elastic Compliance Matrix: (Units=1/GPa)
#
#
# Indices 1 2 3 4 5 6 
#
# 1 0.020969 -0.009534 0.001324 -0.000704 0.002368 -0.009228
# 2 -0.009534 0.018049 -0.004511 -0.002983 -0.000495 0.000171
# 3 0.001324 -0.004511 0.007571 -0.001573 0.001487 -0.004524
# 4 -0.000704 -0.002983 -0.001573 0.022242 -0.004408 0.004445
# 5 0.002368 -0.000495 0.001487 -0.004408 0.032805 -0.004608
# 6 -0.009228 0.000171 -0.004524 0.004445 -0.004608 0.030954
#
#
# Mechanical properties :
#
#
# Convention : Reuss Voigt Hill
#
# Bulk Modulus (GPa) = 47.29111 77.30999 62.30055
# Shear Modulus (GPa) = 30.28811 40.33666 35.31239
#
# Velocity S-wave (km/s) = 3.46047 3.99346 3.73648
# Velocity P-wave (km/s) = 5.88759 7.19925 6.57621
#
# Compressibility (1/GPa) = 0.02114562
#
# Stress axis : x y z
#
# Youngs Moduli (GPa) = 47.68951 55.40475 132.07875
#
# Poissons Ratio (x) = 0.52825 -0.17483
# Poissons Ratio (y) = 0.45469 0.59581
# Poissons Ratio (z) = -0.06313 0.24993
#
# Static dielectric constant tensor:
#      x y z
#    x 1.955350 -0.058890 0.042380 
#    y -0.058890 2.056560 -0.035350 
#    z 0.042380 -0.035350 1.985160 
# 
# From -- ./inp_files/257307.got.cif
#   From: 2010.05.17/outbox.cif.g08.bks.cpg/sg2_129_cif.got.tgz:257307.got - 2010.06.03 11:33:40.
