data_PCOD9002512
_publ_section_title
;
Structure prediction by ZEFSAII (Michael W. Deem and Ramdas Pophale) SiO2 
 PCOD9002512
Probable space group: P -1
;
_chemical_formula_sum "Si O2"
_cell_formula_units_Z 16
_cell_length_a 8.449300
_cell_length_b 5.071106
_cell_length_c 20.973044
_cell_angle_alpha 63.955478
_cell_angle_beta 46.564378
_cell_angle_gamma 69.076312
_cell_volume 584.174134
_symmetry_space_group_name_H-M "P -1"
_symmetry_group_IT_number 2
_symmetry_cell_setting 'triclinic'
loop_
_space_group_symop_operation_xyz
x,y,z
-x,-y,-z
loop_
_atom_site_type_symbol
_atom_site_label
_atom_site_fract_x
_atom_site_fract_y
_atom_site_fract_z
Si Si1 0.234348 0.300346 0.632905
Si Si2 0.003884 0.813998 0.413375
Si Si3 0.860185 0.683070 0.751246
Si Si4 0.486908 0.685205 0.764555
Si Si5 0.328917 0.240852 0.990964
Si Si6 0.743060 0.073556 0.076206
Si Si7 0.058188 0.745799 0.814625
Si Si8 0.295526 0.852443 0.433547
O O1 0.162984 0.304292 0.578591
O O2 0.102240 0.572382 0.673773
O O3 0.140594 0.023350 0.724736
O O4 0.486828 0.291804 0.579368
O O5 0.868082 0.027730 0.478324
O O6 0.157539 0.981383 0.303665
O O7 0.180630 0.664265 0.430705
O O8 0.679049 0.541423 0.773855
O O9 0.881219 0.627333 0.826426
O O10 0.347932 0.904902 0.829318
O O11 0.284853 0.566181 0.792537
O O12 0.623620 0.865972 0.657227
O O13 0.090576 0.179391 0.090661
O O14 0.330790 0.591628 0.962960
O O15 0.500000 0.000000 0.000000
O O16 0.351439 0.163924 0.918299
O O17 0.000000 0.000000 0.000000
#
# Coordination Sequence:
#
# PCOD9002512 Si02
#       8
#     2   2   2   2   2   2   2   2
#     4  10  21  36  61  91 125 168 217 276 335 410
#     4   9  19  39  59  86 129 166 214 271 338 402
#     4  10  22  38  62  93 128 168 221 277 340 411
#     4  10  22  43  64  92 131 175 224 282 348 414
#     4  12  27  45  73 103 141 186 238 300 363 431
#     4  12  26  47  71 104 141 188 237 299 361 431
#     4  10  23  41  62  92 128 175 221 278 342 418
#     4   9  19  38  62  87 125 171 214 274 334 413
#
# _framework density 27.389095999999999
#
# number of rings (size 3 to 8) (size 9 to 14) (size 15 to 20)
#    0.000    1.750    1.250    1.875    3.500    1.500 
#    0.000    5.625    0.000    0.000    0.000    0.000 
#    0.000    0.000    0.000    0.000    0.000    0.000 
#
# Total GULP energy -89401.804863 kJ/mol
# GULP energy per Si atom -5587.612804 kJ/mol
# Density = 2.732676 g / cm^3
# Si number density = 27.389096 Si / 1000 Ang^3
#
#
#
# Elastic Constant Matrix: (Units=GPa)
#
#
# Indices 1 2 3 4 5 6 
#
# 1 167.5834 26.5535 35.8143 -8.1456 2.2602 -10.0548
# 2 26.5535 78.3420 22.9705 4.9472 5.8465 -5.6693
# 3 35.8143 22.9705 126.1868 0.0304 12.4181 0.7199
# 4 -8.1456 4.9472 0.0304 40.0920 -3.6092 5.8101
# 5 2.2602 5.8465 12.4181 -3.6092 62.9773 2.1666
# 6 -10.0548 -5.6693 0.7199 5.8101 2.1666 37.4047
#
#
#
# Elastic Compliance Matrix: (Units=1/GPa)
#
#
# Indices 1 2 3 4 5 6 
#
# 1 0.006748 -0.001828 -0.001618 0.001431 0.000283 0.001329
# 2 -0.001828 0.014373 -0.002002 -0.002559 -0.001096 0.002187
# 3 -0.001618 -0.002002 0.008900 -0.000106 -0.001489 -0.000807
# 4 0.001431 -0.002559 -0.000106 0.026325 0.001860 -0.004198
# 5 0.000283 -0.001096 -0.001489 0.001860 0.016415 -0.001301
# 6 0.001329 0.002187 -0.000807 -0.004198 -0.001301 0.028166
#
#
# Mechanical properties :
#
#
# Convention : Reuss Voigt Hill
#
# Bulk Modulus (GPa) = 52.28817 60.30988 56.29903
# Shear Modulus (GPa) = 42.30206 47.21305 44.75756
#
# Velocity S-wave (km/s) = 3.93426 4.15636 4.04683
# Velocity P-wave (km/s) = 6.30636 6.71575 6.51427
#
# Compressibility (1/GPa) = 0.01912478
#
# Stress axis : x y z
#
# Youngs Moduli (GPa) = 148.18871 69.57681 112.36472
#
# Poissons Ratio (x) = 0.12719 0.18184
# Poissons Ratio (y) = 0.27089 0.22490
# Poissons Ratio (z) = 0.23981 0.13926
#
# Static dielectric constant tensor:
#      x y z
#    x 2.219510 -0.001770 0.026510 
#    y -0.001770 2.211140 -0.161030 
#    z 0.026510 -0.161030 2.164350 
# 
# From -- ./inp_files/585602.got.cif
#   From: 2010.05.17/outbox.cif.g08.bks.cpg/sg2_293_cif.got.tgz:585602.got - 2010.06.03 11:33:40.
