data_PCOD9002845
_publ_section_title
;
Structure prediction by ZEFSAII (Michael W. Deem and Ramdas Pophale) SiO2 
 PCOD9002845
Probable space group: P -1
;
_chemical_formula_sum "Si O2"
_cell_formula_units_Z 14
_cell_length_a 5.294746
_cell_length_b 20.679551
_cell_length_c 5.091348
_cell_angle_alpha 105.287657
_cell_angle_beta 91.372007
_cell_angle_gamma 73.467503
_cell_volume 514.722231
_symmetry_space_group_name_H-M "P -1"
_symmetry_group_IT_number 2
_symmetry_cell_setting 'triclinic'
loop_
_space_group_symop_operation_xyz
x,y,z
-x,-y,-z
loop_
_atom_site_type_symbol
_atom_site_label
_atom_site_fract_x
_atom_site_fract_y
_atom_site_fract_z
Si Si1 0.766132 0.832191 0.130708
Si Si2 0.325958 0.275607 0.379356
Si Si3 0.639334 0.091595 0.439901
Si Si4 0.532619 0.423345 0.819005
Si Si5 0.967006 0.579613 0.491708
Si Si6 0.175326 0.716826 0.267552
Si Si7 0.188058 0.048130 0.391370
O O1 0.528883 0.839272 0.346456
O O2 0.056443 0.779884 0.135544
O O3 0.808040 0.907088 0.291321
O O4 0.664453 0.795693 0.848950
O O5 0.198769 0.348332 0.287913
O O6 0.606631 0.274117 0.509031
O O7 0.092115 0.284330 0.593804
O O8 0.424223 0.063914 0.253236
O O9 0.908714 0.084833 0.292050
O O10 0.746018 0.031793 0.606534
O O11 0.244741 0.416609 0.744200
O O12 0.685481 0.358499 0.934023
O O13 0.742820 0.416725 0.577838
O O14 0.500000 0.500000 0.000000
O O15 0.000000 0.500000 0.500000
#
# Coordination Sequence:
#
# PCOD9002845 Si02
#       7
#     2   2   2   2   2   2   2
#     4  10  21  36  66  78 114 162 186 220 310 328
#     4  10  24  39  55  88 120 143 194 244 279 343
#     4   8  16  30  53  84 109 142 191 229 272 337
#     4  10  21  39  57  82 112 147 189 243 288 339
#     4  10  21  39  57  82 112 147 189 243 288 339
#     4  10  24  39  55  88 120 143 194 244 279 343
#     4   8  16  30  53  84 109 142 191 229 272 337
#
# _framework density 27.199137
#
# number of rings (size 3 to 8) (size 9 to 14) (size 15 to 20)
#    0.857    1.714    0.000    0.857    6.000    0.000 
#    0.000    0.000    0.000    6.857    0.000    0.000 
#    0.000    0.000    0.000    0.000    0.000    0.000 
#
# Total GULP energy -78022.695784 kJ/mol
# GULP energy per Si atom -5573.049699 kJ/mol
# Density = 2.713723 g / cm^3
# Si number density = 27.199137 Si / 1000 Ang^3
#
#
#
# Elastic Constant Matrix: (Units=GPa)
#
#
# Indices 1 2 3 4 5 6 
#
# 1 205.9760 14.4150 32.8632 -2.7154 22.8431 -17.0895
# 2 14.4150 120.0188 32.0061 39.8410 0.4845 -20.8226
# 3 32.8632 32.0061 99.5770 21.9098 15.6433 -3.0890
# 4 -2.7154 39.8410 21.9098 29.0076 0.3770 -0.0702
# 5 22.8431 0.4845 15.6433 0.3770 34.8805 5.4773
# 6 -17.0895 -20.8226 -3.0890 -0.0702 5.4773 49.2338
#
#
#
# Elastic Compliance Matrix: (Units=1/GPa)
#
#
# Indices 1 2 3 4 5 6 
#
# 1 0.005761 -0.000962 -0.001719 0.003207 -0.003315 0.001858
# 2 -0.000962 0.017885 0.000382 -0.024917 -0.000666 0.007293
# 3 -0.001719 0.000382 0.013732 -0.010990 -0.005072 0.000975
# 4 0.003207 -0.024917 -0.010990 0.077220 0.003980 -0.010447
# 5 -0.003315 -0.000666 -0.005072 0.003980 0.033948 -0.005521
# 6 0.001858 0.007293 0.000975 -0.010447 -0.005521 0.024701
#
#
# Mechanical properties :
#
#
# Convention : Reuss Voigt Hill
#
# Bulk Modulus (GPa) = 30.50719 64.90448 47.70583
# Shear Modulus (GPa) = 26.48709 45.71021 36.09865
#
# Velocity S-wave (km/s) = 3.12400 4.10393 3.64703
# Velocity P-wave (km/s) = 4.92474 6.80961 5.94238
#
# Compressibility (1/GPa) = 0.03277916
#
# Stress axis : x y z
#
# Youngs Moduli (GPa) = 173.59295 55.91332 72.82194
#
# Poissons Ratio (x) = 0.05380 0.12519
# Poissons Ratio (y) = 0.16704 -0.02783
# Poissons Ratio (z) = 0.29843 -0.02137
#
# Static dielectric constant tensor:
#      x y z
#    x 2.214280 0.076170 0.026880 
#    y 0.076170 2.307190 -0.024580 
#    z 0.026880 -0.024580 2.086130 
# 
# From -- ./inp_files/12584.got.cif
#   From: 2010.05.17/outbox.cif.g08.bks.cpg/sg2_7_cif.got.tgz:12584.got - 2010.06.03 11:33:40.
