data_PCOD9002860
_publ_section_title
;
Structure prediction by ZEFSAII (Michael W. Deem and Ramdas Pophale) SiO2 
 PCOD9002860
Probable space group: P -1
;
_chemical_formula_sum "Si O2"
_cell_formula_units_Z 15
_cell_length_a 9.489196
_cell_length_b 10.674830
_cell_length_c 17.161073
_cell_angle_alpha 65.764622
_cell_angle_beta 158.700054
_cell_angle_gamma 107.070254
_cell_volume 554.673921
_symmetry_space_group_name_H-M "P -1"
_symmetry_group_IT_number 2
_symmetry_cell_setting 'triclinic'
loop_
_space_group_symop_operation_xyz
x,y,z
-x,-y,-z
loop_
_atom_site_type_symbol
_atom_site_label
_atom_site_fract_x
_atom_site_fract_y
_atom_site_fract_z
Si Si1 0.201269 0.468913 0.528324
Si Si2 0.388283 0.192557 0.493087
Si Si3 0.292447 0.189387 0.996281
Si Si4 0.635655 0.707835 0.707839
Si Si5 0.673038 0.201547 0.901481
Si Si6 0.026562 0.501180 0.262774
Si Si7 0.477523 0.921070 0.695497
Si Si8 0.500000 0.000000 0.000000
O O1 0.516075 0.566082 0.661266
O O2 0.932187 0.512617 0.302973
O O3 0.000000 0.500000 0.500000
O O4 0.385027 0.298906 0.665944
O O5 0.472360 0.176827 0.447556
O O6 0.054893 0.342909 0.289079
O O7 0.815194 0.196348 0.747973
O O8 0.265508 0.065196 0.504719
O O9 0.254168 0.355585 0.954407
O O10 0.537018 0.093222 0.216474
O O11 0.431555 0.130019 0.997558
O O12 0.402445 0.786740 0.643631
O O13 0.104645 0.688782 0.970878
O O14 0.050455 0.100628 0.077113
O O15 0.520406 0.112716 0.910297
O O16 0.500000 0.500000 0.500000
#
# Coordination Sequence:
#
# PCOD9002860 Si02
#       8
#     2   2   2   2   2   2   2   1
#     4  12  23  41  66 100 133 176 228 279 334 399
#     4  11  20  40  68  99 130 178 229 275 328 411
#     4  11  21  39  63  99 131 179 226 275 332 401
#     4  10  23  42  67  98 138 175 222 280 340 402
#     4  10  24  39  66  96 134 177 223 273 339 395
#     4  10  21  36  66  94 128 172 227 273 324 397
#     4  10  23  38  68  97 132 177 228 271 334 405
#     4  12  24  40  64  98 140 174 218 282 332 402
#
# _framework density 27.042915000000001
#
# number of rings (size 3 to 8) (size 9 to 14) (size 15 to 20)
#    0.800    0.533    4.000    3.600    1.867    0.000 
#    0.000    1.333    0.000    5.600    0.000    0.000 
#    0.000    0.000    0.000    0.000    0.000    0.000 
#
# Total GULP energy -83666.185830 kJ/mol
# GULP energy per Si atom -5577.745722 kJ/mol
# Density = 2.698136 g / cm^3
# Si number density = 27.042915 Si / 1000 Ang^3
#
#
#
# Elastic Constant Matrix: (Units=GPa)
#
#
# Indices 1 2 3 4 5 6 
#
# 1 147.7486 16.6345 30.2272 -0.5223 -29.0335 -12.9199
# 2 16.6345 96.5350 31.3294 -33.8057 5.0217 -11.1993
# 3 30.2272 31.3294 72.1664 -17.9492 -16.2587 21.5932
# 4 -0.5223 -33.8057 -17.9492 46.6529 4.9220 -3.9931
# 5 -29.0335 5.0217 -16.2587 4.9220 44.9372 3.9936
# 6 -12.9199 -11.1993 21.5932 -3.9931 3.9936 44.1762
#
#
#
# Elastic Compliance Matrix: (Units=1/GPa)
#
#
# Indices 1 2 3 4 5 6 
#
# 1 0.008846 -0.000679 -0.004152 -0.002099 0.004174 0.003877
# 2 -0.000679 0.020470 -0.011324 0.012520 -0.009306 0.012499
# 3 -0.004152 -0.011324 0.028597 0.000001 0.010620 -0.019024
# 4 -0.002099 0.012520 0.000001 0.031715 -0.006765 0.006038
# 5 0.004174 -0.009306 0.010620 -0.006765 0.031443 -0.009783
# 6 0.003877 0.012499 -0.019024 0.006038 -0.009783 0.037668
#
#
# Mechanical properties :
#
#
# Convention : Reuss Voigt Hill
#
# Bulk Modulus (GPa) = 39.06023 52.53690 45.79857
# Shear Modulus (GPa) = 25.05205 43.03718 34.04462
#
# Velocity S-wave (km/s) = 3.04695 3.99361 3.55196
# Velocity P-wave (km/s) = 5.18206 6.38237 5.81328
#
# Compressibility (1/GPa) = 0.02560149
#
# Stress axis : x y z
#
# Youngs Moduli (GPa) = 113.04384 48.85289 34.96820
#
# Poissons Ratio (x) = 0.03318 0.14520
# Poissons Ratio (y) = 0.07678 0.39599
# Poissons Ratio (z) = 0.46938 0.55323
#
# Static dielectric constant tensor:
#      x y z
#    x 2.104110 0.051060 0.067360 
#    y 0.051060 2.175980 0.039530 
#    z 0.067360 0.039530 2.151850 
# 
# From -- ./inp_files/499014.got.cif
#   From: 2010.05.17/outbox.cif.g08.bks.cpg/sg2_250_cif.got.tgz:499014.got - 2010.06.03 11:33:40.
