data_PCOD9002563
_publ_section_title
;
Structure prediction by ZEFSAII (Michael W. Deem and Ramdas Pophale) SiO2 
 PCOD9002563
Probable space group: P -1
;
_chemical_formula_sum "Si O2"
_cell_formula_units_Z 16
_cell_length_a 9.798130
_cell_length_b 9.004947
_cell_length_c 14.034039
_cell_angle_alpha 119.138384
_cell_angle_beta 52.349299
_cell_angle_gamma 88.275302
_cell_volume 754.178215
_symmetry_space_group_name_H-M "P -1"
_symmetry_group_IT_number 2
_symmetry_cell_setting 'triclinic'
loop_
_space_group_symop_operation_xyz
x,y,z
-x,-y,-z
loop_
_atom_site_type_symbol
_atom_site_label
_atom_site_fract_x
_atom_site_fract_y
_atom_site_fract_z
Si Si1 0.292748 0.842823 0.490104
Si Si2 0.695229 0.007804 0.006980
Si Si3 0.506511 0.762695 0.017533
Si Si4 0.322775 0.433876 0.650717
Si Si5 0.054816 0.270788 0.738915
Si Si6 0.287240 0.678221 0.242515
Si Si7 0.931906 0.974866 0.182303
Si Si8 0.423535 0.775020 0.699735
O O1 0.511338 0.700402 0.385867
O O2 0.235657 0.772367 0.397194
O O3 0.151296 0.865374 0.646772
O O4 0.246757 0.064942 0.568799
O O5 0.899152 0.005624 0.937570
O O6 0.640254 0.081113 0.945374
O O7 0.684001 0.812271 0.965516
O O8 0.536817 0.163618 0.195438
O O9 0.403694 0.768526 0.162729
O O10 0.574646 0.550836 0.880763
O O11 0.122523 0.432246 0.758962
O O12 0.325047 0.635852 0.711433
O O13 0.399867 0.336447 0.483423
O O14 0.892541 0.295945 0.739141
O O15 0.994236 0.225385 0.854246
O O16 0.740240 0.030005 0.219123
#
# Coordination Sequence:
#
# PCOD9002563 Si02
#       8
#     2   2   2   2   2   2   2   2
#     4   9  20  37  64  80 120 148 189 238 288 332
#     4  11  21  41  57  84 115 159 186 231 295 340
#     4  10  24  37  61  80 120 148 196 237 279 348
#     4  10  21  39  59  93 112 148 194 242 280 340
#     4  10  21  36  62  82 122 144 191 241 281 334
#     4  11  21  41  59  89 111 153 194 242 282 334
#     4   9  21  37  57  85 116 147 190 237 275 349
#     4  10  22  37  62  82 121 149 190 234 289 344
#
# _framework density 21.215143999999999
#
# number of rings (size 3 to 8) (size 9 to 14) (size 15 to 20)
#    0.750    1.250    1.250    1.875    3.500    0.000 
#    2.250    1.250    0.000    0.000    0.000    0.000 
#    0.000    0.000    0.000    0.000    0.000    0.000 
#
# Total GULP energy -89244.627610 kJ/mol
# GULP energy per Si atom -5577.789226 kJ/mol
# Density = 2.116686 g / cm^3
# Si number density = 21.215144 Si / 1000 Ang^3
#
#
#
# Elastic Constant Matrix: (Units=GPa)
#
#
# Indices 1 2 3 4 5 6 
#
# 1 33.0100 24.2767 -0.1697 -11.5707 -5.6980 -1.9599
# 2 24.2767 81.6895 8.1955 -15.8797 -2.4381 13.4038
# 3 -0.1697 8.1955 31.4361 -8.8564 12.0162 -1.4028
# 4 -11.5707 -15.8797 -8.8564 17.9937 -2.6164 -5.7274
# 5 -5.6980 -2.4381 12.0162 -2.6164 25.9666 -1.4364
# 6 -1.9599 13.4038 -1.4028 -5.7274 -1.4364 28.2788
#
#
#
# Elastic Compliance Matrix: (Units=1/GPa)
#
#
# Indices 1 2 3 4 5 6 
#
# 1 0.056260 -0.013328 0.011038 0.037434 0.010803 0.018894
# 2 -0.013328 0.018809 -0.004985 0.002682 0.000893 -0.009498
# 3 0.011038 -0.004985 0.047628 0.026906 -0.016817 0.010086
# 4 0.037434 0.002682 0.026906 0.104078 0.007837 0.024135
# 5 0.010803 0.000893 -0.016817 0.007837 0.049737 0.003605
# 6 0.018894 -0.009498 0.010086 0.024135 0.003605 0.046745
#
#
# Mechanical properties :
#
#
# Convention : Reuss Voigt Hill
#
# Bulk Modulus (GPa) = 9.24665 23.41560 16.33112
# Shear Modulus (GPa) = 13.37412 22.03669 17.70540
#
# Velocity S-wave (km/s) = 2.51351 3.22642 2.89202
# Velocity P-wave (km/s) = 3.57654 4.99409 4.34353
#
# Compressibility (1/GPa) = 0.10814733
#
# Stress axis : x y z
#
# Youngs Moduli (GPa) = 17.77448 53.16659 20.99594
#
# Poissons Ratio (x) = 0.70861 -0.23176
# Poissons Ratio (y) = 0.23690 0.10467
# Poissons Ratio (z) = -0.19620 0.26505
#
# Static dielectric constant tensor:
#      x y z
#    x 1.769200 -0.017400 -0.015880 
#    y -0.017400 1.775520 -0.005600 
#    z -0.015880 -0.005600 1.749780 
# 
# From -- ./inp_files/280794.got.cif
#   From: 2010.05.17/outbox.cif.g08.bks.cpg/sg2_141_cif.got.tgz:280794.got - 2010.06.03 11:33:40.
