data_PCOD9002531
_publ_section_title
;
Structure prediction by ZEFSAII (Michael W. Deem and Ramdas Pophale) SiO2 
 PCOD9002531
Probable space group: P -1
;
_chemical_formula_sum "Si O2"
_cell_formula_units_Z 16
_cell_length_a 20.163958
_cell_length_b 27.464331
_cell_length_c 12.334131
_cell_angle_alpha 33.873347
_cell_angle_beta 153.933674
_cell_angle_gamma 164.013513
_cell_volume 794.758601
_symmetry_space_group_name_H-M "P -1"
_symmetry_group_IT_number 2
_symmetry_cell_setting 'triclinic'
loop_
_space_group_symop_operation_xyz
x,y,z
-x,-y,-z
loop_
_atom_site_type_symbol
_atom_site_label
_atom_site_fract_x
_atom_site_fract_y
_atom_site_fract_z
Si Si1 0.819686 0.328589 0.999799
Si Si2 0.871614 0.686226 0.418936
Si Si3 0.149232 0.671422 0.419611
Si Si4 0.073836 0.943272 0.665897
Si Si5 0.248592 0.773370 0.130903
Si Si6 0.987913 0.175910 0.413450
Si Si7 0.286159 0.964015 0.314371
Si Si8 0.838951 0.697612 0.964672
O O1 0.838094 0.343672 0.868713
O O2 0.453239 0.132587 0.857688
O O3 0.000000 0.500000 0.000000
O O4 0.985579 0.325936 0.291193
O O5 0.539453 0.494122 0.231539
O O6 0.819014 0.722739 0.378574
O O7 0.119597 0.845745 0.398652
O O8 0.222389 0.738083 0.281704
O O9 0.000000 0.500000 0.500000
O O10 0.468533 0.835994 0.657991
O O11 0.941456 0.647254 0.205485
O O12 0.929082 0.854156 0.498147
O O13 0.954547 0.807568 0.823455
O O14 0.000000 0.000000 0.500000
O O15 0.620178 0.981180 0.270579
O O16 0.026958 0.742035 0.829525
O O17 0.500000 0.000000 0.500000
O O18 0.005662 0.834130 0.056019
#
# Coordination Sequence:
#
# PCOD9002531 Si02
#       8
#     2   2   2   2   2   2   2   2
#     4  10  21  36  61  94 124 167 214 265 323 383
#     4  11  21  40  66  91 126 172 216 262 329 382
#     4  11  22  41  64  94 125 172 217 264 321 387
#     4  11  22  40  63  96 133 165 214 269 332 384
#     4   9  17  35  63  87 120 163 210 263 314 378
#     4   9  18  36  65  90 121 165 208 265 319 378
#     4  10  22  41  67  88 123 173 215 265 318 381
#     4  11  24  41  61  96 132 167 215 270 321 387
#
# _framework density 20.131900000000002
#
# number of rings (size 3 to 8) (size 9 to 14) (size 15 to 20)
#    0.000    1.750    2.500    3.375    0.000    3.500 
#    4.500    3.125    0.000    0.000    0.000    0.000 
#    0.000    0.000    0.000    0.000    0.000    0.000 
#
# Total GULP energy -89221.386571 kJ/mol
# GULP energy per Si atom -5576.336661 kJ/mol
# Density = 2.008608 g / cm^3
# Si number density = 20.131900 Si / 1000 Ang^3
#
#
#
# Elastic Constant Matrix: (Units=GPa)
#
#
# Indices 1 2 3 4 5 6 
#
# 1 112.0346 41.8143 25.0704 1.7882 -17.9797 -20.6893
# 2 41.8143 102.4924 18.8843 10.9026 -5.1288 -23.4755
# 3 25.0704 18.8843 49.3097 15.7630 -3.1407 -9.5429
# 4 1.7882 10.9026 15.7630 31.0008 -8.1045 -7.5779
# 5 -17.9797 -5.1288 -3.1407 -8.1045 30.0969 2.0573
# 6 -20.6893 -23.4755 -9.5429 -7.5779 2.0573 34.5213
#
#
#
# Elastic Compliance Matrix: (Units=1/GPa)
#
#
# Indices 1 2 3 4 5 6 
#
# 1 0.013974 -0.003664 -0.006484 0.007310 0.008661 0.005179
# 2 -0.003664 0.013032 -0.001236 -0.002636 -0.001205 0.005818
# 3 -0.006484 -0.001236 0.028557 -0.015017 -0.005160 0.000178
# 4 0.007310 -0.002636 -0.015017 0.045992 0.014210 0.007686
# 5 0.008661 -0.001205 -0.005160 0.014210 0.041237 0.003607
# 6 0.005179 0.005818 0.000178 0.007686 0.003607 0.037549
#
#
# Mechanical properties :
#
#
# Convention : Reuss Voigt Hill
#
# Bulk Modulus (GPa) = 30.49391 48.37497 39.43444
# Shear Modulus (GPa) = 23.35997 30.99499 27.17748
#
# Velocity S-wave (km/s) = 3.41008 3.92803 3.67818
# Velocity P-wave (km/s) = 5.53939 6.68234 6.13753
#
# Compressibility (1/GPa) = 0.03279343
#
# Stress axis : x y z
#
# Youngs Moduli (GPa) = 71.56028 76.73344 35.01823
#
# Poissons Ratio (x) = 0.28117 0.22707
# Poissons Ratio (y) = 0.26222 0.04329
# Poissons Ratio (z) = 0.46402 0.09485
#
# Static dielectric constant tensor:
#      x y z
#    x 1.761270 -0.036120 0.001670 
#    y -0.036120 1.718790 0.024070 
#    z 0.001670 0.024070 1.702260 
# 
# From -- ./inp_files/419301.got.cif
#   From: 2010.05.17/outbox.cif.g08.bks.cpg/sg2_210_cif.got.tgz:419301.got - 2010.06.03 11:33:40.
