data_PCOD9002463
_publ_section_title
;
Structure prediction by ZEFSAII (Michael W. Deem and Ramdas Pophale) SiO2 
 PCOD9002463
Probable space group: P -1
;
_chemical_formula_sum "Si O2"
_cell_formula_units_Z 16
_cell_length_a 15.167537
_cell_length_b 12.227407
_cell_length_c 15.163078
_cell_angle_alpha 52.793130
_cell_angle_beta 159.872948
_cell_angle_gamma 127.228581
_cell_volume 763.560442
_symmetry_space_group_name_H-M "P -1"
_symmetry_group_IT_number 2
_symmetry_cell_setting 'triclinic'
loop_
_space_group_symop_operation_xyz
x,y,z
-x,-y,-z
loop_
_atom_site_type_symbol
_atom_site_label
_atom_site_fract_x
_atom_site_fract_y
_atom_site_fract_z
Si Si1 0.567436 0.611089 0.932770
Si Si2 0.427112 0.123895 0.070885
Si Si3 0.867387 0.299661 0.632477
Si Si4 0.861435 0.026946 0.636510
Si Si5 0.459684 0.833371 0.039990
Si Si6 0.205708 0.616427 0.290659
Si Si7 0.116675 0.294610 0.383719
Si Si8 0.222262 0.281952 0.281373
O O1 0.579289 0.757084 0.921747
O O2 0.849700 0.612988 0.156058
O O3 0.500000 0.500000 0.000000
O O4 0.344039 0.613063 0.650298
O O5 0.494134 0.194800 0.005773
O O6 0.142265 0.039114 0.848304
O O7 0.648242 0.038501 0.354946
O O8 0.810422 0.282194 0.690624
O O9 0.858521 0.154793 0.640372
O O10 0.801762 0.876836 0.697216
O O11 0.171491 0.772924 0.828005
O O12 0.671362 0.772832 0.328028
O O13 0.500000 0.000000 0.000000
O O14 0.150433 0.459594 0.349826
O O15 0.490237 0.643841 0.503188
O O16 0.989644 0.642546 0.004364
O O17 0.165296 0.275870 0.334726
#
# Coordination Sequence:
#
# PCOD9002463 Si02
#       8
#     2   2   2   2   2   2   2   2
#     4  10  21  36  61  85 126 162 197 240 301 377
#     4  10  21  37  60  93 123 160 198 249 310 366
#     4  10  23  39  59  93 124 157 206 254 301 358
#     4  10  21  41  63  90 126 160 208 257 298 371
#     4  12  24  41  66  95 125 162 204 252 306 370
#     4  12  26  42  65  91 126 161 211 259 305 368
#     4  12  26  42  65  92 128 159 208 261 304 368
#     4  12  24  44  66  86 120 171 210 258 316 351
#
# _framework density 20.954464000000002
#
# number of rings (size 3 to 8) (size 9 to 14) (size 15 to 20)
#    0.000    1.000    0.000    6.750    3.500    1.000 
#    0.000    0.000    0.000    0.000    0.000    0.000 
#    0.000    0.000    0.000    0.000    0.000    0.000 
#
# Total GULP energy -89502.732848 kJ/mol
# GULP energy per Si atom -5593.920803 kJ/mol
# Density = 2.090677 g / cm^3
# Si number density = 20.954464 Si / 1000 Ang^3
#
#
#
# Elastic Constant Matrix: (Units=GPa)
#
#
# Indices 1 2 3 4 5 6 
#
# 1 109.7235 16.1417 58.2179 15.1096 -3.3069 17.0073
# 2 16.1417 114.7747 69.1524 2.2904 18.2483 19.3412
# 3 58.2179 69.1524 230.4837 3.6264 8.0180 23.5099
# 4 15.1096 2.2904 3.6264 35.1139 22.5280 8.6143
# 5 -3.3069 18.2483 8.0180 22.5280 24.6779 6.3889
# 6 17.0073 19.3412 23.5099 8.6143 6.3889 26.0187
#
#
#
# Elastic Compliance Matrix: (Units=1/GPa)
#
#
# Indices 1 2 3 4 5 6 
#
# 1 0.016126 -0.003795 -0.003149 -0.023867 0.028827 -0.004051
# 2 -0.003795 0.016209 -0.002483 0.021485 -0.029434 -0.007210
# 3 -0.003149 -0.002483 0.006139 0.003410 -0.003178 -0.001992
# 4 -0.023867 0.021485 0.003410 0.122936 -0.129203 -0.012428
# 5 0.028827 -0.029434 -0.003178 -0.129203 0.184238 0.003446
# 6 -0.004051 -0.007210 -0.001992 -0.012428 0.003446 0.051510
#
#
# Mechanical properties :
#
#
# Convention : Reuss Voigt Hill
#
# Bulk Modulus (GPa) = 50.96842 82.44513 66.70677
# Shear Modulus (GPa) = 11.83286 37.92675 24.87981
#
# Velocity S-wave (km/s) = 2.37891 4.25898 3.44950
# Velocity P-wave (km/s) = 5.64994 7.97593 6.91149
#
# Compressibility (1/GPa) = 0.01961999
#
# Stress axis : x y z
#
# Youngs Moduli (GPa) = 62.01105 61.69548 162.88944
#
# Poissons Ratio (x) = 0.23414 0.51289
# Poissons Ratio (y) = 0.23534 0.40448
# Poissons Ratio (z) = 0.19526 0.15320
#
# Static dielectric constant tensor:
#      x y z
#    x 1.803440 -0.070800 0.005440 
#    y -0.070800 1.755270 0.009660 
#    z 0.005440 0.009660 1.742780 
# 
# From -- ./inp_files/519988.got.cif
#   From: 2010.05.17/outbox.cif.g08.bks.cpg/sg2_260_cif.got.tgz:519988.got - 2010.06.03 11:33:40.
