data_PCOD9002760
_publ_section_title
;
Structure prediction by ZEFSAII (Michael W. Deem and Ramdas Pophale) SiO2 
 PCOD9002760
Probable space group: P -1
;
_chemical_formula_sum "Si O2"
_cell_formula_units_Z 14
_cell_length_a 8.249868
_cell_length_b 7.502228
_cell_length_c 11.804961
_cell_angle_alpha 72.790788
_cell_angle_beta 55.707202
_cell_angle_gamma 86.335108
_cell_volume 571.695528
_symmetry_space_group_name_H-M "P -1"
_symmetry_group_IT_number 2
_symmetry_cell_setting 'triclinic'
loop_
_space_group_symop_operation_xyz
x,y,z
-x,-y,-z
loop_
_atom_site_type_symbol
_atom_site_label
_atom_site_fract_x
_atom_site_fract_y
_atom_site_fract_z
Si Si1 0.306271 0.019469 0.145328
Si Si2 0.733582 0.090062 0.321579
Si Si3 0.071140 0.253654 0.618087
Si Si4 0.417288 0.431977 0.729284
Si Si5 0.725644 0.349143 0.465330
Si Si6 0.628634 0.783585 0.677936
Si Si7 0.057356 0.181892 0.021481
O O1 0.355283 0.124112 0.223921
O O2 0.182386 0.137663 0.089708
O O3 0.155906 0.829241 0.262341
O O4 0.500000 0.000000 0.000000
O O5 0.802999 0.179131 0.399859
O O6 0.508447 0.099771 0.370546
O O7 0.802934 0.882488 0.331089
O O8 0.852936 0.218496 0.152286
O O9 0.121971 0.471506 0.590401
O O10 0.161184 0.227122 0.463464
O O11 0.572065 0.304013 0.637821
O O12 0.389532 0.571776 0.610319
O O13 0.523072 0.567542 0.758247
O O14 0.204487 0.330856 0.866695
O O15 0.000000 0.000000 0.000000
#
# Coordination Sequence:
#
# PCOD9002760 Si02
#       7
#     2   2   2   2   2   2   2
#     4  11  24  38  57  86 120 161 198 242 304 355
#     4  10  21  36  64  92 116 154 201 245 294 352
#     4  10  21  40  63  87 122 157 200 248 289 352
#     4   9  19  36  57  85 122 152 194 249 292 351
#     4   9  19  36  61  91 114 151 203 248 291 341
#     4  10  21  38  60  87 119 159 196 243 303 349
#     4  11  23  39  60  87 120 158 200 246 297 356
#
# _framework density 24.48856
#
# number of rings (size 3 to 8) (size 9 to 14) (size 15 to 20)
#    0.000    2.000    0.000    4.286    0.000    6.286 
#    0.000    1.429    0.000    9.429    0.000    0.000 
#    0.000    0.000    0.000    0.000    0.000    0.000 
#
# Total GULP energy -78263.665493 kJ/mol
# GULP energy per Si atom -5590.261821 kJ/mol
# Density = 2.443282 g / cm^3
# Si number density = 24.488560 Si / 1000 Ang^3
#
#
#
# Elastic Constant Matrix: (Units=GPa)
#
#
# Indices 1 2 3 4 5 6 
#
# 1 85.9507 29.4436 27.3833 13.9077 9.9881 15.9772
# 2 29.4436 149.7101 74.9657 11.5739 -5.9069 43.7929
# 3 27.3833 74.9657 169.0876 7.9843 -34.6590 38.2602
# 4 13.9077 11.5739 7.9843 38.1742 15.5867 7.0295
# 5 9.9881 -5.9069 -34.6590 15.5867 46.0670 -2.0125
# 6 15.9772 43.7929 38.2602 7.0295 -2.0125 45.7924
#
#
#
# Elastic Compliance Matrix: (Units=1/GPa)
#
#
# Indices 1 2 3 4 5 6 
#
# 1 0.013852 -0.001145 -0.002016 -0.002314 -0.003965 -0.001874
# 2 -0.001145 0.010486 -0.003004 -0.000501 -0.000807 -0.007078
# 3 -0.002016 -0.003004 0.010546 -0.003423 0.008956 -0.004317
# 4 -0.002314 -0.000501 -0.003423 0.033776 -0.013637 -0.001638
# 5 -0.003965 -0.000807 0.008956 -0.013637 0.033740 -0.001751
# 6 -0.001874 -0.007078 -0.004317 -0.001638 -0.001751 0.033041
#
#
# Mechanical properties :
#
#
# Convention : Reuss Voigt Hill
#
# Bulk Modulus (GPa) = 44.33259 74.25930 59.29594
# Shear Modulus (GPa) = 32.19799 44.20377 38.20088
#
# Velocity S-wave (km/s) = 3.62998 4.25323 3.95390
# Velocity P-wave (km/s) = 5.97592 7.38308 6.71645
#
# Compressibility (1/GPa) = 0.02255677
#
# Stress axis : x y z
#
# Youngs Moduli (GPa) = 72.19000 95.36420 94.81832
#
# Poissons Ratio (x) = 0.10916 0.19111
# Poissons Ratio (y) = 0.08263 0.28483
# Poissons Ratio (z) = 0.14550 0.28647
#
# Static dielectric constant tensor:
#      x y z
#    x 2.582570 0.008570 -0.979370 
#    y 0.008570 2.050730 -0.110160 
#    z -0.979370 -0.110160 3.485370 
# 
# From -- ./inp_files/330718.got.cif
#   From: 2010.05.17/outbox.cif.g08.bks.cpg/sg2_166_cif.got.tgz:330718.got - 2010.06.03 11:33:40.
