data_PCOD9002850
_publ_section_title
;
Structure prediction by ZEFSAII (Michael W. Deem and Ramdas Pophale) SiO2 
 PCOD9002850
Probable space group: P -1
;
_chemical_formula_sum "Si O2"
_cell_formula_units_Z 16
_cell_length_a 11.912520
_cell_length_b 11.327009
_cell_length_c 23.201129
_cell_angle_alpha 17.217438
_cell_angle_beta 40.520743
_cell_angle_gamma 41.720847
_cell_volume 598.709051
_symmetry_space_group_name_H-M "P -1"
_symmetry_group_IT_number 2
_symmetry_cell_setting 'triclinic'
loop_
_space_group_symop_operation_xyz
x,y,z
-x,-y,-z
loop_
_atom_site_type_symbol
_atom_site_label
_atom_site_fract_x
_atom_site_fract_y
_atom_site_fract_z
Si Si1 0.325958 0.842035 0.665350
Si Si2 0.430810 0.135374 0.881335
Si Si3 0.191099 0.750189 0.293643
Si Si4 0.936275 0.479914 0.438538
Si Si5 0.820008 0.172461 0.038087
Si Si6 0.385673 0.879634 0.752903
Si Si7 0.847544 0.378695 0.807754
Si Si8 0.597332 0.499090 0.401207
O O1 0.300873 0.478247 0.803114
O O2 0.500000 0.000000 0.500000
O O3 0.208114 0.261378 0.514798
O O4 0.348213 0.708661 0.784950
O O5 0.616012 0.126215 0.845902
O O6 0.327434 0.753406 0.090868
O O7 0.471744 0.277701 0.734409
O O8 0.051127 0.811897 0.268844
O O9 0.116995 0.842840 0.343444
O O10 0.755046 0.719596 0.378305
O O11 0.054263 0.332757 0.406625
O O12 0.678903 0.338629 0.063794
O O13 0.821925 0.459176 0.848286
O O14 0.757535 0.750935 0.235029
O O15 0.009926 0.025648 0.057012
O O16 0.575283 0.038569 0.607512
O O17 0.500000 0.500000 0.500000
#
# Coordination Sequence:
#
# PCOD9002850 Si02
#       8
#     2   2   2   2   2   2   2   2
#     4   9  15  26  43  65  92 113 140 178 211 258
#     4  10  17  28  43  67  95 110 141 176 216 266
#     4   9  17  28  44  63  89 120 145 171 212 257
#     4   9  16  28  43  62  91 117 143 178 210 256
#     4   8  16  26  40  62  90 109 141 179 224 253
#     4   9  14  26  43  66  90 110 143 179 218 253
#     4   9  17  28  42  65  93 113 137 183 223 254
#     4   9  14  23  42  64  85 107 139 177 217 249
#
# _framework density 26.724163999999998
#
# number of rings (size 3 to 8) (size 9 to 14) (size 15 to 20)
#    0.000    3.000    3.750    0.000    0.000    0.500 
#    0.000    5.625    0.000    0.000    0.000   35.000 
#    3.750    0.125    0.000    0.000    0.000    0.000 
#
# Total GULP energy -89185.911214 kJ/mol
# GULP energy per Si atom -5574.119451 kJ/mol
# Density = 2.666334 g / cm^3
# Si number density = 26.724164 Si / 1000 Ang^3
#
#
#
# Elastic Constant Matrix: (Units=GPa)
#
#
# Indices 1 2 3 4 5 6 
#
# 1 125.7554 21.2330 21.2050 3.8349 -15.3692 7.5248
# 2 21.2330 68.4767 58.5076 9.1725 8.0244 22.5613
# 3 21.2050 58.5076 96.1341 21.6389 -4.8340 9.8653
# 4 3.8349 9.1725 21.6389 59.5315 15.0109 4.9986
# 5 -15.3692 8.0244 -4.8340 15.0109 39.5271 11.1333
# 6 7.5248 22.5613 9.8653 4.9986 11.1333 36.0551
#
#
#
# Elastic Compliance Matrix: (Units=1/GPa)
#
#
# Indices 1 2 3 4 5 6 
#
# 1 0.009202 -0.003671 0.000987 -0.001647 0.005449 -0.001348
# 2 -0.003671 0.044983 -0.027095 0.007605 -0.011872 -0.017357
# 3 0.000987 -0.027095 0.028728 -0.009719 0.011178 0.006784
# 4 -0.001647 0.007605 -0.009719 0.022264 -0.011461 -0.001304
# 5 0.005449 -0.011872 0.011178 -0.011461 0.037446 -0.006741
# 6 -0.001348 -0.017357 0.006784 -0.001304 -0.006741 0.039283
#
#
# Mechanical properties :
#
#
# Convention : Reuss Voigt Hill
#
# Bulk Modulus (GPa) = 42.81456 54.69526 48.75491
# Shear Modulus (GPa) = 20.06020 39.65078 29.85549
#
# Velocity S-wave (km/s) = 2.74275 3.85607 3.34604
# Velocity P-wave (km/s) = 5.10744 6.35112 5.76293
#
# Compressibility (1/GPa) = 0.02335654
#
# Stress axis : x y z
#
# Youngs Moduli (GPa) = 108.67111 22.23049 34.80904
#
# Poissons Ratio (x) = 0.08160 -0.03436
# Poissons Ratio (y) = 0.39890 0.94315
# Poissons Ratio (z) = -0.10728 0.60234
#
# Static dielectric constant tensor:
#      x y z
#    x 2.152050 -0.010770 0.048350 
#    y -0.010770 2.230600 0.029030 
#    z 0.048350 0.029030 2.108840 
# 
# From -- ./inp_files/312316.got.cif
#   From: 2010.05.17/outbox.cif.g08.bks.cpg/sg2_157_cif.got.tgz:312316.got - 2010.06.03 11:33:40.
