data_PCOD9002992
_publ_section_title
;
Structure prediction by ZEFSAII (Michael W. Deem and Ramdas Pophale) SiO2 
 PCOD9002992
Probable space group: P -1
;
_chemical_formula_sum "Si O2"
_cell_formula_units_Z 16
_cell_length_a 9.418042
_cell_length_b 12.108457
_cell_length_c 8.321657
_cell_angle_alpha 105.289013
_cell_angle_beta 91.324748
_cell_angle_gamma 53.356024
_cell_volume 723.343075
_symmetry_space_group_name_H-M "P -1"
_symmetry_group_IT_number 2
_symmetry_cell_setting 'triclinic'
loop_
_space_group_symop_operation_xyz
x,y,z
-x,-y,-z
loop_
_atom_site_type_symbol
_atom_site_label
_atom_site_fract_x
_atom_site_fract_y
_atom_site_fract_z
Si Si1 0.828975 0.499442 0.503815
Si Si2 0.675965 0.353628 0.359595
Si Si3 0.341972 0.126425 0.154895
Si Si4 0.333137 0.667601 0.030925
Si Si5 0.373125 0.903650 0.260650
Si Si6 0.772713 0.700698 0.087455
Si Si7 0.472875 0.793476 0.558954
Si Si8 0.140630 0.573728 0.163770
O O1 0.838100 0.363204 0.395201
O O2 0.659600 0.636094 0.454459
O O3 0.780846 0.502541 0.692070
O O4 0.000000 0.500000 0.500000
O O5 0.500000 0.500000 0.500000
O O6 0.676244 0.331417 0.161009
O O7 0.664658 0.233529 0.389260
O O8 0.208882 0.253507 0.073761
O O9 0.443589 0.164251 0.289395
O O10 0.266033 0.058066 0.229645
O O11 0.500000 0.000000 0.000000
O O12 0.500000 0.500000 0.000000
O O13 0.342668 0.792540 0.143348
O O14 0.184258 0.676241 0.136384
O O15 0.371722 0.903187 0.452064
O O16 0.581129 0.826307 0.197991
O O17 0.789615 0.556228 0.009077
O O18 0.927680 0.664765 0.194870
#
# Coordination Sequence:
#
# PCOD9002992 Si02
#       8
#     2   2   2   2   2   2   2   2
#     4  11  22  35  56  88 124 155 188 241 300 355
#     4  10  22  33  52  82 118 152 188 242 296 344
#     4  10  21  38  60  85 116 157 201 244 287 349
#     4  12  21  36  58  87 119 154 198 245 296 351
#     4  11  22  37  62  86 115 156 201 242 292 350
#     4  10  21  37  56  85 114 152 197 240 289 348
#     4  11  20  38  57  86 120 150 199 242 294 348
#     4  11  22  35  59  83 121 152 192 239 299 347
#
# _framework density 22.119516000000001
#
# number of rings (size 3 to 8) (size 9 to 14) (size 15 to 20)
#    0.000    1.250    2.500    6.375    3.500    0.000 
#    0.000    0.625    0.000    3.000    0.000   12.250 
#    0.000    0.000    0.000    0.000    0.000    0.000 
#
# Total GULP energy -89235.745467 kJ/mol
# GULP energy per Si atom -5577.234092 kJ/mol
# Density = 2.206917 g / cm^3
# Si number density = 22.119516 Si / 1000 Ang^3
#
#
#
# Elastic Constant Matrix: (Units=GPa)
#
#
# Indices 1 2 3 4 5 6 
#
# 1 79.3365 24.2417 8.9797 -7.2057 5.3972 27.7099
# 2 24.2417 64.1059 7.3471 -13.6833 2.6627 30.2626
# 3 8.9797 7.3471 73.7207 -16.3796 1.9674 17.3900
# 4 -7.2057 -13.6833 -16.3796 33.7795 10.4240 -7.4096
# 5 5.3972 2.6627 1.9674 10.4240 31.4248 0.3931
# 6 27.7099 30.2626 17.3900 -7.4096 0.3931 35.3366
#
#
#
# Elastic Compliance Matrix: (Units=1/GPa)
#
#
# Indices 1 2 3 4 5 6 
#
# 1 0.017973 0.001063 0.002155 0.003239 -0.004194 -0.015339
# 2 0.001063 0.029915 0.005930 0.011322 -0.006508 -0.026925
# 3 0.002155 0.005930 0.018371 0.010435 -0.005314 -0.013561
# 4 0.003239 0.011322 0.010435 0.043221 -0.016404 -0.008126
# 5 -0.004194 -0.006508 -0.005314 -0.016404 0.038773 0.007607
# 6 -0.015339 -0.026925 -0.013561 -0.008126 0.007607 0.068272
#
#
# Mechanical properties :
#
#
# Convention : Reuss Voigt Hill
#
# Bulk Modulus (GPa) = 11.82676 33.14445 22.48561
# Shear Modulus (GPa) = 22.08359 31.88114 26.98237
#
# Velocity S-wave (km/s) = 3.16314 3.80058 3.49642
# Velocity P-wave (km/s) = 4.32423 5.85457 5.14660
#
# Compressibility (1/GPa) = 0.08455399
#
# Stress axis : x y z
#
# Youngs Moduli (GPa) = 55.63995 33.42797 54.43488
#
# Poissons Ratio (x) = -0.03554 -0.11729
# Poissons Ratio (y) = -0.05916 -0.32279
# Poissons Ratio (z) = -0.11989 -0.19822
#
# Static dielectric constant tensor:
#      x y z
#    x 1.811910 -0.047880 0.009300 
#    y -0.047880 1.972240 0.038160 
#    z 0.009300 0.038160 1.817130 
# 
# From -- ./inp_files/180472.got.cif
#   From: 2010.05.17/outbox.cif.g08.bks.cpg/sg2_91_cif.got.tgz:180472.got - 2010.06.03 11:33:40.
