data_PCOD9002015
_publ_section_title
;
Structure prediction by ZEFSAII (Michael W. Deem and Ramdas Pophale) SiO2 
 PCOD9002015
Probable space group: P -1
;
_chemical_formula_sum "Si O2"
_cell_formula_units_Z 16
_cell_length_a 29.371359
_cell_length_b 6.095030
_cell_length_c 27.440599
_cell_angle_alpha 114.087570
_cell_angle_beta 170.795888
_cell_angle_gamma 65.612146
_cell_volume 715.631715
_symmetry_space_group_name_H-M "P -1"
_symmetry_group_IT_number 2
_symmetry_cell_setting 'triclinic'
loop_
_space_group_symop_operation_xyz
x,y,z
-x,-y,-z
loop_
_atom_site_type_symbol
_atom_site_label
_atom_site_fract_x
_atom_site_fract_y
_atom_site_fract_z
Si Si1 0.279961 0.188888 0.392873
Si Si2 0.841215 0.821324 0.282024
Si Si3 0.835723 0.470856 0.005511
Si Si4 0.703423 0.756224 0.690617
Si Si5 0.103014 0.772464 0.398506
Si Si6 0.307516 0.552948 0.697662
Si Si7 0.363352 0.959038 0.017187
Si Si8 0.324042 0.299245 0.238409
O O1 0.041364 0.239719 0.185946
O O2 0.140093 0.224210 0.194116
O O3 0.458613 0.933990 0.559807
O O4 0.518453 0.384229 0.668497
O O5 0.053322 0.589437 0.471152
O O6 0.546741 0.732540 0.982720
O O7 0.761878 0.954900 0.159522
O O8 0.000000 0.000000 0.500000
O O9 0.951961 0.600257 0.186771
O O10 0.848902 0.649306 0.989075
O O11 0.508367 0.531657 0.459680
O O12 0.842465 0.728866 0.888619
O O13 0.500000 0.000000 0.500000
O O14 0.180719 0.637722 0.519106
O O15 0.398314 0.860842 0.698851
O O16 0.891210 0.004060 0.209782
O O17 0.472400 0.297079 0.840586
#
# Coordination Sequence:
#
# PCOD9002015 Si02
#       8
#     2   2   2   2   2   2   2   2
#     4  10  22  37  56  83 110 141 182 225 276 334
#     4  10  21  36  56  86 117 145 186 231 270 325
#     4  11  23  38  57  83 111 142 185 231 274 325
#     4   8  16  36  58  81 111 144 179 222 275 336
#     4  10  22  38  56  81 111 144 188 232 270 326
#     4  10  21  37  57  81 113 151 186 226 276 325
#     4  10  21  38  59  82 111 150 187 224 278 327
#     4   9  19  36  58  82 111 145 180 225 278 329
#
# _framework density 22.357870999999999
#
# number of rings (size 3 to 8) (size 9 to 14) (size 15 to 20)
#    0.000    2.250    0.000    1.875    0.000    5.500 
#    0.000   21.250    0.000    0.000    0.000    0.000 
#    0.000    0.000    0.000    0.000    0.000    0.000 
#
# Total GULP energy -89442.747480 kJ/mol
# GULP energy per Si atom -5590.171718 kJ/mol
# Density = 2.230698 g / cm^3
# Si number density = 22.357871 Si / 1000 Ang^3
#
#
#
# Elastic Constant Matrix: (Units=GPa)
#
#
# Indices 1 2 3 4 5 6 
#
# 1 14.7884 15.4528 35.8955 2.0217 19.7069 -13.1757
# 2 15.4528 100.8693 26.6463 -15.3763 -17.6551 -13.7725
# 3 35.8955 26.6463 111.2340 6.3356 -5.7369 -11.0891
# 4 2.0217 -15.3763 6.3356 38.5157 -11.1921 3.1827
# 5 19.7069 -17.6551 -5.7369 -11.1921 17.6225 -3.1927
# 6 -13.1757 -13.7725 -11.0891 3.1827 -3.1927 24.4563
#
#
#
# Elastic Compliance Matrix: (Units=1/GPa)
#
#
# Indices 1 2 3 4 5 6 
#
# 1 -0.017497 0.012998 0.004208 0.018616 0.046404 0.003437
# 2 0.012998 0.011282 -0.006174 0.003699 -0.001094 0.009932
# 3 0.004208 -0.006174 0.009153 -0.008045 -0.012597 0.002343
# 4 0.018616 0.003699 -0.008045 0.026870 -0.001809 0.004731
# 5 0.046404 -0.001094 -0.012597 -0.001809 0.001980 0.019166
# 6 0.003437 0.009932 0.002343 0.004731 0.019166 0.051283
#
#
# Mechanical properties :
#
#
# Convention : Reuss Voigt Hill
#
# Bulk Modulus (GPa) = 39.99580 42.54231 41.26906
# Shear Modulus (GPa) = 72.10826 26.04539 49.07683
#
# Velocity S-wave (km/s) = 5.68523 3.41681 4.69023
# Velocity P-wave (km/s) = 7.81176 5.88518 6.91588
#
# Compressibility (1/GPa) = 0.02500262
#
# Stress axis : x y z
#
# Youngs Moduli (GPa) = -57.15184 88.63554 109.25184
#
# Poissons Ratio (x) = -1.15208 -0.45977
# Poissons Ratio (y) = 0.74286 0.67452
# Poissons Ratio (z) = 0.24051 0.54724
#
# Static dielectric constant tensor:
#      x y z
#    x 1.813630 0.014620 0.016470 
#    y 0.014620 1.837930 -0.013910 
#    z 0.016470 -0.013910 1.814540 
# 
# From -- ./inp_files/13638.got.cif
#   From: 2010.05.17/outbox.cif.g08.bks.cpg/sg2_7_cif.got.tgz:13638.got - 2010.06.03 11:33:40.
