data_PCOD9002853
_publ_section_title
;
Structure prediction by ZEFSAII (Michael W. Deem and Ramdas Pophale) SiO2 
 PCOD9002853
Probable space group: P -1
;
_chemical_formula_sum "Si O2"
_cell_formula_units_Z 16
_cell_length_a 12.025206
_cell_length_b 13.872879
_cell_length_c 8.777344
_cell_angle_alpha 40.211540
_cell_angle_beta 59.986491
_cell_angle_gamma 62.792852
_cell_volume 811.143504
_symmetry_space_group_name_H-M "P -1"
_symmetry_group_IT_number 2
_symmetry_cell_setting 'triclinic'
loop_
_space_group_symop_operation_xyz
x,y,z
-x,-y,-z
loop_
_atom_site_type_symbol
_atom_site_label
_atom_site_fract_x
_atom_site_fract_y
_atom_site_fract_z
Si Si1 0.474864 0.502320 0.770634
Si Si2 0.894755 0.153531 0.006639
Si Si3 0.213168 0.875941 0.217325
Si Si4 0.222647 0.183306 0.023905
Si Si5 0.714362 0.444359 0.898409
Si Si6 0.108677 0.355344 0.613698
Si Si7 0.508879 0.732789 0.226082
Si Si8 0.965657 0.893094 0.515259
O O1 0.593280 0.437179 0.876547
O O2 0.513263 0.649612 0.485322
O O3 0.457450 0.387582 0.786168
O O4 0.346249 0.541642 0.910192
O O5 0.824083 0.122836 0.935835
O O6 0.813209 0.292614 0.985650
O O7 0.030498 0.215799 0.798236
O O8 0.914106 0.006593 0.277284
O O9 0.360790 0.802800 0.220571
O O10 0.099540 0.800774 0.473163
O O11 0.204716 0.037319 0.110901
O O12 0.168876 0.321553 0.781892
O O13 0.374942 0.168268 0.972655
O O14 0.140812 0.192345 0.225781
O O15 0.779587 0.593268 0.631477
O O16 0.000000 0.500000 0.500000
O O17 0.000000 0.000000 0.500000
#
# Coordination Sequence:
#
# PCOD9002853 Si02
#       8
#     2   2   2   2   2   2   2   2
#     4  10  22  39  65  86 123 169 203 257 313 370
#     4  11  21  41  65  92 126 160 210 253 314 377
#     4  11  23  39  63  93 123 174 202 253 314 372
#     4  11  23  42  61  95 128 165 208 259 308 367
#     4  10  21  40  63  93 118 162 208 259 312 365
#     4  10  21  36  66  89 122 157 205 260 309 358
#     4  11  23  42  62  91 131 162 212 258 312 372
#     4  10  22  38  62  90 125 164 205 249 307 373
#
# _framework density 19.725238999999998
#
# number of rings (size 3 to 8) (size 9 to 14) (size 15 to 20)
#    0.000    1.500    5.000    0.750    3.500    1.000 
#    0.000    0.625    0.000    5.250    0.000    0.000 
#    0.000    0.000    0.000    0.000    0.000    0.000 
#
# Total GULP energy -89199.521741 kJ/mol
# GULP energy per Si atom -5574.970109 kJ/mol
# Density = 1.968034 g / cm^3
# Si number density = 19.725239 Si / 1000 Ang^3
#
#
#
# Elastic Constant Matrix: (Units=GPa)
#
#
# Indices 1 2 3 4 5 6 
#
# 1 88.9671 32.9758 35.0177 14.9059 -5.9154 -15.6331
# 2 32.9758 86.5651 47.0782 27.6157 -5.5071 -18.7917
# 3 35.0177 47.0782 98.7533 27.8215 -12.3318 -8.7712
# 4 14.9059 27.6157 27.8215 29.4982 -5.6787 -2.9018
# 5 -5.9154 -5.5071 -12.3318 -5.6787 30.0857 6.2741
# 6 -15.6331 -18.7917 -8.7712 -2.9018 6.2741 22.3783
#
#
#
# Elastic Compliance Matrix: (Units=1/GPa)
#
#
# Indices 1 2 3 4 5 6 
#
# 1 0.014778 -0.001450 -0.003282 -0.002403 -0.000769 0.007723
# 2 -0.001450 0.022821 -0.005339 -0.014918 -0.004309 0.015331
# 3 -0.003282 -0.005339 0.016469 -0.008340 0.004085 -0.002548
# 4 -0.002403 -0.014918 -0.008340 0.057050 0.006636 -0.011937
# 5 -0.000769 -0.004309 0.004085 0.006636 0.037788 -0.012289
# 6 0.007723 0.015331 -0.002548 -0.011937 -0.012289 0.063855
#
#
# Mechanical properties :
#
#
# Convention : Reuss Voigt Hill
#
# Bulk Modulus (GPa) = 29.47632 56.04766 42.76199
# Shear Modulus (GPa) = 20.47410 27.00669 23.74040
#
# Velocity S-wave (km/s) = 3.22524 3.70421 3.47299
# Velocity P-wave (km/s) = 5.37080 6.83891 6.14883
#
# Compressibility (1/GPa) = 0.03392554
#
# Stress axis : x y z
#
# Youngs Moduli (GPa) = 67.66786 43.81930 60.72145
#
# Poissons Ratio (x) = 0.06356 0.19929
# Poissons Ratio (y) = 0.09815 0.32417
# Poissons Ratio (z) = 0.22209 0.23394
#
# Static dielectric constant tensor:
#      x y z
#    x 1.716960 -0.021370 -0.029720 
#    y -0.021370 1.691670 -0.006330 
#    z -0.029720 -0.006330 1.728490 
# 
# From -- ./inp_files/261514.got.cif
#   From: 2010.05.17/outbox.cif.g08.bks.cpg/sg2_131_cif.got.tgz:261514.got - 2010.06.03 11:33:40.
