data_PCOD9002507
_publ_section_title
;
Structure prediction by ZEFSAII (Michael W. Deem and Ramdas Pophale) SiO2 
 PCOD9002507
Probable space group: P -1
;
_chemical_formula_sum "Si O2"
_cell_formula_units_Z 14
_cell_length_a 9.284903
_cell_length_b 11.766450
_cell_length_c 11.679750
_cell_angle_alpha 72.102833
_cell_angle_beta 91.368846
_cell_angle_gamma 142.376394
_cell_volume 686.319902
_symmetry_space_group_name_H-M "P -1"
_symmetry_group_IT_number 2
_symmetry_cell_setting 'triclinic'
loop_
_space_group_symop_operation_xyz
x,y,z
-x,-y,-z
loop_
_atom_site_type_symbol
_atom_site_label
_atom_site_fract_x
_atom_site_fract_y
_atom_site_fract_z
Si Si1 0.617725 0.799981 0.602827
Si Si2 0.088690 0.251288 0.358436
Si Si3 0.259875 0.596539 0.846167
Si Si4 0.739585 0.672194 0.038933
Si Si5 0.781801 0.434227 0.874485
Si Si6 0.287296 0.135048 0.837224
Si Si7 0.417680 0.578591 0.451965
O O1 0.740549 0.753320 0.649126
O O2 0.510989 0.791198 0.715751
O O3 0.395667 0.625626 0.558952
O O4 0.823360 0.018767 0.470771
O O5 0.123482 0.365963 0.217465
O O6 0.184694 0.403478 0.416193
O O7 0.212358 0.424348 0.877781
O O8 0.021865 0.513778 0.831767
O O9 0.288912 0.626275 0.974351
O O10 0.696040 0.736409 0.120726
O O11 0.500000 0.500000 0.000000
O O12 0.003897 0.892245 0.917105
O O13 0.528060 0.226321 0.863271
O O14 0.357159 0.210752 0.684996
O O15 0.500000 0.500000 0.500000
#
# Coordination Sequence:
#
# PCOD9002507 Si02
#       7
#     2   2   2   2   2   2   2
#     4  10  21  36  61  91 112 161 204 246 314 350
#     4   9  20  38  62  85 121 154 201 257 298 360
#     4  11  23  38  62  88 125 167 204 249 299 365
#     4  11  22  37  63  91 118 153 203 256 303 357
#     4  10  22  42  59  87 126 165 206 248 300 360
#     4  10  22  38  62  92 116 160 201 254 305 358
#     4   9  18  34  56  84 118 144 193 247 298 355
#
# _framework density 20.398651000000001
#
# number of rings (size 3 to 8) (size 9 to 14) (size 15 to 20)
#    0.000    2.000    1.429    2.571    2.000    3.429 
#    2.571    2.857    0.000    0.000    0.000    0.000 
#    0.000    0.000    0.000    0.000    0.000    0.000 
#
# Total GULP energy -78055.806120 kJ/mol
# GULP energy per Si atom -5575.414723 kJ/mol
# Density = 2.035222 g / cm^3
# Si number density = 20.398651 Si / 1000 Ang^3
#
#
#
# Elastic Constant Matrix: (Units=GPa)
#
#
# Indices 1 2 3 4 5 6 
#
# 1 85.7754 36.2285 46.4688 -1.7111 -3.8790 18.5264
# 2 36.2285 74.8458 47.1011 -13.1763 -4.0738 6.5332
# 3 46.4688 47.1011 126.4830 -1.1936 -10.1281 16.0062
# 4 -1.7111 -13.1763 -1.1936 26.2178 -0.9552 -3.3201
# 5 -3.8790 -4.0738 -10.1281 -0.9552 24.3607 -0.4023
# 6 18.5264 6.5332 16.0062 -3.3201 -0.4023 14.4505
#
#
#
# Elastic Compliance Matrix: (Units=1/GPa)
#
#
# Indices 1 2 3 4 5 6 
#
# 1 0.020680 -0.007814 -0.001890 -0.005442 0.000622 -0.022119
# 2 -0.007814 0.022553 -0.006637 0.011789 0.000394 0.009892
# 3 -0.001890 -0.006637 0.012478 -0.003930 0.003471 -0.009203
# 4 -0.005442 0.011789 -0.003930 0.045683 0.001535 0.016538
# 5 0.000622 0.000394 0.003471 0.001535 0.042664 -0.003279
# 6 -0.022119 0.009892 -0.009203 0.016538 -0.003279 0.106989
#
#
# Mechanical properties :
#
#
# Convention : Reuss Voigt Hill
#
# Bulk Modulus (GPa) = 43.42414 60.74456 52.08435
# Shear Modulus (GPa) = 17.15829 23.49287 20.32558
#
# Velocity S-wave (km/s) = 2.90340 3.39733 3.16003
# Velocity P-wave (km/s) = 5.70733 6.72551 6.23723
#
# Compressibility (1/GPa) = 0.02302867
#
# Stress axis : x y z
#
# Youngs Moduli (GPa) = 48.35683 44.33992 80.14323
#
# Poissons Ratio (x) = 0.34646 0.15149
# Poissons Ratio (y) = 0.37784 0.53190
# Poissons Ratio (z) = 0.09141 0.29428
#
# Static dielectric constant tensor:
#      x y z
#    x 1.754120 0.076860 0.019250 
#    y 0.076860 1.876850 0.045090 
#    z 0.019250 0.045090 1.823090 
# 
# From -- ./inp_files/389765.got.cif
#   From: 2010.05.17/outbox.cif.g08.bks.cpg/sg2_195_cif.got.tgz:389765.got - 2010.06.03 11:33:40.
