data_PCOD9002772
_publ_section_title
;
Structure prediction by ZEFSAII (Michael W. Deem and Ramdas Pophale) SiO2 
 PCOD9002772
Probable space group: P -1
;
_chemical_formula_sum "Si O2"
_cell_formula_units_Z 10
_cell_length_a 11.154822
_cell_length_b 13.920491
_cell_length_c 15.123703
_cell_angle_alpha 159.968350
_cell_angle_beta 44.985048
_cell_angle_gamma 124.269309
_cell_volume 516.385312
_symmetry_space_group_name_H-M "P -1"
_symmetry_group_IT_number 2
_symmetry_cell_setting 'triclinic'
loop_
_space_group_symop_operation_xyz
x,y,z
-x,-y,-z
loop_
_atom_site_type_symbol
_atom_site_label
_atom_site_fract_x
_atom_site_fract_y
_atom_site_fract_z
Si Si1 0.313182 0.195445 0.530326
Si Si2 0.023682 0.837825 0.230360
Si Si3 0.391799 0.283599 0.365500
Si Si4 0.433863 0.224079 0.812527
Si Si5 0.983761 0.513385 0.790882
O O1 0.134006 0.123148 0.581788
O O2 0.377881 0.166965 0.371080
O O3 0.469520 0.977032 0.326016
O O4 0.223193 0.565638 0.917058
O O5 0.020354 0.162395 0.489158
O O6 0.965934 0.704778 0.056332
O O7 0.500000 0.500000 0.500000
O O8 0.176888 0.481197 0.618716
O O9 0.500000 0.000000 0.000000
O O10 0.500000 0.000000 0.500000
O O11 0.500000 0.500000 0.000000
O O12 0.210167 0.348378 0.040290
#
# Coordination Sequence:
#
# PCOD9002772 Si02
#       5
#     2   2   2   2   2
#     4  10  22  39  63  93 126 156 205 251 307 363
#     4  10  21  36  64  94 121 156 197 256 316 359
#     4  11  25  42  62  85 119 170 218 248 282 348
#     4  12  23  38  60  99 131 153 185 250 332 377
#     4  11  21  41  62  92 127 156 198 255 308 368
#
# _framework density 19.365383000000001
#
# number of rings (size 3 to 8) (size 9 to 14) (size 15 to 20)
#    0.000    1.200    4.000    2.400    0.000   13.600 
#    0.000    2.000    0.000    0.000    0.000    0.000 
#    0.000    0.000    0.000    0.000    0.000    0.000 
#
# Total GULP energy -55869.544767 kJ/mol
# GULP energy per Si atom -5586.954477 kJ/mol
# Density = 1.932131 g / cm^3
# Si number density = 19.365383 Si / 1000 Ang^3
#
#
#
# Elastic Constant Matrix: (Units=GPa)
#
#
# Indices 1 2 3 4 5 6 
#
# 1 130.0179 60.9306 88.7894 -2.9705 -25.2944 10.4256
# 2 60.9306 118.9714 67.0423 -20.8421 -0.1409 9.1477
# 3 88.7894 67.0423 136.9863 -3.0430 -8.3914 6.5903
# 4 -2.9705 -20.8421 -3.0430 39.6878 5.6391 -0.3649
# 5 -25.2944 -0.1409 -8.3914 5.6391 64.3775 1.7675
# 6 10.4256 9.1477 6.5903 -0.3649 1.7675 40.5673
#
#
#
# Elastic Compliance Matrix: (Units=1/GPa)
#
#
# Indices 1 2 3 4 5 6 
#
# 1 0.016458 -0.003962 -0.008327 -0.002309 0.005637 -0.002250
# 2 -0.003962 0.014245 -0.004345 0.007221 -0.002688 -0.001306
# 3 -0.008327 -0.004345 0.014674 -0.001595 -0.001250 0.000776
# 4 -0.002309 0.007221 -0.001595 0.029209 -0.003648 -0.000354
# 5 0.005637 -0.002688 -0.001250 -0.003648 0.017939 -0.001454
# 6 -0.002250 -0.001306 0.000776 -0.000354 -0.001454 0.025457
#
#
# Mechanical properties :
#
#
# Convention : Reuss Voigt Hill
#
# Bulk Modulus (GPa) = 82.57170 91.05557 86.81364
# Shear Modulus (GPa) = 32.19849 40.20741 36.20295
#
# Velocity S-wave (km/s) = 4.08202 4.56153 4.32842
# Velocity P-wave (km/s) = 8.05907 8.65247 8.36104
#
# Compressibility (1/GPa) = 0.01211069
#
# Stress axis : x y z
#
# Youngs Moduli (GPa) = 60.75986 70.19831 68.14637
#
# Poissons Ratio (x) = 0.27810 0.56742
# Poissons Ratio (y) = 0.24071 0.29613
# Poissons Ratio (z) = 0.50592 0.30504
#
# Static dielectric constant tensor:
#      x y z
#    x 1.745030 0.025350 0.007680 
#    y 0.025350 1.666580 -0.003910 
#    z 0.007680 -0.003910 1.702730 
# 
# From -- ./inp_files/17245.got.cif
#   From: 2010.05.17/outbox.cif.g08.bks.cpg/sg2_9_cif.got.tgz:17245.got - 2010.06.03 11:33:40.
