data_PCOD9002113
_publ_section_title
;
Structure prediction by ZEFSAII (Michael W. Deem and Ramdas Pophale) SiO2 
 PCOD9002113
Probable space group: P -1
;
_chemical_formula_sum "Si O2"
_cell_formula_units_Z 16
_cell_length_a 24.705789
_cell_length_b 5.139434
_cell_length_c 23.398709
_cell_angle_alpha 78.606391
_cell_angle_beta 163.397161
_cell_angle_gamma 106.326683
_cell_volume 786.233794
_symmetry_space_group_name_H-M "P -1"
_symmetry_group_IT_number 2
_symmetry_cell_setting 'triclinic'
loop_
_space_group_symop_operation_xyz
x,y,z
-x,-y,-z
loop_
_atom_site_type_symbol
_atom_site_label
_atom_site_fract_x
_atom_site_fract_y
_atom_site_fract_z
Si Si1 0.270517 0.982501 0.276138
Si Si2 0.557676 0.607703 0.989991
Si Si3 0.609633 0.435070 0.767706
Si Si4 0.243752 0.419778 0.323273
Si Si5 0.783397 0.478381 0.444467
Si Si6 0.410188 0.148062 0.693246
Si Si7 0.247925 0.765200 0.871859
Si Si8 0.847053 0.048193 0.972628
O O1 0.178682 0.687725 0.229482
O O2 0.178388 0.973094 0.120971
O O3 0.500000 0.000000 0.500000
O O4 0.258231 0.242877 0.289371
O O5 0.672355 0.425802 0.081224
O O6 0.700351 0.929820 0.117776
O O7 0.500000 0.500000 0.000000
O O8 0.355557 0.575134 0.750660
O O9 0.458463 0.504397 0.567084
O O10 0.481849 0.279790 0.698798
O O11 0.715480 0.229987 0.855409
O O12 0.770399 0.735101 0.933323
O O13 0.080043 0.218733 0.208660
O O14 0.710860 0.682823 0.402658
O O15 0.016126 0.615942 0.658785
O O16 0.724962 0.177087 0.429276
O O17 0.612987 0.183029 0.933098
#
# Coordination Sequence:
#
# PCOD9002113 Si02
#       8
#     2   2   2   2   2   2   2   2
#     4  12  21  41  63  80 116 150 178 228 286 345
#     4  10  21  36  57  91 123 150 192 238 278 333
#     4  12  24  41  59  86 115 145 189 241 284 331
#     4  12  24  40  60  86 113 147 185 229 284 345
#     4  10  21  39  60  84 114 157 195 231 285 334
#     4  10  23  39  59  83 114 149 195 242 278 333
#     4  10  21  38  60  84 117 158 194 231 283 336
#     4  12  25  39  61  86 113 147 186 229 288 347
#
# _framework density 20.350182
#
# number of rings (size 3 to 8) (size 9 to 14) (size 15 to 20)
#    0.000    1.000    2.500    4.500    0.000    3.000 
#    0.000    0.000    0.000    0.000    0.000    0.000 
#    0.000    0.000    0.000    0.000    0.000    0.000 
#
# Total GULP energy -89523.055048 kJ/mol
# GULP energy per Si atom -5595.190941 kJ/mol
# Density = 2.030386 g / cm^3
# Si number density = 20.350182 Si / 1000 Ang^3
#
#
#
# Elastic Constant Matrix: (Units=GPa)
#
#
# Indices 1 2 3 4 5 6 
#
# 1 -72.8002 149.1902 181.2809 -21.3776 89.3952 145.5062
# 2 149.1902 -24.4964 -153.2952 48.5294 -82.5335 -123.8938
# 3 181.2809 -153.2952 -103.5530 49.6130 -74.0019 -161.1071
# 4 -21.3776 48.5294 49.6130 22.9407 18.5483 23.5421
# 5 89.3952 -82.5335 -74.0019 18.5483 -33.9969 -70.5873
# 6 145.5062 -123.8938 -161.1071 23.5421 -70.5873 -108.3331
#
#
#
# Elastic Compliance Matrix: (Units=1/GPa)
#
#
# Indices 1 2 3 4 5 6 
#
# 1 0.009776 0.001695 0.003323 -0.006351 -0.002214 0.006313
# 2 0.001695 0.012495 -0.006236 -0.009428 0.021269 -0.018647
# 3 0.003323 -0.006236 0.023246 -0.001764 -0.058984 0.015075
# 4 -0.006351 -0.009428 -0.001764 0.047563 -0.012455 0.023327
# 5 -0.002214 0.021269 -0.058984 -0.012455 0.241183 -0.099435
# 6 0.006313 -0.018647 0.015075 0.023327 -0.099435 0.068014
#
#
# Mechanical properties :
#
#
# Convention : Reuss Voigt Hill
#
# Bulk Modulus (GPa) = 23.21154 17.05580 20.13367
# Shear Modulus (GPa) = 11.93109 -49.07955 -18.57423
#
# Velocity S-wave (km/s) = 2.42397 -4.91628 -3.02442
# Velocity P-wave (km/s) = 4.38919 4.88130 1.51032
#
# Compressibility (1/GPa) = 0.04308202
#
# Stress axis : x y z
#
# Youngs Moduli (GPa) = 102.28786 80.03138 43.01837
#
# Poissons Ratio (x) = -0.13567 -0.14295
# Poissons Ratio (y) = -0.17340 0.26826
# Poissons Ratio (z) = -0.33991 0.49907
#
# Static dielectric constant tensor:
#      x y z
#    x 1.681240 0.008960 -0.009840 
#    y 0.008960 1.731230 0.016670 
#    z -0.009840 0.016670 1.731950 
# 
# From -- ./inp_files/600778.got.cif
#   From: 2010.05.17/outbox.cif.g08.bks.cpg/sg2_301_cif.got.tgz:600778.got - 2010.06.03 11:33:40.
