data_PCOD9002061
_publ_section_title
;
Structure prediction by ZEFSAII (Michael W. Deem and Ramdas Pophale) SiO2 
 PCOD9002061
Probable space group: P -1
;
_chemical_formula_sum "Si O2"
_cell_formula_units_Z 14
_cell_length_a 7.122654
_cell_length_b 13.984971
_cell_length_c 9.303648
_cell_angle_alpha 125.651425
_cell_angle_beta 133.074827
_cell_angle_gamma 62.306171
_cell_volume 546.589433
_symmetry_space_group_name_H-M "P -1"
_symmetry_group_IT_number 2
_symmetry_cell_setting 'triclinic'
loop_
_space_group_symop_operation_xyz
x,y,z
-x,-y,-z
loop_
_atom_site_type_symbol
_atom_site_label
_atom_site_fract_x
_atom_site_fract_y
_atom_site_fract_z
Si Si1 0.710024 0.986484 0.469245
Si Si2 0.322974 0.907974 0.968365
Si Si3 0.913660 0.836415 0.912182
Si Si4 0.562924 0.240088 0.590067
Si Si5 0.196250 0.270485 0.684146
Si Si6 0.677740 0.705658 0.894045
Si Si7 0.200041 0.549999 0.263386
O O1 0.563101 0.954822 0.219907
O O2 0.883533 0.863481 0.489304
O O3 0.500000 0.000000 0.500000
O O4 0.768467 0.121150 0.598029
O O5 0.155801 0.030456 0.944915
O O6 0.446516 0.810272 0.836449
O O7 0.157356 0.845851 0.946056
O O8 0.684575 0.801739 0.659432
O O9 0.916911 0.739628 0.953832
O O10 0.439793 0.275505 0.711778
O O11 0.659222 0.351026 0.658160
O O12 0.971244 0.377768 0.639735
O O13 0.277384 0.285014 0.904571
O O14 0.632980 0.573022 0.716612
O O15 0.000000 0.500000 0.000000
#
# Coordination Sequence:
#
# PCOD9002061 Si02
#       7
#     2   2   2   2   2   2   2
#     4   8  16  33  58  85 109 137 181 232 275 323
#     4   9  19  37  59  83 114 147 180 225 286 335
#     4  10  21  37  60  85 112 146 183 229 282 333
#     4  10  21  38  57  83 116 145 184 233 276 329
#     4   9  20  38  59  84 111 145 186 231 281 327
#     4  10  21  36  57  84 112 147 190 228 268 331
#     4  10  23  38  56  82 113 150 190 228 274 328
#
# _framework density 25.613375000000001
#
# number of rings (size 3 to 8) (size 9 to 14) (size 15 to 20)
#    0.000    2.571    0.000    0.429    0.000   12.571 
#    0.000   11.429    0.000    0.000    0.000    0.000 
#    0.000    0.000    0.000    0.000    0.000    0.000 
#
# Total GULP energy -78281.658816 kJ/mol
# GULP energy per Si atom -5591.547058 kJ/mol
# Density = 2.555508 g / cm^3
# Si number density = 25.613375 Si / 1000 Ang^3
#
#
#
# Elastic Constant Matrix: (Units=GPa)
#
#
# Indices 1 2 3 4 5 6 
#
# 1 149.7818 68.2287 33.2283 40.6037 -0.9822 9.1054
# 2 68.2287 142.2504 37.6164 54.0572 -3.0312 -1.4891
# 3 33.2283 37.6164 114.1453 35.5195 3.8307 8.2497
# 4 40.6037 54.0572 35.5195 61.1953 1.7754 0.5949
# 5 -0.9822 -3.0312 3.8307 1.7754 36.3111 10.4891
# 6 9.1054 -1.4891 8.2497 0.5949 10.4891 43.3905
#
#
#
# Elastic Compliance Matrix: (Units=1/GPa)
#
#
# Indices 1 2 3 4 5 6 
#
# 1 0.009166 -0.003105 -0.000588 -0.003000 0.000795 -0.002069
# 2 -0.003105 0.011757 -0.000582 -0.008028 0.001057 0.001020
# 3 -0.000588 -0.000582 0.010957 -0.005425 -0.000435 -0.001800
# 4 -0.003000 -0.008028 -0.005425 0.028616 -0.002005 0.001478
# 5 0.000795 0.001057 -0.000435 -0.002005 0.029886 -0.007245
# 6 -0.002069 0.001020 -0.001800 0.001478 -0.007245 0.025589
#
#
# Mechanical properties :
#
#
# Convention : Reuss Voigt Hill
#
# Bulk Modulus (GPa) = 42.86553 76.03602 59.45078
# Shear Modulus (GPa) = 37.79345 45.98633 41.88989
#
# Velocity S-wave (km/s) = 3.84544 4.24182 4.04848
# Velocity P-wave (km/s) = 6.04057 7.33084 6.71676
#
# Compressibility (1/GPa) = 0.02332877
#
# Stress axis : x y z
#
# Youngs Moduli (GPa) = 109.10262 85.05442 91.26886
#
# Poissons Ratio (x) = 0.26412 0.05371
# Poissons Ratio (y) = 0.33880 0.05307
# Poissons Ratio (z) = 0.06421 0.04946
#
# Static dielectric constant tensor:
#      x y z
#    x 1.980320 -0.063780 0.030140 
#    y -0.063780 2.219920 -0.132390 
#    z 0.030140 -0.132390 2.077680 
# 
# From -- ./inp_files/80356.got.cif
#   From: 2010.05.17/outbox.cif.g08.bks.cpg/sg2_41_cif.got.tgz:80356.got - 2010.06.03 11:33:40.
