data_PCOD9002342
_publ_section_title
;
Structure prediction by ZEFSAII (Michael W. Deem and Ramdas Pophale) SiO2 
 PCOD9002342
Probable space group: P -1
;
_chemical_formula_sum "Si O2"
_cell_formula_units_Z 14
_cell_length_a 5.546505
_cell_length_b 11.567730
_cell_length_c 26.490730
_cell_angle_alpha 25.178943
_cell_angle_beta 124.839190
_cell_angle_gamma 123.036330
_cell_volume 591.566647
_symmetry_space_group_name_H-M "P -1"
_symmetry_group_IT_number 2
_symmetry_cell_setting 'triclinic'
loop_
_space_group_symop_operation_xyz
x,y,z
-x,-y,-z
loop_
_atom_site_type_symbol
_atom_site_label
_atom_site_fract_x
_atom_site_fract_y
_atom_site_fract_z
Si Si1 0.819177 0.898232 0.088151
Si Si2 0.344661 0.582743 0.000718
Si Si3 0.708298 0.401596 0.607396
Si Si4 0.084117 0.670081 0.626208
Si Si5 0.309512 0.327822 0.333147
Si Si6 0.345497 0.210854 0.736026
Si Si7 0.892963 0.589544 0.115012
O O1 0.857145 0.654692 0.227852
O O2 0.894898 0.753817 0.102423
O O3 0.500000 0.000000 0.000000
O O4 0.015584 0.181976 0.006600
O O5 0.366993 0.909952 0.878828
O O6 0.500000 0.500000 0.000000
O O7 0.564555 0.466036 0.114163
O O8 0.000000 0.500000 0.000000
O O9 0.500000 0.500000 0.500000
O O10 0.500744 0.233051 0.690539
O O11 0.860282 0.649631 0.561101
O O12 0.999109 0.269780 0.672049
O O13 0.403354 0.807031 0.597560
O O14 0.950606 0.778681 0.618404
O O15 0.461116 0.573804 0.290192
O O16 0.148592 0.397511 0.233880
#
# Coordination Sequence:
#
# PCOD9002342 Si02
#       7
#     2   2   2   2   2   2   2
#     4  10  17  27  52  76 100 134 169 216 295 331
#     4  12  27  39  52  74 113 167 203 214 246 323
#     4  10  19  32  55  81 110 142 174 222 292 349
#     4   9  17  26  41  73 108 123 159 198 261 337
#     4   9  17  30  50  75  95 134 161 223 285 322
#     4  10  20  37  54  77 115 139 180 235 275 322
#     4  10  20  31  47  73 103 137 183 219 266 323
#
# _framework density 23.665973000000001
#
# number of rings (size 3 to 8) (size 9 to 14) (size 15 to 20)
#    0.000    2.000    1.429    4.714    4.000    0.000 
#    0.000    0.000    0.000    0.000    0.000    0.000 
#    0.000  144.000    0.000    0.000    0.000    0.000 
#
# Total GULP energy -78097.499220 kJ/mol
# GULP energy per Si atom -5578.392801 kJ/mol
# Density = 2.361211 g / cm^3
# Si number density = 23.665973 Si / 1000 Ang^3
#
#
#
# Elastic Constant Matrix: (Units=GPa)
#
#
# Indices 1 2 3 4 5 6 
#
# 1 183.1317 31.7013 52.5102 10.9316 8.3852 37.9952
# 2 31.7013 65.5696 36.9038 33.0043 8.8307 25.9842
# 3 52.5102 36.9038 86.5814 27.9053 11.8636 18.8537
# 4 10.9316 33.0043 27.9053 41.2910 5.3618 13.4415
# 5 8.3852 8.8307 11.8636 5.3618 47.9900 7.2603
# 6 37.9952 25.9842 18.8537 13.4415 7.2603 40.3541
#
#
#
# Elastic Compliance Matrix: (Units=1/GPa)
#
#
# Indices 1 2 3 4 5 6 
#
# 1 0.007856 -0.000678 -0.004248 0.003282 0.000363 -0.006135
# 2 -0.000678 0.032292 -0.004733 -0.018544 -0.000824 -0.011619
# 3 -0.004248 -0.004733 0.018706 -0.007870 -0.002336 0.001349
# 4 0.003282 -0.018544 -0.007870 0.044191 0.000184 -0.002226
# 5 0.000363 -0.000824 -0.002336 0.000184 0.021894 -0.002721
# 6 -0.006135 -0.011619 0.001349 -0.002226 -0.002721 0.038638
#
#
# Mechanical properties :
#
#
# Convention : Reuss Voigt Hill
#
# Bulk Modulus (GPa) = 25.29264 64.16815 44.73039
# Shear Modulus (GPa) = 25.50070 40.20485 32.85277
#
# Velocity S-wave (km/s) = 3.28613 4.12618 3.72988
# Velocity P-wave (km/s) = 5.01086 7.06211 6.12300
#
# Compressibility (1/GPa) = 0.03953719
#
# Stress axis : x y z
#
# Youngs Moduli (GPa) = 127.29176 30.96776 53.45829
#
# Poissons Ratio (x) = 0.02098 0.22706
# Poissons Ratio (y) = 0.08624 0.25303
# Poissons Ratio (z) = 0.54067 0.14658
#
# Static dielectric constant tensor:
#      x y z
#    x 2.377010 0.282140 0.093960 
#    y 0.282140 2.036890 0.046770 
#    z 0.093960 0.046770 2.133620 
# 
# From -- ./inp_files/592412.got.cif
#   From: 2010.05.17/outbox.cif.g08.bks.cpg/sg2_297_cif.got.tgz:592412.got - 2010.06.03 11:33:40.
