data_PCOD9002781
_publ_section_title
;
Structure prediction by ZEFSAII (Michael W. Deem and Ramdas Pophale) SiO2 
 PCOD9002781
Probable space group: P -1
;
_chemical_formula_sum "Si O2"
_cell_formula_units_Z 16
_cell_length_a 10.177447
_cell_length_b 8.479569
_cell_length_c 16.924558
_cell_angle_alpha 121.280467
_cell_angle_beta 147.859969
_cell_angle_gamma 63.933615
_cell_volume 664.071361
_symmetry_space_group_name_H-M "P -1"
_symmetry_group_IT_number 2
_symmetry_cell_setting 'triclinic'
loop_
_space_group_symop_operation_xyz
x,y,z
-x,-y,-z
loop_
_atom_site_type_symbol
_atom_site_label
_atom_site_fract_x
_atom_site_fract_y
_atom_site_fract_z
Si Si1 0.965836 0.284715 0.444489
Si Si2 0.647844 0.191659 0.779393
Si Si3 0.690900 0.620583 0.232709
Si Si4 0.404116 0.170442 0.109565
Si Si5 0.907649 0.762927 0.878369
Si Si6 0.726208 0.239764 0.067381
Si Si7 0.967747 0.330517 0.832085
Si Si8 0.699972 0.018183 0.535905
O O1 0.066303 0.270678 0.583512
O O2 0.129761 0.160624 0.436173
O O3 0.000000 0.500000 0.500000
O O4 0.688466 0.220861 0.272649
O O5 0.478027 0.351545 0.769001
O O6 0.485918 0.007279 0.638477
O O7 0.781573 0.273942 0.792856
O O8 0.859224 0.143796 0.935025
O O9 0.745392 0.412291 0.180919
O O10 0.507799 0.704781 0.094605
O O11 0.307756 0.192921 0.157058
O O12 0.235003 0.290399 0.994951
O O13 0.348999 0.963316 0.997250
O O14 0.001840 0.783080 0.841000
O O15 0.940496 0.540393 0.848278
O O16 0.875877 0.193130 0.680624
O O17 0.500000 0.000000 0.500000
#
# Coordination Sequence:
#
# PCOD9002781 Si02
#       8
#     2   2   2   2   2   2   2   2
#     4  11  26  39  64  96 135 162 206 281 326 366
#     4   8  16  35  61  88 118 165 205 260 309 372
#     4   9  21  41  64  86 128 170 210 254 331 376
#     4  11  24  39  61  97 128 163 219 265 322 372
#     4  10  21  39  65  90 129 172 213 258 321 382
#     4  10  22  42  66  88 125 173 215 257 307 398
#     4  10  21  36  64  96 124 164 219 263 318 375
#     4   9  20  37  59  92 127 165 205 255 323 381
#
# _framework density 24.093796999999999
#
# number of rings (size 3 to 8) (size 9 to 14) (size 15 to 20)
#    0.000    2.250    0.000    1.875   12.250    4.000 
#    0.000    3.125    0.000    0.000    0.000    0.000 
#    0.000    0.000    0.000    0.000    0.000    0.000 
#
# Total GULP energy -89261.237479 kJ/mol
# GULP energy per Si atom -5578.827342 kJ/mol
# Density = 2.403896 g / cm^3
# Si number density = 24.093797 Si / 1000 Ang^3
#
#
#
# Elastic Constant Matrix: (Units=GPa)
#
#
# Indices 1 2 3 4 5 6 
#
# 1 74.0584 24.8021 42.6535 0.6935 4.0671 -32.7174
# 2 24.8021 57.0789 23.6179 16.3144 2.1277 -17.7360
# 3 42.6535 23.6179 152.8485 10.0383 6.1788 -16.1052
# 4 0.6935 16.3144 10.0383 25.4790 -11.5995 0.6294
# 5 4.0671 2.1277 6.1788 -11.5995 33.5946 1.0455
# 6 -32.7174 -17.7360 -16.1052 0.6294 1.0455 40.5903
#
#
#
# Elastic Compliance Matrix: (Units=1/GPa)
#
#
# Indices 1 2 3 4 5 6 
#
# 1 0.024990 -0.004778 -0.004696 0.003268 -0.001234 0.016173
# 2 -0.004778 0.029788 -0.000323 -0.023445 -0.009644 0.009648
# 3 -0.004696 -0.000323 0.008191 -0.003902 -0.002247 -0.000558
# 4 0.003268 -0.023445 -0.003902 0.067576 0.025477 -0.010862
# 5 -0.001234 -0.009644 -0.002247 0.025477 0.039971 -0.007525
# 6 0.016173 0.009648 -0.000558 -0.010862 -0.007525 0.042029
#
#
# Mechanical properties :
#
#
# Convention : Reuss Voigt Hill
#
# Bulk Modulus (GPa) = 23.05528 51.79252 37.42390
# Shear Modulus (GPa) = 20.27592 32.79357 26.53475
#
# Velocity S-wave (km/s) = 2.90408 3.69328 3.32220
# Velocity P-wave (km/s) = 4.56450 6.30317 5.50294
#
# Compressibility (1/GPa) = 0.04337402
#
# Stress axis : x y z
#
# Youngs Moduli (GPa) = 40.01670 33.57020 122.08368
#
# Poissons Ratio (x) = 0.16041 0.57329
# Poissons Ratio (y) = 0.19122 0.03945
# Poissons Ratio (z) = 0.18791 0.01085
#
# Static dielectric constant tensor:
#      x y z
#    x 2.008250 0.011540 -0.051840 
#    y 0.011540 2.105450 -0.048680 
#    z -0.051840 -0.048680 1.974270 
# 
# From -- ./inp_files/594216.got.cif
#   From: 2010.05.17/outbox.cif.g08.bks.cpg/sg2_298_cif.got.tgz:594216.got - 2010.06.03 11:33:40.
