data_PCOD9002332
_publ_section_title
;
Structure prediction by ZEFSAII (Michael W. Deem and Ramdas Pophale) SiO2 
 PCOD9002332
Probable space group: P -1
;
_chemical_formula_sum "Si O2"
_cell_formula_units_Z 16
_cell_length_a 12.359640
_cell_length_b 8.138771
_cell_length_c 10.778516
_cell_angle_alpha 65.685786
_cell_angle_beta 99.314737
_cell_angle_gamma 131.561724
_cell_volume 729.395684
_symmetry_space_group_name_H-M "P -1"
_symmetry_group_IT_number 2
_symmetry_cell_setting 'triclinic'
loop_
_space_group_symop_operation_xyz
x,y,z
-x,-y,-z
loop_
_atom_site_type_symbol
_atom_site_label
_atom_site_fract_x
_atom_site_fract_y
_atom_site_fract_z
Si Si1 0.429021 0.603097 0.695371
Si Si2 0.205816 0.483459 0.178053
Si Si3 0.750053 0.487209 0.547292
Si Si4 0.253541 0.923306 0.342250
Si Si5 0.133357 0.176566 0.873940
Si Si6 0.024272 0.953825 0.359092
Si Si7 0.755358 0.077755 0.952208
Si Si8 0.532429 0.399149 0.923413
O O1 0.366261 0.568373 0.557056
O O2 0.289716 0.456878 0.810668
O O3 0.496054 0.478303 0.770882
O O4 0.571027 0.880356 0.662932
O O5 0.293860 0.581825 0.295372
O O6 0.174870 0.655169 0.086207
O O7 0.303537 0.490561 0.091824
O O8 0.068378 0.207200 0.262615
O O9 0.797157 0.336395 0.562735
O O10 0.891904 0.772283 0.484580
O O11 0.164603 0.975403 0.388313
O O12 0.226858 0.937548 0.187265
O O13 0.054970 0.182844 0.741789
O O14 0.189448 0.030729 0.924352
O O15 0.000000 0.000000 0.000000
O O16 0.580391 0.887363 0.998571
O O17 0.500000 0.500000 0.000000
#
# Coordination Sequence:
#
# PCOD9002332 Si02
#       8
#     2   2   2   2   2   2   2   2
#     4  10  21  37  63  90 120 157 205 250 299 356
#     4  11  23  38  62  85 126 164 197 250 307 365
#     4  10  24  39  58  88 127 154 210 255 300 352
#     4  11  19  38  64  89 118 161 211 252 294 360
#     4  10  21  36  61  91 126 155 202 253 298 359
#     4  11  21  39  61  85 118 170 205 245 304 360
#     4  10  21  36  59  95 124 153 201 251 307 356
#     4  11  20  38  63  89 117 155 203 246 302 371
#
# _framework density 21.935969
#
# number of rings (size 3 to 8) (size 9 to 14) (size 15 to 20)
#    0.000    1.500    3.750    1.500    1.750    1.000 
#    0.000    0.000    0.000    0.000    0.000    0.000 
#    0.000    0.000    0.000    0.000    0.000    0.000 
#
# Total GULP energy -89103.184970 kJ/mol
# GULP energy per Si atom -5568.949061 kJ/mol
# Density = 2.188604 g / cm^3
# Si number density = 21.935969 Si / 1000 Ang^3
#
#
#
# Elastic Constant Matrix: (Units=GPa)
#
#
# Indices 1 2 3 4 5 6 
#
# 1 51.2310 20.3339 10.3070 -4.9545 2.6722 4.2931
# 2 20.3339 79.0078 -1.0946 -29.6275 9.5367 4.8584
# 3 10.3070 -1.0946 56.3402 -2.4096 8.3581 1.4736
# 4 -4.9545 -29.6275 -2.4096 45.3671 -0.3433 7.9707
# 5 2.6722 9.5367 8.3581 -0.3433 29.4557 -3.6215
# 6 4.2931 4.8584 1.4736 7.9707 -3.6215 31.2068
#
#
#
# Elastic Compliance Matrix: (Units=1/GPa)
#
#
# Indices 1 2 3 4 5 6 
#
# 1 0.022981 -0.006770 -0.004567 -0.001923 0.001226 -0.001258
# 2 -0.006770 0.021342 0.003661 0.014602 -0.008053 -0.007228
# 3 -0.004567 0.003661 0.019854 0.003337 -0.006674 -0.002506
# 4 -0.001923 0.014602 0.003337 0.033514 -0.006521 -0.011483
# 5 0.001226 -0.008053 -0.006674 -0.006521 0.039199 0.007615
# 6 -0.001258 -0.007228 -0.002506 -0.011483 0.007615 0.037278
#
#
# Mechanical properties :
#
#
# Convention : Reuss Voigt Hill
#
# Bulk Modulus (GPa) = 20.48046 27.29684 23.88865
# Shear Modulus (GPa) = 24.29620 31.67477 27.98548
#
# Velocity S-wave (km/s) = 3.33167 3.80408 3.57568
# Velocity P-wave (km/s) = 4.91495 5.63609 5.28783
#
# Compressibility (1/GPa) = 0.04882703
#
# Stress axis : x y z
#
# Youngs Moduli (GPa) = 43.51505 46.85560 50.36702
#
# Poissons Ratio (x) = 0.31719 0.23002
# Poissons Ratio (y) = 0.29458 -0.18441
# Poissons Ratio (z) = 0.19872 -0.17155
#
# Static dielectric constant tensor:
#      x y z
#    x 1.800820 0.014550 -0.058230 
#    y 0.014550 1.890520 0.003250 
#    z -0.058230 0.003250 1.843620 
# 
# From -- ./inp_files/333585.got.cif
#   From: 2010.05.17/outbox.cif.g08.bks.cpg/sg2_167_cif.got.tgz:333585.got - 2010.06.03 11:33:40.
