data_PCOD9002906
_publ_section_title
;
Structure prediction by ZEFSAII (Michael W. Deem and Ramdas Pophale) SiO2 
 PCOD9002906
Probable space group: P -1
;
_chemical_formula_sum "Si O2"
_cell_formula_units_Z 14
_cell_length_a 11.381412
_cell_length_b 5.226108
_cell_length_c 14.738463
_cell_angle_alpha 92.409306
_cell_angle_beta 134.274126
_cell_angle_gamma 79.848512
_cell_volume 613.768680
_symmetry_space_group_name_H-M "P -1"
_symmetry_group_IT_number 2
_symmetry_cell_setting 'triclinic'
loop_
_space_group_symop_operation_xyz
x,y,z
-x,-y,-z
loop_
_atom_site_type_symbol
_atom_site_label
_atom_site_fract_x
_atom_site_fract_y
_atom_site_fract_z
Si Si1 0.397975 0.184667 0.079462
Si Si2 0.628410 0.481420 0.298323
Si Si3 0.346726 0.349525 0.346802
Si Si4 0.114237 0.211682 0.065424
Si Si5 0.452942 0.205208 0.582068
Si Si6 0.035430 0.737213 0.458839
Si Si7 0.283979 0.265080 0.819349
O O1 0.463226 0.377633 0.187324
O O2 0.246966 0.114454 0.054489
O O3 0.561743 0.966229 0.135196
O O4 0.320523 0.308557 0.944462
O O5 0.589848 0.754225 0.334792
O O6 0.699342 0.500137 0.235942
O O7 0.763312 0.319332 0.437212
O O8 0.212472 0.251069 0.210965
O O9 0.311900 0.336171 0.435312
O O10 0.402758 0.620107 0.354669
O O11 0.501829 0.102215 0.416275
O O12 0.000000 0.500000 0.000000
O O13 0.000000 0.000000 0.000000
O O14 0.903462 0.775283 0.305217
O O15 0.000000 0.500000 0.500000
O O16 0.000000 0.000000 0.500000
#
# Coordination Sequence:
#
# PCOD9002906 Si02
#       7
#     2   2   2   2   2   2   2
#     4  11  23  42  69  97 132 184 223 275 334 407
#     4  11  21  38  69  97 134 174 219 275 339 406
#     4  10  21  42  61  95 125 168 228 272 326 386
#     4  12  27  45  67  96 137 180 226 280 334 397
#     4  10  21  36  70  93 124 168 219 278 325 393
#     4  10  21  39  60  94 131 167 212 270 326 387
#     4  10  23  41  66 101 136 174 223 272 337 408
#
# _framework density 22.809896999999999
#
# number of rings (size 3 to 8) (size 9 to 14) (size 15 to 20)
#    0.000    1.429    2.857    2.143    2.000    1.143 
#    0.000    2.857    0.000    0.000    0.000    0.000 
#    0.000    0.000    0.000    0.000    0.000    0.000 
#
# Total GULP energy -78018.122569 kJ/mol
# GULP energy per Si atom -5572.723041 kJ/mol
# Density = 2.275798 g / cm^3
# Si number density = 22.809897 Si / 1000 Ang^3
#
#
#
# Elastic Constant Matrix: (Units=GPa)
#
#
# Indices 1 2 3 4 5 6 
#
# 1 78.3072 16.6944 69.5283 19.3577 -9.9641 9.0699
# 2 16.6944 101.8307 21.2698 10.1076 -0.9022 3.5485
# 3 69.5283 21.2698 175.6456 4.7201 -6.8242 2.9547
# 4 19.3577 10.1076 4.7201 32.3751 -0.4220 1.3009
# 5 -9.9641 -0.9022 -6.8242 -0.4220 26.2897 12.6610
# 6 9.0699 3.5485 2.9547 1.3009 12.6610 30.3472
#
#
#
# Elastic Compliance Matrix: (Units=1/GPa)
#
#
# Indices 1 2 3 4 5 6 
#
# 1 0.028990 -0.000553 -0.010233 -0.014963 0.014297 -0.012927
# 2 -0.000553 0.010416 -0.000939 -0.002741 0.000333 -0.000983
# 3 -0.010233 -0.000939 0.009560 0.004850 -0.002915 0.003246
# 4 -0.014963 -0.002741 0.004850 0.039687 -0.006421 0.005298
# 5 0.014297 0.000333 -0.002915 -0.006421 0.055584 -0.026943
# 6 -0.012927 -0.000983 0.003246 0.005298 -0.026943 0.047628
#
#
# Mechanical properties :
#
#
# Convention : Reuss Voigt Hill
#
# Bulk Modulus (GPa) = 39.19344 63.41872 51.30608
# Shear Modulus (GPa) = 22.33932 34.35514 28.34723
#
# Velocity S-wave (km/s) = 3.13288 3.88513 3.52910
# Velocity P-wave (km/s) = 5.50514 6.92742 6.25682
#
# Compressibility (1/GPa) = 0.02551447
#
# Stress axis : x y z
#
# Youngs Moduli (GPa) = 34.49510 96.00324 104.60580
#
# Poissons Ratio (x) = 0.05307 1.07047
# Poissons Ratio (y) = 0.01907 0.09827
# Poissons Ratio (z) = 0.35300 0.09019
#
# Static dielectric constant tensor:
#      x y z
#    x 1.977940 0.001930 -0.047430 
#    y 0.001930 1.896310 -0.088720 
#    z -0.047430 -0.088720 2.023790 
# 
# From -- ./inp_files/123785.got.cif
#   From: 2010.05.17/outbox.cif.g08.bks.cpg/sg2_62_cif.got.tgz:123785.got - 2010.06.03 11:33:40.
