data_PCOD9002580
_publ_section_title
;
Structure prediction by ZEFSAII (Michael W. Deem and Ramdas Pophale) SiO2 
 PCOD9002580
Probable space group: P -1
;
_chemical_formula_sum "Si O2"
_cell_formula_units_Z 16
_cell_length_a 16.654293
_cell_length_b 5.579827
_cell_length_c 9.064734
_cell_angle_alpha 53.188399
_cell_angle_beta 87.664082
_cell_angle_gamma 72.621479
_cell_volume 633.006205
_symmetry_space_group_name_H-M "P -1"
_symmetry_group_IT_number 2
_symmetry_cell_setting 'triclinic'
loop_
_space_group_symop_operation_xyz
x,y,z
-x,-y,-z
loop_
_atom_site_type_symbol
_atom_site_label
_atom_site_fract_x
_atom_site_fract_y
_atom_site_fract_z
Si Si1 0.513372 0.692270 0.282432
Si Si2 0.681626 0.537274 0.808298
Si Si3 0.679700 0.900565 0.949102
Si Si4 0.214618 0.359219 0.470055
Si Si5 0.039709 0.745539 0.221575
Si Si6 0.791905 0.346539 0.313951
Si Si7 0.515247 0.184759 0.286800
Si Si8 0.028619 0.675768 0.796824
O O1 0.500000 0.500000 0.500000
O O2 0.555334 0.435681 0.249603
O O3 0.419213 0.898709 0.153094
O O4 0.556457 0.938550 0.246423
O O5 0.716317 0.733628 0.850773
O O6 0.694983 0.668959 0.598964
O O7 0.582244 0.623971 0.825057
O O8 0.716933 0.157209 0.924023
O O9 0.706382 0.600177 0.163252
O O10 0.141487 0.586108 0.283432
O O11 0.203639 0.544963 0.557121
O O12 0.205512 0.011226 0.590287
O O13 0.005228 0.458778 0.293679
O O14 0.010602 0.952825 0.295222
O O15 0.000000 0.000000 0.000000
O O16 0.871188 0.399778 0.203277
O O17 0.500000 0.000000 0.500000
O O18 0.000000 0.500000 0.000000
#
# Coordination Sequence:
#
# PCOD9002580 Si02
#       8
#     2   2   2   2   2   2   2   2
#     4   8  14  27  49  84 113 140 190 247 279 317
#     4  10  21  36  62  88 117 162 199 244 290 348
#     4  10  21  36  62  88 117 162 199 244 290 348
#     4  12  26  41  61  91 125 156 193 247 309 363
#     4  10  23  40  63  85 111 157 201 246 292 353
#     4  12  26  41  61  91 125 156 193 247 309 363
#     4   8  14  27  49  84 113 140 190 247 279 317
#     4  10  23  40  63  85 111 157 201 246 292 353
#
# _framework density 25.276211
#
# number of rings (size 3 to 8) (size 9 to 14) (size 15 to 20)
#    0.000    2.000    0.000    3.000    7.000    3.000 
#    0.000    0.000    0.000    0.000    0.000   84.000 
#    0.000    0.000    0.000    0.000    0.000    0.000 
#
# Total GULP energy -89345.969406 kJ/mol
# GULP energy per Si atom -5584.123088 kJ/mol
# Density = 2.521868 g / cm^3
# Si number density = 25.276211 Si / 1000 Ang^3
#
#
#
# Elastic Constant Matrix: (Units=GPa)
#
#
# Indices 1 2 3 4 5 6 
#
# 1 83.9677 32.9971 10.8271 -4.4366 -12.2478 -6.9863
# 2 32.9971 255.2844 13.2708 4.2925 -6.5027 35.7295
# 3 10.8271 13.2708 101.3002 -11.8293 9.8818 -9.5334
# 4 -4.4366 4.2925 -11.8293 20.5003 -8.1291 0.4017
# 5 -12.2478 -6.5027 9.8818 -8.1291 30.6383 -1.8206
# 6 -6.9863 35.7295 -9.5334 0.4017 -1.8206 33.5181
#
#
#
# Elastic Compliance Matrix: (Units=1/GPa)
#
#
# Indices 1 2 3 4 5 6 
#
# 1 0.015018 -0.002673 -0.000689 0.006348 0.007707 0.006126
# 2 -0.002673 0.005269 -0.001255 -0.002516 -0.000601 -0.006534
# 3 -0.000689 -0.001255 0.011407 0.005632 -0.002475 0.004236
# 4 0.006348 -0.002516 0.005632 0.060380 0.016551 0.005783
# 5 0.007707 -0.000601 -0.002475 0.016551 0.040994 0.003572
# 6 0.006126 -0.006534 0.004236 0.005783 0.003572 0.039406
#
#
# Mechanical properties :
#
#
# Convention : Reuss Voigt Hill
#
# Bulk Modulus (GPa) = 44.52102 61.63803 53.07953
# Shear Modulus (GPa) = 26.42775 42.49517 34.46146
#
# Velocity S-wave (km/s) = 3.23702 4.10473 3.69642
# Velocity P-wave (km/s) = 5.62344 6.84864 6.26606
#
# Compressibility (1/GPa) = 0.02246130
#
# Stress axis : x y z
#
# Youngs Moduli (GPa) = 66.58688 189.77527 87.66236
#
# Poissons Ratio (x) = 0.50732 0.06038
# Poissons Ratio (y) = 0.17800 0.10999
# Poissons Ratio (z) = 0.04587 0.23810
#
# Static dielectric constant tensor:
#      x y z
#    x 1.984420 0.025590 0.023660 
#    y 0.025590 2.025630 -0.003210 
#    z 0.023660 -0.003210 1.993030 
# 
# From -- ./inp_files/339626.got.cif
#   From: 2010.05.17/outbox.cif.g08.bks.cpg/sg2_170_cif.got.tgz:339626.got - 2010.06.03 11:33:40.
