data_PCOD9002457
_publ_section_title
;
Structure prediction by ZEFSAII (Michael W. Deem and Ramdas Pophale) SiO2 
 PCOD9002457
Probable space group: P -1
;
_chemical_formula_sum "Si O2"
_cell_formula_units_Z 14
_cell_length_a 8.655437
_cell_length_b 14.011802
_cell_length_c 10.158812
_cell_angle_alpha 88.196674
_cell_angle_beta 80.682162
_cell_angle_gamma 149.241332
_cell_volume 585.176785
_symmetry_space_group_name_H-M "P -1"
_symmetry_group_IT_number 2
_symmetry_cell_setting 'triclinic'
loop_
_space_group_symop_operation_xyz
x,y,z
-x,-y,-z
loop_
_atom_site_type_symbol
_atom_site_label
_atom_site_fract_x
_atom_site_fract_y
_atom_site_fract_z
Si Si1 0.488637 0.036332 0.238313
Si Si2 0.664369 0.813326 0.976553
Si Si3 0.623392 0.304074 0.327680
Si Si4 0.815122 0.784605 0.682838
Si Si5 0.262299 0.427920 0.136305
Si Si6 0.567243 0.167224 0.585411
Si Si7 0.741105 0.258372 0.849373
O O1 0.459910 0.130498 0.277149
O O2 0.879047 0.224498 0.158730
O O3 0.380775 0.917145 0.388399
O O4 0.288852 0.871697 0.161519
O O5 0.407451 0.610516 0.101135
O O6 0.490185 0.823207 0.003884
O O7 0.736066 0.800589 0.828646
O O8 0.000000 0.000000 0.000000
O O9 0.377701 0.258765 0.396961
O O10 0.760662 0.323230 0.436919
O O11 0.901406 0.507668 0.198146
O O12 0.713778 0.621204 0.731739
O O13 0.197345 0.988720 0.604633
O O14 0.500000 0.500000 0.000000
O O15 0.614120 0.227860 0.725802
#
# Coordination Sequence:
#
# PCOD9002457 Si02
#       7
#     2   2   2   2   2   2   2
#     4   9  20  37  58  86 110 156 198 223 282 346
#     4  11  18  38  63  82 113 152 198 232 279 356
#     4  12  21  38  59  88 123 146 186 251 287 321
#     4  10  22  36  60  88 114 153 187 240 299 326
#     4   9  17  36  59  78 113 153 193 228 274 356
#     4   9  20  40  60  81 117 158 197 224 277 355
#     4  10  21  36  61  85 110 154 201 224 282 343
#
# _framework density 23.924393999999999
#
# number of rings (size 3 to 8) (size 9 to 14) (size 15 to 20)
#    0.857    1.143    2.857    2.143    0.000    0.571 
#    2.571    0.714    0.000    2.571    0.000    0.000 
#    0.000    0.000    0.000    0.000    0.000    0.000 
#
# Total GULP energy -78056.133142 kJ/mol
# GULP energy per Si atom -5575.438082 kJ/mol
# Density = 2.386994 g / cm^3
# Si number density = 23.924394 Si / 1000 Ang^3
#
#
#
# Elastic Constant Matrix: (Units=GPa)
#
#
# Indices 1 2 3 4 5 6 
#
# 1 84.9824 23.8866 -6.1205 -12.7437 1.2874 -22.8105
# 2 23.8866 78.4550 10.3697 -13.0947 3.7607 -24.3010
# 3 -6.1205 10.3697 71.5650 2.8732 7.6157 -12.8874
# 4 -12.7437 -13.0947 2.8732 32.2237 -4.4002 -3.4632
# 5 1.2874 3.7607 7.6157 -4.4002 36.0850 -4.6892
# 6 -22.8105 -24.3010 -12.8874 -3.4632 -4.6892 38.2107
#
#
#
# Elastic Compliance Matrix: (Units=1/GPa)
#
#
# Indices 1 2 3 4 5 6 
#
# 1 0.016222 -0.000798 0.003074 0.007158 0.001159 0.011005
# 2 -0.000798 0.018078 -0.001045 0.008488 0.000901 0.011548
# 3 0.003074 -0.001045 0.015781 -0.000306 -0.002569 0.006150
# 4 0.007158 0.008488 -0.000306 0.039585 0.005550 0.013837
# 5 0.001159 0.000901 -0.002569 0.005550 0.029382 0.004507
# 6 0.011005 0.011548 0.006150 0.013837 0.004507 0.043966
#
#
# Mechanical properties :
#
#
# Convention : Reuss Voigt Hill
#
# Bulk Modulus (GPa) = 19.03148 32.36378 25.69763
# Shear Modulus (GPa) = 28.07960 35.09499 31.58730
#
# Velocity S-wave (km/s) = 3.42962 3.83418 3.63753
# Velocity P-wave (km/s) = 4.86366 5.75831 5.32979
#
# Compressibility (1/GPa) = 0.05254452
#
# Stress axis : x y z
#
# Youngs Moduli (GPa) = 61.64308 55.31699 63.36815
#
# Poissons Ratio (x) = 0.04412 -0.19479
# Poissons Ratio (y) = 0.04916 0.06620
# Poissons Ratio (z) = -0.18949 0.05779
#
# Static dielectric constant tensor:
#      x y z
#    x 1.972440 -0.013900 0.051810 
#    y -0.013900 1.904380 -0.006230 
#    z 0.051810 -0.006230 1.988050 
# 
# From -- ./inp_files/176115.got.cif
#   From: 2010.05.17/outbox.cif.g08.bks.cpg/sg2_89_cif.got.tgz:176115.got - 2010.06.03 11:33:40.
