data_PCOD9002793
_publ_section_title
;
Structure prediction by ZEFSAII (Michael W. Deem and Ramdas Pophale) SiO2 
 PCOD9002793
Probable space group: P -1
;
_chemical_formula_sum "Si O2"
_cell_formula_units_Z 16
_cell_length_a 18.704865
_cell_length_b 13.553233
_cell_length_c 9.731074
_cell_angle_alpha 42.818666
_cell_angle_beta 107.020431
_cell_angle_gamma 141.963921
_cell_volume 756.957863
_symmetry_space_group_name_H-M "P -1"
_symmetry_group_IT_number 2
_symmetry_cell_setting 'triclinic'
loop_
_space_group_symop_operation_xyz
x,y,z
-x,-y,-z
loop_
_atom_site_type_symbol
_atom_site_label
_atom_site_fract_x
_atom_site_fract_y
_atom_site_fract_z
Si Si1 0.190302 0.561684 0.059143
Si Si2 0.647127 0.668668 0.841353
Si Si3 0.614364 0.812414 0.419414
Si Si4 0.238258 0.755464 0.380322
Si Si5 0.973396 0.599142 0.124529
Si Si6 0.999407 0.302099 0.469531
Si Si7 0.550118 0.178306 0.211814
Si Si8 0.289277 0.146605 0.865981
O O1 0.060568 0.385311 0.053741
O O2 0.302681 0.633831 0.981683
O O3 0.305424 0.896680 0.806464
O O4 0.094337 0.370944 0.339960
O O5 0.675541 0.803731 0.576615
O O6 0.813218 0.950413 0.728510
O O7 0.500000 0.500000 0.000000
O O8 0.593518 0.413886 0.043620
O O9 0.423217 0.482817 0.653394
O O10 0.655781 0.826534 0.276706
O O11 0.180924 0.654726 0.607665
O O12 0.096698 0.461781 0.502254
O O13 0.396675 0.933144 0.278179
O O14 0.272004 0.979588 0.127757
O O15 0.008695 0.488319 0.239956
O O16 0.117871 0.914405 0.969310
O O17 0.500000 0.000000 0.500000
#
# Coordination Sequence:
#
# PCOD9002793 Si02
#       8
#     2   2   2   2   2   2   2   2
#     4  12  23  42  69  96 138 178 214 275 337 396
#     4  12  25  42  71  98 130 172 229 271 323 405
#     4  11  21  39  63 103 127 168 221 269 324 386
#     4  11  22  42  65  96 133 178 217 278 328 387
#     4  11  20  38  66  97 134 172 216 279 325 388
#     4  11  23  40  67 102 129 169 230 275 327 389
#     4  12  26  47  63  95 138 179 219 269 342 398
#     4  10  21  36  65 100 133 161 224 280 323 377
#
# _framework density 21.137239000000001
#
# number of rings (size 3 to 8) (size 9 to 14) (size 15 to 20)
#    0.000    0.750    6.250    4.125    1.750    1.000 
#    0.000    1.875    0.000    0.000    0.000    0.000 
#    0.000    0.000    0.000    0.000    0.000    0.000 
#
# Total GULP energy -89463.661546 kJ/mol
# GULP energy per Si atom -5591.478847 kJ/mol
# Density = 2.108913 g / cm^3
# Si number density = 21.137239 Si / 1000 Ang^3
#
#
#
# Elastic Constant Matrix: (Units=GPa)
#
#
# Indices 1 2 3 4 5 6 
#
# 1 108.3600 26.0254 21.8774 -10.2369 -18.2728 -5.7376
# 2 26.0254 104.0255 24.9955 -20.4266 -3.3234 20.1329
# 3 21.8774 24.9955 72.0426 -15.5032 -13.5098 -6.7208
# 4 -10.2369 -20.4266 -15.5032 19.3556 1.5781 -32.4468
# 5 -18.2728 -3.3234 -13.5098 1.5781 30.3493 -0.8632
# 6 -5.7376 20.1329 -6.7208 -32.4468 -0.8632 14.7456
#
#
#
# Elastic Compliance Matrix: (Units=1/GPa)
#
#
# Indices 1 2 3 4 5 6 
#
# 1 0.010586 -0.002071 -0.002692 -0.004065 0.005077 -0.002928
# 2 -0.002071 0.012495 -0.002366 0.008028 -0.001388 -0.001361
# 3 -0.002692 -0.002366 0.013814 -0.007971 0.004433 -0.008801
# 4 -0.004065 0.008028 -0.007971 -0.009072 -0.005682 -0.036471
# 5 0.005077 -0.001388 0.004433 -0.005682 0.037999 -0.004388
# 6 -0.002928 -0.001361 -0.008801 -0.036471 -0.004388 -0.015984
#
#
# Mechanical properties :
#
#
# Convention : Reuss Voigt Hill
#
# Bulk Modulus (GPa) = 44.17491 47.80275 45.98883
# Shear Modulus (GPa) = 69.79076 26.99209 48.39142
#
# Velocity S-wave (km/s) = 5.75236 3.57738 4.78995
# Velocity P-wave (km/s) = 8.06622 6.30302 7.23851
#
# Compressibility (1/GPa) = 0.02263728
#
# Stress axis : x y z
#
# Youngs Moduli (GPa) = 94.45995 80.03151 72.38950
#
# Poissons Ratio (x) = 0.16575 0.19489
# Poissons Ratio (y) = 0.19563 0.17127
# Poissons Ratio (z) = 0.25430 0.18935
#
# Static dielectric constant tensor:
#      x y z
#    x 1.747000 0.012750 -0.043710 
#    y 0.012750 1.779360 -0.030620 
#    z -0.043710 -0.030620 1.791340 
# 
# From -- ./inp_files/332908.got.cif
#   From: 2010.05.17/outbox.cif.g08.bks.cpg/sg2_167_cif.got.tgz:332908.got - 2010.06.03 11:33:40.
