data_PCOD9002356
_publ_section_title
;
Structure prediction by ZEFSAII (Michael W. Deem and Ramdas Pophale) SiO2 
 PCOD9002356
Probable space group: P -1
;
_chemical_formula_sum "Si O2"
_cell_formula_units_Z 16
_cell_length_a 15.801955
_cell_length_b 12.920691
_cell_length_c 9.281142
_cell_angle_alpha 51.132430
_cell_angle_beta 110.905751
_cell_angle_gamma 67.017182
_cell_volume 737.742477
_symmetry_space_group_name_H-M "P -1"
_symmetry_group_IT_number 2
_symmetry_cell_setting 'triclinic'
loop_
_space_group_symop_operation_xyz
x,y,z
-x,-y,-z
loop_
_atom_site_type_symbol
_atom_site_label
_atom_site_fract_x
_atom_site_fract_y
_atom_site_fract_z
Si Si1 0.323832 0.702530 0.798117
Si Si2 0.009627 0.970064 0.202712
Si Si3 0.975567 0.354877 0.520911
Si Si4 0.320925 0.263407 0.456175
Si Si5 0.897429 0.544637 0.612857
Si Si6 0.829880 0.278596 0.087042
Si Si7 0.772404 0.888755 0.633479
Si Si8 0.382345 0.063848 0.263783
O O1 0.183273 0.818191 0.501396
O O2 0.317900 0.614137 0.010763
O O3 0.261877 0.925302 0.613912
O O4 0.500000 0.500000 0.000000
O O5 0.006028 0.817442 0.366580
O O6 0.856926 0.222712 0.981927
O O7 0.000000 0.000000 0.000000
O O8 0.975091 0.365375 0.684562
O O9 0.106472 0.299060 0.583136
O O10 0.791194 0.641423 0.119037
O O11 0.271938 0.306524 0.555098
O O12 0.286038 0.161990 0.454639
O O13 0.509108 0.077402 0.691569
O O14 0.201457 0.525819 0.084333
O O15 0.033515 0.369413 0.977498
O O16 0.000000 0.000000 0.500000
O O17 0.668022 0.005193 0.619126
O O18 0.500000 0.000000 0.500000
#
# Coordination Sequence:
#
# PCOD9002356 Si02
#       8
#     2   2   2   2   2   2   2   2
#     4  11  24  39  64  95 126 163 212 258 310 373
#     4  11  24  42  65  85 132 168 208 249 321 371
#     4  10  22  39  60  86 120 160 199 249 306 363
#     4  11  21  36  62  87 123 152 205 250 302 353
#     4  10  21  36  60  91 114 152 209 249 295 358
#     4  10  23  37  62  95 123 163 211 255 310 372
#     4  10  21  36  60  85 124 152 201 249 303 350
#     4   9  21  35  60  86 115 155 197 246 303 356
#
# _framework density 21.687785000000002
#
# number of rings (size 3 to 8) (size 9 to 14) (size 15 to 20)
#    0.000    1.750    0.000    4.125   15.750    0.500 
#    0.000    0.625    0.000    0.000    0.000    0.000 
#    0.000    0.000    0.000    0.000    0.000    0.000 
#
# Total GULP energy -89334.301785 kJ/mol
# GULP energy per Si atom -5583.393862 kJ/mol
# Density = 2.163842 g / cm^3
# Si number density = 21.687785 Si / 1000 Ang^3
#
#
#
# Elastic Constant Matrix: (Units=GPa)
#
#
# Indices 1 2 3 4 5 6 
#
# 1 151.9327 53.9845 18.3970 -14.5204 -9.6129 -20.5744
# 2 53.9845 82.1859 20.4205 -8.2204 -13.5260 -2.0375
# 3 18.3970 20.4205 31.4312 -0.2719 -7.1260 0.9712
# 4 -14.5204 -8.2204 -0.2719 27.5375 3.5129 -7.2345
# 5 -9.6129 -13.5260 -7.1260 3.5129 32.4290 -10.6892
# 6 -20.5744 -2.0375 0.9712 -7.2345 -10.6892 60.3566
#
#
#
# Elastic Compliance Matrix: (Units=1/GPa)
#
#
# Indices 1 2 3 4 5 6 
#
# 1 0.009675 -0.005095 -0.002194 0.004444 0.001059 0.003882
# 2 -0.005095 0.018414 -0.008016 0.002203 0.004176 0.000017
# 3 -0.002194 -0.008016 0.039371 -0.004103 0.004668 -0.001317
# 4 0.004444 0.002203 -0.004103 0.041084 -0.001006 0.006402
# 5 0.001059 0.004176 0.004668 -0.001006 0.036243 0.006725
# 6 0.003882 0.000017 -0.001317 0.006402 0.006725 0.019871
#
#
# Mechanical properties :
#
#
# Convention : Reuss Voigt Hill
#
# Bulk Modulus (GPa) = 27.13711 50.12821 38.63266
# Shear Modulus (GPa) = 24.09014 35.58113 29.83563
#
# Velocity S-wave (km/s) = 3.33644 4.05483 3.71305
# Velocity P-wave (km/s) = 5.23280 6.71461 6.01948
#
# Compressibility (1/GPa) = 0.03684991
#
# Stress axis : x y z
#
# Youngs Moduli (GPa) = 103.35638 54.30640 25.39925
#
# Poissons Ratio (x) = 0.27670 0.05573
# Poissons Ratio (y) = 0.52662 0.20360
# Poissons Ratio (z) = 0.22679 0.43532
#
# Static dielectric constant tensor:
#      x y z
#    x 1.817730 -0.059730 0.000340 
#    y -0.059730 1.847090 0.008250 
#    z 0.000340 0.008250 1.809010 
# 
# From -- ./inp_files/306528.got.cif
#   From: 2010.05.17/outbox.cif.g08.bks.cpg/sg2_154_cif.got.tgz:306528.got - 2010.06.03 11:33:40.
