data_PCOD9002377
_publ_section_title
;
Structure prediction by ZEFSAII (Michael W. Deem and Ramdas Pophale) SiO2 
 PCOD9002377
Probable space group: P -1
;
_chemical_formula_sum "Si O2"
_cell_formula_units_Z 14
_cell_length_a 19.183076
_cell_length_b 12.875164
_cell_length_c 16.879589
_cell_angle_alpha 157.984813
_cell_angle_beta 159.923999
_cell_angle_gamma 27.900878
_cell_volume 533.696828
_symmetry_space_group_name_H-M "P -1"
_symmetry_group_IT_number 2
_symmetry_cell_setting 'triclinic'
loop_
_space_group_symop_operation_xyz
x,y,z
-x,-y,-z
loop_
_atom_site_type_symbol
_atom_site_label
_atom_site_fract_x
_atom_site_fract_y
_atom_site_fract_z
Si Si1 0.397070 0.599952 0.542051
Si Si2 0.282155 0.187584 0.491894
Si Si3 0.594960 0.603995 0.079471
Si Si4 0.199595 0.054944 0.984760
Si Si5 0.875236 0.686910 0.755606
Si Si6 0.585806 0.452021 0.796561
Si Si7 0.075519 0.101442 0.566464
O O1 0.500000 0.500000 0.500000
O O2 0.241649 0.370620 0.232528
O O3 0.559141 0.578136 0.770353
O O4 0.282806 0.905771 0.634211
O O5 0.493481 0.315280 0.781420
O O6 0.137657 0.231222 0.292523
O O7 0.317269 0.865284 0.322477
O O8 0.242220 0.352438 0.648016
O O9 0.667962 0.605299 0.068702
O O10 0.410562 0.852408 0.066954
O O11 0.111657 0.079087 0.997464
O O12 0.065211 0.959273 0.702164
O O13 0.655908 0.568090 0.452904
O O14 0.048396 0.436037 0.777718
O O15 0.000000 0.000000 0.500000
#
# Coordination Sequence:
#
# PCOD9002377 Si02
#       7
#     2   2   2   2   2   2   2
#     4  11  24  40  57  82 119 157 193 232 282 342
#     4  10  18  28  50  86 119 140 176 242 288 336
#     4  10  17  27  52  86 115 138 181 238 294 323
#     4  11  20  35  59  85 114 150 193 235 285 329
#     4  10  19  30  54  85 115 139 186 237 291 321
#     4  10  18  33  51  78 118 146 182 235 283 330
#     4  12  21  39  59  82 117 149 194 242 281 333
#
# _framework density 26.232123000000001
#
# number of rings (size 3 to 8) (size 9 to 14) (size 15 to 20)
#    0.000    1.429    8.571    2.143    2.000    0.000 
#    0.000    2.857    0.000    0.857    0.000    2.000 
#    0.000    0.000    0.000    0.000    0.000    0.000 
#
# Total GULP energy -78419.991131 kJ/mol
# GULP energy per Si atom -5601.427938 kJ/mol
# Density = 2.617242 g / cm^3
# Si number density = 26.232123 Si / 1000 Ang^3
#
#
#
# Elastic Constant Matrix: (Units=GPa)
#
#
# Indices 1 2 3 4 5 6 
#
# 1 160.6448 70.6283 63.4087 -10.4637 -66.9358 9.5332
# 2 70.6283 176.2556 40.6191 6.8870 -22.3186 8.3106
# 3 63.4087 40.6191 122.0091 0.8279 -38.1886 10.7994
# 4 -10.4637 6.8870 0.8279 52.3444 12.3100 -5.4753
# 5 -66.9358 -22.3186 -38.1886 12.3100 66.1248 -0.5372
# 6 9.5332 8.3106 10.7994 -5.4753 -0.5372 43.7911
#
#
#
# Elastic Compliance Matrix: (Units=1/GPa)
#
#
# Indices 1 2 3 4 5 6 
#
# 1 0.013230 -0.003355 -0.002218 0.000402 0.010891 -0.001512
# 2 -0.003355 0.007160 -0.000989 -0.001350 -0.001304 -0.000569
# 3 -0.002218 -0.000989 0.011201 -0.001712 0.004190 -0.002254
# 4 0.000402 -0.001350 -0.001712 0.020869 -0.004897 0.003140
# 5 0.010891 -0.001304 0.004190 -0.004897 0.029011 -0.003413
# 6 -0.001512 -0.000569 -0.002254 0.003140 -0.003413 0.024180
#
#
# Mechanical properties :
#
#
# Convention : Reuss Voigt Hill
#
# Bulk Modulus (GPa) = 54.15352 89.80240 71.97796
# Shear Modulus (GPa) = 40.02203 51.40226 45.71215
#
# Velocity S-wave (km/s) = 3.91024 4.43144 4.17898
# Velocity P-wave (km/s) = 6.40901 7.77764 7.12626
#
# Compressibility (1/GPa) = 0.01846602
#
# Stress axis : x y z
#
# Youngs Moduli (GPa) = 75.58752 139.65604 89.28046
#
# Poissons Ratio (x) = 0.46860 0.19806
# Poissons Ratio (y) = 0.25362 0.08826
# Poissons Ratio (z) = 0.16768 0.13807
#
# Static dielectric constant tensor:
#      x y z
#    x 2.249340 -0.021960 0.197570 
#    y -0.021960 1.987120 -0.044650 
#    z 0.197570 -0.044650 2.246440 
# 
# From -- ./inp_files/538365.got.cif
#   From: 2010.05.17/outbox.cif.g08.bks.cpg/sg2_270_cif.got.tgz:538365.got - 2010.06.03 11:33:40.
