data_PCOD9002373
_publ_section_title
;
Structure prediction by ZEFSAII (Michael W. Deem and Ramdas Pophale) SiO2 
 PCOD9002373
Probable space group: P -1
;
_chemical_formula_sum "Si O2"
_cell_formula_units_Z 14
_cell_length_a 8.250466
_cell_length_b 12.676864
_cell_length_c 15.220702
_cell_angle_alpha 153.972102
_cell_angle_beta 126.625730
_cell_angle_gamma 51.634078
_cell_volume 544.206956
_symmetry_space_group_name_H-M "P -1"
_symmetry_group_IT_number 2
_symmetry_cell_setting 'triclinic'
loop_
_space_group_symop_operation_xyz
x,y,z
-x,-y,-z
loop_
_atom_site_type_symbol
_atom_site_label
_atom_site_fract_x
_atom_site_fract_y
_atom_site_fract_z
Si Si1 0.147616 0.797811 0.114900
Si Si2 0.276216 0.487005 0.078972
Si Si3 0.727571 0.384300 0.619838
Si Si4 0.819228 0.848484 0.926443
Si Si5 0.725749 0.323732 0.143050
Si Si6 0.825070 0.756333 0.293990
Si Si7 0.576624 0.848849 0.576656
O O1 0.216116 0.741971 0.195096
O O2 0.252049 0.993434 0.248137
O O3 0.207278 0.509975 0.884623
O O4 0.904589 0.885993 0.080008
O O5 0.272272 0.522534 0.208309
O O6 0.517355 0.357634 0.042548
O O7 0.153468 0.310869 0.854970
O O8 0.711813 0.620419 0.729599
O O9 0.543191 0.243397 0.449319
O O10 0.964643 0.216398 0.571037
O O11 0.036349 0.758112 0.874769
O O12 0.704272 0.107150 0.042149
O O13 0.690497 0.594869 0.376765
O O14 0.621319 0.972234 0.401922
#
# Coordination Sequence:
#
# PCOD9002373 Si02
#       7
#     2   2   2   2   2   2   2
#     4   9  21  37  62  83 116 155 187 235 282 351
#     4   9  20  37  62  86 111 156 192 226 293 341
#     4  10  21  36  60  88 116 148 192 247 283 335
#     4  10  22  43  60  81 117 156 196 231 296 339
#     4  10  23  38  61  86 113 156 196 239 277 355
#     4   9  19  36  57  87 117 153 184 237 283 347
#     4  11  21  36  57  92 117 149 194 239 287 334
#
# _framework density 25.725507
#
# number of rings (size 3 to 8) (size 9 to 14) (size 15 to 20)
#    0.857    1.429    0.000    2.143    4.000    5.143 
#    2.571    0.000    0.000    8.571    0.000    0.000 
#    0.000    0.000    0.000    0.000    0.000    0.000 
#
# Total GULP energy -78013.833001 kJ/mol
# GULP energy per Si atom -5572.416643 kJ/mol
# Density = 2.566695 g / cm^3
# Si number density = 25.725507 Si / 1000 Ang^3
#
#
#
# Elastic Constant Matrix: (Units=GPa)
#
#
# Indices 1 2 3 4 5 6 
#
# 1 92.7535 18.6937 33.0879 14.6065 42.3122 10.3195
# 2 18.6937 78.0983 17.1129 8.9740 0.1166 14.9634
# 3 33.0879 17.1129 81.1219 30.9883 22.4203 3.6124
# 4 14.6065 8.9740 30.9883 25.7113 2.1316 3.0001
# 5 42.3122 0.1166 22.4203 2.1316 56.1370 16.0724
# 6 10.3195 14.9634 3.6124 3.0001 16.0724 33.1062
#
#
#
# Elastic Compliance Matrix: (Units=1/GPa)
#
#
# Indices 1 2 3 4 5 6 
#
# 1 0.019885 -0.004698 0.001058 -0.010121 -0.016352 0.004666
# 2 -0.004698 0.016378 -0.004245 0.002529 0.007827 -0.009504
# 3 0.001058 -0.004245 0.029179 -0.034108 -0.013444 0.008023
# 4 -0.010121 0.002529 -0.034108 0.084527 0.021588 -0.012407
# 5 -0.016352 0.007827 -0.013444 0.021588 0.039914 -0.018307
# 6 0.004666 -0.009504 0.008023 -0.012407 -0.018307 0.042184
#
#
# Mechanical properties :
#
#
# Convention : Reuss Voigt Hill
#
# Bulk Modulus (GPa) = 20.13200 43.30697 31.71949
# Shear Modulus (GPa) = 18.91127 35.19617 27.05372
#
# Velocity S-wave (km/s) = 2.71425 3.70285 3.24640
# Velocity P-wave (km/s) = 4.20304 5.92894 5.13896
#
# Compressibility (1/GPa) = 0.04967215
#
# Stress axis : x y z
#
# Youngs Moduli (GPa) = 50.28939 61.05853 34.27169
#
# Poissons Ratio (x) = 0.28686 -0.03627
# Poissons Ratio (y) = 0.23626 0.14547
# Poissons Ratio (z) = -0.05322 0.25917
#
# Static dielectric constant tensor:
#      x y z
#    x 2.185820 0.066340 -0.039230 
#    y 0.066340 2.085870 -0.096990 
#    z -0.039230 -0.096990 2.125720 
# 
# From -- ./inp_files/498531.got.cif
#   From: 2010.05.17/outbox.cif.g08.bks.cpg/sg2_250_cif.got.tgz:498531.got - 2010.06.03 11:33:40.
