data_PCOD9002462
_publ_section_title
;
Structure prediction by ZEFSAII (Michael W. Deem and Ramdas Pophale) SiO2 
 PCOD9002462
Probable space group: P -1
;
_chemical_formula_sum "Si O2"
_cell_formula_units_Z 12
_cell_length_a 5.678432
_cell_length_b 11.778275
_cell_length_c 20.335204
_cell_angle_alpha 24.216090
_cell_angle_beta 73.244480
_cell_angle_gamma 85.477690
_cell_volume 471.886423
_symmetry_space_group_name_H-M "P -1"
_symmetry_group_IT_number 2
_symmetry_cell_setting 'triclinic'
loop_
_space_group_symop_operation_xyz
x,y,z
-x,-y,-z
loop_
_atom_site_type_symbol
_atom_site_label
_atom_site_fract_x
_atom_site_fract_y
_atom_site_fract_z
Si Si1 0.358107 0.137065 0.174731
Si Si2 0.041464 0.717828 0.945865
Si Si3 0.288924 0.549387 0.207784
Si Si4 0.303548 0.170501 0.853490
Si Si5 0.426347 0.798488 0.677285
Si Si6 0.757841 0.309581 0.468657
O O1 0.145786 0.115870 0.145910
O O2 0.633849 0.097122 0.162370
O O3 0.178201 0.855624 0.388546
O O4 0.500000 0.500000 0.000000
O O5 0.879497 0.488689 0.140651
O O6 0.000000 0.500000 0.000000
O O7 0.491147 0.610004 0.222303
O O8 0.353563 0.337099 0.264907
O O9 0.986600 0.394398 0.347462
O O10 0.375916 0.886832 0.990835
O O11 0.285323 0.384305 0.683693
O O12 0.000000 0.000000 0.000000
O O13 0.500000 0.000000 0.500000
O O14 0.474393 0.028767 0.611904
#
# Coordination Sequence:
#
# PCOD9002462 Si02
#       6
#     2   2   2   2   2   2
#     4  10  21  36  61  85 125 171 206 245 302 385
#     4  10  22  40  56  86 133 168 201 244 319 374
#     4  10  22  36  59  88 127 155 203 260 318 359
#     4   9  20  40  55  85 119 168 200 251 310 380
#     4  12  23  35  62 100 125 155 204 269 313 362
#     4  11  21  36  63  91 122 161 211 251 311 376
#
# _framework density 25.429846999999999
#
# number of rings (size 3 to 8) (size 9 to 14) (size 15 to 20)
#    0.000    1.667    5.000    0.500    7.000    1.333 
#    0.000    0.000    0.000    2.000    0.000    0.000 
#    0.000    0.000    0.000    0.000    0.000    0.000 
#
# Total GULP energy -67062.462475 kJ/mol
# GULP energy per Si atom -5588.538540 kJ/mol
# Density = 2.537197 g / cm^3
# Si number density = 25.429847 Si / 1000 Ang^3
#
#
#
# Elastic Constant Matrix: (Units=GPa)
#
#
# Indices 1 2 3 4 5 6 
#
# 1 132.7247 17.8620 33.9389 -3.4456 6.8560 -13.5461
# 2 17.8620 53.4377 36.0324 -3.9256 14.6191 -16.3761
# 3 33.9389 36.0324 163.7165 0.6971 35.8264 -19.5169
# 4 -3.4456 -3.9256 0.6971 40.2422 -9.7980 8.0141
# 5 6.8560 14.6191 35.8264 -9.7980 47.6927 -1.7809
# 6 -13.5461 -16.3761 -19.5169 8.0141 -1.7809 38.2152
#
#
#
# Elastic Compliance Matrix: (Units=1/GPa)
#
#
# Indices 1 2 3 4 5 6 
#
# 1 0.008209 -0.001479 -0.001269 0.000355 0.000358 0.001570
# 2 -0.001479 0.025277 -0.003147 -0.000522 -0.004959 0.008579
# 3 -0.001269 -0.003147 0.008690 -0.002556 -0.005797 0.002906
# 4 0.000355 -0.000522 -0.002556 0.028092 0.007541 -0.006943
# 5 0.000358 -0.004959 -0.005797 0.007541 0.028145 -0.005229
# 6 0.001570 0.008579 0.002906 -0.006943 -0.005229 0.033097
#
#
# Mechanical properties :
#
#
# Convention : Reuss Voigt Hill
#
# Bulk Modulus (GPa) = 32.90959 58.39394 45.65176
# Shear Modulus (GPa) = 32.58896 42.69974 37.64435
#
# Velocity S-wave (km/s) = 3.58372 4.10215 3.85167
# Velocity P-wave (km/s) = 5.48575 6.74162 6.14585
#
# Compressibility (1/GPa) = 0.03038628
#
# Stress axis : x y z
#
# Youngs Moduli (GPa) = 121.81930 39.56239 115.08021
#
# Poissons Ratio (x) = 0.05851 0.14603
# Poissons Ratio (y) = 0.18016 0.36210
# Poissons Ratio (z) = 0.15458 0.12448
#
# Static dielectric constant tensor:
#      x y z
#    x 2.036960 0.000410 0.043700 
#    y 0.000410 2.017490 0.024910 
#    z 0.043700 0.024910 2.028320 
# 
# From -- ./inp_files/23372.got.cif
#   From: 2010.05.17/outbox.cif.g08.bks.cpg/sg2_12_cif.got.tgz:23372.got - 2010.06.03 11:33:40.
