data_PCOD9002967
_publ_section_title
;
Structure prediction by ZEFSAII (Michael W. Deem and Ramdas Pophale) SiO2 
 PCOD9002967
Probable space group: P -1
;
_chemical_formula_sum "Si O2"
_cell_formula_units_Z 15
_cell_length_a 9.244520
_cell_length_b 5.670204
_cell_length_c 11.377546
_cell_angle_alpha 82.521194
_cell_angle_beta 110.495660
_cell_angle_gamma 101.861869
_cell_volume 545.607727
_symmetry_space_group_name_H-M "P -1"
_symmetry_group_IT_number 2
_symmetry_cell_setting 'triclinic'
loop_
_space_group_symop_operation_xyz
x,y,z
-x,-y,-z
loop_
_atom_site_type_symbol
_atom_site_label
_atom_site_fract_x
_atom_site_fract_y
_atom_site_fract_z
Si Si1 0.373980 0.292173 0.752008
Si Si2 0.595957 0.961327 0.858119
Si Si3 0.529553 0.713421 0.613245
Si Si4 0.028056 0.290623 0.859669
Si Si5 0.877633 0.195501 0.067083
Si Si6 0.173246 0.203873 0.485192
Si Si7 0.820510 0.278962 0.590149
Si Si8 0.500000 0.500000 0.000000
O O1 0.498115 0.454243 0.687308
O O2 0.227452 0.218892 0.633656
O O3 0.380061 0.459826 0.854849
O O4 0.434729 0.055783 0.829915
O O5 0.585370 0.903264 0.720913
O O6 0.608617 0.717129 0.944202
O O7 0.718109 0.164347 0.947731
O O8 0.669902 0.738078 0.559091
O O9 0.361660 0.746838 0.506346
O O10 0.866508 0.253074 0.741241
O O11 0.097547 0.575020 0.856650
O O12 0.007995 0.248713 0.997419
O O13 0.104543 0.061050 0.855911
O O14 0.100845 0.443586 0.429299
O O15 0.111523 0.929899 0.447465
#
# Coordination Sequence:
#
# PCOD9002967 Si02
#       8
#     2   2   2   2   2   2   2   1
#     4  10  21  37  55  87 125 153 198 245 309 375
#     4  11  22  39  63  86 127 160 203 258 308 366
#     4  10  22  32  56  95 121 156 193 244 320 381
#     4  10  22  38  54  86 123 167 208 235 289 366
#     4  10  23  37  57  83 121 167 207 243 292 357
#     4  11  22  33  57  94 124 156 195 242 322 376
#     4  11  20  35  54  81 125 157 191 245 288 363
#     4  10  24  40  58  90 116 164 214 250 314 358
#
# _framework density 27.492280000000001
#
# number of rings (size 3 to 8) (size 9 to 14) (size 15 to 20)
#    0.000    1.600    1.333    4.000    9.333    1.067 
#    0.000    0.000    0.000    0.000    0.000   24.267 
#    0.000    0.000    0.000    0.000    0.000    0.000 
#
# Total GULP energy -83601.531964 kJ/mol
# GULP energy per Si atom -5573.435464 kJ/mol
# Density = 2.742971 g / cm^3
# Si number density = 27.492280 Si / 1000 Ang^3
#
#
#
# Elastic Constant Matrix: (Units=GPa)
#
#
# Indices 1 2 3 4 5 6 
#
# 1 68.2665 34.0700 45.0471 3.3103 3.7790 -1.2099
# 2 34.0700 216.2251 57.8059 27.6228 20.6084 -2.4460
# 3 45.0471 57.8059 187.9781 33.1900 12.9961 2.5080
# 4 3.3103 27.6228 33.1900 53.0935 3.7323 6.2735
# 5 3.7790 20.6084 12.9961 3.7323 29.1112 4.9981
# 6 -1.2099 -2.4460 2.5080 6.2735 4.9981 31.5453
#
#
#
# Elastic Compliance Matrix: (Units=1/GPa)
#
#
# Indices 1 2 3 4 5 6 
#
# 1 0.018361 -0.002144 -0.004238 0.002543 0.000655 0.000265
# 2 -0.002144 0.005784 -0.000617 -0.002416 -0.003480 0.001447
# 3 -0.004238 -0.000617 0.007338 -0.003905 -0.001835 0.000274
# 4 0.002543 -0.002416 -0.003905 0.022835 0.000964 -0.004473
# 5 0.000655 -0.003480 -0.001835 0.000964 0.038523 -0.006394
# 6 0.000265 0.001447 0.000274 -0.004473 -0.006394 0.033704
#
#
# Mechanical properties :
#
#
# Convention : Reuss Voigt Hill
#
# Bulk Modulus (GPa) = 57.19643 82.92398 70.06020
# Shear Modulus (GPa) = 34.15956 45.11977 39.63966
#
# Velocity S-wave (km/s) = 3.52876 4.05554 3.80129
# Velocity P-wave (km/s) = 6.11985 7.22205 6.69367
#
# Compressibility (1/GPa) = 0.01748361
#
# Stress axis : x y z
#
# Youngs Moduli (GPa) = 54.46474 172.88053 136.27827
#
# Poissons Ratio (x) = 0.37069 0.57760
# Poissons Ratio (y) = 0.11678 0.08409
# Poissons Ratio (z) = 0.23084 0.10667
#
# Static dielectric constant tensor:
#      x y z
#    x 2.345120 0.011480 -0.025360 
#    y 0.011480 2.264020 -0.007280 
#    z -0.025360 -0.007280 2.028060 
# 
# From -- ./inp_files/71409.got.cif
#   From: 2010.05.17/outbox.cif.g08.bks.cpg/sg2_36_cif.got.tgz:71409.got - 2010.06.03 11:33:40.
