data_PCOD9002665
_publ_section_title
;
Structure prediction by ZEFSAII (Michael W. Deem and Ramdas Pophale) SiO2 
 PCOD9002665
Probable space group: P -1
;
_chemical_formula_sum "Si O2"
_cell_formula_units_Z 12
_cell_length_a 24.151983
_cell_length_b 15.332030
_cell_length_c 6.442858
_cell_angle_alpha 120.318622
_cell_angle_beta 110.296135
_cell_angle_gamma 18.037948
_cell_volume 552.993923
_symmetry_space_group_name_H-M "P -1"
_symmetry_group_IT_number 2
_symmetry_cell_setting 'triclinic'
loop_
_space_group_symop_operation_xyz
x,y,z
-x,-y,-z
loop_
_atom_site_type_symbol
_atom_site_label
_atom_site_fract_x
_atom_site_fract_y
_atom_site_fract_z
Si Si1 0.103362 0.766109 0.668617
Si Si2 0.773706 0.821701 0.575849
Si Si3 0.697752 0.134279 0.601075
Si Si4 0.802224 0.207624 0.424605
Si Si5 0.051796 0.670605 0.760964
Si Si6 0.409663 0.766117 0.815090
O O1 0.250719 0.602856 0.543889
O O2 0.166880 0.560254 0.624118
O O3 0.938776 0.008418 0.566565
O O4 0.000000 0.000000 0.000000
O O5 0.000000 0.500000 0.500000
O O6 0.801688 0.659352 0.364041
O O7 0.661485 0.084166 0.594282
O O8 0.671921 0.006454 0.888798
O O9 0.499606 0.532234 0.802984
O O10 0.753857 0.015462 0.291653
O O11 0.874989 0.904957 0.674707
O O12 0.601700 0.483882 0.586393
O O13 0.936653 0.918467 0.094610
#
# Coordination Sequence:
#
# PCOD9002665 Si02
#       6
#     2   2   2   2   2   2
#     4   9  19  38  62  87 113 146 197 242 287 339
#     4  10  24  37  53  84 125 158 186 234 292 342
#     4  10  23  36  59  85 120 155 195 230 284 344
#     4  10  21  36  63  89 109 151 200 239 284 339
#     4  10  21  38  60  86 120 153 188 240 291 339
#     4  11  23  37  59  87 118 156 197 235 279 346
#
# _framework density 21.700057000000001
#
# number of rings (size 3 to 8) (size 9 to 14) (size 15 to 20)
#    0.000    2.000    1.667    0.500   11.667    4.000 
#    0.000    0.833    0.000   10.000    0.000    0.000 
#    0.000    0.000    0.000    0.000    0.000    0.000 
#
# Total GULP energy -66936.036743 kJ/mol
# GULP energy per Si atom -5578.003062 kJ/mol
# Density = 2.165067 g / cm^3
# Si number density = 21.700057 Si / 1000 Ang^3
#
#
#
# Elastic Constant Matrix: (Units=GPa)
#
#
# Indices 1 2 3 4 5 6 
#
# 1 159.9822 23.1088 52.4260 7.5996 -0.1514 29.7081
# 2 23.1088 47.4973 40.4831 -20.6500 5.5062 8.8598
# 3 52.4260 40.4831 107.3134 -5.0130 5.7640 16.7145
# 4 7.5996 -20.6500 -5.0130 30.0596 -1.4232 1.3563
# 5 -0.1514 5.5062 5.7640 -1.4232 33.5956 -0.9591
# 6 29.7081 8.8598 16.7145 1.3563 -0.9591 26.0079
#
#
#
# Elastic Compliance Matrix: (Units=1/GPa)
#
#
# Indices 1 2 3 4 5 6 
#
# 1 0.009065 -0.002901 -0.002382 -0.004315 0.000525 -0.007592
# 2 -0.002901 0.052162 -0.015405 0.034071 -0.004662 -0.006503
# 3 -0.002382 -0.015405 0.016332 -0.007190 -0.000655 -0.002177
# 4 -0.004315 0.034071 -0.007190 0.056694 -0.002114 -0.005092
# 5 0.000525 -0.004662 -0.000655 -0.002114 0.030631 0.002648
# 6 -0.007592 -0.006503 -0.002177 -0.005092 0.002648 0.051099
#
#
# Mechanical properties :
#
#
# Convention : Reuss Voigt Hill
#
# Bulk Modulus (GPa) = 27.63765 60.75873 44.19819
# Shear Modulus (GPa) = 18.55833 31.18428 24.87130
#
# Velocity S-wave (km/s) = 2.92759 3.79497 3.38914
# Velocity P-wave (km/s) = 4.91849 6.87477 5.97721
#
# Compressibility (1/GPa) = 0.03618253
#
# Stress axis : x y z
#
# Youngs Moduli (GPa) = 110.30857 19.17112 61.23028
#
# Poissons Ratio (x) = 0.05562 0.14582
# Poissons Ratio (y) = 0.32006 0.94327
# Poissons Ratio (z) = 0.26270 0.29534
#
# Static dielectric constant tensor:
#      x y z
#    x 1.857510 0.026810 0.005710 
#    y 0.026810 1.847750 -0.056680 
#    z 0.005710 -0.056680 1.807120 
# 
# From -- ./inp_files/19895.got.cif
#   From: 2010.05.17/outbox.cif.g08.bks.cpg/sg2_10_cif.got.tgz:19895.got - 2010.06.03 11:33:40.
