data_PCOD9002852
_publ_section_title
;
Structure prediction by ZEFSAII (Michael W. Deem and Ramdas Pophale) SiO2 
 PCOD9002852
Probable space group: P -1
;
_chemical_formula_sum "Si O2"
_cell_formula_units_Z 14
_cell_length_a 9.142071
_cell_length_b 13.088075
_cell_length_c 9.432743
_cell_angle_alpha 76.153118
_cell_angle_beta 121.918374
_cell_angle_gamma 145.745494
_cell_volume 490.908620
_symmetry_space_group_name_H-M "P -1"
_symmetry_group_IT_number 2
_symmetry_cell_setting 'triclinic'
loop_
_space_group_symop_operation_xyz
x,y,z
-x,-y,-z
loop_
_atom_site_type_symbol
_atom_site_label
_atom_site_fract_x
_atom_site_fract_y
_atom_site_fract_z
Si Si1 0.312729 0.563885 0.805551
Si Si2 0.729208 0.222857 0.403210
Si Si3 0.765293 0.932809 0.640660
Si Si4 0.328086 0.604404 0.311740
Si Si5 0.094704 0.688511 0.048312
Si Si6 0.936331 0.798766 0.555400
Si Si7 0.969855 0.849451 0.892758
O O1 0.321981 0.694910 0.738677
O O2 0.208797 0.486884 0.939491
O O3 0.629853 0.670699 0.867255
O O4 0.000666 0.369709 0.616646
O O5 0.384410 0.043481 0.368452
O O6 0.881063 0.212024 0.388746
O O7 0.449208 0.697869 0.503298
O O8 0.005523 0.995396 0.849094
O O9 0.939650 0.053721 0.546965
O O10 0.553051 0.619728 0.392201
O O11 0.356211 0.736740 0.213920
O O12 0.007628 0.399261 0.132499
O O13 0.175627 0.854323 0.044388
O O14 0.975342 0.836268 0.729343
#
# Coordination Sequence:
#
# PCOD9002852 Si02
#       7
#     2   2   2   2   2   2   2
#     4  10  21  38  60  91 124 145 191 253 297 354
#     4  10  21  36  66  89 114 156 197 242 299 341
#     4  10  21  44  60  84 119 160 205 238 273 354
#     4  10  22  37  61  87 120 153 194 242 298 344
#     4  11  22  37  61  90 126 146 189 251 308 347
#     4  11  23  39  63  86 118 161 205 235 276 355
#     4  10  22  36  62  88 116 158 193 239 300 342
#
# _framework density 28.518545
#
# number of rings (size 3 to 8) (size 9 to 14) (size 15 to 20)
#    0.000    1.714    1.429    3.429    6.000    2.857 
#    0.000    2.857    0.000    5.143    0.000    0.000 
#    0.000    0.000    0.000    0.000    0.000    0.000 
#
# Total GULP energy -78098.928182 kJ/mol
# GULP energy per Si atom -5578.494870 kJ/mol
# Density = 2.845364 g / cm^3
# Si number density = 28.518545 Si / 1000 Ang^3
#
#
#
# Elastic Constant Matrix: (Units=GPa)
#
#
# Indices 1 2 3 4 5 6 
#
# 1 239.4688 26.8160 70.1234 -14.5900 21.6427 -0.7331
# 2 26.8160 61.6311 24.5996 -36.6501 -2.0412 -2.5132
# 3 70.1234 24.5996 122.2456 -19.7062 4.6245 -14.4866
# 4 -14.5900 -36.6501 -19.7062 40.0314 -4.4251 0.1946
# 5 21.6427 -2.0412 4.6245 -4.4251 70.3842 -26.0405
# 6 -0.7331 -2.5132 -14.4866 0.1946 -26.0405 36.5553
#
#
#
# Elastic Compliance Matrix: (Units=1/GPa)
#
#
# Indices 1 2 3 4 5 6 
#
# 1 0.005588 -0.002860 -0.003350 -0.002552 -0.003067 -0.003584
# 2 -0.002860 0.039102 0.000126 0.035557 0.007010 0.007485
# 3 -0.003350 0.000126 0.011536 0.004877 0.003045 0.006657
# 4 -0.002552 0.035557 0.004877 0.059967 0.009163 0.010535
# 5 -0.003067 0.007010 0.003045 0.009163 0.022153 0.017359
# 6 -0.003584 0.007485 0.006657 0.010535 0.017359 0.042746
#
#
# Mechanical properties :
#
#
# Convention : Reuss Voigt Hill
#
# Bulk Modulus (GPa) = 22.69726 74.04706 48.37216
# Shear Modulus (GPa) = 24.04466 49.51461 36.77964
#
# Velocity S-wave (km/s) = 2.90681 4.17132 3.59510
# Velocity P-wave (km/s) = 4.38658 7.01575 5.85077
#
# Compressibility (1/GPa) = 0.04405818
#
# Stress axis : x y z
#
# Youngs Moduli (GPa) = 178.95954 25.57418 86.68152
#
# Poissons Ratio (x) = 0.07313 0.29038
# Poissons Ratio (y) = 0.51177 -0.01089
# Poissons Ratio (z) = 0.59951 -0.00321
#
# Static dielectric constant tensor:
#      x y z
#    x 2.250010 -0.046510 0.003070 
#    y -0.046510 2.416770 0.015350 
#    z 0.003070 0.015350 2.171380 
# 
# From -- ./inp_files/207136.got.cif
#   From: 2010.05.17/outbox.cif.g08.bks.cpg/sg2_104_cif.got.tgz:207136.got - 2010.06.03 11:33:40.
