data_PCOD9002234
_publ_section_title
;
Structure prediction by ZEFSAII (Michael W. Deem and Ramdas Pophale) SiO2 
 PCOD9002234
Probable space group: P -1
;
_chemical_formula_sum "Si O2"
_cell_formula_units_Z 14
_cell_length_a 7.193205
_cell_length_b 7.241654
_cell_length_c 15.073218
_cell_angle_alpha 113.092688
_cell_angle_beta 55.857859
_cell_angle_gamma 111.553536
_cell_volume 586.491090
_symmetry_space_group_name_H-M "P -1"
_symmetry_group_IT_number 2
_symmetry_cell_setting 'triclinic'
loop_
_space_group_symop_operation_xyz
x,y,z
-x,-y,-z
loop_
_atom_site_type_symbol
_atom_site_label
_atom_site_fract_x
_atom_site_fract_y
_atom_site_fract_z
Si Si1 0.213999 0.658136 0.259269
Si Si2 0.028201 0.771960 0.519001
Si Si3 0.322146 0.263065 0.095046
Si Si4 0.052622 0.858012 0.162553
Si Si5 0.709261 0.905451 0.389020
Si Si6 0.384620 0.526045 0.442739
Si Si7 0.702347 0.632771 0.082099
O O1 0.114046 0.713057 0.389135
O O2 0.180031 0.412847 0.211750
O O3 0.489571 0.724399 0.196139
O O4 0.123797 0.747083 0.210467
O O5 0.177291 0.652328 0.521811
O O6 0.758201 0.691891 0.591377
O O7 0.110821 0.008382 0.565276
O O8 0.583639 0.390549 0.061223
O O9 0.264908 0.281466 0.010208
O O10 0.252671 0.034741 0.106092
O O11 0.850697 0.970150 0.275124
O O12 0.925364 0.700720 0.094167
O O13 0.594958 0.666375 0.362120
O O14 0.500000 0.000000 0.500000
O O15 0.500000 0.500000 0.500000
#
# Coordination Sequence:
#
# PCOD9002234 Si02
#       7
#     2   2   2   2   2   2   2
#     4  10  23  42  62  96 124 162 214 250 306 383
#     4  10  22  40  57  83 130 157 195 264 287 351
#     4   9  23  44  64  93 127 158 204 264 316 364
#     4  12  23  40  68  90 123 171 206 249 321 368
#     4  10  23  38  58  89 122 162 205 248 297 364
#     4  10  21  36  59  82 112 163 203 240 302 349
#     4   9  21  46  62  94 130 151 206 271 301 374
#
# _framework density 23.87078
#
# number of rings (size 3 to 8) (size 9 to 14) (size 15 to 20)
#    0.857    1.143    0.000    3.000    6.000    3.429 
#    2.571    0.000    0.000    0.000    0.000    0.000 
#    0.000    0.000    0.000    0.000    0.000    0.000 
#
# Total GULP energy -78033.286458 kJ/mol
# GULP energy per Si atom -5573.806176 kJ/mol
# Density = 2.381645 g / cm^3
# Si number density = 23.870780 Si / 1000 Ang^3
#
#
#
# Elastic Constant Matrix: (Units=GPa)
#
#
# Indices 1 2 3 4 5 6 
#
# 1 133.6388 60.4522 37.3077 -3.4822 30.5456 23.7331
# 2 60.4522 111.5284 45.5588 -5.6112 6.5094 41.8981
# 3 37.3077 45.5588 112.3348 2.3709 13.9924 14.9061
# 4 -3.4822 -5.6112 2.3709 30.5501 7.3330 -4.0831
# 5 30.5456 6.5094 13.9924 7.3330 37.1691 3.2864
# 6 23.7331 41.8981 14.9061 -4.0831 3.2864 51.4320
#
#
#
# Elastic Compliance Matrix: (Units=1/GPa)
#
#
# Indices 1 2 3 4 5 6 
#
# 1 0.012580 -0.005839 -0.000668 0.002713 -0.009597 -0.000026
# 2 -0.005839 0.017710 -0.004355 0.000491 0.004186 -0.010699
# 3 -0.000668 -0.004355 0.011159 -0.000984 -0.002759 0.000720
# 4 0.002713 0.000491 -0.000984 0.035683 -0.009167 0.002052
# 5 -0.009597 0.004186 -0.002759 -0.009167 0.037017 -0.001275
# 6 -0.000026 -0.010699 0.000720 0.002052 -0.001275 0.028206
#
#
# Mechanical properties :
#
#
# Convention : Reuss Voigt Hill
#
# Bulk Modulus (GPa) = 50.70174 71.57105 61.13640
# Shear Modulus (GPa) = 29.29866 38.10913 33.70390
#
# Velocity S-wave (km/s) = 3.50721 3.99993 3.76164
# Velocity P-wave (km/s) = 6.13896 7.16801 6.67335
#
# Compressibility (1/GPa) = 0.01972319
#
# Stress axis : x y z
#
# Youngs Moduli (GPa) = 79.49356 56.46424 89.61375
#
# Poissons Ratio (x) = 0.32972 0.05987
# Poissons Ratio (y) = 0.46420 0.39030
# Poissons Ratio (z) = 0.05311 0.24592
#
# Static dielectric constant tensor:
#      x y z
#    x 1.982480 -0.041960 -0.027770 
#    y -0.041960 2.111620 0.038570 
#    z -0.027770 0.038570 1.941980 
# 
# From -- ./inp_files/376599.got.cif
#   From: 2010.05.17/outbox.cif.g08.bks.cpg/sg2_189_cif.got.tgz:376599.got - 2010.06.03 11:33:40.
