data_PCOD9002439
_publ_section_title
;
Structure prediction by ZEFSAII (Michael W. Deem and Ramdas Pophale) SiO2 
 PCOD9002439
Probable space group: P -1
;
_chemical_formula_sum "Si O2"
_cell_formula_units_Z 16
_cell_length_a 11.651796
_cell_length_b 11.475456
_cell_length_c 9.723233
_cell_angle_alpha 39.598078
_cell_angle_beta 131.079223
_cell_angle_gamma 125.367136
_cell_volume 617.505704
_symmetry_space_group_name_H-M "P -1"
_symmetry_group_IT_number 2
_symmetry_cell_setting 'triclinic'
loop_
_space_group_symop_operation_xyz
x,y,z
-x,-y,-z
loop_
_atom_site_type_symbol
_atom_site_label
_atom_site_fract_x
_atom_site_fract_y
_atom_site_fract_z
Si Si1 0.125614 0.548669 0.937755
Si Si2 0.463056 0.520735 0.290274
Si Si3 0.787313 0.009028 0.415727
Si Si4 0.481707 0.863661 0.792412
Si Si5 0.941825 0.297571 0.808833
Si Si6 0.330667 0.606488 0.662674
Si Si7 0.789925 0.807144 0.039572
Si Si8 0.878125 0.982228 0.221880
O O1 0.171388 0.768114 0.767544
O O2 0.042272 0.468260 0.807335
O O3 0.280404 0.464903 0.169776
O O4 0.000000 0.500000 0.000000
O O5 0.500000 0.500000 0.500000
O O6 0.561271 0.404828 0.374957
O O7 0.496791 0.730369 0.059132
O O8 0.626451 0.986531 0.388685
O O9 0.942306 0.961446 0.648700
O O10 0.782536 0.928044 0.332782
O O11 0.397395 0.736688 0.720591
O O12 0.655143 0.934014 0.812891
O O13 0.833689 0.352607 0.555711
O O14 0.061555 0.171317 0.957670
O O15 0.838411 0.171315 0.953145
O O16 0.299959 0.394682 0.882499
O O17 0.849640 0.825805 0.226383
#
# Coordination Sequence:
#
# PCOD9002439 Si02
#       8
#     2   2   2   2   2   2   2   2
#     4  11  20  38  65  94 123 159 214 260 307 365
#     4  10  21  36  60  96 129 157 200 265 314 365
#     4  10  22  43  63  85 130 166 207 253 323 364
#     4  10  22  42  66  90 125 167 210 261 313 370
#     4  12  23  39  65  97 123 162 217 259 308 372
#     4  11  22  41  67  94 126 165 209 263 318 362
#     4  11  22  40  63  90 125 163 209 253 316 375
#     4  11  24  40  60  91 127 168 207 260 307 380
#
# _framework density 25.910692999999998
#
# number of rings (size 3 to 8) (size 9 to 14) (size 15 to 20)
#    0.000    1.250    1.250    6.750    1.750    1.500 
#    0.000    3.750    0.000    0.000    0.000    0.000 
#    0.000    0.000    0.000    0.000    0.000    0.000 
#
# Total GULP energy -89628.687039 kJ/mol
# GULP energy per Si atom -5601.792940 kJ/mol
# Density = 2.585172 g / cm^3
# Si number density = 25.910693 Si / 1000 Ang^3
#
#
#
# Elastic Constant Matrix: (Units=GPa)
#
#
# Indices 1 2 3 4 5 6 
#
# 1 144.1188 10.4104 38.3402 18.9803 11.9424 -21.8478
# 2 10.4104 80.6396 24.9657 23.9269 -12.9337 -11.5377
# 3 38.3402 24.9657 113.8290 31.3521 -2.3347 -3.6489
# 4 18.9803 23.9269 31.3521 45.0099 0.2693 -9.9648
# 5 11.9424 -12.9337 -2.3347 0.2693 42.5902 15.7877
# 6 -21.8478 -11.5377 -3.6489 -9.9648 15.7877 36.6534
#
#
#
# Elastic Compliance Matrix: (Units=1/GPa)
#
#
# Indices 1 2 3 4 5 6 
#
# 1 0.009387 -0.000063 -0.002988 -0.000107 -0.005665 0.007689
# 2 -0.000063 0.015827 -0.001321 -0.007292 0.004461 0.000909
# 3 -0.002988 -0.001321 0.012028 -0.007352 0.002682 -0.004153
# 4 -0.000107 -0.007292 -0.007352 0.033175 -0.005944 0.008488
# 5 -0.005665 0.004461 0.002682 -0.005944 0.033128 -0.017590
# 6 0.007689 0.000909 -0.004153 0.008488 -0.017590 0.041622
#
#
# Mechanical properties :
#
#
# Convention : Reuss Voigt Hill
#
# Bulk Modulus (GPa) = 35.09023 54.00222 44.54622
# Shear Modulus (GPa) = 30.59757 42.50878 36.55317
#
# Velocity S-wave (km/s) = 3.44013 4.05481 3.76005
# Velocity P-wave (km/s) = 5.41770 6.54285 6.00668
#
# Compressibility (1/GPa) = 0.02849796
#
# Stress axis : x y z
#
# Youngs Moduli (GPa) = 106.52591 63.18230 83.13919
#
# Poissons Ratio (x) = 0.00401 0.24843
# Poissons Ratio (y) = 0.00675 0.10981
# Poissons Ratio (z) = 0.31831 0.08345
#
# Static dielectric constant tensor:
#      x y z
#    x 2.076560 0.017040 0.024600 
#    y 0.017040 1.994520 -0.037010 
#    z 0.024600 -0.037010 2.050870 
# 
# From -- ./inp_files/184236.got.cif
#   From: 2010.05.17/outbox.cif.g08.bks.cpg/sg2_93_cif.got.tgz:184236.got - 2010.06.03 11:33:40.
