data_PCOD9002441
_publ_section_title
;
Structure prediction by ZEFSAII (Michael W. Deem and Ramdas Pophale) SiO2 
 PCOD9002441
Probable space group: P -1
;
_chemical_formula_sum "Si O2"
_cell_formula_units_Z 16
_cell_length_a 28.471751
_cell_length_b 11.291901
_cell_length_c 5.632320
_cell_angle_alpha 103.663575
_cell_angle_beta 104.808439
_cell_angle_gamma 23.467273
_cell_volume 697.144686
_symmetry_space_group_name_H-M "P -1"
_symmetry_group_IT_number 2
_symmetry_cell_setting 'triclinic'
loop_
_space_group_symop_operation_xyz
x,y,z
-x,-y,-z
loop_
_atom_site_type_symbol
_atom_site_label
_atom_site_fract_x
_atom_site_fract_y
_atom_site_fract_z
Si Si1 0.708884 0.295045 0.439568
Si Si2 0.121006 0.279872 0.813073
Si Si3 0.314274 0.985893 0.094875
Si Si4 0.442996 0.909999 0.473636
Si Si5 0.755152 0.456751 0.451922
Si Si6 0.492487 0.415127 0.244827
Si Si7 0.883651 0.190151 0.002783
Si Si8 0.883887 0.911920 0.876714
O O1 0.568557 0.609858 0.359873
O O2 0.753705 0.312705 0.365900
O O3 0.776256 0.012880 0.354792
O O4 0.756191 0.212307 0.728323
O O5 0.992327 0.613650 0.710816
O O6 0.110678 0.194829 0.951530
O O7 0.179492 0.268002 0.994763
O O8 0.347845 0.025714 0.317342
O O9 0.363297 0.744391 0.141309
O O10 0.400924 0.805162 0.899366
O O11 0.485657 0.768439 0.718938
O O12 0.377910 0.186387 0.529271
O O13 0.811984 0.357209 0.737394
O O14 0.814169 0.380331 0.252202
O O15 0.500000 0.500000 0.500000
O O16 0.917766 0.972736 0.997055
O O17 0.000000 0.000000 0.000000
#
# Coordination Sequence:
#
# PCOD9002441 Si02
#       8
#     2   2   2   2   2   2   2   2
#     4  11  22  44  64  95 140 186 228 292 347 423
#     4  11  21  40  67  94 136 172 238 286 359 417
#     4  10  21  36  60  96 130 175 221 293 343 416
#     4  11  24  39  65  98 139 185 233 283 350 422
#     4  11  26  46  71 107 139 186 244 282 356 422
#     4   9  18  35  54  87 131 167 222 267 347 402
#     4  11  25  50  74 103 143 184 236 300 351 418
#     4  10  24  41  65  98 129 181 236 291 358 418
#
# _framework density 22.950761
#
# number of rings (size 3 to 8) (size 9 to 14) (size 15 to 20)
#    0.000    1.500    1.250    4.125    3.500    1.000 
#    0.000    1.875    0.000    0.000    0.000    0.000 
#    0.000    0.000    0.000    0.000    0.000    0.000 
#
# Total GULP energy -89090.096289 kJ/mol
# GULP energy per Si atom -5568.131018 kJ/mol
# Density = 2.289852 g / cm^3
# Si number density = 22.950761 Si / 1000 Ang^3
#
#
#
# Elastic Constant Matrix: (Units=GPa)
#
#
# Indices 1 2 3 4 5 6 
#
# 1 80.3789 18.6892 7.5264 -5.2228 -1.7026 -16.2807
# 2 18.6892 118.2940 18.0761 0.8059 9.5740 -3.8434
# 3 7.5264 18.0761 53.0614 2.5590 -6.7059 -2.1670
# 4 -5.2228 0.8059 2.5590 25.7804 -3.2302 6.4044
# 5 -1.7026 9.5740 -6.7059 -3.2302 26.4717 1.5261
# 6 -16.2807 -3.8434 -2.1670 6.4044 1.5261 22.4400
#
#
#
# Elastic Compliance Matrix: (Units=1/GPa)
#
#
# Indices 1 2 3 4 5 6 
#
# 1 0.015146 -0.001994 -0.000967 0.000797 0.000956 0.010261
# 2 -0.001994 0.009715 -0.003549 -0.001068 -0.004700 0.000499
# 3 -0.000967 -0.003549 0.021099 -0.001571 0.006331 0.000746
# 4 0.000797 -0.001068 -0.001571 0.042980 0.006001 -0.012431
# 5 0.000956 -0.004700 0.006331 0.006001 0.042109 -0.004076
# 6 0.010261 0.000499 0.000746 -0.012431 -0.004076 0.055990
#
#
# Mechanical properties :
#
#
# Convention : Reuss Voigt Hill
#
# Bulk Modulus (GPa) = 30.36004 37.81306 34.08655
# Shear Modulus (GPa) = 23.69237 28.76793 26.23015
#
# Velocity S-wave (km/s) = 3.21645 3.54427 3.38433
# Velocity P-wave (km/s) = 5.20107 5.76720 5.49144
#
# Compressibility (1/GPa) = 0.03293804
#
# Stress axis : x y z
#
# Youngs Moduli (GPa) = 66.02473 102.93644 47.39652
#
# Poissons Ratio (x) = 0.20531 0.04585
# Poissons Ratio (y) = 0.13169 0.16819
# Poissons Ratio (z) = 0.06388 0.36528
#
# Static dielectric constant tensor:
#      x y z
#    x 1.864590 -0.044840 -0.016910 
#    y -0.044840 1.894200 0.020490 
#    z -0.016910 0.020490 2.017230 
# 
# From -- ./inp_files/111048.got.cif
#   From: 2010.05.17/outbox.cif.g08.bks.cpg/sg2_56_cif.got.tgz:111048.got - 2010.06.03 11:33:40.
