data_PCOD9002750
_publ_section_title
;
Structure prediction by ZEFSAII (Michael W. Deem and Ramdas Pophale) SiO2 
 PCOD9002750
Probable space group: P -1
;
_chemical_formula_sum "Si O2"
_cell_formula_units_Z 16
_cell_length_a 7.869284
_cell_length_b 15.128272
_cell_length_c 8.816094
_cell_angle_alpha 81.295818
_cell_angle_beta 95.095815
_cell_angle_gamma 145.043878
_cell_volume 593.259789
_symmetry_space_group_name_H-M "P -1"
_symmetry_group_IT_number 2
_symmetry_cell_setting 'triclinic'
loop_
_space_group_symop_operation_xyz
x,y,z
-x,-y,-z
loop_
_atom_site_type_symbol
_atom_site_label
_atom_site_fract_x
_atom_site_fract_y
_atom_site_fract_z
Si Si1 0.823054 0.380586 0.377636
Si Si2 0.231665 0.025852 0.084337
Si Si3 0.843563 0.888343 0.371084
Si Si4 0.251284 0.812377 0.400926
Si Si5 0.062671 0.626890 0.917944
Si Si6 0.231432 0.454515 0.797632
Si Si7 0.244561 0.309417 0.399290
Si Si8 0.768086 0.043531 0.201854
O O1 0.630518 0.219198 0.478206
O O2 0.008677 0.407075 0.256698
O O3 0.693863 0.408331 0.265311
O O4 0.000000 0.500000 0.500000
O O5 0.583085 0.200987 0.079791
O O6 0.219194 0.941090 0.980856
O O7 0.082746 0.949438 0.256484
O O8 0.000000 0.000000 0.000000
O O9 0.650424 0.725850 0.470180
O O10 0.701206 0.909259 0.261418
O O11 0.000000 0.000000 0.500000
O O12 0.516018 0.981333 0.301010
O O13 0.071404 0.696654 0.273836
O O14 0.008973 0.754819 0.502112
O O15 0.000000 0.500000 0.000000
O O16 0.846864 0.591806 0.020057
O O17 0.487385 0.520006 0.697957
O O18 0.073184 0.197743 0.267085
#
# Coordination Sequence:
#
# PCOD9002750 Si02
#       8
#     2   2   2   2   2   2   2   2
#     4   9  21  37  61  91 114 154 197 248 295 352
#     4  10  21  38  61  90 123 154 199 252 297 350
#     4   9  21  37  60  87 116 153 200 242 291 351
#     4  11  21  40  59  88 122 154 205 248 294 353
#     4  10  21  36  64  90 120 155 198 252 302 348
#     4  10  21  40  61  88 120 155 199 245 304 355
#     4  11  23  38  61  87 120 164 196 246 299 354
#     4  10  21  38  59  86 120 155 200 245 294 353
#
# _framework density 26.969633000000002
#
# number of rings (size 3 to 8) (size 9 to 14) (size 15 to 20)
#    0.000    2.000    1.250    1.500   14.000    0.000 
#    2.250    2.500    0.000    0.000    0.000    0.000 
#    0.000    0.000    0.000    0.000    0.000    0.000 
#
# Total GULP energy -89323.203530 kJ/mol
# GULP energy per Si atom -5582.700221 kJ/mol
# Density = 2.690825 g / cm^3
# Si number density = 26.969633 Si / 1000 Ang^3
#
#
#
# Elastic Constant Matrix: (Units=GPa)
#
#
# Indices 1 2 3 4 5 6 
#
# 1 89.9817 19.5106 26.5986 -5.7640 -7.1811 17.6242
# 2 19.5106 118.4196 54.1563 -8.5458 -13.3657 27.4774
# 3 26.5986 54.1563 220.6598 -19.3967 -44.3141 11.4231
# 4 -5.7640 -8.5458 -19.3967 45.0426 5.4206 -9.2585
# 5 -7.1811 -13.3657 -44.3141 5.4206 41.1681 -15.1091
# 6 17.6242 27.4774 11.4231 -9.2585 -15.1091 38.9880
#
#
#
# Elastic Compliance Matrix: (Units=1/GPa)
#
#
# Indices 1 2 3 4 5 6 
#
# 1 0.012594 -0.000257 -0.001479 -0.000057 -0.001562 -0.005697
# 2 -0.000257 0.011367 -0.002849 -0.000484 -0.002321 -0.008074
# 3 -0.001479 -0.002849 0.006882 0.002173 0.007427 0.004055
# 4 -0.000057 -0.000484 0.002173 0.024112 0.001166 0.005908
# 5 -0.001562 -0.002321 0.007427 0.001166 0.036453 0.014569
# 6 -0.005697 -0.008074 0.004055 0.005908 0.014569 0.039776
#
#
# Mechanical properties :
#
#
# Convention : Reuss Voigt Hill
#
# Bulk Modulus (GPa) = 46.14241 69.95467 58.04854
# Shear Modulus (GPa) = 33.88048 46.95944 40.41996
#
# Velocity S-wave (km/s) = 3.54820 4.17729 3.87553
# Velocity P-wave (km/s) = 5.82516 7.01862 6.44955
#
# Compressibility (1/GPa) = 0.02167203
#
# Stress axis : x y z
#
# Youngs Moduli (GPa) = 79.40403 87.97708 145.30445
#
# Poissons Ratio (x) = 0.02262 0.21486
# Poissons Ratio (y) = 0.02042 0.41403
# Poissons Ratio (z) = 0.11742 0.25068
#
# Static dielectric constant tensor:
#      x y z
#    x 2.372420 0.015430 -0.066510 
#    y 0.015430 2.038500 -0.032740 
#    z -0.066510 -0.032740 2.159940 
# 
# From -- ./inp_files/217697.got.cif
#   From: 2010.05.17/outbox.cif.g08.bks.cpg/sg2_109_cif.got.tgz:217697.got - 2010.06.03 11:33:40.
