data_PCOD9002516
_publ_section_title
;
Structure prediction by ZEFSAII (Michael W. Deem and Ramdas Pophale) SiO2 
 PCOD9002516
Probable space group: P -1
;
_chemical_formula_sum "Si O2"
_cell_formula_units_Z 16
_cell_length_a 9.586148
_cell_length_b 5.461750
_cell_length_c 17.613898
_cell_angle_alpha 73.868190
_cell_angle_beta 123.276822
_cell_angle_gamma 126.231920
_cell_volume 620.433253
_symmetry_space_group_name_H-M "P -1"
_symmetry_group_IT_number 2
_symmetry_cell_setting 'triclinic'
loop_
_space_group_symop_operation_xyz
x,y,z
-x,-y,-z
loop_
_atom_site_type_symbol
_atom_site_label
_atom_site_fract_x
_atom_site_fract_y
_atom_site_fract_z
Si Si1 0.474729 0.836895 0.382473
Si Si2 0.663315 0.775988 0.750156
Si Si3 0.991325 0.788055 0.948723
Si Si4 0.153414 0.953349 0.609539
Si Si5 0.331613 0.604116 0.773478
Si Si6 0.567043 0.840205 0.976022
Si Si7 0.758375 0.398412 0.521564
Si Si8 0.056764 0.952798 0.320088
O O1 0.335989 0.907385 0.281936
O O2 0.646886 0.802051 0.399360
O O3 0.605141 0.174022 0.432314
O O4 0.357908 0.607822 0.436886
O O5 0.454324 0.551898 0.750106
O O6 0.808597 0.734474 0.850450
O O7 0.761454 0.780595 0.697844
O O8 0.000000 0.500000 0.000000
O O9 0.200758 0.982766 0.954922
O O10 0.000000 0.000000 0.000000
O O11 0.247076 0.775698 0.689303
O O12 0.049816 0.987765 0.649255
O O13 0.952062 0.712798 0.522002
O O14 0.481278 0.813257 0.867377
O O15 0.131711 0.290944 0.767190
O O16 0.500000 0.500000 0.000000
O O17 0.500000 0.000000 0.000000
O O18 0.851019 0.215624 0.598020
#
# Coordination Sequence:
#
# PCOD9002516 Si02
#       8
#     2   2   2   2   2   2   2   2
#     4   9  19  39  64  88 132 172 219 276 345 409
#     4  10  22  44  64  92 131 178 222 281 350 417
#     4  12  26  48  72 103 141 185 237 296 356 429
#     4  10  21  36  61  92 124 170 218 276 335 408
#     4  10  23  42  63  90 133 175 223 280 347 412
#     4  12  27  46  74 105 140 187 237 301 361 431
#     4   9  19  39  61  90 129 173 217 278 335 418
#     4  10  22  39  64  96 132 170 230 280 344 412
#
# _framework density 25.788432
#
# number of rings (size 3 to 8) (size 9 to 14) (size 15 to 20)
#    0.000    1.750    1.250    1.875    3.500    1.500 
#    4.500    5.625    0.000    0.000    0.000    0.000 
#    0.000    0.000    0.000    0.000    0.000    0.000 
#
# Total GULP energy -89298.178353 kJ/mol
# GULP energy per Si atom -5581.136147 kJ/mol
# Density = 2.572974 g / cm^3
# Si number density = 25.788432 Si / 1000 Ang^3
#
#
#
# Elastic Constant Matrix: (Units=GPa)
#
#
# Indices 1 2 3 4 5 6 
#
# 1 256.8052 39.3337 49.6170 2.4137 12.7035 0.9476
# 2 39.3337 87.0989 9.9299 -10.4385 1.4220 16.2154
# 3 49.6170 9.9299 79.2930 -4.1361 4.3535 2.1312
# 4 2.4137 -10.4385 -4.1361 23.6320 -1.6271 -2.6933
# 5 12.7035 1.4220 4.3535 -1.6271 54.5117 7.4406
# 6 0.9476 16.2154 2.1312 -2.6933 7.4406 47.9822
#
#
#
# Elastic Compliance Matrix: (Units=1/GPa)
#
#
# Indices 1 2 3 4 5 6 
#
# 1 0.004848 -0.002241 -0.002821 -0.001954 -0.001018 0.000835
# 2 -0.002241 0.014031 0.000026 0.005982 0.000948 -0.004510
# 3 -0.002821 0.000026 0.014549 0.002777 -0.000370 -0.000386
# 4 -0.001954 0.005982 0.002777 0.045768 0.001410 0.000244
# 5 -0.001018 0.000948 -0.000370 0.001410 0.019060 -0.003160
# 6 0.000835 -0.004510 -0.000386 0.000244 -0.003160 0.022870
#
#
# Mechanical properties :
#
#
# Convention : Reuss Voigt Hill
#
# Bulk Modulus (GPa) = 42.81463 68.99536 55.90499
# Shear Modulus (GPa) = 35.97539 46.84629 41.41084
#
# Velocity S-wave (km/s) = 3.73905 4.26674 4.01158
# Velocity P-wave (km/s) = 5.93961 7.14744 6.57133
#
# Compressibility (1/GPa) = 0.02335650
#
# Stress axis : x y z
#
# Youngs Moduli (GPa) = 206.27203 71.26967 68.73245
#
# Poissons Ratio (x) = 0.15969 0.19392
# Poissons Ratio (y) = 0.46218 -0.00180
# Poissons Ratio (z) = 0.58198 -0.00186
#
# Static dielectric constant tensor:
#      x y z
#    x 2.004580 -0.012020 -0.070400 
#    y -0.012020 2.018210 -0.023620 
#    z -0.070400 -0.023620 2.085420 
# 
# From -- ./inp_files/322225.got.cif
#   From: 2010.05.17/outbox.cif.g08.bks.cpg/sg2_162_cif.got.tgz:322225.got - 2010.06.03 11:33:40.
