data_PCOD9002725
_publ_section_title
;
Structure prediction by ZEFSAII (Michael W. Deem and Ramdas Pophale) SiO2 
 PCOD9002725
Probable space group: P -1
;
_chemical_formula_sum "Si O2"
_cell_formula_units_Z 16
_cell_length_a 8.632235
_cell_length_b 5.409963
_cell_length_c 13.612280
_cell_angle_alpha 81.999861
_cell_angle_beta 80.172754
_cell_angle_gamma 90.936765
_cell_volume 619.746730
_symmetry_space_group_name_H-M "P -1"
_symmetry_group_IT_number 2
_symmetry_cell_setting 'triclinic'
loop_
_space_group_symop_operation_xyz
x,y,z
-x,-y,-z
loop_
_atom_site_type_symbol
_atom_site_label
_atom_site_fract_x
_atom_site_fract_y
_atom_site_fract_z
Si Si1 0.251035 0.319947 0.687340
Si Si2 0.972796 0.010183 0.776077
Si Si3 0.907475 0.747673 0.983877
Si Si4 0.598174 0.542097 0.135034
Si Si5 0.415926 0.160951 0.270998
Si Si6 0.035247 0.730012 0.593271
Si Si7 0.268544 0.154772 0.482292
Si Si8 0.294385 0.673010 0.200536
O O1 0.369943 0.405915 0.754291
O O2 0.120008 0.517888 0.658599
O O3 0.320838 0.240376 0.580369
O O4 0.155528 0.087094 0.760882
O O5 0.903253 0.798008 0.865773
O O6 0.968960 0.928760 0.668161
O O7 0.877403 0.246563 0.809552
O O8 0.740671 0.668176 0.053797
O O9 0.000000 0.500000 0.000000
O O10 0.000000 0.000000 0.000000
O O11 0.554776 0.246344 0.173740
O O12 0.437120 0.662501 0.108387
O O13 0.412003 0.151601 0.390269
O O14 0.305214 0.398076 0.256726
O O15 0.345636 0.897685 0.256143
O O16 0.881932 0.677067 0.543909
O O17 0.177679 0.883970 0.515435
#
# Coordination Sequence:
#
# PCOD9002725 Si02
#       8
#     2   2   2   2   2   2   2   2
#     4  11  22  40  66 100 132 182 232 277 340 395
#     4  11  23  41  72  99 133 181 225 284 338 399
#     4  12  27  46  75 105 136 173 225 282 344 401
#     4  10  26  45  67  98 142 175 224 283 337 412
#     4  10  23  42  68  92 145 176 220 278 338 393
#     4  10  21  36  64 100 135 170 237 282 329 393
#     4  10  21  36  63  99 132 183 224 286 327 398
#     4  10  24  43  70  95 141 177 225 274 341 395
#
# _framework density 25.816994000000001
#
# number of rings (size 3 to 8) (size 9 to 14) (size 15 to 20)
#    0.750    0.750    2.500    1.875    3.500    3.000 
#    0.000    1.875    0.000    0.000    0.000    0.000 
#    0.000    0.000    0.000    0.000    0.000    0.000 
#
# Total GULP energy -89184.119503 kJ/mol
# GULP energy per Si atom -5574.007469 kJ/mol
# Density = 2.575823 g / cm^3
# Si number density = 25.816994 Si / 1000 Ang^3
#
#
#
# Elastic Constant Matrix: (Units=GPa)
#
#
# Indices 1 2 3 4 5 6 
#
# 1 36.7773 22.3670 17.8370 -15.1197 -15.8313 -2.1403
# 2 22.3670 102.7424 16.0606 -15.3279 -0.1209 -12.5555
# 3 17.8370 16.0606 120.7069 -20.1178 -26.5977 3.3154
# 4 -15.1197 -15.3279 -20.1178 29.0593 9.4606 8.6121
# 5 -15.8313 -0.1209 -26.5977 9.4606 53.7118 -1.9851
# 6 -2.1403 -12.5555 3.3154 8.6121 -1.9851 47.0090
#
#
#
# Elastic Compliance Matrix: (Units=1/GPa)
#
#
# Indices 1 2 3 4 5 6 
#
# 1 0.041912 -0.007013 -0.000594 0.015382 0.009247 -0.002350
# 2 -0.007013 0.012028 -0.000862 0.002288 -0.002780 0.002417
# 3 -0.000594 -0.000862 0.010339 0.005686 0.003872 -0.001865
# 4 0.015382 0.002288 0.005686 0.050678 -0.001884 -0.008453
# 5 0.009247 -0.002780 0.003872 -0.001884 0.023614 0.000748
# 6 -0.002350 0.002417 -0.001865 -0.008453 0.000748 0.023523
#
#
# Mechanical properties :
#
#
# Convention : Reuss Voigt Hill
#
# Bulk Modulus (GPa) = 21.12346 41.41729 31.27038
# Shear Modulus (GPa) = 25.66587 39.55348 32.60968
#
# Velocity S-wave (km/s) = 3.15643 3.91841 3.55788
# Velocity P-wave (km/s) = 4.63506 6.04561 5.38671
#
# Compressibility (1/GPa) = 0.04734073
#
# Stress axis : x y z
#
# Youngs Moduli (GPa) = 23.85980 83.13997 96.71967
#
# Poissons Ratio (x) = 0.58303 0.05749
# Poissons Ratio (y) = 0.16732 0.08336
# Poissons Ratio (z) = 0.01418 0.07165
#
# Static dielectric constant tensor:
#      x y z
#    x 2.198720 0.020550 -0.123830 
#    y 0.020550 2.119730 -0.156700 
#    z -0.123830 -0.156700 2.741710 
# 
# From -- ./inp_files/488144.got.cif
#   From: 2010.05.17/outbox.cif.g08.bks.cpg/sg2_245_cif.got.tgz:488144.got - 2010.06.03 11:33:40.
