data_PCOD9002858
_publ_section_title
;
Structure prediction by ZEFSAII (Michael W. Deem and Ramdas Pophale) SiO2 
 PCOD9002858
Probable space group: P -1
;
_chemical_formula_sum "Si O2"
_cell_formula_units_Z 16
_cell_length_a 9.609792
_cell_length_b 16.025759
_cell_length_c 5.228309
_cell_angle_alpha 87.094400
_cell_angle_beta 68.109708
_cell_angle_gamma 91.945079
_cell_volume 744.953081
_symmetry_space_group_name_H-M "P -1"
_symmetry_group_IT_number 2
_symmetry_cell_setting 'triclinic'
loop_
_space_group_symop_operation_xyz
x,y,z
-x,-y,-z
loop_
_atom_site_type_symbol
_atom_site_label
_atom_site_fract_x
_atom_site_fract_y
_atom_site_fract_z
Si Si1 0.075389 0.593479 0.396799
Si Si2 0.373896 0.424688 0.634830
Si Si3 0.281046 0.156522 0.404701
Si Si4 0.858537 0.980563 0.783333
Si Si5 0.654818 0.749109 0.160821
Si Si6 0.322305 0.487850 0.160608
Si Si7 0.997137 0.693515 0.935280
Si Si8 0.017852 0.863612 0.098652
O O1 0.249866 0.572428 0.273311
O O2 0.037907 0.653026 0.646147
O O3 0.000000 0.500000 0.500000
O O4 0.032996 0.632585 0.151305
O O5 0.500000 0.500000 0.500000
O O6 0.436419 0.337278 0.691463
O O7 0.295809 0.419606 0.412610
O O8 0.266632 0.455831 0.927578
O O9 0.270738 0.064266 0.295886
O O10 0.358997 0.182432 0.615634
O O11 0.101605 0.166543 0.590188
O O12 0.353455 0.215303 0.123565
O O13 0.850030 0.070504 0.909231
O O14 0.000000 0.000000 0.500000
O O15 0.913081 0.915430 0.969711
O O16 0.824276 0.717502 0.061521
O O17 0.500000 0.500000 0.000000
O O18 0.078393 0.784073 0.928287
#
# Coordination Sequence:
#
# PCOD9002858 Si02
#       8
#     2   2   2   2   2   2   2   2
#     4  12  23  35  51  75 104 139 184 222 267 316
#     4  10  20  35  54  72  93 131 178 220 272 318
#     4  10  17  28  43  67  99 138 178 209 254 316
#     4   9  16  28  47  66 101 139 190 204 252 322
#     4  11  19  30  47  71 103 137 175 217 269 308
#     4  10  21  38  55  71  96 136 181 223 273 314
#     4  11  21  32  50  72 106 137 181 220 260 313
#     4   9  18  30  45  70  99 143 184 215 253 314
#
# _framework density 21.477861000000001
#
# number of rings (size 3 to 8) (size 9 to 14) (size 15 to 20)
#    0.000    1.750    2.500    4.875    1.750    0.000 
#    0.000    0.000    0.000    0.000    0.000    0.000 
#    0.000    0.000    0.000   90.000   15.000    0.000 
#
# Total GULP energy -89157.356363 kJ/mol
# GULP energy per Si atom -5572.334773 kJ/mol
# Density = 2.142898 g / cm^3
# Si number density = 21.477861 Si / 1000 Ang^3
#
#
#
# Elastic Constant Matrix: (Units=GPa)
#
#
# Indices 1 2 3 4 5 6 
#
# 1 26.5093 5.7768 18.3206 6.6882 0.3945 3.0802
# 2 5.7768 106.7641 25.7189 11.0789 7.5218 31.3021
# 3 18.3206 25.7189 124.2081 -0.5382 40.2172 8.5826
# 4 6.6882 11.0789 -0.5382 46.3747 2.4349 9.3831
# 5 0.3945 7.5218 40.2172 2.4349 25.4197 0.9787
# 6 3.0802 31.3021 8.5826 9.3831 0.9787 25.4364
#
#
#
# Elastic Compliance Matrix: (Units=1/GPa)
#
#
# Indices 1 2 3 4 5 6 
#
# 1 0.050161 -0.000364 -0.015452 -0.009014 0.024564 0.001967
# 2 -0.000364 0.015108 -0.001220 0.000196 -0.001856 -0.018137
# 3 -0.015452 -0.001220 0.022269 0.005599 -0.034982 -0.004861
# 4 -0.009014 0.000196 0.005599 0.025478 -0.010831 -0.010021
# 5 0.024564 -0.001856 -0.034982 -0.010831 0.095450 0.011435
# 6 0.001967 -0.018137 -0.004861 -0.010021 0.011435 0.066292
#
#
# Mechanical properties :
#
#
# Convention : Reuss Voigt Hill
#
# Bulk Modulus (GPa) = 18.70287 39.67936 29.19111
# Shear Modulus (GPa) = 15.30685 33.29051 24.29868
#
# Velocity S-wave (km/s) = 2.67250 3.94126 3.36718
# Velocity P-wave (km/s) = 4.27199 6.26307 5.36078
#
# Compressibility (1/GPa) = 0.05346774
#
# Stress axis : x y z
#
# Youngs Moduli (GPa) = 19.93586 66.19021 44.90450
#
# Poissons Ratio (x) = 0.02408 0.69386
# Poissons Ratio (y) = 0.00725 0.05477
# Poissons Ratio (z) = 0.30805 0.08073
#
# Static dielectric constant tensor:
#      x y z
#    x 2.095330 0.199050 0.112380 
#    y 0.199050 1.945410 0.035420 
#    z 0.112380 0.035420 1.902590 
# 
# From -- ./inp_files/74440.got.cif
#   From: 2010.05.17/outbox.cif.g08.bks.cpg/sg2_38_cif.got.tgz:74440.got - 2010.06.03 11:33:40.
