data_PCOD9002803
_publ_section_title
;
Structure prediction by ZEFSAII (Michael W. Deem and Ramdas Pophale) SiO2 
 PCOD9002803
Probable space group: P -1
;
_chemical_formula_sum "Si O2"
_cell_formula_units_Z 16
_cell_length_a 8.893042
_cell_length_b 11.550090
_cell_length_c 9.217250
_cell_angle_alpha 51.880733
_cell_angle_beta 82.514101
_cell_angle_gamma 72.234410
_cell_volume 707.184197
_symmetry_space_group_name_H-M "P -1"
_symmetry_group_IT_number 2
_symmetry_cell_setting 'triclinic'
loop_
_space_group_symop_operation_xyz
x,y,z
-x,-y,-z
loop_
_atom_site_type_symbol
_atom_site_label
_atom_site_fract_x
_atom_site_fract_y
_atom_site_fract_z
Si Si1 0.280866 0.697342 0.176795
Si Si2 0.097912 0.851063 0.353861
Si Si3 0.141147 0.523962 0.758458
Si Si4 0.192398 0.421250 0.537246
Si Si5 0.201498 0.117706 0.270626
Si Si6 0.511709 0.883892 0.952877
Si Si7 0.253881 0.100800 0.613805
Si Si8 0.112462 0.625791 0.978154
O O1 0.165693 0.816544 0.210116
O O2 0.285058 0.532874 0.371430
O O3 0.439250 0.747044 0.110547
O O4 0.207661 0.691386 0.032336
O O5 0.117805 0.688575 0.557070
O O6 0.911984 0.935236 0.308346
O O7 0.185781 0.952027 0.354744
O O8 0.227577 0.405853 0.715671
O O9 0.211067 0.534827 0.900505
O O10 0.976662 0.484313 0.844700
O O11 0.235148 0.263118 0.569296
O O12 0.000000 0.500000 0.500000
O O13 0.317475 0.159889 0.108382
O O14 0.263411 0.114940 0.428528
O O15 0.029002 0.238691 0.178848
O O16 0.395985 0.978112 0.767974
O O17 0.500000 0.000000 0.000000
#
# Coordination Sequence:
#
# PCOD9002803 Si02
#       8
#     2   2   2   2   2   2   2   2
#     4  11  23  42  68 100 128 170 211 273 321 385
#     4  11  21  41  68  99 129 161 220 268 329 378
#     4  10  21  36  65 107 130 154 202 287 325 373
#     4  11  19  41  67  98 128 160 213 269 331 374
#     4  12  26  43  63  95 136 175 212 263 321 389
#     4  12  29  46  60  92 138 177 220 257 317 390
#     4  12  24  44  69  95 128 173 213 271 327 377
#     4  11  21  38  69 103 129 159 219 269 326 370
#
# _framework density 22.624939000000001
#
# number of rings (size 3 to 8) (size 9 to 14) (size 15 to 20)
#    0.000    0.750    6.250    1.500    7.000    1.000 
#    0.000    2.500    0.000    0.000    0.000    0.000 
#    0.000    0.000    0.000    0.000    0.000    0.000 
#
# Total GULP energy -89538.463310 kJ/mol
# GULP energy per Si atom -5596.153957 kJ/mol
# Density = 2.257344 g / cm^3
# Si number density = 22.624939 Si / 1000 Ang^3
#
#
#
# Elastic Constant Matrix: (Units=GPa)
#
#
# Indices 1 2 3 4 5 6 
#
# 1 74.4168 38.9174 48.0989 9.1551 -12.0440 22.2057
# 2 38.9174 152.4744 61.2395 35.6239 -10.3010 39.7097
# 3 48.0989 61.2395 106.2666 20.1226 -3.0055 29.8373
# 4 9.1551 35.6239 20.1226 56.2805 10.5286 -0.5967
# 5 -12.0440 -10.3010 -3.0055 10.5286 38.2375 -6.0280
# 6 22.2057 39.7097 29.8373 -0.5967 -6.0280 30.4983
#
#
#
# Elastic Compliance Matrix: (Units=1/GPa)
#
#
# Indices 1 2 3 4 5 6 
#
# 1 0.021413 0.000439 -0.007023 -0.002399 0.005676 -0.008217
# 2 0.000439 0.013574 -0.001854 -0.008844 0.003619 -0.015638
# 3 -0.007023 -0.001854 0.016922 -0.003476 -0.001918 -0.009475
# 4 -0.002399 -0.008844 -0.003476 0.026720 -0.008319 0.015541
# 5 0.005676 0.003619 -0.001918 -0.008319 0.030893 -0.001026
# 6 -0.008217 -0.015638 -0.009475 0.015541 -0.001026 0.068504
#
#
# Mechanical properties :
#
#
# Convention : Reuss Voigt Hill
#
# Bulk Modulus (GPa) = 28.54349 69.96328 49.25338
# Shear Modulus (GPa) = 24.20362 37.33006 30.76684
#
# Velocity S-wave (km/s) = 3.27429 4.06637 3.69163
# Velocity P-wave (km/s) = 5.19018 7.28267 6.32358
#
# Compressibility (1/GPa) = 0.03503426
#
# Stress axis : x y z
#
# Youngs Moduli (GPa) = 46.69983 73.66820 59.09522
#
# Poissons Ratio (x) = -0.03237 0.41505
# Poissons Ratio (y) = -0.02052 0.10954
# Poissons Ratio (z) = 0.32799 0.13655
#
# Static dielectric constant tensor:
#      x y z
#    x 1.818360 -0.012130 0.029750 
#    y -0.012130 1.871160 -0.010460 
#    z 0.029750 -0.010460 1.865600 
# 
# From -- ./inp_files/184089.got.cif
#   From: 2010.05.17/outbox.cif.g08.bks.cpg/sg2_93_cif.got.tgz:184089.got - 2010.06.03 11:33:40.
