data_PCOD9002331
_publ_section_title
;
Structure prediction by ZEFSAII (Michael W. Deem and Ramdas Pophale) SiO2 
 PCOD9002331
Probable space group: P -1
;
_chemical_formula_sum "Si O2"
_cell_formula_units_Z 16
_cell_length_a 15.387904
_cell_length_b 14.656600
_cell_length_c 14.778660
_cell_angle_alpha 20.257747
_cell_angle_beta 137.167677
_cell_angle_gamma 140.670086
_cell_volume 730.979840
_symmetry_space_group_name_H-M "P -1"
_symmetry_group_IT_number 2
_symmetry_cell_setting 'triclinic'
loop_
_space_group_symop_operation_xyz
x,y,z
-x,-y,-z
loop_
_atom_site_type_symbol
_atom_site_label
_atom_site_fract_x
_atom_site_fract_y
_atom_site_fract_z
Si Si1 0.906502 0.675710 0.242997
Si Si2 0.665209 0.557453 0.310997
Si Si3 0.534848 0.742378 0.724297
Si Si4 0.064612 0.492693 0.761748
Si Si5 0.244948 0.823905 0.140080
Si Si6 0.194285 0.132590 0.294203
Si Si7 0.826648 0.662395 0.732160
Si Si8 0.157267 0.885103 0.810425
O O1 0.799983 0.634827 0.278792
O O2 0.849579 0.543443 0.225756
O O3 0.000000 0.500000 0.500000
O O4 0.000000 0.000000 0.000000
O O5 0.549310 0.377054 0.320852
O O6 0.683453 0.387672 0.571213
O O7 0.662008 0.861211 0.051378
O O8 0.690493 0.844989 0.712254
O O9 0.500000 0.000000 0.500000
O O10 0.500000 0.500000 0.000000
O O11 0.905187 0.298636 0.812356
O O12 0.084867 0.814465 0.497904
O O13 0.126521 0.362434 0.008585
O O14 0.204591 0.850334 0.980413
O O15 0.242859 0.213278 0.358577
O O16 0.991396 0.778903 0.770187
O O17 0.798453 0.800512 0.489156
O O18 0.789727 0.327912 0.007835
#
# Coordination Sequence:
#
# PCOD9002331 Si02
#       8
#     2   2   2   2   2   2   2   2
#     4  12  21  35  52  84 121 152 192 247 304 374
#     4  12  24  41  63  89 125 171 213 253 323 376
#     4  12  27  49  68  90 126 174 223 268 298 362
#     4  12  23  37  60  96 127 162 205 259 323 372
#     4  12  23  39  62  95 132 162 200 260 328 388
#     4  12  24  41  66  91 125 169 217 260 308 375
#     4  10  21  36  61  92 128 167 203 254 317 384
#     4  10  21  36  59  94 134 158 200 259 325 381
#
# _framework density 21.888428999999999
#
# number of rings (size 3 to 8) (size 9 to 14) (size 15 to 20)
#    0.000    0.500    3.750    6.000    3.500    0.000 
#    0.000    0.000    0.000    4.500    0.000    0.000 
#    0.000    0.000    0.000    0.000    0.000    0.000 
#
# Total GULP energy -89351.631459 kJ/mol
# GULP energy per Si atom -5584.476966 kJ/mol
# Density = 2.183861 g / cm^3
# Si number density = 21.888429 Si / 1000 Ang^3
#
#
#
# Elastic Constant Matrix: (Units=GPa)
#
#
# Indices 1 2 3 4 5 6 
#
# 1 44.8257 1.9433 25.2690 -6.1770 1.5515 -20.6224
# 2 1.9433 78.9044 33.1715 -1.3343 -8.2404 -13.4750
# 3 25.2690 33.1715 129.6782 -0.9774 -20.8400 -5.3218
# 4 -6.1770 -1.3343 -0.9774 38.0769 -14.3601 -1.0410
# 5 1.5515 -8.2404 -20.8400 -14.3601 22.3113 4.9641
# 6 -20.6224 -13.4750 -5.3218 -1.0410 4.9641 31.5777
#
#
#
# Elastic Compliance Matrix: (Units=1/GPa)
#
#
# Indices 1 2 3 4 5 6 
#
# 1 0.045444 0.008008 -0.012496 0.001232 -0.018637 0.033959
# 2 0.008008 0.016700 -0.005512 0.001662 -0.001060 0.011649
# 3 -0.012496 -0.005512 0.013859 0.004202 0.016861 -0.010689
# 4 0.001232 0.001662 0.004202 0.037462 0.028803 -0.001071
# 5 -0.018637 -0.001060 0.016861 0.028803 0.084949 -0.022186
# 6 0.033959 0.011649 -0.010689 -0.001071 -0.022186 0.060467
#
#
# Mechanical properties :
#
#
# Convention : Reuss Voigt Hill
#
# Bulk Modulus (GPa) = 17.85614 41.57511 29.71562
# Shear Modulus (GPa) = 16.80401 31.26146 24.03274
#
# Velocity S-wave (km/s) = 2.77377 3.78328 3.31715
# Velocity P-wave (km/s) = 4.29347 6.17411 5.31759
#
# Compressibility (1/GPa) = 0.05600316
#
# Stress axis : x y z
#
# Youngs Moduli (GPa) = 22.00533 59.87899 72.15559
#
# Poissons Ratio (x) = -0.47950 0.90163
# Poissons Ratio (y) = -0.17622 0.39773
# Poissons Ratio (z) = 0.27497 0.33006
#
# Static dielectric constant tensor:
#      x y z
#    x 1.871080 -0.042520 -0.048790 
#    y -0.042520 1.856610 0.045280 
#    z -0.048790 0.045280 1.801870 
# 
# From -- ./inp_files/538862.got.cif
#   From: 2010.05.17/outbox.cif.g08.bks.cpg/sg2_270_cif.got.tgz:538862.got - 2010.06.03 11:33:40.
