data_PCOD9002327
_publ_section_title
;
Structure prediction by ZEFSAII (Michael W. Deem and Ramdas Pophale) SiO2 
 PCOD9002327
Probable space group: P -1
;
_chemical_formula_sum "Si O2"
_cell_formula_units_Z 15
_cell_length_a 10.821508
_cell_length_b 15.105728
_cell_length_c 15.148573
_cell_angle_alpha 29.318972
_cell_angle_beta 136.342990
_cell_angle_gamma 117.707549
_cell_volume 729.406048
_symmetry_space_group_name_H-M "P -1"
_symmetry_group_IT_number 2
_symmetry_cell_setting 'triclinic'
loop_
_space_group_symop_operation_xyz
x,y,z
-x,-y,-z
loop_
_atom_site_type_symbol
_atom_site_label
_atom_site_fract_x
_atom_site_fract_y
_atom_site_fract_z
Si Si1 0.972902 0.659754 0.269091
Si Si2 0.512466 0.104897 0.185524
Si Si3 0.465830 0.523487 0.857358
Si Si4 0.959392 0.294142 0.920837
Si Si5 0.500000 0.500000 0.500000
Si Si6 0.955541 0.145287 0.716154
Si Si7 0.567122 0.044681 0.902539
Si Si8 0.348060 0.183910 0.328164
O O1 0.000000 0.500000 0.500000
O O2 0.076164 0.573351 0.303182
O O3 0.074929 0.786147 0.256588
O O4 0.731484 0.801624 0.002247
O O5 0.536557 0.018858 0.174320
O O6 0.639721 0.928479 0.475887
O O7 0.546550 0.301107 0.046930
O O8 0.222458 0.661997 0.594700
O O9 0.568599 0.654456 0.760134
O O10 0.500000 0.500000 0.000000
O O11 0.735224 0.366035 0.778941
O O12 0.123984 0.295006 0.071262
O O13 0.054098 0.058539 0.138403
O O14 0.513963 0.281737 0.662703
O O15 0.186394 0.093766 0.859665
O O16 0.500000 0.000000 0.000000
O O17 0.500000 0.000000 0.500000
#
# Coordination Sequence:
#
# PCOD9002327 Si02
#       8
#     2   2   2   2   1   2   2   2
#     4  11  20  32  60  98 126 156 206 278 332 377
#     4  11  23  40  61 103 132 165 218 270 332 389
#     4  12  21  35  63  98 133 170 202 261 350 390
#     4  11  22  42  62  91 131 169 219 264 326 389
#     4  10  26  44  68  90 124 184 220 266 320 382
#     4  10  21  36  59  94 125 163 214 274 334 382
#     4  10  25  43  65  90 129 174 229 274 313 385
#     4  12  22  39  64  96 135 168 205 267 327 395
#
# _framework density 20.564679000000002
#
# number of rings (size 3 to 8) (size 9 to 14) (size 15 to 20)
#    0.000    1.067    5.333    0.400    3.733    3.200 
#    0.000    0.667    0.000   11.200    0.000    0.000 
#    0.000    0.000    0.000    0.000    0.000    0.000 
#
# Total GULP energy -83531.734239 kJ/mol
# GULP energy per Si atom -5568.782283 kJ/mol
# Density = 2.051787 g / cm^3
# Si number density = 20.564679 Si / 1000 Ang^3
#
#
#
# Elastic Constant Matrix: (Units=GPa)
#
#
# Indices 1 2 3 4 5 6 
#
# 1 35.2205 37.4364 23.6915 3.4068 -15.2421 -8.0721
# 2 37.4364 174.1772 67.9148 -10.9230 -14.0563 -0.1460
# 3 23.6915 67.9148 121.2391 5.0472 -14.1494 -2.4565
# 4 3.4068 -10.9230 5.0472 49.1395 6.5967 -5.7729
# 5 -15.2421 -14.0563 -14.1494 6.5967 28.7944 5.1141
# 6 -8.0721 -0.1460 -2.4565 -5.7729 5.1141 26.6058
#
#
#
# Elastic Compliance Matrix: (Units=1/GPa)
#
#
# Indices 1 2 3 4 5 6 
#
# 1 0.051716 -0.009006 -0.002007 -0.007186 0.021919 0.009683
# 2 -0.009006 0.009167 -0.003847 0.003187 -0.002585 -0.001849
# 3 -0.002007 -0.003847 0.011262 -0.002399 0.003275 -0.000740
# 4 -0.007186 0.003187 -0.002399 0.023641 -0.009661 0.004602
# 5 0.021919 -0.002585 0.003275 -0.009661 0.049730 -0.004717
# 6 0.009683 -0.001849 -0.000740 0.004602 -0.004717 0.042350
#
#
# Mechanical properties :
#
#
# Convention : Reuss Voigt Hill
#
# Bulk Modulus (GPa) = 23.57147 65.41357 44.49252
# Shear Modulus (GPa) = 21.57694 34.34757 27.96225
#
# Velocity S-wave (km/s) = 3.24269 4.09127 3.69144
# Velocity P-wave (km/s) = 5.05045 7.36177 6.31279
#
# Compressibility (1/GPa) = 0.04242417
#
# Stress axis : x y z
#
# Youngs Moduli (GPa) = 19.33635 109.09058 88.79132
#
# Poissons Ratio (x) = 0.98252 0.17823
# Poissons Ratio (y) = 0.17415 0.34156
# Poissons Ratio (z) = 0.03881 0.41964
#
# Static dielectric constant tensor:
#      x y z
#    x 1.788090 0.017480 -0.026170 
#    y 0.017480 1.781930 -0.042630 
#    z -0.026170 -0.042630 1.743510 
# 
# From -- ./inp_files/522214.got.cif
#   From: 2010.05.17/outbox.cif.g08.bks.cpg/sg2_262_cif.got.tgz:522214.got - 2010.06.03 11:33:40.
