data_PCOD9002966
_publ_section_title
;
Structure prediction by ZEFSAII (Michael W. Deem and Ramdas Pophale) SiO2 
 PCOD9002966
Probable space group: P -1
;
_chemical_formula_sum "Si O2"
_cell_formula_units_Z 16
_cell_length_a 14.291756
_cell_length_b 4.918384
_cell_length_c 25.963602
_cell_angle_alpha 99.715651
_cell_angle_beta 22.776521
_cell_angle_gamma 96.147399
_cell_volume 690.758243
_symmetry_space_group_name_H-M "P -1"
_symmetry_group_IT_number 2
_symmetry_cell_setting 'triclinic'
loop_
_space_group_symop_operation_xyz
x,y,z
-x,-y,-z
loop_
_atom_site_type_symbol
_atom_site_label
_atom_site_fract_x
_atom_site_fract_y
_atom_site_fract_z
Si Si1 0.280499 0.245457 0.721424
Si Si2 0.555271 0.640633 0.061856
Si Si3 0.280457 0.538499 0.368467
Si Si4 0.045171 0.937212 0.318692
Si Si5 0.325003 0.788919 0.559999
Si Si6 0.057328 0.705882 0.784806
Si Si7 0.628942 0.913942 0.610802
Si Si8 0.561125 0.797019 0.820708
O O1 0.523280 0.319799 0.570609
O O2 0.110547 0.532505 0.805330
O O3 0.132128 0.012464 0.763754
O O4 0.389552 0.082195 0.711359
O O5 0.572157 0.345983 0.070783
O O6 0.281223 0.713940 0.181874
O O7 0.556793 0.884005 0.112529
O O8 0.778095 0.681499 0.913509
O O9 0.385636 0.367764 0.359896
O O10 0.425502 0.392550 0.241909
O O11 0.000000 0.500000 0.500000
O O12 0.292013 0.863256 0.381232
O O13 0.165826 0.174581 0.296598
O O14 0.921150 0.048027 0.332952
O O15 0.835702 0.851054 0.459712
O O16 0.235652 0.593587 0.643352
O O17 0.500000 0.000000 0.500000
#
# Coordination Sequence:
#
# PCOD9002966 Si02
#       8
#     2   2   2   2   2   2   2   2
#     4  10  22  40  60  87 119 151 194 241 295 336
#     4  10  21  38  58  84 115 162 191 236 289 338
#     4  12  20  34  59  89 121 150 194 235 297 350
#     4   9  21  37  57  89 123 149 189 237 300 340
#     4   9  20  40  61  91 118 152 190 243 289 345
#     4  11  21  40  63  82 114 159 201 235 280 351
#     4  11  22  35  60  90 120 151 187 246 293 352
#     4  10  21  37  55  86 119 152 186 239 292 344
#
# _framework density 23.162949999999999
#
# number of rings (size 3 to 8) (size 9 to 14) (size 15 to 20)
#    0.750    1.000    1.250    3.750    0.000    0.500 
#    9.000    0.625    0.000   15.000    0.000    0.000 
#    0.000    0.000    0.000    0.000    0.000    0.000 
#
# Total GULP energy -89228.101958 kJ/mol
# GULP energy per Si atom -5576.756372 kJ/mol
# Density = 2.311023 g / cm^3
# Si number density = 23.162950 Si / 1000 Ang^3
#
#
#
# Elastic Constant Matrix: (Units=GPa)
#
#
# Indices 1 2 3 4 5 6 
#
# 1 74.9994 8.7084 14.7056 -0.6627 -5.2352 -13.4111
# 2 8.7084 90.7882 13.8106 -8.7192 -4.0275 -11.9106
# 3 14.7056 13.8106 64.2681 -6.1508 -7.3366 -10.5302
# 4 -0.6627 -8.7192 -6.1508 29.0124 -6.0388 0.1272
# 5 -5.2352 -4.0275 -7.3366 -6.0388 15.0356 1.2397
# 6 -13.4111 -11.9106 -10.5302 0.1272 1.2397 32.9398
#
#
#
# Elastic Compliance Matrix: (Units=1/GPa)
#
#
# Indices 1 2 3 4 5 6 
#
# 1 0.014971 -0.000203 -0.002002 0.000670 0.004019 0.005228
# 2 -0.000203 0.012299 -0.001087 0.004298 0.004103 0.003846
# 3 -0.002002 -0.001087 0.018650 0.005648 0.010021 0.004355
# 4 0.000670 0.004298 0.005648 0.041222 0.020474 0.002703
# 5 0.004019 0.004103 0.010021 0.020474 0.081859 0.003164
# 6 0.005228 0.003846 0.004355 0.002703 0.003164 0.035140
#
#
# Mechanical properties :
#
#
# Convention : Reuss Voigt Hill
#
# Bulk Modulus (GPa) = 25.42229 33.83388 29.62808
# Shear Modulus (GPa) = 22.33769 28.25297 25.29533
#
# Velocity S-wave (km/s) = 3.10880 3.49628 3.30822
# Velocity P-wave (km/s) = 4.88727 5.56212 5.23558
#
# Compressibility (1/GPa) = 0.03933557
#
# Stress axis : x y z
#
# Youngs Moduli (GPa) = 66.79604 81.30881 53.62047
#
# Poissons Ratio (x) = 0.01650 0.10737
# Poissons Ratio (y) = 0.01355 0.05826
# Poissons Ratio (z) = 0.13376 0.08835
#
# Static dielectric constant tensor:
#      x y z
#    x 1.915460 0.004320 -0.002710 
#    y 0.004320 1.862880 0.052060 
#    z -0.002710 0.052060 1.915950 
# 
# From -- ./inp_files/619010.got.cif
#   From: 2010.05.17/outbox.cif.g08.bks.cpg/sg2_310_cif.got.tgz:619010.got - 2010.06.03 11:33:40.
