data_PCOD9002566
_publ_section_title
;
Structure prediction by ZEFSAII (Michael W. Deem and Ramdas Pophale) SiO2 
 PCOD9002566
Probable space group: P -1
;
_chemical_formula_sum "Si O2"
_cell_formula_units_Z 16
_cell_length_a 11.441891
_cell_length_b 9.423151
_cell_length_c 14.853725
_cell_angle_alpha 136.936458
_cell_angle_beta 39.957154
_cell_angle_gamma 111.896842
_cell_volume 635.156234
_symmetry_space_group_name_H-M "P -1"
_symmetry_group_IT_number 2
_symmetry_cell_setting 'triclinic'
loop_
_space_group_symop_operation_xyz
x,y,z
-x,-y,-z
loop_
_atom_site_type_symbol
_atom_site_label
_atom_site_fract_x
_atom_site_fract_y
_atom_site_fract_z
Si Si1 0.046404 0.455693 0.078475
Si Si2 0.709731 0.019923 0.869323
Si Si3 0.113823 0.906153 0.018916
Si Si4 0.672348 0.228119 0.495723
Si Si5 0.711697 0.789377 0.013656
Si Si6 0.661668 0.237175 0.805982
Si Si7 0.132023 0.625799 0.399333
Si Si8 0.306402 0.218019 0.639469
O O1 0.875497 0.710866 0.291163
O O2 0.194988 0.383389 0.039756
O O3 0.184295 0.363817 0.866654
O O4 0.908525 0.317117 0.101744
O O5 0.764354 0.126813 0.975129
O O6 0.898856 0.769368 0.628730
O O7 0.703173 0.173333 0.856567
O O8 0.500000 0.000000 0.000000
O O9 0.212176 0.014314 0.940902
O O10 0.886293 0.089355 0.258336
O O11 0.717429 0.390741 0.614662
O O12 0.494057 0.284718 0.554735
O O13 0.629120 0.047762 0.500547
O O14 0.804093 0.626387 0.796663
O O15 0.472221 0.897262 0.204472
O O16 0.835939 0.219310 0.627634
O O17 0.500000 0.500000 0.000000
#
# Coordination Sequence:
#
# PCOD9002566 Si02
#       8
#     2   2   2   2   2   2   2   2
#     4  10  21  36  62  84 119 160 204 250 306 366
#     4  11  22  42  64  90 124 162 206 259 314 370
#     4  10  22  40  59  85 119 166 203 253 307 372
#     4   9  19  37  61  86 120 153 206 253 305 362
#     4  11  22  40  58  89 129 161 205 251 315 367
#     4  10  22  39  61  93 124 163 204 253 311 367
#     4  10  23  38  65  93 125 162 206 259 311 369
#     4   9  19  38  60  89 113 157 205 256 300 362
#
# _framework density 25.190653999999999
#
# number of rings (size 3 to 8) (size 9 to 14) (size 15 to 20)
#    0.000    2.000    1.250    1.500    0.000   13.000 
#    2.250    0.625    0.000    0.000    0.000    0.000 
#    0.000    0.000    0.000    0.000    0.000    0.000 
#
# Total GULP energy -89457.362183 kJ/mol
# GULP energy per Si atom -5591.085136 kJ/mol
# Density = 2.513332 g / cm^3
# Si number density = 25.190654 Si / 1000 Ang^3
#
#
#
# Elastic Constant Matrix: (Units=GPa)
#
#
# Indices 1 2 3 4 5 6 
#
# 1 124.2197 11.0078 18.4677 -12.3172 -20.3691 -7.9353
# 2 11.0078 73.5587 15.9986 -23.9652 -7.3898 5.0057
# 3 18.4677 15.9986 82.5276 -12.7579 -14.4439 8.9089
# 4 -12.3172 -23.9652 -12.7579 34.9033 8.6811 -0.2711
# 5 -20.3691 -7.3898 -14.4439 8.6811 34.5306 -2.4258
# 6 -7.9353 5.0057 8.9089 -0.2711 -2.4258 49.2474
#
#
#
# Elastic Compliance Matrix: (Units=1/GPa)
#
#
# Indices 1 2 3 4 5 6 
#
# 1 0.009296 -0.000315 -0.001184 0.001481 0.004688 0.001983
# 2 -0.000315 0.017837 -0.001426 0.011600 0.000010 -0.001542
# 3 -0.001184 -0.001426 0.014038 0.002716 0.004019 -0.002372
# 4 0.001481 0.011600 0.002716 0.039498 -0.005542 -0.001487
# 5 0.004688 0.000010 0.004019 -0.005542 0.034923 0.001717
# 6 0.001983 -0.001542 -0.002372 -0.001487 0.001717 0.021287
#
#
# Mechanical properties :
#
#
# Convention : Reuss Voigt Hill
#
# Bulk Modulus (GPa) = 28.31120 41.25046 34.78083
# Shear Modulus (GPa) = 32.36180 39.39171 35.87676
#
# Velocity S-wave (km/s) = 3.58812 3.95871 3.77796
# Velocity P-wave (km/s) = 5.33192 6.10787 5.73303
#
# Compressibility (1/GPa) = 0.03532172
#
# Stress axis : x y z
#
# Youngs Moduli (GPa) = 107.56768 56.06275 71.23577
#
# Poissons Ratio (x) = 0.01767 0.08433
# Poissons Ratio (y) = 0.03391 0.10157
# Poissons Ratio (z) = 0.12735 0.07994
#
# Static dielectric constant tensor:
#      x y z
#    x 2.089100 -0.011860 -0.007790 
#    y -0.011860 2.065880 -0.013540 
#    z -0.007790 -0.013540 1.979810 
# 
# From -- ./inp_files/321007.got.cif
#   From: 2010.05.17/outbox.cif.g08.bks.cpg/sg2_161_cif.got.tgz:321007.got - 2010.06.03 11:33:40.
