data_PCOD9002525
_publ_section_title
;
Structure prediction by ZEFSAII (Michael W. Deem and Ramdas Pophale) SiO2 
 PCOD9002525
Probable space group: P -1
;
_chemical_formula_sum "Si O2"
_cell_formula_units_Z 16
_cell_length_a 6.756935
_cell_length_b 23.730749
_cell_length_c 6.066922
_cell_angle_alpha 99.049401
_cell_angle_beta 105.256399
_cell_angle_gamma 49.985586
_cell_volume 718.710233
_symmetry_space_group_name_H-M "P -1"
_symmetry_group_IT_number 2
_symmetry_cell_setting 'triclinic'
loop_
_space_group_symop_operation_xyz
x,y,z
-x,-y,-z
loop_
_atom_site_type_symbol
_atom_site_label
_atom_site_fract_x
_atom_site_fract_y
_atom_site_fract_z
Si Si1 0.513622 0.664147 0.837552
Si Si2 0.083352 0.533852 0.870933
Si Si3 0.378462 0.596831 0.124932
Si Si4 0.089931 0.743628 0.396297
Si Si5 0.303410 0.984037 0.348895
Si Si6 0.264249 0.900724 0.914043
Si Si7 0.555527 0.833735 0.565782
Si Si8 0.700853 0.209434 0.825719
O O1 0.307234 0.719180 0.628670
O O2 0.794962 0.606857 0.765418
O O3 0.416608 0.624366 0.919671
O O4 0.501653 0.714959 0.053136
O O5 0.316134 0.466548 0.745383
O O6 0.234379 0.561773 0.034355
O O7 0.000000 0.500000 0.000000
O O8 0.198430 0.666398 0.273322
O O9 0.078234 0.789578 0.217694
O O10 0.825588 0.790165 0.486905
O O11 0.383322 0.918064 0.489005
O O12 0.500000 0.000000 0.500000
O O13 0.316307 0.951140 0.089022
O O14 0.992909 0.054661 0.294194
O O15 0.531151 0.839197 0.823060
O O16 0.207469 0.859224 0.040405
O O17 0.435106 0.796397 0.423475
#
# Coordination Sequence:
#
# PCOD9002525 Si02
#       8
#     2   2   2   2   2   2   2   2
#     4  10  21  36  61  93 125 168 216 267 325 380
#     4   9  18  38  63  88 123 170 211 267 320 376
#     4   9  20  39  61  88 129 165 215 261 321 392
#     4  11  24  40  63  97 129 172 215 265 331 393
#     4  10  24  44  69 100 130 174 221 278 333 405
#     4  10  23  47  68  97 133 174 221 279 337 391
#     4  11  24  42  65  96 132 169 217 273 328 398
#     4  10  23  42  64  90 133 171 217 275 320 397
#
# _framework density 22.262101999999999
#
# number of rings (size 3 to 8) (size 9 to 14) (size 15 to 20)
#    0.000    2.000    0.000    1.875    3.500    7.000 
#    0.000    5.625    0.000    0.000    0.000    0.000 
#    0.000    0.000    0.000    0.000    0.000    0.000 
#
# Total GULP energy -89163.900261 kJ/mol
# GULP energy per Si atom -5572.743766 kJ/mol
# Density = 2.221143 g / cm^3
# Si number density = 22.262102 Si / 1000 Ang^3
#
#
#
# Elastic Constant Matrix: (Units=GPa)
#
#
# Indices 1 2 3 4 5 6 
#
# 1 141.2010 67.9562 68.5443 -22.2968 -50.1381 5.7106
# 2 67.9562 85.1262 37.7080 26.6811 -11.6327 2.2741
# 3 68.5443 37.7080 78.3719 -22.2448 -36.3016 6.8030
# 4 -22.2968 26.6811 -22.2448 192.7750 154.3529 -44.6579
# 5 -50.1381 -11.6327 -36.3016 154.3529 158.1118 -24.7464
# 6 5.7106 2.2741 6.8030 -44.6579 -24.7464 50.2786
#
#
#
# Elastic Compliance Matrix: (Units=1/GPa)
#
#
# Indices 1 2 3 4 5 6 
#
# 1 0.016891 -0.010193 -0.009151 0.002447 0.000458 0.002179
# 2 -0.010193 0.035315 -0.003173 -0.031630 0.027213 -0.014710
# 3 -0.009151 -0.003173 0.023093 0.001224 0.000908 -0.000408
# 4 0.002447 -0.031630 0.001224 0.064469 -0.059688 0.028872
# 5 0.000458 0.027213 0.000908 -0.059688 0.063308 -0.023261
# 6 0.002179 -0.014710 -0.000408 0.028872 -0.023261 0.034557
#
#
# Mechanical properties :
#
#
# Convention : Reuss Voigt Hill
#
# Bulk Modulus (GPa) = 33.04078 72.56845 52.80461
# Shear Modulus (GPa) = 17.07911 88.93248 53.00580
#
# Velocity S-wave (km/s) = 2.77281 6.32729 4.88483
# Velocity P-wave (km/s) = 5.01251 9.27618 7.45563
#
# Compressibility (1/GPa) = 0.03026563
#
# Stress axis : x y z
#
# Youngs Moduli (GPa) = 59.20452 28.31672 43.30256
#
# Poissons Ratio (x) = 0.28862 0.39627
# Poissons Ratio (y) = 0.60345 0.13739
# Poissons Ratio (z) = 0.54179 0.08984
#
# Static dielectric constant tensor:
#      x y z
#    x 1.883700 -0.039860 -0.030710 
#    y -0.039860 1.872930 0.011800 
#    z -0.030710 0.011800 1.864210 
# 
# From -- ./inp_files/13463.got.cif
#   From: 2010.05.17/outbox.cif.g08.bks.cpg/sg2_7_cif.got.tgz:13463.got - 2010.06.03 11:33:40.
