data_PCOD9002588
_publ_section_title
;
Structure prediction by ZEFSAII (Michael W. Deem and Ramdas Pophale) SiO2 
 PCOD9002588
Probable space group: P -1
;
_chemical_formula_sum "Si O2"
_cell_formula_units_Z 14
_cell_length_a 20.462059
_cell_length_b 8.355536
_cell_length_c 8.164930
_cell_angle_alpha 80.915069
_cell_angle_beta 43.774509
_cell_angle_gamma 49.833140
_cell_volume 599.976916
_symmetry_space_group_name_H-M "P -1"
_symmetry_group_IT_number 2
_symmetry_cell_setting 'triclinic'
loop_
_space_group_symop_operation_xyz
x,y,z
-x,-y,-z
loop_
_atom_site_type_symbol
_atom_site_label
_atom_site_fract_x
_atom_site_fract_y
_atom_site_fract_z
Si Si1 0.666266 0.271850 0.802491
Si Si2 0.854069 0.374675 0.804362
Si Si3 0.921520 0.139633 0.355939
Si Si4 0.710115 0.839907 0.806632
Si Si5 0.575615 0.541350 0.258158
Si Si6 0.880717 0.512370 0.222791
Si Si7 0.426890 0.067589 0.441947
O O1 0.770192 0.267915 0.532592
O O2 0.725545 0.010976 0.739990
O O3 0.500000 0.500000 0.000000
O O4 0.652812 0.351371 0.998119
O O5 0.898819 0.248597 0.561231
O O6 0.806262 0.622391 0.811110
O O7 0.709302 0.465076 0.109007
O O8 0.980760 0.149707 0.735834
O O9 0.968402 0.227165 0.144250
O O10 0.773229 0.685714 0.547742
O O11 0.536742 0.023862 0.129899
O O12 0.500000 0.500000 0.500000
O O13 0.456548 0.839127 0.379503
O O14 0.751814 0.667598 0.291897
O O15 0.000000 0.500000 0.000000
O O16 0.500000 0.000000 0.500000
#
# Coordination Sequence:
#
# PCOD9002588 Si02
#       7
#     2   2   2   2   2   2   2
#     4  11  21  37  63  93 123 170 218 265 321 391
#     4   8  18  37  59  88 118 169 210 260 325 377
#     4   9  19  38  61  86 128 164 209 264 322 388
#     4  10  21  42  67  96 131 175 225 270 330 404
#     4  10  21  36  62  89 125 164 212 266 317 386
#     4  11  24  43  68  99 136 176 218 275 338 399
#     4  11  23  43  67  99 133 174 223 275 330 400
#
# _framework density 23.334230000000002
#
# number of rings (size 3 to 8) (size 9 to 14) (size 15 to 20)
#    0.000    2.000    0.000    3.857    2.000    0.571 
#   10.286    0.714    0.000    0.000    0.000    0.000 
#    0.000    0.000    0.000    0.000    0.000    0.000 
#
# Total GULP energy -78138.237565 kJ/mol
# GULP energy per Si atom -5581.302683 kJ/mol
# Density = 2.328112 g / cm^3
# Si number density = 23.334230 Si / 1000 Ang^3
#
#
#
# Elastic Constant Matrix: (Units=GPa)
#
#
# Indices 1 2 3 4 5 6 
#
# 1 69.2448 26.8310 12.4490 -3.4402 -7.8222 -7.0702
# 2 26.8310 128.2878 5.4386 -4.5150 -25.4176 12.4017
# 3 12.4490 5.4386 62.3170 -16.2975 -16.6111 -14.9458
# 4 -3.4402 -4.5150 -16.2975 46.2751 6.0713 -6.8897
# 5 -7.8222 -25.4176 -16.6111 6.0713 42.2632 8.6066
# 6 -7.0702 12.4017 -14.9458 -6.8897 8.6066 36.1710
#
#
#
# Elastic Compliance Matrix: (Units=1/GPa)
#
#
# Indices 1 2 3 4 5 6 
#
# 1 0.016712 -0.004007 -0.002028 0.000914 -0.001109 0.004240
# 2 -0.004007 0.010611 -0.000067 -0.001160 0.007074 -0.006353
# 3 -0.002028 -0.000067 0.022239 0.008347 0.005262 0.009154
# 4 0.000914 -0.001160 0.008347 0.026355 -0.003022 0.009765
# 5 -0.001109 0.007074 0.005262 -0.003022 0.031975 -0.008652
# 6 0.004240 -0.006353 0.009154 0.009765 -0.008652 0.038354
#
#
# Mechanical properties :
#
#
# Convention : Reuss Voigt Hill
#
# Bulk Modulus (GPa) = 26.76859 38.80966 32.78912
# Shear Modulus (GPa) = 29.25657 39.28392 34.27024
#
# Velocity S-wave (km/s) = 3.54475 4.10754 3.83648
# Velocity P-wave (km/s) = 5.31511 6.25811 5.80579
#
# Compressibility (1/GPa) = 0.03735721
#
# Stress axis : x y z
#
# Youngs Moduli (GPa) = 59.83811 94.24497 44.96579
#
# Poissons Ratio (x) = 0.37760 0.09121
# Poissons Ratio (y) = 0.23975 0.00302
# Poissons Ratio (z) = 0.12138 0.00633
#
# Static dielectric constant tensor:
#      x y z
#    x 1.907130 -0.006850 0.026340 
#    y -0.006850 1.898400 0.042300 
#    z 0.026340 0.042300 1.982940 
# 
# From -- ./inp_files/343494.got.cif
#   From: 2010.05.17/outbox.cif.g08.bks.cpg/sg2_172_cif.got.tgz:343494.got - 2010.06.03 11:33:40.
