data_PCOD9002540
_publ_section_title
;
Structure prediction by ZEFSAII (Michael W. Deem and Ramdas Pophale) SiO2 
 PCOD9002540
Probable space group: P -1
;
_chemical_formula_sum "Si O2"
_cell_formula_units_Z 15
_cell_length_a 7.300898
_cell_length_b 13.723422
_cell_length_c 12.156977
_cell_angle_alpha 130.270209
_cell_angle_beta 62.859835
_cell_angle_gamma 77.919166
_cell_volume 553.987798
_symmetry_space_group_name_H-M "P -1"
_symmetry_group_IT_number 2
_symmetry_cell_setting 'triclinic'
loop_
_space_group_symop_operation_xyz
x,y,z
-x,-y,-z
loop_
_atom_site_type_symbol
_atom_site_label
_atom_site_fract_x
_atom_site_fract_y
_atom_site_fract_z
Si Si1 0.517293 0.849371 0.336014
Si Si2 0.670180 0.281459 0.531723
Si Si3 0.730336 0.852473 0.924136
Si Si4 0.712617 0.349802 0.983556
Si Si5 0.892905 0.468679 0.847800
Si Si6 0.512506 0.788361 0.659438
Si Si7 0.232304 0.949879 0.255790
Si Si8 0.000000 0.500000 0.500000
O O1 0.461829 0.769373 0.387691
O O2 0.273632 0.953712 0.376755
O O3 0.500000 0.000000 0.500000
O O4 0.813553 0.646519 0.045695
O O5 0.683055 0.225590 0.364217
O O6 0.438253 0.504947 0.769923
O O7 0.995247 0.154146 0.410345
O O8 0.563579 0.818451 0.015297
O O9 0.709639 0.986424 0.104496
O O10 0.007877 0.648454 0.645803
O O11 0.500000 0.000000 0.000000
O O12 0.900476 0.360160 0.863360
O O13 0.875448 0.142772 0.814983
O O14 0.415492 0.435024 0.059977
O O15 0.188699 0.327454 0.586407
O O16 0.679187 0.674619 0.644023
#
# Coordination Sequence:
#
# PCOD9002540 Si02
#       8
#     2   2   2   2   2   2   2   1
#     4  10  21  36  61  96 131 175 217 252 303 369
#     4  11  24  37  59  97 135 169 205 252 312 376
#     4  10  23  43  70  94 117 157 212 270 320 371
#     4   9  20  37  59  92 132 173 208 250 310 373
#     4   9  19  38  61  90 132 172 213 262 307 363
#     4  11  23  41  66  94 125 165 215 266 313 371
#     4  11  22  40  64  91 129 171 205 254 317 378
#     4  10  22  44  68  90 114 154 210 266 320 370
#
# _framework density 27.076409000000002
#
# number of rings (size 3 to 8) (size 9 to 14) (size 15 to 20)
#    0.000    1.867    0.000    4.400    0.000    7.467 
#    0.000    4.000    0.000   14.400    0.000    0.000 
#    0.000    0.000    0.000    0.000    0.000    0.000 
#
# Total GULP energy -83648.749875 kJ/mol
# GULP energy per Si atom -5576.583325 kJ/mol
# Density = 2.701478 g / cm^3
# Si number density = 27.076409 Si / 1000 Ang^3
#
#
#
# Elastic Constant Matrix: (Units=GPa)
#
#
# Indices 1 2 3 4 5 6 
#
# 1 104.7905 25.2355 46.4076 5.1167 37.0717 -13.6504
# 2 25.2355 83.0647 50.7496 15.2219 14.9158 -0.4599
# 3 46.4076 50.7496 179.8473 39.1715 49.7277 17.6788
# 4 5.1167 15.2219 39.1715 49.9492 9.5451 2.8232
# 5 37.0717 14.9158 49.7277 9.5451 60.4896 3.7509
# 6 -13.6504 -0.4599 17.6788 2.8232 3.7509 46.8806
#
#
#
# Elastic Compliance Matrix: (Units=1/GPa)
#
#
# Indices 1 2 3 4 5 6 
#
# 1 0.014019 -0.002077 -0.001993 0.001810 -0.007053 0.005269
# 2 -0.002077 0.015084 -0.003653 -0.001721 0.000768 0.000963
# 3 -0.001993 -0.003653 0.010034 -0.005379 -0.005050 -0.003672
# 4 0.001810 -0.001721 -0.005379 0.024556 -0.000205 0.001076
# 5 -0.007053 0.000768 -0.005050 -0.000205 0.024981 -0.002128
# 6 0.005269 0.000963 -0.003672 0.001076 -0.002128 0.024365
#
#
# Mechanical properties :
#
#
# Convention : Reuss Voigt Hill
#
# Bulk Modulus (GPa) = 42.21001 68.05420 55.13211
# Shear Modulus (GPa) = 36.66158 47.81788 42.23973
#
# Velocity S-wave (km/s) = 3.68367 4.20698 3.95399
# Velocity P-wave (km/s) = 5.80652 6.98477 6.42272
#
# Compressibility (1/GPa) = 0.02369106
#
# Stress axis : x y z
#
# Youngs Moduli (GPa) = 71.33219 66.29403 99.65798
#
# Poissons Ratio (x) = 0.13771 0.19864
# Poissons Ratio (y) = 0.14818 0.36403
# Poissons Ratio (z) = 0.14218 0.24216
#
# Static dielectric constant tensor:
#      x y z
#    x 2.151810 -0.016220 -0.013710 
#    y -0.016220 2.128910 -0.025380 
#    z -0.013710 -0.025380 2.200590 
# 
# From -- ./inp_files/397739.got.cif
#   From: 2010.05.17/outbox.cif.g08.bks.cpg/sg2_199_cif.got.tgz:397739.got - 2010.06.03 11:33:40.
