data_PCOD9002413
_publ_section_title
;
Structure prediction by ZEFSAII (Michael W. Deem and Ramdas Pophale) SiO2 
 PCOD9002413
Probable space group: P -1
;
_chemical_formula_sum "Si O2"
_cell_formula_units_Z 16
_cell_length_a 12.870242
_cell_length_b 23.398404
_cell_length_c 5.822836
_cell_angle_alpha 119.528228
_cell_angle_beta 118.419198
_cell_angle_gamma 27.508775
_cell_volume 701.429907
_symmetry_space_group_name_H-M "P -1"
_symmetry_group_IT_number 2
_symmetry_cell_setting 'triclinic'
loop_
_space_group_symop_operation_xyz
x,y,z
-x,-y,-z
loop_
_atom_site_type_symbol
_atom_site_label
_atom_site_fract_x
_atom_site_fract_y
_atom_site_fract_z
Si Si1 0.353281 0.708576 0.604212
Si Si2 0.579127 0.838965 0.415868
Si Si3 0.886302 0.624076 0.621237
Si Si4 0.758592 0.122030 0.867946
Si Si5 0.501303 0.880781 0.911668
Si Si6 0.973039 0.116780 0.771136
Si Si7 0.702824 0.359958 0.215415
Si Si8 0.290308 0.515392 0.779711
O O1 0.378049 0.756142 0.901883
O O2 0.110699 0.830683 0.469009
O O3 0.341869 0.642577 0.580144
O O4 0.559512 0.608689 0.446439
O O5 0.801828 0.689775 0.411705
O O6 0.550116 0.892254 0.734927
O O7 0.378810 0.879638 0.285922
O O8 0.566446 0.877545 0.226738
O O9 0.663545 0.740125 0.771172
O O10 0.000000 0.500000 0.500000
O O11 0.077969 0.584610 0.816690
O O12 0.829719 0.120748 0.700508
O O13 0.000000 0.000000 0.000000
O O14 0.237573 0.988089 0.841065
O O15 0.877127 0.223459 0.028323
O O16 0.784841 0.392668 0.295775
O O17 0.466007 0.461318 0.037704
#
# Coordination Sequence:
#
# PCOD9002413 Si02
#       8
#     2   2   2   2   2   2   2   2
#     4  10  22  33  63  91 122 160 208 268 324 366
#     4  10  24  39  58  88 131 171 210 250 312 378
#     4  10  26  39  61  89 131 175 211 250 311 390
#     4  11  21  33  57  92 124 166 204 260 317 375
#     4  10  23  42  60  88 131 167 212 255 312 380
#     4  10  21  36  60  92 123 157 209 269 320 371
#     4   9  21  38  67  91 120 155 215 269 323 363
#     4  10  21  43  59  92 123 164 210 265 312 377
#
# _framework density 22.810548000000001
#
# number of rings (size 3 to 8) (size 9 to 14) (size 15 to 20)
#    0.750    1.250    1.250    1.125   10.500    2.500 
#    0.000    0.625    0.000    1.500    0.000    0.000 
#    0.000    0.000    0.000    0.000    0.000    0.000 
#
# Total GULP energy -89191.496808 kJ/mol
# GULP energy per Si atom -5574.468551 kJ/mol
# Density = 2.275863 g / cm^3
# Si number density = 22.810548 Si / 1000 Ang^3
#
#
#
# Elastic Constant Matrix: (Units=GPa)
#
#
# Indices 1 2 3 4 5 6 
#
# 1 46.2728 27.9881 2.7374 -7.3824 -6.4608 4.0833
# 2 27.9881 110.7276 15.4314 -1.3280 0.8336 -15.2482
# 3 2.7374 15.4314 97.8255 -1.0444 -25.6268 7.7022
# 4 -7.3824 -1.3280 -1.0444 34.7253 11.3090 -3.2913
# 5 -6.4608 0.8336 -25.6268 11.3090 25.2643 -7.2125
# 6 4.0833 -15.2482 7.7022 -3.2913 -7.2125 17.7367
#
#
#
# Elastic Compliance Matrix: (Units=1/GPa)
#
#
# Indices 1 2 3 4 5 6 
#
# 1 0.030019 -0.010021 0.003550 0.002692 0.006418 -0.013958
# 2 -0.010021 0.014232 -0.003943 0.000717 -0.003026 0.015157
# 3 0.003550 -0.003943 0.015791 -0.005249 0.018065 -0.004692
# 4 0.002692 0.000717 -0.005249 0.036007 -0.020613 0.000576
# 5 0.006418 -0.003026 0.018065 -0.020613 0.072834 0.013869
# 6 -0.013958 0.015157 -0.004692 0.000576 0.013869 0.080409
#
#
# Mechanical properties :
#
#
# Convention : Reuss Voigt Hill
#
# Bulk Modulus (GPa) = 25.50077 38.57106 32.03591
# Shear Modulus (GPa) = 17.65593 29.45654 23.55623
#
# Velocity S-wave (km/s) = 2.78515 3.59744 3.21704
# Velocity P-wave (km/s) = 4.64181 5.84820 5.27958
#
# Compressibility (1/GPa) = 0.03921451
#
# Stress axis : x y z
#
# Youngs Moduli (GPa) = 33.31190 70.26296 63.32792
#
# Poissons Ratio (x) = 0.70408 -0.22480
# Poissons Ratio (y) = 0.33381 0.24970
# Poissons Ratio (z) = -0.11825 0.27705
#
# Static dielectric constant tensor:
#      x y z
#    x 1.859200 0.032570 -0.061210 
#    y 0.032570 1.881520 0.018500 
#    z -0.061210 0.018500 1.946260 
# 
# From -- ./inp_files/84402.got.cif
#   From: 2010.05.17/outbox.cif.g08.bks.cpg/sg2_43_cif.got.tgz:84402.got - 2010.06.03 11:33:40.
