data_PCOD9002643
_publ_section_title
;
Structure prediction by ZEFSAII (Michael W. Deem and Ramdas Pophale) SiO2 
 PCOD9002643
Probable space group: P -1
;
_chemical_formula_sum "Si O2"
_cell_formula_units_Z 14
_cell_length_a 11.623722
_cell_length_b 15.367595
_cell_length_c 16.058569
_cell_angle_alpha 25.790323
_cell_angle_beta 128.095799
_cell_angle_gamma 144.078852
_cell_volume 657.679303
_symmetry_space_group_name_H-M "P -1"
_symmetry_group_IT_number 2
_symmetry_cell_setting 'triclinic'
loop_
_space_group_symop_operation_xyz
x,y,z
-x,-y,-z
loop_
_atom_site_type_symbol
_atom_site_label
_atom_site_fract_x
_atom_site_fract_y
_atom_site_fract_z
Si Si1 0.774869 0.361767 0.055810
Si Si2 0.874060 0.364511 0.471279
Si Si3 0.492346 0.295209 0.540235
Si Si4 0.245829 0.328555 0.823722
Si Si5 0.740248 0.285402 0.788018
Si Si6 0.639024 0.408348 0.785738
Si Si7 0.497766 0.337095 0.064548
O O1 0.715874 0.433700 0.050126
O O2 0.622896 0.009123 0.294095
O O3 0.703372 0.434804 0.885928
O O4 0.000000 0.500000 0.000000
O O5 0.000000 0.500000 0.500000
O O6 0.242694 0.544820 0.674229
O O7 0.054903 0.523959 0.344097
O O8 0.692080 0.011588 0.696736
O O9 0.678335 0.566159 0.328059
O O10 0.584309 0.291689 0.668323
O O11 0.349520 0.348451 0.443693
O O12 0.405332 0.354349 0.926255
O O13 0.000000 0.000000 0.000000
O O14 0.790035 0.425045 0.779929
O O15 0.600846 0.939578 0.030975
O O16 0.500000 0.500000 0.000000
#
# Coordination Sequence:
#
# PCOD9002643 Si02
#       7
#     2   2   2   2   2   2   2
#     4  11  25  45  65  87 131 185 227 265 328 408
#     4  12  21  41  68  99 134 172 223 275 342 404
#     4  11  20  39  65  91 126 168 220 268 333 394
#     4  12  22  39  74  98 126 177 218 270 346 404
#     4  10  21  36  63 100 131 161 214 282 331 394
#     4  10  21  39  62  94 130 165 220 277 329 391
#     4  12  27  46  66 102 142 173 227 290 336 402
#
# _framework density 21.28697
#
# number of rings (size 3 to 8) (size 9 to 14) (size 15 to 20)
#    0.000    0.857    5.714    2.143    0.000    3.429 
#    2.571    1.429    0.000    0.000    0.000    0.000 
#    0.000    0.000    0.000    0.000    0.000    0.000 
#
# Total GULP energy -78132.275332 kJ/mol
# GULP energy per Si atom -5580.876809 kJ/mol
# Density = 2.123852 g / cm^3
# Si number density = 21.286970 Si / 1000 Ang^3
#
#
#
# Elastic Constant Matrix: (Units=GPa)
#
#
# Indices 1 2 3 4 5 6 
#
# 1 159.5466 30.7128 30.3894 -3.3267 -10.4808 -10.8508
# 2 30.7128 27.8322 12.3585 -4.0507 0.0072 -8.4192
# 3 30.3894 12.3585 92.7550 3.2109 3.5118 -4.5699
# 4 -3.3267 -4.0507 3.2109 22.0310 2.6862 3.2666
# 5 -10.4808 0.0072 3.5118 2.6862 55.1462 7.6603
# 6 -10.8508 -8.4192 -4.5699 3.2666 7.6603 32.4270
#
#
#
# Elastic Compliance Matrix: (Units=1/GPa)
#
#
# Indices 1 2 3 4 5 6 
#
# 1 0.008323 -0.008500 -0.001651 -0.000269 0.001705 -0.000030
# 2 -0.008500 0.051023 -0.003670 0.007551 -0.003126 0.009864
# 3 -0.001651 -0.003670 0.011976 -0.002646 -0.001044 0.000695
# 4 -0.000269 0.007551 -0.002646 0.047773 -0.001810 -0.002887
# 5 0.001705 -0.003126 -0.001044 -0.001810 0.019274 -0.004759
# 6 -0.000030 0.009864 0.000695 -0.002887 -0.004759 0.034902
#
#
# Mechanical properties :
#
#
# Convention : Reuss Voigt Hill
#
# Bulk Modulus (GPa) = 22.89423 47.45060 35.17241
# Shear Modulus (GPa) = 23.20475 35.69903 29.45189
#
# Velocity S-wave (km/s) = 3.30524 4.09961 3.72366
# Velocity P-wave (km/s) = 5.03433 6.68942 5.92000
#
# Compressibility (1/GPa) = 0.04367914
#
# Stress axis : x y z
#
# Youngs Moduli (GPa) = 120.15145 19.59918 83.49731
#
# Poissons Ratio (x) = 0.16659 0.13786
# Poissons Ratio (y) = 1.02127 0.30647
# Poissons Ratio (z) = 0.19838 0.07194
#
# Static dielectric constant tensor:
#      x y z
#    x 1.870860 0.004110 -0.042610 
#    y 0.004110 1.742810 -0.002220 
#    z -0.042610 -0.002220 1.836950 
# 
# From -- ./inp_files/522168.got.cif
#   From: 2010.05.17/outbox.cif.g08.bks.cpg/sg2_262_cif.got.tgz:522168.got - 2010.06.03 11:33:40.
