data_PCOD9002135
_publ_section_title
;
Structure prediction by ZEFSAII (Michael W. Deem and Ramdas Pophale) SiO2 
 PCOD9002135
Probable space group: P -1
;
_chemical_formula_sum "Si O2"
_cell_formula_units_Z 16
_cell_length_a 10.183831
_cell_length_b 12.547050
_cell_length_c 11.432160
_cell_angle_alpha 61.359340
_cell_angle_beta 95.394080
_cell_angle_gamma 45.519380
_cell_volume 665.159521
_symmetry_space_group_name_H-M "P -1"
_symmetry_group_IT_number 2
_symmetry_cell_setting 'triclinic'
loop_
_space_group_symop_operation_xyz
x,y,z
-x,-y,-z
loop_
_atom_site_type_symbol
_atom_site_label
_atom_site_fract_x
_atom_site_fract_y
_atom_site_fract_z
Si Si1 0.162822 0.587774 0.826588
Si Si2 0.568417 0.224669 0.855905
Si Si3 0.707305 0.991408 0.397238
Si Si4 0.824369 0.530033 0.861229
Si Si5 0.887397 0.395536 0.560132
Si Si6 0.793990 0.793304 0.112376
Si Si7 0.274387 0.755586 0.694089
Si Si8 0.700410 0.391268 0.758070
O O1 0.388902 0.359714 0.883937
O O2 0.263232 0.645897 0.829762
O O3 0.114112 0.557643 0.957320
O O4 0.903815 0.809322 0.614215
O O5 0.360158 0.374329 0.655869
O O6 0.726067 0.226321 0.864203
O O7 0.768806 0.959161 0.008790
O O8 0.416532 0.189048 0.304158
O O9 0.650337 0.179536 0.271886
O O10 0.872934 0.820402 0.389876
O O11 0.773663 0.445307 0.825030
O O12 0.077797 0.373759 0.898183
O O13 0.781568 0.369556 0.647581
O O14 0.015250 0.385403 0.670781
O O15 0.500000 0.000000 0.000000
O O16 0.405555 0.625433 0.648761
O O17 0.000000 0.000000 0.500000
#
# Coordination Sequence:
#
# PCOD9002135 Si02
#       8
#     2   2   2   2   2   2   2   2
#     4   9  18  33  54  83 113 148 187 221 272 335
#     4  10  21  38  60  85 117 151 187 233 281 335
#     4   9  18  33  54  83 115 146 182 225 275 334
#     4  10  21  36  58  83 114 150 181 227 282 335
#     4  10  21  38  61  86 117 151 185 233 285 336
#     4  11  26  43  58  80 109 149 199 242 283 332
#     4   8  15  27  46  77 118 150 173 211 262 330
#     4   9  19  33  54  90 121 150 185 220 280 344
#
# _framework density 24.054379000000001
#
# number of rings (size 3 to 8) (size 9 to 14) (size 15 to 20)
#    0.000    2.500    0.000    1.875    0.000   13.000 
#    0.000    2.500    0.000    3.000    0.000    0.000 
#    0.000    0.000    0.000    0.000    0.000    0.000 
#
# Total GULP energy -89105.215934 kJ/mol
# GULP energy per Si atom -5569.075996 kJ/mol
# Density = 2.399963 g / cm^3
# Si number density = 24.054379 Si / 1000 Ang^3
#
#
#
# Elastic Constant Matrix: (Units=GPa)
#
#
# Indices 1 2 3 4 5 6 
#
# 1 44.0288 4.2264 4.7438 5.1017 6.2064 -1.5253
# 2 4.2264 116.2163 67.4488 -6.5875 4.5493 -18.0357
# 3 4.7438 67.4488 105.6975 0.0187 5.2705 -7.9205
# 4 5.1017 -6.5875 0.0187 48.3035 -4.8366 5.7645
# 5 6.2064 4.5493 5.2705 -4.8366 20.0858 -8.4136
# 6 -1.5253 -18.0357 -7.9205 5.7645 -8.4136 35.5814
#
#
#
# Elastic Compliance Matrix: (Units=1/GPa)
#
#
# Indices 1 2 3 4 5 6 
#
# 1 0.024372 -0.000718 -0.000275 -0.003421 -0.008467 -0.000828
# 2 -0.000718 0.014795 -0.009086 0.001624 0.002017 0.005660
# 3 -0.000275 -0.009086 0.015289 -0.001304 -0.002889 -0.001686
# 4 -0.003421 0.001624 -0.001304 0.022066 0.005560 -0.001874
# 5 -0.008467 0.002017 -0.002889 0.005560 0.059573 0.013202
# 6 -0.000828 0.005660 -0.001686 -0.001874 0.013202 0.033988
#
#
# Mechanical properties :
#
#
# Convention : Reuss Voigt Hill
#
# Bulk Modulus (GPa) = 29.15497 46.53119 37.84308
# Shear Modulus (GPa) = 24.79238 33.42903 29.11070
#
# Velocity S-wave (km/s) = 3.21390 3.73195 3.48257
# Velocity P-wave (km/s) = 5.09107 6.16085 5.65133
#
# Compressibility (1/GPa) = 0.03429947
#
# Stress axis : x y z
#
# Youngs Moduli (GPa) = 41.03042 67.58827 65.40525
#
# Poissons Ratio (x) = 0.04850 0.01800
# Poissons Ratio (y) = 0.02944 0.59427
# Poissons Ratio (z) = 0.01129 0.61410
#
# Static dielectric constant tensor:
#      x y z
#    x 2.396150 -0.064810 0.061610 
#    y -0.064810 1.937370 -0.014910 
#    z 0.061610 -0.014910 1.878170 
# 
# From -- ./inp_files/433818.got.cif
#   From: 2010.05.17/outbox.cif.g08.bks.cpg/sg2_217_cif.got.tgz:433818.got - 2010.06.03 11:33:40.
