data_PCOD9002448
_publ_section_title
;
Structure prediction by ZEFSAII (Michael W. Deem and Ramdas Pophale) SiO2 
 PCOD9002448
Probable space group: P -1
;
_chemical_formula_sum "Si O2"
_cell_formula_units_Z 12
_cell_length_a 10.196970
_cell_length_b 12.901269
_cell_length_c 10.309800
_cell_angle_alpha 33.630581
_cell_angle_beta 114.869988
_cell_angle_gamma 136.818428
_cell_volume 447.425624
_symmetry_space_group_name_H-M "P -1"
_symmetry_group_IT_number 2
_symmetry_cell_setting 'triclinic'
loop_
_space_group_symop_operation_xyz
x,y,z
-x,-y,-z
loop_
_atom_site_type_symbol
_atom_site_label
_atom_site_fract_x
_atom_site_fract_y
_atom_site_fract_z
Si Si1 0.692602 0.815159 0.145284
Si Si2 0.248958 0.762855 0.379678
Si Si3 0.688925 0.800445 0.690375
Si Si4 0.122990 0.641279 0.716924
Si Si5 0.720480 0.451601 0.602922
Si Si6 0.102732 0.942751 0.745524
O O1 0.776510 0.687536 0.291605
O O2 0.442487 0.608324 0.302071
O O3 0.820184 0.013075 0.121098
O O4 0.715123 0.980567 0.864741
O O5 0.256621 0.684055 0.605906
O O6 0.381829 0.797177 0.282364
O O7 0.000000 0.500000 0.500000
O O8 0.919751 0.924079 0.691408
O O9 0.723328 0.051425 0.478701
O O10 0.699331 0.808735 0.528385
O O11 0.500000 0.500000 0.000000
O O12 0.914275 0.545424 0.666122
O O13 0.020574 0.365215 0.036841
#
# Coordination Sequence:
#
# PCOD9002448 Si02
#       6
#     2   2   2   2   2   2
#     4  11  21  39  64 100 135 175 206 268 335 403
#     4  10  21  36  60  99 134 166 209 261 331 404
#     4  11  27  49  68  95 128 183 236 276 330 390
#     4  11  23  44  68  99 136 172 217 283 328 397
#     4  10  22  37  64 101 136 170 211 259 341 404
#     4  11  24  45  70  96 137 173 227 281 329 390
#
# _framework density 26.8201
#
# number of rings (size 3 to 8) (size 9 to 14) (size 15 to 20)
#    0.000    1.333    5.000    1.000    0.000    8.667 
#    0.000    0.000    0.000    0.000    0.000    0.000 
#    0.000    0.000    0.000    0.000    0.000    0.000 
#
# Total GULP energy -67105.288103 kJ/mol
# GULP energy per Si atom -5592.107342 kJ/mol
# Density = 2.675906 g / cm^3
# Si number density = 26.820100 Si / 1000 Ang^3
#
#
#
# Elastic Constant Matrix: (Units=GPa)
#
#
# Indices 1 2 3 4 5 6 
#
# 1 90.1703 28.3448 20.0988 -5.6721 3.0684 0.5506
# 2 28.3448 64.2550 -1.9840 -6.7397 -6.2537 -2.8942
# 3 20.0988 -1.9840 148.4827 0.5094 -3.5932 -13.5057
# 4 -5.6721 -6.7397 0.5094 31.5987 -12.3720 7.0825
# 5 3.0684 -6.2537 -3.5932 -12.3720 52.0186 -0.1612
# 6 0.5506 -2.8942 -13.5057 7.0825 -0.1612 49.8316
#
#
#
# Elastic Compliance Matrix: (Units=1/GPa)
#
#
# Indices 1 2 3 4 5 6 
#
# 1 0.013604 -0.006176 -0.002072 0.000842 -0.001491 -0.001195
# 2 -0.006176 0.019178 0.001254 0.004226 0.003765 0.000933
# 3 -0.002072 0.001254 0.007243 -0.000432 0.000677 0.002122
# 4 0.000842 0.004226 -0.000432 0.037524 0.009337 -0.005184
# 5 -0.001491 0.003765 0.000677 0.009337 0.022029 -0.000837
# 6 -0.001195 0.000933 0.002122 -0.005184 -0.000837 0.021444
#
#
# Mechanical properties :
#
#
# Convention : Reuss Voigt Hill
#
# Bulk Modulus (GPa) = 38.40645 43.98078 41.19362
# Shear Modulus (GPa) = 34.79723 43.78635 39.29179
#
# Velocity S-wave (km/s) = 3.60589 4.04492 3.83170
# Velocity P-wave (km/s) = 5.62919 6.18460 5.91342
#
# Compressibility (1/GPa) = 0.02603729
#
# Stress axis : x y z
#
# Youngs Moduli (GPa) = 73.50626 52.14354 138.06667
#
# Poissons Ratio (x) = 0.32203 0.28603
# Poissons Ratio (y) = 0.45397 -0.17310
# Poissons Ratio (z) = 0.15228 -0.06537
#
# Static dielectric constant tensor:
#      x y z
#    x 2.160130 -0.058090 0.019210 
#    y -0.058090 2.087980 -0.057320 
#    z 0.019210 -0.057320 2.251160 
# 
# From -- ./inp_files/264438.got.cif
#   From: 2010.05.17/outbox.cif.g08.bks.cpg/sg2_133_cif.got.tgz:264438.got - 2010.06.03 11:33:40.
