data_PCOD9002205
_publ_section_title
;
Structure prediction by ZEFSAII (Michael W. Deem and Ramdas Pophale) SiO2 
 PCOD9002205
Probable space group: P -1
;
_chemical_formula_sum "Si O2"
_cell_formula_units_Z 15
_cell_length_a 11.642369
_cell_length_b 12.325246
_cell_length_c 5.041783
_cell_angle_alpha 111.490791
_cell_angle_beta 101.187076
_cell_angle_gamma 92.382344
_cell_volume 655.333908
_symmetry_space_group_name_H-M "P -1"
_symmetry_group_IT_number 2
_symmetry_cell_setting 'triclinic'
loop_
_space_group_symop_operation_xyz
x,y,z
-x,-y,-z
loop_
_atom_site_type_symbol
_atom_site_label
_atom_site_fract_x
_atom_site_fract_y
_atom_site_fract_z
Si Si1 0.785406 0.005923 0.965633
Si Si2 0.037485 0.876053 0.498120
Si Si3 0.783716 0.837985 0.312184
Si Si4 0.136859 0.545533 0.600946
Si Si5 0.500000 0.500000 0.500000
Si Si6 0.666624 0.594358 0.194299
Si Si7 0.236569 0.784229 0.140317
Si Si8 0.331670 0.609054 0.367264
O O1 0.788837 0.915619 0.648997
O O2 0.711046 0.108729 0.928559
O O3 0.759378 0.924489 0.138498
O O4 0.909503 0.089119 0.157629
O O5 0.144956 0.833649 0.346919
O O6 0.915022 0.795407 0.323369
O O7 0.000000 0.000000 0.500000
O O8 0.693395 0.722449 0.199577
O O9 0.213548 0.457550 0.709396
O O10 0.198920 0.564598 0.358153
O O11 0.000000 0.500000 0.500000
O O12 0.166262 0.674818 0.855130
O O13 0.587289 0.590754 0.414947
O O14 0.419047 0.610487 0.652586
O O15 0.617102 0.505083 0.850482
O O16 0.330883 0.723063 0.297627
#
# Coordination Sequence:
#
# PCOD9002205 Si02
#       8
#     2   2   2   2   1   2   2   2
#     4  11  22  40  58  94 135 187 219 268 321 403
#     4  10  21  36  58  91 137 190 225 254 316 399
#     4  11  25  36  64  95 137 175 230 268 326 396
#     4  10  24  36  60  96 140 178 218 274 341 402
#     4  10  22  48  72  90 124 168 242 282 360 394
#     4  10  24  41  66  98 125 176 223 292 334 408
#     4  11  22  38  61  94 137 181 227 265 334 400
#     4  10  23  43  65  97 124 179 224 285 342 405
#
# _framework density 22.889094
#
# number of rings (size 3 to 8) (size 9 to 14) (size 15 to 20)
#    0.000    1.600    2.667    1.600   11.200    1.067 
#    0.000    0.000    0.000    1.600    0.000    0.000 
#    0.000    0.000    0.000    0.000    0.000    0.000 
#
# Total GULP energy -83510.344691 kJ/mol
# GULP energy per Si atom -5567.356313 kJ/mol
# Density = 2.283700 g / cm^3
# Si number density = 22.889094 Si / 1000 Ang^3
#
#
#
# Elastic Constant Matrix: (Units=GPa)
#
#
# Indices 1 2 3 4 5 6 
#
# 1 98.6050 51.0666 18.7975 0.3390 -0.5900 0.0440
# 2 51.0666 200.1397 36.1901 -13.4515 3.5814 -2.6714
# 3 18.7975 36.1901 68.2475 -11.5869 -15.6876 4.5152
# 4 0.3390 -13.4515 -11.5869 34.1763 0.0469 -0.9041
# 5 -0.5900 3.5814 -15.6876 0.0469 26.6716 -6.8993
# 6 0.0440 -2.6714 4.5152 -0.9041 -6.8993 28.5223
#
#
#
# Elastic Compliance Matrix: (Units=1/GPa)
#
#
# Indices 1 2 3 4 5 6 
#
# 1 0.012025 -0.002765 -0.002357 -0.002010 -0.000787 -0.000158
# 2 -0.002765 0.006399 -0.002988 0.001550 -0.002549 0.000509
# 3 -0.002357 -0.002988 0.020770 0.005862 0.012461 -0.000364
# 4 -0.002010 0.001550 0.005862 0.031901 0.003413 0.001057
# 5 -0.000787 -0.002549 0.012461 0.003413 0.047574 0.009406
# 6 -0.000158 0.000509 -0.000364 0.001057 0.009406 0.037475
#
#
# Mechanical properties :
#
#
# Convention : Reuss Voigt Hill
#
# Bulk Modulus (GPa) = 43.52947 64.34451 53.93699
# Shear Modulus (GPa) = 27.77427 35.26991 31.52209
#
# Velocity S-wave (km/s) = 3.48721 3.92969 3.71505
# Velocity P-wave (km/s) = 5.93911 6.98301 6.48211
#
# Compressibility (1/GPa) = 0.02297294
#
# Stress axis : x y z
#
# Youngs Moduli (GPa) = 83.15873 156.27597 48.14623
#
# Poissons Ratio (x) = 0.43212 0.11350
# Poissons Ratio (y) = 0.22994 0.14386
# Poissons Ratio (z) = 0.19604 0.46696
#
# Static dielectric constant tensor:
#      x y z
#    x 2.114370 -0.168980 0.300530 
#    y -0.168980 2.026000 -0.290190 
#    z 0.300530 -0.290190 2.401030 
# 
# From -- ./inp_files/67946.got.cif
#   From: 2010.05.17/outbox.cif.g08.bks.cpg/sg2_34_cif.got.tgz:67946.got - 2010.06.03 11:33:40.
