data_PCOD9002438
_publ_section_title
;
Structure prediction by ZEFSAII (Michael W. Deem and Ramdas Pophale) SiO2 
 PCOD9002438
Probable space group: P -1
;
_chemical_formula_sum "Si O2"
_cell_formula_units_Z 14
_cell_length_a 23.535925
_cell_length_b 5.623826
_cell_length_c 21.578194
_cell_angle_alpha 103.542057
_cell_angle_beta 11.945195
_cell_angle_gamma 104.076650
_cell_volume 573.296709
_symmetry_space_group_name_H-M "P -1"
_symmetry_group_IT_number 2
_symmetry_cell_setting 'triclinic'
loop_
_space_group_symop_operation_xyz
x,y,z
-x,-y,-z
loop_
_atom_site_type_symbol
_atom_site_label
_atom_site_fract_x
_atom_site_fract_y
_atom_site_fract_z
Si Si1 0.190943 0.696143 0.222764
Si Si2 0.567852 0.427348 0.597195
Si Si3 0.726283 0.306332 0.731912
Si Si4 0.237338 0.135405 0.409538
Si Si5 0.953537 0.347865 0.835224
Si Si6 0.698208 0.063677 0.210365
Si Si7 0.820538 0.716147 0.228078
O O1 0.232294 0.823331 0.253947
O O2 0.013063 0.446755 0.414345
O O3 0.002775 0.820172 0.380913
O O4 0.498238 0.673826 0.868670
O O5 0.825414 0.429343 0.368395
O O6 0.684644 0.608748 0.429702
O O7 0.448472 0.181761 0.676250
O O8 0.306552 0.544451 0.913741
O O9 0.649032 0.120788 0.747684
O O10 0.500000 0.500000 0.000000
O O11 0.106904 0.163130 0.617442
O O12 0.831074 0.214364 0.019165
O O13 0.448920 0.205887 0.515419
O O14 0.957606 0.058299 0.979060
O O15 0.000000 0.500000 0.000000
#
# Coordination Sequence:
#
# PCOD9002438 Si02
#       7
#     2   2   2   2   2   2   2
#     4  11  25  42  63  91 120 158 195 251 316 377
#     4  10  21  41  61  84 124 164 202 249 303 349
#     4  11  25  43  65  92 124 157 200 251 318 385
#     4  12  25  40  65  89 121 159 204 257 312 365
#     4  10  23  40  58  87 116 157 210 250 293 363
#     4  10  21  39  61  84 124 167 193 253 303 342
#     4  10  21  36  60  96 125 156 207 247 293 362
#
# _framework density 24.420164
#
# number of rings (size 3 to 8) (size 9 to 14) (size 15 to 20)
#    0.000    1.429    1.429    3.000    4.000    3.429 
#    0.000    0.000    0.000    0.000    0.000    0.000 
#    0.000    0.000    0.000    0.000    0.000    0.000 
#
# Total GULP energy -78238.995588 kJ/mol
# GULP energy per Si atom -5588.499685 kJ/mol
# Density = 2.436458 g / cm^3
# Si number density = 24.420164 Si / 1000 Ang^3
#
#
#
# Elastic Constant Matrix: (Units=GPa)
#
#
# Indices 1 2 3 4 5 6 
#
# 1 63.5056 11.4448 51.2987 1.3724 -16.4001 13.0309
# 2 11.4448 72.4044 49.2046 -9.8100 -3.8455 25.8086
# 3 51.2987 49.2046 195.7384 -2.8924 -8.4900 14.4593
# 4 1.3724 -9.8100 -2.8924 43.1722 9.4237 -6.7903
# 5 -16.4001 -3.8455 -8.4900 9.4237 41.7124 4.2803
# 6 13.0309 25.8086 14.4593 -6.7903 4.2803 25.4965
#
#
#
# Elastic Compliance Matrix: (Units=1/GPa)
#
#
# Indices 1 2 3 4 5 6 
#
# 1 0.028982 0.008899 -0.007548 -0.006297 0.014529 -0.023656
# 2 0.008899 0.028434 -0.006847 -0.000940 0.008126 -0.031062
# 3 -0.007548 -0.006847 0.008191 0.000935 -0.002848 0.006870
# 4 -0.006297 -0.000940 0.000935 0.027337 -0.009838 0.012572
# 5 0.014529 0.008126 -0.002848 -0.009838 0.034380 -0.022428
# 6 -0.023656 -0.031062 0.006870 0.012572 -0.022428 0.085970
#
#
# Mechanical properties :
#
#
# Convention : Reuss Voigt Hill
#
# Bulk Modulus (GPa) = 18.30983 61.72721 40.01852
# Shear Modulus (GPa) = 20.61931 36.72290 28.67110
#
# Velocity S-wave (km/s) = 2.90893 3.88209 3.43020
# Velocity P-wave (km/s) = 4.33551 6.73989 5.66669
#
# Compressibility (1/GPa) = 0.05461548
#
# Stress axis : x y z
#
# Youngs Moduli (GPa) = 34.50378 35.16937 122.08593
#
# Poissons Ratio (x) = -0.31297 0.92151
# Poissons Ratio (y) = -0.30705 0.83590
# Poissons Ratio (z) = 0.26044 0.24080
#
# Static dielectric constant tensor:
#      x y z
#    x 1.960880 0.000830 -0.039460 
#    y 0.000830 1.996530 0.028600 
#    z -0.039460 0.028600 1.933750 
# 
# From -- ./inp_files/8930.got.cif
#   From: 2010.05.17/outbox.cif.g08.bks.cpg/sg2_5_cif.got.tgz:8930.got - 2010.06.03 11:33:40.
