data_PCOD9002401
_publ_section_title
;
Structure prediction by ZEFSAII (Michael W. Deem and Ramdas Pophale) SiO2 
 PCOD9002401
Probable space group: P -1
;
_chemical_formula_sum "Si O2"
_cell_formula_units_Z 16
_cell_length_a 18.757907
_cell_length_b 14.365983
_cell_length_c 9.124975
_cell_angle_alpha 124.885208
_cell_angle_beta 52.836330
_cell_angle_gamma 160.224888
_cell_volume 662.927434
_symmetry_space_group_name_H-M "P -1"
_symmetry_group_IT_number 2
_symmetry_cell_setting 'triclinic'
loop_
_space_group_symop_operation_xyz
x,y,z
-x,-y,-z
loop_
_atom_site_type_symbol
_atom_site_label
_atom_site_fract_x
_atom_site_fract_y
_atom_site_fract_z
Si Si1 0.389437 0.686459 0.134221
Si Si2 0.859880 0.912020 0.708736
Si Si3 0.931169 0.358689 0.808460
Si Si4 0.675297 0.099432 0.376647
Si Si5 0.052828 0.141032 0.200359
Si Si6 0.693094 0.469472 0.229831
Si Si7 0.422808 0.985046 0.268888
Si Si8 0.714935 0.868003 0.585586
O O1 0.179864 0.399118 0.220799
O O2 0.404257 0.834501 0.202453
O O3 0.589223 0.904938 0.195620
O O4 0.382123 0.621734 0.927374
O O5 0.051822 0.214343 0.803453
O O6 0.000000 0.000000 0.500000
O O7 0.797588 0.758604 0.781730
O O8 0.691438 0.779977 0.693969
O O9 0.709616 0.156530 0.842771
O O10 0.108271 0.597671 0.683303
O O11 0.871566 0.156829 0.690455
O O12 0.000000 0.500000 0.000000
O O13 0.681931 0.070768 0.511543
O O14 0.500000 0.000000 0.500000
O O15 0.844546 0.939660 0.372716
O O16 0.000000 0.000000 0.000000
O O17 0.512307 0.352514 0.400449
O O18 0.646709 0.306069 0.241794
#
# Coordination Sequence:
#
# PCOD9002401 Si02
#       8
#     2   2   2   2   2   2   2   2
#     4  11  23  41  66  94 136 170 221 278 332 395
#     4  10  24  42  71  91 130 177 228 268 338 384
#     4  11  23  40  65 100 138 172 218 265 337 413
#     4  10  21  36  60  90 128 170 208 266 325 397
#     4  11  23  45  67  95 128 179 223 278 330 389
#     4  11  23  43  68 102 128 172 225 274 337 404
#     4  10  23  38  65 100 133 173 213 270 344 400
#     4  10  24  43  69  97 133 174 222 278 330 398
#
# _framework density 24.135370999999999
#
# number of rings (size 3 to 8) (size 9 to 14) (size 15 to 20)
#    0.000    1.500    1.250    3.750    8.750    3.000 
#    0.000    3.125    2.750    0.000    0.000    0.000 
#    0.000    0.000    0.000    0.000    0.000    0.000 
#
# Total GULP energy -89306.527321 kJ/mol
# GULP energy per Si atom -5581.657958 kJ/mol
# Density = 2.408044 g / cm^3
# Si number density = 24.135371 Si / 1000 Ang^3
#
#
#
# Elastic Constant Matrix: (Units=GPa)
#
#
# Indices 1 2 3 4 5 6 
#
# 1 85.4517 12.9430 23.9194 -1.0760 9.8348 -20.0731
# 2 12.9430 88.7099 12.8089 -1.9702 6.6279 -15.7835
# 3 23.9194 12.8089 111.3366 13.7603 23.1704 -12.1939
# 4 -1.0760 -1.9702 13.7603 39.8849 -1.4275 9.8192
# 5 9.8348 6.6279 23.1704 -1.4275 32.9634 -7.8746
# 6 -20.0731 -15.7835 -12.1939 9.8192 -7.8746 27.9994
#
#
#
# Elastic Compliance Matrix: (Units=1/GPa)
#
#
# Indices 1 2 3 4 5 6 
#
# 1 0.014609 -0.000082 -0.001670 -0.001525 -0.000847 0.009997
# 2 -0.000082 0.012622 -0.000419 -0.000993 -0.000575 0.007060
# 3 -0.001670 -0.000419 0.011937 -0.005331 -0.007175 0.003617
# 4 -0.001525 -0.000993 -0.005331 0.030340 0.002385 -0.013944
# 5 -0.000847 -0.000575 -0.007175 0.002385 0.037181 0.005564
# 6 0.009997 0.007060 0.003617 -0.013944 0.005564 0.054892
#
#
# Mechanical properties :
#
#
# Convention : Reuss Voigt Hill
#
# Bulk Modulus (GPa) = 28.71360 42.76010 35.73685
# Shear Modulus (GPa) = 28.16413 35.89132 32.02772
#
# Velocity S-wave (km/s) = 3.41973 3.86046 3.64676
# Velocity P-wave (km/s) = 5.24552 6.13401 5.70708
#
# Compressibility (1/GPa) = 0.03482671
#
# Stress axis : x y z
#
# Youngs Moduli (GPa) = 68.45193 79.22492 83.77362
#
# Poissons Ratio (x) = 0.00653 0.13986
# Poissons Ratio (y) = 0.00564 0.03508
# Poissons Ratio (z) = 0.11428 0.03317
#
# Static dielectric constant tensor:
#      x y z
#    x 2.532660 1.064520 1.747180 
#    y 1.064520 3.486840 3.574770 
#    z 1.747180 3.574770 8.144890 
# 
# From -- ./inp_files/187930.got.cif
#   From: 2010.05.17/outbox.cif.g08.bks.cpg/sg2_94_cif.got.tgz:187930.got - 2010.06.03 11:33:40.
