data_PCOD9002368
_publ_section_title
;
Structure prediction by ZEFSAII (Michael W. Deem and Ramdas Pophale) SiO2 
 PCOD9002368
Probable space group: P -1
;
_chemical_formula_sum "Si O2"
_cell_formula_units_Z 16
_cell_length_a 24.451311
_cell_length_b 21.724270
_cell_length_c 9.246265
_cell_angle_alpha 30.388034
_cell_angle_beta 30.352845
_cell_angle_gamma 20.799098
_cell_volume 837.403460
_symmetry_space_group_name_H-M "P -1"
_symmetry_group_IT_number 2
_symmetry_cell_setting 'triclinic'
loop_
_space_group_symop_operation_xyz
x,y,z
-x,-y,-z
loop_
_atom_site_type_symbol
_atom_site_label
_atom_site_fract_x
_atom_site_fract_y
_atom_site_fract_z
Si Si1 0.688825 0.779868 0.341908
Si Si2 0.036869 0.923280 0.732756
Si Si3 0.216733 0.109099 0.332979
Si Si4 0.439025 0.506320 0.968595
Si Si5 0.341723 0.007620 0.786119
Si Si6 0.147406 0.614347 0.284565
Si Si7 0.320791 0.831596 0.418635
Si Si8 0.714050 0.084952 0.165135
O O1 0.744205 0.817853 0.274365
O O2 0.767288 0.582014 0.556809
O O3 0.496408 0.930169 0.504880
O O4 0.730965 0.815461 0.026421
O O5 0.159120 0.914122 0.546463
O O6 0.119981 0.723427 0.985396
O O7 0.000000 0.000000 0.500000
O O8 0.860275 0.051101 0.948035
O O9 0.026918 0.268232 0.484624
O O10 0.261881 0.959818 0.428122
O O11 0.310768 0.997573 0.491336
O O12 0.432473 0.628491 0.630787
O O13 0.500000 0.500000 0.000000
O O14 0.260816 0.594906 0.177493
O O15 0.560487 0.299158 0.059157
O O16 0.237517 0.024384 0.870674
O O17 0.401631 0.855652 0.071659
#
# Coordination Sequence:
#
# PCOD9002368 Si02
#       8
#     2   2   2   2   2   2   2   2
#     4  10  21  41  60  82 117 157 202 243 292 341
#     4  10  21  36  60  87 121 152 188 237 301 355
#     4  10  22  38  62  83 119 160 197 240 295 341
#     4  11  22  36  59  93 124 147 192 242 293 356
#     4  10  21  38  62  85 115 155 199 244 295 338
#     4  10  22  38  62  87 119 157 195 241 292 349
#     4  10  21  38  61  88 121 158 189 238 301 354
#     4  11  21  37  59  91 118 152 200 240 295 351
#
# _framework density 19.106680999999998
#
# number of rings (size 3 to 8) (size 9 to 14) (size 15 to 20)
#    0.000    1.750    3.750    0.375    1.750    3.500 
#    0.000    2.500    2.750    0.000    0.000    0.000 
#    0.000    0.000    0.000    0.000    0.000    0.000 
#
# Total GULP energy -89166.185927 kJ/mol
# GULP energy per Si atom -5572.886620 kJ/mol
# Density = 1.906319 g / cm^3
# Si number density = 19.106681 Si / 1000 Ang^3
#
#
#
# Elastic Constant Matrix: (Units=GPa)
#
#
# Indices 1 2 3 4 5 6 
#
# 1 101.9014 19.3410 42.0574 -17.3126 14.6090 -1.3777
# 2 19.3410 57.3639 35.2561 -15.7102 3.4162 -3.0874
# 3 42.0574 35.2561 124.7078 -11.2996 14.4412 3.9622
# 4 -17.3126 -15.7102 -11.2996 30.3671 -2.0345 -2.1593
# 5 14.6090 3.4162 14.4412 -2.0345 27.5755 0.0815
# 6 -1.3777 -3.0874 3.9622 -2.1593 0.0815 25.1460
#
#
#
# Elastic Compliance Matrix: (Units=1/GPa)
#
#
# Indices 1 2 3 4 5 6 
#
# 1 0.012890 -0.000430 -0.003218 0.005734 -0.004672 0.001668
# 2 -0.000430 0.024392 -0.006084 0.010531 0.001155 0.004830
# 3 -0.003218 -0.006084 0.011204 -0.001245 -0.003493 -0.002784
# 4 0.005734 0.010531 -0.001245 0.041523 -0.000643 0.005371
# 5 -0.004672 0.001155 -0.003493 -0.000643 0.040377 0.000250
# 6 0.001668 0.004830 -0.002784 0.005371 0.000250 0.041351
#
#
# Mechanical properties :
#
#
# Convention : Reuss Voigt Hill
#
# Bulk Modulus (GPa) = 34.45577 53.03135 43.74356
# Shear Modulus (GPa) = 24.89109 29.10562 26.99836
#
# Velocity S-wave (km/s) = 3.61327 3.90721 3.76311
# Velocity P-wave (km/s) = 5.95652 6.94051 6.46726
#
# Compressibility (1/GPa) = 0.02902272
#
# Stress axis : x y z
#
# Youngs Moduli (GPa) = 77.58124 40.99701 89.25324
#
# Poissons Ratio (x) = 0.01762 0.28721
# Poissons Ratio (y) = 0.03334 0.54301
# Poissons Ratio (z) = 0.24965 0.24942
#
# Static dielectric constant tensor:
#      x y z
#    x 1.702580 -0.013130 -0.012100 
#    y -0.013130 1.642940 0.009060 
#    z -0.012100 0.009060 1.710710 
# 
# From -- ./inp_files/171485.got.cif
#   From: 2010.05.17/outbox.cif.g08.bks.cpg/sg2_86_cif.got.tgz:171485.got - 2010.06.03 11:33:40.
