data_PCOD9002869
_publ_section_title
;
Structure prediction by ZEFSAII (Michael W. Deem and Ramdas Pophale) SiO2 
 PCOD9002869
Probable space group: P -1
;
_chemical_formula_sum "Si O2"
_cell_formula_units_Z 16
_cell_length_a 13.252127
_cell_length_b 11.575635
_cell_length_c 9.365516
_cell_angle_alpha 107.884744
_cell_angle_beta 82.447497
_cell_angle_gamma 149.925371
_cell_volume 657.433434
_symmetry_space_group_name_H-M "P -1"
_symmetry_group_IT_number 2
_symmetry_cell_setting 'triclinic'
loop_
_space_group_symop_operation_xyz
x,y,z
-x,-y,-z
loop_
_atom_site_type_symbol
_atom_site_label
_atom_site_fract_x
_atom_site_fract_y
_atom_site_fract_z
Si Si1 0.334009 0.398122 0.884890
Si Si2 0.874374 0.138161 0.592702
Si Si3 0.448529 0.886194 0.811527
Si Si4 0.911666 0.819929 0.639444
Si Si5 0.789938 0.541451 0.834043
Si Si6 0.472983 0.630624 0.647173
Si Si7 0.917950 0.415106 0.826275
Si Si8 0.612731 0.021841 0.382321
O O1 0.465289 0.560092 0.777080
O O2 0.500000 0.500000 0.000000
O O3 0.244622 0.419880 0.999508
O O4 0.112873 0.110744 0.759452
O O5 0.003820 0.376002 0.740558
O O6 0.782434 0.126154 0.478767
O O7 0.996802 0.161209 0.501489
O O8 0.698121 0.892185 0.631471
O O9 0.403539 0.697323 0.727353
O O10 0.306857 0.826095 0.715884
O O11 0.669879 0.133072 0.780932
O O12 0.500000 0.000000 0.000000
O O13 0.867221 0.702576 0.749969
O O14 0.678647 0.595240 0.525928
O O15 0.930324 0.565399 0.823809
O O16 0.557727 0.254760 0.732099
O O17 0.000000 0.500000 0.000000
O O18 0.500000 0.000000 0.500000
#
# Coordination Sequence:
#
# PCOD9002869 Si02
#       8
#     2   2   2   2   2   2   2   2
#     4  12  29  51  73 101 136 197 252 300 363 414
#     4  11  24  42  75 108 144 185 234 281 367 440
#     4  10  21  36  67 100 134 187 222 278 360 418
#     4  12  27  46  74 108 137 195 243 298 354 419
#     4  11  23  46  72 100 146 182 233 299 351 425
#     4  11  24  49  73  99 143 186 238 309 348 416
#     4  10  23  39  64 108 149 179 223 284 356 444
#     4  11  17  41  66 100 142 176 226 278 350 431
#
# _framework density 24.337064999999999
#
# number of rings (size 3 to 8) (size 9 to 14) (size 15 to 20)
#    0.000    1.000    5.000    3.000    3.500    4.000 
#    2.250    0.000    0.000    0.000    0.000    0.000 
#    0.000    0.000    0.000    0.000    0.000    0.000 
#
# Total GULP energy -89250.699803 kJ/mol
# GULP energy per Si atom -5578.168738 kJ/mol
# Density = 2.428167 g / cm^3
# Si number density = 24.337065 Si / 1000 Ang^3
#
#
#
# Elastic Constant Matrix: (Units=GPa)
#
#
# Indices 1 2 3 4 5 6 
#
# 1 54.5196 16.2364 19.7383 -3.8507 -2.3221 0.9564
# 2 16.2364 90.5518 47.7028 -15.3259 -4.5328 -10.0816
# 3 19.7383 47.7028 175.1085 9.1750 -9.0277 -17.7473
# 4 -3.8507 -15.3259 9.1750 49.5896 -11.2406 -1.9802
# 5 -2.3221 -4.5328 -9.0277 -11.2406 58.6575 -13.2666
# 6 0.9564 -10.0816 -17.7473 -1.9802 -13.2666 34.5106
#
#
#
# Elastic Compliance Matrix: (Units=1/GPa)
#
#
# Indices 1 2 3 4 5 6 
#
# 1 0.019900 -0.002720 -0.001776 0.000941 -0.000016 -0.002212
# 2 -0.002720 0.014934 -0.003540 0.005780 0.002493 0.003908
# 3 -0.001776 -0.003540 0.007359 -0.002231 0.001057 0.003078
# 4 0.000941 0.005780 -0.002231 0.023876 0.005632 0.004050
# 5 -0.000016 0.002493 0.001057 0.005632 0.020637 0.009529
# 6 -0.002212 0.003908 0.003078 0.004050 0.009529 0.035658
#
#
# Mechanical properties :
#
#
# Convention : Reuss Voigt Hill
#
# Bulk Modulus (GPa) = 38.28516 54.17057 46.22787
# Shear Modulus (GPa) = 33.98042 44.31834 39.14938
#
# Velocity S-wave (km/s) = 3.74069 4.27197 4.01513
# Velocity P-wave (km/s) = 5.86705 6.82933 6.36640
#
# Compressibility (1/GPa) = 0.02611978
#
# Stress axis : x y z
#
# Youngs Moduli (GPa) = 50.25167 66.96041 135.89376
#
# Poissons Ratio (x) = 0.18213 0.24141
# Poissons Ratio (y) = 0.13668 0.48107
# Poissons Ratio (z) = 0.08927 0.23704
#
# Static dielectric constant tensor:
#      x y z
#    x 2.114990 0.098900 0.253210 
#    y 0.098900 1.997410 0.014530 
#    z 0.253210 0.014530 1.029670 
# 
# From -- ./inp_files/308015.got.cif
#   From: 2010.05.17/outbox.cif.g08.bks.cpg/sg2_155_cif.got.tgz:308015.got - 2010.06.03 11:33:40.
