data_PCOD9002791
_publ_section_title
;
Structure prediction by ZEFSAII (Michael W. Deem and Ramdas Pophale) SiO2 
 PCOD9002791
Probable space group: P -1
;
_chemical_formula_sum "Si O2"
_cell_formula_units_Z 16
_cell_length_a 10.109369
_cell_length_b 15.570253
_cell_length_c 5.570845
_cell_angle_alpha 98.051364
_cell_angle_beta 82.184132
_cell_angle_gamma 58.012832
_cell_volume 712.973601
_symmetry_space_group_name_H-M "P -1"
_symmetry_group_IT_number 2
_symmetry_cell_setting 'triclinic'
loop_
_space_group_symop_operation_xyz
x,y,z
-x,-y,-z
loop_
_atom_site_type_symbol
_atom_site_label
_atom_site_fract_x
_atom_site_fract_y
_atom_site_fract_z
Si Si1 0.696917 0.933035 0.885837
Si Si2 0.680808 0.428981 0.326608
Si Si3 0.102722 0.963668 0.210671
Si Si4 0.604055 0.580217 0.032609
Si Si5 0.451493 0.257654 0.525495
Si Si6 0.684672 0.248124 0.139660
Si Si7 0.817241 0.549318 0.598944
Si Si8 0.343870 0.117215 0.623370
O O1 0.737251 0.860918 0.611595
O O2 0.776888 0.996996 0.827128
O O3 0.751450 0.879248 0.115347
O O4 0.500000 0.000000 0.000000
O O5 0.500000 0.500000 0.500000
O O6 0.657089 0.467955 0.070726
O O7 0.758968 0.305174 0.275097
O O8 0.773586 0.472122 0.458871
O O9 0.206620 0.837472 0.116868
O O10 0.000000 0.000000 0.500000
O O11 0.000000 0.000000 0.000000
O O12 0.531229 0.661163 0.297515
O O13 0.475347 0.647830 0.886185
O O14 0.768162 0.562813 0.893518
O O15 0.613047 0.197351 0.304156
O O16 0.293519 0.335242 0.439681
O O17 0.415595 0.187324 0.664177
O O18 0.000000 0.500000 0.500000
O O19 0.500000 0.000000 0.500000
#
# Coordination Sequence:
#
# PCOD9002791 Si02
#       8
#     2   2   2   2   2   2   2   2
#     4  10  22  43  70  95 131 180 233 289 338 409
#     4  11  20  40  64 105 128 166 231 283 337 423
#     4  12  29  50  70 104 151 187 236 297 370 418
#     4  10  21  37  71  95 132 170 233 278 345 417
#     4  10  22  37  67 103 126 177 240 280 346 417
#     4  11  23  40  71  95 133 182 229 285 353 422
#     4  10  23  42  61  95 143 175 214 286 354 416
#     4  10  21  36  65 100 131 168 234 291 329 387
#
# _framework density 22.441224999999999
#
# number of rings (size 3 to 8) (size 9 to 14) (size 15 to 20)
#    0.000    1.500    3.750    2.625    8.750    2.000 
#    2.250    2.500    0.000    0.000    0.000    0.000 
#    0.000    0.000    0.000    0.000    0.000    0.000 
#
# Total GULP energy -89130.615390 kJ/mol
# GULP energy per Si atom -5570.663462 kJ/mol
# Density = 2.239015 g / cm^3
# Si number density = 22.441225 Si / 1000 Ang^3
#
#
#
# Elastic Constant Matrix: (Units=GPa)
#
#
# Indices 1 2 3 4 5 6 
#
# 1 103.8779 28.1412 28.3639 5.7221 -14.2377 18.3257
# 2 28.1412 83.6063 27.7118 5.1974 -18.2886 31.0081
# 3 28.3639 27.7118 135.7020 -3.9760 -17.8168 4.3318
# 4 5.7221 5.1974 -3.9760 37.3178 2.4572 0.6157
# 5 -14.2377 -18.2886 -17.8168 2.4572 33.4197 -1.2542
# 6 18.3257 31.0081 4.3318 0.6157 -1.2542 33.9516
#
#
#
# Elastic Compliance Matrix: (Units=1/GPa)
#
#
# Indices 1 2 3 4 5 6 
#
# 1 0.011852 -0.000296 -0.001788 -0.002127 0.003876 -0.005717
# 2 -0.000296 0.022881 -0.002709 -0.003791 0.010481 -0.019935
# 3 -0.001788 -0.002709 0.008563 0.001372 0.002310 0.002407
# 4 -0.002127 -0.003791 0.001372 0.028009 -0.004167 0.003774
# 5 0.003876 0.010481 0.002310 -0.004167 0.038455 -0.010463
# 6 -0.005717 -0.019935 0.002407 0.003774 -0.010463 0.049984
#
#
# Mechanical properties :
#
#
# Convention : Reuss Voigt Hill
#
# Bulk Modulus (GPa) = 29.66584 54.62444 42.14514
# Shear Modulus (GPa) = 27.69060 36.86909 32.27985
#
# Velocity S-wave (km/s) = 3.51653 4.05769 3.79676
# Velocity P-wave (km/s) = 5.45307 6.80787 6.16778
#
# Compressibility (1/GPa) = 0.03370881
#
# Stress axis : x y z
#
# Youngs Moduli (GPa) = 84.37350 43.70512 116.78622
#
# Poissons Ratio (x) = 0.01296 0.20878
# Poissons Ratio (y) = 0.02501 0.31638
# Poissons Ratio (z) = 0.15083 0.11840
#
# Static dielectric constant tensor:
#      x y z
#    x 1.872470 -0.000650 0.051040 
#    y -0.000650 1.864770 -0.097990 
#    z 0.051040 -0.097990 1.938410 
# 
# From -- ./inp_files/39254.got.cif
#   From: 2010.05.17/outbox.cif.g08.bks.cpg/sg2_20_cif.got.tgz:39254.got - 2010.06.03 11:33:40.
