data_PCOD9002050
_publ_section_title
;
Structure prediction by ZEFSAII (Michael W. Deem and Ramdas Pophale) SiO2 
 PCOD9002050
Probable space group: P -1
;
_chemical_formula_sum "Si O2"
_cell_formula_units_Z 16
_cell_length_a 15.030645
_cell_length_b 7.652057
_cell_length_c 14.657474
_cell_angle_alpha 63.771610
_cell_angle_beta 141.519334
_cell_angle_gamma 89.888363
_cell_volume 735.850026
_symmetry_space_group_name_H-M "P -1"
_symmetry_group_IT_number 2
_symmetry_cell_setting 'triclinic'
loop_
_space_group_symop_operation_xyz
x,y,z
-x,-y,-z
loop_
_atom_site_type_symbol
_atom_site_label
_atom_site_fract_x
_atom_site_fract_y
_atom_site_fract_z
Si Si1 0.327282 0.365760 0.055919
Si Si2 0.022782 0.539212 0.902407
Si Si3 0.034018 0.830260 0.148095
Si Si4 0.719259 0.284903 0.208223
Si Si5 0.951263 0.324062 0.525885
Si Si6 0.740944 0.995824 0.018839
Si Si7 0.734585 0.944599 0.444293
Si Si8 0.329994 0.438323 0.589245
O O1 0.545871 0.182058 0.281061
O O2 0.224562 0.426296 0.055467
O O3 0.263445 0.618647 0.897241
O O4 0.282453 0.210356 0.990728
O O5 0.983262 0.371035 0.858437
O O6 0.888055 0.806917 0.679297
O O7 0.000000 0.500000 0.000000
O O8 0.232769 0.673949 0.389791
O O9 0.871409 0.990918 0.052593
O O10 0.000000 0.000000 0.000000
O O11 0.865003 0.285934 0.382144
O O12 0.758720 0.042192 0.345247
O O13 0.500000 0.500000 0.000000
O O14 0.789988 0.448777 0.442233
O O15 0.000000 0.500000 0.500000
O O16 0.141845 0.093909 0.774576
O O17 0.546083 0.261625 0.813404
O O18 0.704345 0.748516 0.434727
#
# Coordination Sequence:
#
# PCOD9002050 Si02
#       8
#     2   2   2   2   2   2   2   2
#     4   9  18  38  57  80 117 152 188 237 294 342
#     4  10  21  36  57  82 110 150 197 240 291 348
#     4   9  19  36  58  80 114 150 194 250 295 342
#     4  10  21  39  59  87 127 157 189 241 298 350
#     4  11  21  36  58  86 118 154 197 238 282 343
#     4   9  18  36  58  83 114 154 192 240 291 344
#     4   9  20  38  59  84 115 154 190 237 295 348
#     4   9  20  38  59  84 115 152 201 238 290 356
#
# _framework density 21.743562000000001
#
# number of rings (size 3 to 8) (size 9 to 14) (size 15 to 20)
#    0.000    2.500    1.250    0.750    0.000    4.000 
#    0.000    3.750    0.000    0.000    0.000    0.000 
#    0.000    0.000    0.000    0.000    0.000    0.000 
#
# Total GULP energy -89160.958062 kJ/mol
# GULP energy per Si atom -5572.559879 kJ/mol
# Density = 2.169407 g / cm^3
# Si number density = 21.743562 Si / 1000 Ang^3
#
#
#
# Elastic Constant Matrix: (Units=GPa)
#
#
# Indices 1 2 3 4 5 6 
#
# 1 111.8374 12.6701 76.0292 -24.9261 -13.7901 10.3074
# 2 12.6701 28.0619 38.3858 -9.6109 4.4973 3.7229
# 3 76.0292 38.3858 172.8290 -25.9412 7.2722 4.9643
# 4 -24.9261 -9.6109 -25.9412 27.3104 9.6936 -0.2439
# 5 -13.7901 4.4973 7.2722 9.6936 35.7269 -8.8658
# 6 10.3074 3.7229 4.9643 -0.2439 -8.8658 27.6126
#
#
#
# Elastic Compliance Matrix: (Units=1/GPa)
#
#
# Indices 1 2 3 4 5 6 
#
# 1 0.015650 0.005053 -0.006786 0.008336 0.003506 -0.004104
# 2 0.005053 0.058772 -0.011870 0.017660 -0.010528 -0.010901
# 3 -0.006786 -0.011870 0.011912 0.002376 -0.004015 0.000724
# 4 0.008336 0.017660 0.002376 0.059100 -0.018324 -0.011282
# 5 0.003506 -0.010528 -0.004015 -0.018324 0.039795 0.013448
# 6 -0.004104 -0.010901 0.000724 -0.011282 0.013448 0.043305
#
#
# Mechanical properties :
#
#
# Convention : Reuss Voigt Hill
#
# Bulk Modulus (GPa) = 16.91148 62.98871 39.95009
# Shear Modulus (GPa) = 18.15218 30.50618 24.32918
#
# Velocity S-wave (km/s) = 2.89248 3.74973 3.34865
# Velocity P-wave (km/s) = 4.35314 6.91224 5.77620
#
# Compressibility (1/GPa) = 0.05913144
#
# Stress axis : x y z
#
# Youngs Moduli (GPa) = 63.89581 17.01479 83.94751
#
# Poissons Ratio (x) = -0.08598 0.56963
# Poissons Ratio (y) = -0.32289 0.99643
# Poissons Ratio (z) = 0.43357 0.20196
#
# Static dielectric constant tensor:
#      x y z
#    x 2.040690 -0.331840 -0.137930 
#    y -0.331840 2.303680 0.125360 
#    z -0.137930 0.125360 1.860780 
# 
# From -- ./inp_files/270555.got.cif
#   From: 2010.05.17/outbox.cif.g08.bks.cpg/sg2_136_cif.got.tgz:270555.got - 2010.06.03 11:33:40.
