data_PCOD9002096
_publ_section_title
;
Structure prediction by ZEFSAII (Michael W. Deem and Ramdas Pophale) SiO2 
 PCOD9002096
Probable space group: P -1
;
_chemical_formula_sum "Si O2"
_cell_formula_units_Z 14
_cell_length_a 5.418460
_cell_length_b 8.998430
_cell_length_c 14.773895
_cell_angle_alpha 71.373600
_cell_angle_beta 97.459082
_cell_angle_gamma 60.299766
_cell_volume 555.439516
_symmetry_space_group_name_H-M "P -1"
_symmetry_group_IT_number 2
_symmetry_cell_setting 'triclinic'
loop_
_space_group_symop_operation_xyz
x,y,z
-x,-y,-z
loop_
_atom_site_type_symbol
_atom_site_label
_atom_site_fract_x
_atom_site_fract_y
_atom_site_fract_z
Si Si1 0.631877 0.041157 0.680606
Si Si2 0.756767 0.281939 0.029912
Si Si3 0.861277 0.387391 0.837739
Si Si4 0.238757 0.675847 0.343503
Si Si5 0.687547 0.170747 0.292535
Si Si6 0.316402 0.774410 0.510907
Si Si7 0.648224 0.826651 0.971726
O O1 0.578995 0.228507 0.691931
O O2 0.550967 0.124766 0.556973
O O3 0.460172 0.944597 0.713811
O O4 0.998596 0.891648 0.727222
O O5 0.771830 0.274475 0.921403
O O6 0.622926 0.171952 0.083158
O O7 0.106771 0.193391 0.081795
O O8 0.500000 0.500000 0.000000
O O9 0.951175 0.300232 0.758954
O O10 0.578766 0.605812 0.777450
O O11 0.134230 0.359136 0.916915
O O12 0.119437 0.765812 0.420806
O O13 0.440126 0.450804 0.414888
O O14 0.777281 0.145697 0.408642
O O15 0.500000 0.000000 0.000000
#
# Coordination Sequence:
#
# PCOD9002096 Si02
#       7
#     2   2   2   2   2   2   2
#     4  10  21  36  57  87 117 162 210 245 298 346
#     4  10  22  43  68  92 123 159 204 247 319 376
#     4   9  23  39  64  87 131 156 203 245 319 356
#     4   8  17  40  56  89 118 166 199 255 293 359
#     4  11  21  37  58  87 122 163 197 259 292 356
#     4   8  17  36  61  79 124 161 210 240 304 348
#     4  10  22  43  69  94 120 161 202 257 308 379
#
# _framework density 25.205266999999999
#
# number of rings (size 3 to 8) (size 9 to 14) (size 15 to 20)
#    1.714    0.857    0.000    1.714    2.000    0.000 
#    5.143    4.286    0.000    0.000    0.000    0.000 
#    0.000    0.000    0.000    0.000    0.000    0.000 
#
# Total GULP energy -77955.654392 kJ/mol
# GULP energy per Si atom -5568.261028 kJ/mol
# Density = 2.514790 g / cm^3
# Si number density = 25.205267 Si / 1000 Ang^3
#
#
#
# Elastic Constant Matrix: (Units=GPa)
#
#
# Indices 1 2 3 4 5 6 
#
# 1 179.9948 60.1528 42.2559 -1.4503 3.1740 0.0185
# 2 60.1528 97.6684 22.3639 -2.3687 -1.7645 -5.1299
# 3 42.2559 22.3639 144.7908 12.9715 0.1978 -0.8252
# 4 -1.4503 -2.3687 12.9715 41.9698 -4.7923 -0.2120
# 5 3.1740 -1.7645 0.1978 -4.7923 31.6934 -3.2131
# 6 0.0185 -5.1299 -0.8252 -0.2120 -3.2131 30.3219
#
#
#
# Elastic Compliance Matrix: (Units=1/GPa)
#
#
# Indices 1 2 3 4 5 6 
#
# 1 0.007349 -0.004231 -0.001528 0.000370 -0.000994 -0.000865
# 2 -0.004231 0.013229 -0.000893 0.001068 0.001569 0.002390
# 3 -0.001528 -0.000893 0.007717 -0.002525 -0.000326 0.000008
# 4 0.000370 0.001068 -0.002525 0.025130 0.003909 0.000702
# 5 -0.000994 0.001569 -0.000326 0.003909 0.032713 0.003751
# 6 -0.000865 0.002390 0.000008 0.000702 0.003751 0.033787
#
#
# Mechanical properties :
#
#
# Convention : Reuss Voigt Hill
#
# Bulk Modulus (GPa) = 66.70280 74.66658 70.68469
# Shear Modulus (GPa) = 36.17322 40.64245 38.40784
#
# Velocity S-wave (km/s) = 3.79244 4.01990 3.90783
# Velocity P-wave (km/s) = 6.76004 7.15778 6.96175
#
# Compressibility (1/GPa) = 0.01499188
#
# Stress axis : x y z
#
# Youngs Moduli (GPa) = 136.07586 75.59435 129.58310
#
# Poissons Ratio (x) = 0.31981 0.19799
# Poissons Ratio (y) = 0.57568 0.11568
# Poissons Ratio (z) = 0.20791 0.06749
#
# Static dielectric constant tensor:
#      x y z
#    x 2.090290 -0.003540 0.047310 
#    y -0.003540 2.014960 -0.014320 
#    z 0.047310 -0.014320 2.071800 
# 
# From -- ./inp_files/546577.got.cif
#   From: 2010.05.17/outbox.cif.g08.bks.cpg/sg2_274_cif.got.tgz:546577.got - 2010.06.03 11:33:40.
