data_PCOD9002801
_publ_section_title
;
Structure prediction by ZEFSAII (Michael W. Deem and Ramdas Pophale) SiO2 
 PCOD9002801
Probable space group: P -1
;
_chemical_formula_sum "Si O2"
_cell_formula_units_Z 15
_cell_length_a 11.430821
_cell_length_b 12.081157
_cell_length_c 10.094190
_cell_angle_alpha 104.813616
_cell_angle_beta 95.834385
_cell_angle_gamma 146.849098
_cell_volume 591.116652
_symmetry_space_group_name_H-M "P -1"
_symmetry_group_IT_number 2
_symmetry_cell_setting 'triclinic'
loop_
_space_group_symop_operation_xyz
x,y,z
-x,-y,-z
loop_
_atom_site_type_symbol
_atom_site_label
_atom_site_fract_x
_atom_site_fract_y
_atom_site_fract_z
Si Si1 0.310145 0.512001 0.920726
Si Si2 0.577756 0.901989 0.865022
Si Si3 0.818158 0.867064 0.252062
Si Si4 0.900594 0.536958 0.866602
Si Si5 0.606389 0.812456 0.457648
Si Si6 0.660615 0.087686 0.668072
Si Si7 0.500000 0.500000 0.500000
Si Si8 0.211594 0.156654 0.185569
O O1 0.601445 0.732967 0.086194
O O2 0.159361 0.449278 0.999157
O O3 0.361622 0.649296 0.852682
O O4 0.202415 0.289104 0.811345
O O5 0.752233 0.944708 0.853922
O O6 0.501845 0.907384 0.726686
O O7 0.795637 0.169810 0.049644
O O8 0.491411 0.464455 0.317864
O O9 0.216312 0.095007 0.605112
O O10 0.671470 0.387865 0.699662
O O11 0.846877 0.355225 0.812833
O O12 0.517540 0.653620 0.517519
O O13 0.764443 0.059865 0.609235
O O14 0.500000 0.000000 0.500000
O O15 0.114508 0.142305 0.305409
O O16 0.000000 0.000000 0.000000
#
# Coordination Sequence:
#
# PCOD9002801 Si02
#       8
#     2   2   2   2   2   2   1   2
#     4  10  21  36  65 105 129 165 225 272 335 410
#     4  12  21  40  68  98 123 174 229 271 340 400
#     4  10  21  38  62  99 143 171 209 279 340 409
#     4  10  22  42  69  91 128 173 223 284 332 391
#     4  10  22  40  63  92 132 178 214 274 339 401
#     4  10  23  44  65  88 129 177 223 276 335 395
#     4  12  24  38  64 100 136 174 232 264 336 420
#     4  12  23  40  67 102 140 180 217 276 346 410
#
# _framework density 25.375700999999999
#
# number of rings (size 3 to 8) (size 9 to 14) (size 15 to 20)
#    0.000    1.333    4.000    2.000    1.867    1.067 
#    0.000    0.000    2.933    5.600    0.000    0.000 
#    0.000    0.000    0.000    0.000    0.000    0.000 
#
# Total GULP energy -83603.272701 kJ/mol
# GULP energy per Si atom -5573.551513 kJ/mol
# Density = 2.531794 g / cm^3
# Si number density = 25.375701 Si / 1000 Ang^3
#
#
#
# Elastic Constant Matrix: (Units=GPa)
#
#
# Indices 1 2 3 4 5 6 
#
# 1 105.3305 51.7436 34.2518 2.1515 -16.1566 -25.0711
# 2 51.7436 118.5738 18.4002 13.5726 -20.1445 -22.9210
# 3 34.2518 18.4002 124.2689 -2.7004 -14.7343 -22.0269
# 4 2.1515 13.5726 -2.7004 33.4119 -15.3271 -2.0264
# 5 -16.1566 -20.1445 -14.7343 -15.3271 60.5327 2.7114
# 6 -25.0711 -22.9210 -22.0269 -2.0264 2.7114 49.6578
#
#
#
# Elastic Compliance Matrix: (Units=1/GPa)
#
#
# Indices 1 2 3 4 5 6 
#
# 1 0.013694 -0.004838 -0.002136 0.001991 0.001863 0.003713
# 2 -0.004838 0.011743 0.000218 -0.003510 0.001654 0.002841
# 3 -0.002136 0.000218 0.009469 0.002004 0.002172 0.003186
# 4 0.001991 -0.003510 0.002004 0.035493 0.008782 0.001243
# 5 0.001863 0.001654 0.002172 0.008782 0.020234 0.001921
# 6 0.003713 0.002841 0.003186 0.001243 0.001921 0.024683
#
#
# Mechanical properties :
#
#
# Convention : Reuss Voigt Hill
#
# Bulk Modulus (GPa) = 46.74115 61.88493 54.31304
# Shear Modulus (GPa) = 36.77586 44.97233 40.87409
#
# Velocity S-wave (km/s) = 3.81104 4.21439 4.01778
# Velocity P-wave (km/s) = 6.15020 6.93699 6.55541
#
# Compressibility (1/GPa) = 0.02139442
#
# Stress axis : x y z
#
# Youngs Moduli (GPa) = 73.02492 85.15825 105.60499
#
# Poissons Ratio (x) = 0.41200 0.22556
# Poissons Ratio (y) = 0.35330 -0.02303
# Poissons Ratio (z) = 0.15597 -0.01857
#
# Static dielectric constant tensor:
#      x y z
#    x 2.021550 -0.101590 -0.025790 
#    y -0.101590 1.518330 -0.551540 
#    z -0.025790 -0.551540 1.910020 
# 
# From -- ./inp_files/426235.got.cif
#   From: 2010.05.17/outbox.cif.g08.bks.cpg/sg2_214_cif.got.tgz:426235.got - 2010.06.03 11:33:40.
