data_PCOD9002372
_publ_section_title
;
Structure prediction by ZEFSAII (Michael W. Deem and Ramdas Pophale) SiO2 
 PCOD9002372
Probable space group: P -1
;
_chemical_formula_sum "Si O2"
_cell_formula_units_Z 16
_cell_length_a 13.831750
_cell_length_b 14.002799
_cell_length_c 13.552841
_cell_angle_alpha 151.064640
_cell_angle_beta 42.287805
_cell_angle_gamma 147.213720
_cell_volume 687.640111
_symmetry_space_group_name_H-M "P -1"
_symmetry_group_IT_number 2
_symmetry_cell_setting 'triclinic'
loop_
_space_group_symop_operation_xyz
x,y,z
-x,-y,-z
loop_
_atom_site_type_symbol
_atom_site_label
_atom_site_fract_x
_atom_site_fract_y
_atom_site_fract_z
Si Si1 0.445349 0.869216 0.663699
Si Si2 0.674884 0.941017 0.727356
Si Si3 0.862770 0.406537 0.223284
Si Si4 0.655336 0.172715 0.614011
Si Si5 0.957433 0.786135 0.205936
Si Si6 0.837826 0.528373 0.641133
Si Si7 0.355574 0.618052 0.802980
Si Si8 0.042466 0.871525 0.643721
O O1 0.573419 0.835877 0.604291
O O2 0.297394 0.838938 0.822220
O O3 0.322974 0.662646 0.485875
O O4 0.573089 0.124780 0.741221
O O5 0.555896 0.746075 0.728474
O O6 0.881965 0.058969 0.694563
O O7 0.656698 0.163120 0.956784
O O8 0.763604 0.479554 0.293893
O O9 0.965321 0.616326 0.414936
O O10 0.988852 0.373689 0.033698
O O11 0.759260 0.444821 0.735330
O O12 0.761506 0.051740 0.418311
O O13 0.500000 0.000000 0.500000
O O14 0.760392 0.604030 0.235238
O O15 0.967622 0.958275 0.269597
O O16 0.000000 0.500000 0.500000
O O17 0.930971 0.792629 0.758391
#
# Coordination Sequence:
#
# PCOD9002372 Si02
#       8
#     2   2   2   2   2   2   2   2
#     4   9  17  31  59  86 106 152 205 225 293 365
#     4   9  18  35  55  82 124 159 189 239 286 342
#     4   9  19  37  55  82 117 158 194 229 288 346
#     4   9  18  34  60  83 109 150 189 247 299 343
#     4  11  22  37  58  87 126 155 193 245 281 345
#     4   8  16  35  56  79 110 145 191 245 295 343
#     4   9  19  35  54  81 122 165 194 230 285 341
#     4  10  21  36  60  88 110 154 199 233 298 355
#
# _framework density 23.267987000000002
#
# number of rings (size 3 to 8) (size 9 to 14) (size 15 to 20)
#    0.000    2.750    0.000    2.250    3.500    0.500 
#    6.750    3.125    0.000   28.500    0.000    0.000 
#    0.000    0.000    0.000    0.000    0.000    0.000 
#
# Total GULP energy -89158.415673 kJ/mol
# GULP energy per Si atom -5572.400980 kJ/mol
# Density = 2.321503 g / cm^3
# Si number density = 23.267987 Si / 1000 Ang^3
#
#
#
# Elastic Constant Matrix: (Units=GPa)
#
#
# Indices 1 2 3 4 5 6 
#
# 1 -17.9679 64.1914 12.2217 -8.4075 -49.9197 -33.1789
# 2 64.1914 178.5656 10.6650 -0.3429 3.4913 -30.6845
# 3 12.2217 10.6650 37.0894 1.2622 -3.3072 5.9915
# 4 -8.4075 -0.3429 1.2622 16.2071 -13.0946 -2.9533
# 5 -49.9197 3.4913 -3.3072 -13.0946 -4.6234 -14.0336
# 6 -33.1789 -30.6845 5.9915 -2.9533 -14.0336 42.9419
#
#
#
# Elastic Compliance Matrix: (Units=1/GPa)
#
#
# Indices 1 2 3 4 5 6 
#
# 1 0.006864 -0.002673 -0.002221 -0.014277 -0.021268 -0.004229
# 2 -0.002673 0.007560 -0.001873 0.004524 0.005640 0.005752
# 3 -0.002221 -0.001873 0.029585 0.002292 0.008147 -0.004362
# 4 -0.014277 0.004524 0.002292 0.056827 0.003898 -0.002936
# 5 -0.021268 0.005640 0.008147 0.003898 0.020593 -0.006542
# 6 -0.004229 0.005752 -0.004362 -0.002936 -0.006542 0.022399
#
#
# Mechanical properties :
#
#
# Convention : Reuss Voigt Hill
#
# Bulk Modulus (GPa) = 32.81342 41.31591 37.06467
# Shear Modulus (GPa) = 29.84708 18.27903 24.06305
#
# Velocity S-wave (km/s) = 3.58544 2.80587 3.21934
# Velocity P-wave (km/s) = 5.59227 5.31905 5.45737
#
# Compressibility (1/GPa) = 0.03047534
#
# Stress axis : x y z
#
# Youngs Moduli (GPa) = 145.68531 132.27660 33.80048
#
# Poissons Ratio (x) = 0.35361 0.07506
# Poissons Ratio (y) = 0.38946 0.06332
# Poissons Ratio (z) = 0.32350 0.24778
#
# Static dielectric constant tensor:
#      x y z
#    x 1.884180 -0.014890 0.028860 
#    y -0.014890 2.034760 0.002630 
#    z 0.028860 0.002630 1.898710 
# 
# From -- ./inp_files/534563.got.cif
#   From: 2010.05.17/outbox.cif.g08.bks.cpg/sg2_268_cif.got.tgz:534563.got - 2010.06.03 11:33:40.
