data_PCOD9002184
_publ_section_title
;
Structure prediction by ZEFSAII (Michael W. Deem and Ramdas Pophale) SiO2 
 PCOD9002184
Probable space group: P -1
;
_chemical_formula_sum "Si O2"
_cell_formula_units_Z 16
_cell_length_a 7.804059
_cell_length_b 5.389437
_cell_length_c 19.833204
_cell_angle_alpha 81.444397
_cell_angle_beta 113.120009
_cell_angle_gamma 116.228928
_cell_volume 687.874760
_symmetry_space_group_name_H-M "P -1"
_symmetry_group_IT_number 2
_symmetry_cell_setting 'triclinic'
loop_
_space_group_symop_operation_xyz
x,y,z
-x,-y,-z
loop_
_atom_site_type_symbol
_atom_site_label
_atom_site_fract_x
_atom_site_fract_y
_atom_site_fract_z
Si Si1 0.084554 0.758725 0.566283
Si Si2 0.867988 0.068593 0.286351
Si Si3 0.464944 0.944185 0.167039
Si Si4 0.616752 0.482035 0.317862
Si Si5 0.192860 0.360371 0.210204
Si Si6 0.458476 0.708173 0.038040
Si Si7 0.843246 0.796406 0.932492
Si Si8 0.669221 0.654347 0.464750
O O1 0.245615 0.655689 0.624917
O O2 0.861346 0.571758 0.508681
O O3 0.036912 0.866413 0.626883
O O4 0.209764 0.014031 0.526111
O O5 0.665501 0.119513 0.235171
O O6 0.762628 0.733672 0.283077
O O7 0.039099 0.244962 0.252525
O O8 0.299011 0.688372 0.194941
O O9 0.546239 0.808896 0.123526
O O10 0.348890 0.119753 0.111178
O O11 0.395107 0.308629 0.258963
O O12 0.573432 0.606451 0.376908
O O13 0.080040 0.208598 0.130787
O O14 0.229792 0.506018 0.034000
O O15 0.500000 0.500000 0.000000
O O16 0.500000 0.000000 0.000000
O O17 0.000000 0.000000 0.000000
O O18 0.500000 0.500000 0.500000
#
# Coordination Sequence:
#
# PCOD9002184 Si02
#       8
#     2   2   2   2   2   2   2   2
#     4  10  21  37  58  88 122 163 209 260 318 388
#     4  10  22  39  63  87 124 169 214 264 331 390
#     4  10  23  42  62  93 128 167 218 276 331 407
#     4  10  21  39  60  88 125 162 213 263 319 395
#     4  10  23  40  61  91 125 166 217 272 333 398
#     4  11  23  43  69  96 130 174 221 277 346 411
#     4  11  25  43  66  97 134 169 227 283 343 410
#     4  10  21  36  58  89 124 160 206 260 318 384
#
# _framework density 23.260047
#
# number of rings (size 3 to 8) (size 9 to 14) (size 15 to 20)
#    0.000    1.750    1.250    1.875    1.750    5.500 
#    0.000    0.000    0.000    0.000    0.000    0.000 
#    0.000    0.000    0.000    0.000    0.000    0.000 
#
# Total GULP energy -89153.093810 kJ/mol
# GULP energy per Si atom -5572.068363 kJ/mol
# Density = 2.320711 g / cm^3
# Si number density = 23.260047 Si / 1000 Ang^3
#
#
#
# Elastic Constant Matrix: (Units=GPa)
#
#
# Indices 1 2 3 4 5 6 
#
# 1 80.3066 45.5723 28.0701 -30.4395 0.1294 30.8434
# 2 45.5723 93.0510 60.3941 -23.1323 -7.0756 20.5009
# 3 28.0701 60.3941 149.9210 0.5232 -1.5784 28.0334
# 4 -30.4395 -23.1323 0.5232 51.9438 6.2332 -6.2523
# 5 0.1294 -7.0756 -1.5784 6.2332 49.7338 -8.9578
# 6 30.8434 20.5009 28.0334 -6.2523 -8.9578 38.1652
#
#
#
# Elastic Compliance Matrix: (Units=1/GPa)
#
#
# Indices 1 2 3 4 5 6 
#
# 1 0.028201 -0.008248 0.001498 0.011272 -0.006040 -0.019032
# 2 -0.008248 0.019992 -0.006924 0.004109 0.002542 0.002282
# 3 0.001498 -0.006924 0.010261 -0.002846 -0.001354 -0.005813
# 4 0.011272 0.004109 -0.002846 0.027515 -0.004003 -0.005658
# 5 -0.006040 0.002542 -0.001354 -0.004003 0.022592 0.009157
# 6 -0.019032 0.002282 -0.005813 -0.005658 0.009157 0.045849
#
#
# Mechanical properties :
#
#
# Convention : Reuss Voigt Hill
#
# Bulk Modulus (GPa) = 32.14644 65.70572 48.92608
# Shear Modulus (GPa) = 26.02455 40.58471 33.30463
#
# Velocity S-wave (km/s) = 3.34855 4.18164 3.78807
# Velocity P-wave (km/s) = 5.36664 7.18502 6.34135
#
# Compressibility (1/GPa) = 0.03110764
#
# Stress axis : x y z
#
# Youngs Moduli (GPa) = 35.45977 50.01986 97.45292
#
# Poissons Ratio (x) = 0.41257 -0.14602
# Poissons Ratio (y) = 0.29248 0.67472
# Poissons Ratio (z) = -0.05313 0.34632
#
# Static dielectric constant tensor:
#      x y z
#    x 2.008400 -0.181440 -0.035600 
#    y -0.181440 2.034180 0.099370 
#    z -0.035600 0.099370 1.973870 
# 
# From -- ./inp_files/585168.got.cif
#   From: 2010.05.17/outbox.cif.g08.bks.cpg/sg2_293_cif.got.tgz:585168.got - 2010.06.03 11:33:40.
