data_PCOD9002434
_publ_section_title
;
Structure prediction by ZEFSAII (Michael W. Deem and Ramdas Pophale) SiO2 
 PCOD9002434
Probable space group: P -1
;
_chemical_formula_sum "Si O2"
_cell_formula_units_Z 12
_cell_length_a 11.716308
_cell_length_b 5.339430
_cell_length_c 13.364466
_cell_angle_alpha 122.980255
_cell_angle_beta 134.060407
_cell_angle_gamma 73.110236
_cell_volume 498.583195
_symmetry_space_group_name_H-M "P -1"
_symmetry_group_IT_number 2
_symmetry_cell_setting 'triclinic'
loop_
_space_group_symop_operation_xyz
x,y,z
-x,-y,-z
loop_
_atom_site_type_symbol
_atom_site_label
_atom_site_fract_x
_atom_site_fract_y
_atom_site_fract_z
Si Si1 0.988553 0.792208 0.791748
Si Si2 0.790194 0.716308 0.357728
Si Si3 0.142270 0.918761 0.709806
Si Si4 0.708249 0.314179 0.511444
Si Si5 0.855449 0.300627 0.927230
Si Si6 0.572773 0.342936 0.644552
O O1 0.880501 0.488992 0.619493
O O2 0.088188 0.970357 0.801796
O O3 0.862277 0.984042 0.806058
O O4 0.101784 0.725097 0.936850
O O5 0.755254 0.360245 0.280572
O O6 0.972064 0.805871 0.527935
O O7 0.780574 0.809606 0.255253
O O8 0.698203 0.956856 0.411809
O O9 0.693944 0.403515 0.637723
O O10 0.563145 0.445032 0.398214
O O11 0.681986 0.386030 0.818015
O O12 0.000000 0.500000 0.000000
O O13 0.500000 0.000000 0.500000
#
# Coordination Sequence:
#
# PCOD9002434 Si02
#       6
#     2   2   2   2   2   2
#     4  11  22  36  61  92 126 164 208 264 315 375
#     4  10  21  36  60  94 127 163 210 264 316 366
#     4  10  21  36  60  94 127 163 210 264 316 366
#     4  11  22  36  61  92 126 164 208 264 315 375
#     4  11  23  39  61  90 125 167 208 258 318 376
#     4  11  23  39  61  90 125 167 208 258 318 376
#
# _framework density 24.068197000000001
#
# number of rings (size 3 to 8) (size 9 to 14) (size 15 to 20)
#    0.000    1.333    3.333    4.000    4.667    0.000 
#    0.000    0.000    0.000    2.000    0.000    0.000 
#    0.000    0.000    0.000    0.000    0.000    0.000 
#
# Total GULP energy -67122.160823 kJ/mol
# GULP energy per Si atom -5593.513402 kJ/mol
# Density = 2.401342 g / cm^3
# Si number density = 24.068197 Si / 1000 Ang^3
#
#
#
# Elastic Constant Matrix: (Units=GPa)
#
#
# Indices 1 2 3 4 5 6 
#
# 1 69.3823 36.6789 37.4863 -9.3725 -29.2659 -1.5139
# 2 36.6789 161.2107 37.3227 -23.9916 -3.3893 -15.1620
# 3 37.4863 37.3227 85.9398 -41.3429 -9.1666 -3.5127
# 4 -9.3725 -23.9916 -41.3429 48.9590 5.1566 -2.7166
# 5 -29.2659 -3.3893 -9.1666 5.1566 39.6322 -4.5946
# 6 -1.5139 -15.1620 -3.5127 -2.7166 -4.5946 54.6903
#
#
#
# Elastic Compliance Matrix: (Units=1/GPa)
#
#
# Indices 1 2 3 4 5 6 
#
# 1 0.033280 -0.005280 -0.015474 -0.011617 0.022026 -0.000263
# 2 -0.005280 0.007990 0.000294 0.003620 -0.003389 0.001983
# 3 -0.015474 0.000294 0.027971 0.021701 -0.007536 0.001895
# 4 -0.011617 0.003620 0.021701 0.039327 -0.007978 0.003359
# 5 0.022026 -0.003389 -0.007536 -0.007978 0.040759 0.002214
# 6 -0.000263 0.001983 0.001895 0.003359 0.002214 0.019302
#
#
# Mechanical properties :
#
#
# Convention : Reuss Voigt Hill
#
# Bulk Modulus (GPa) = 35.30826 59.94539 47.62683
# Shear Modulus (GPa) = 22.83230 42.32597 32.57913
#
# Velocity S-wave (km/s) = 3.08336 4.19810 3.68315
# Velocity P-wave (km/s) = 5.23241 6.96127 6.15781
#
# Compressibility (1/GPa) = 0.02832199
#
# Stress axis : x y z
#
# Youngs Moduli (GPa) = 30.04812 125.15164 35.75146
#
# Poissons Ratio (x) = 0.66082 0.55320
# Poissons Ratio (y) = 0.15866 -0.01052
# Poissons Ratio (z) = 0.46495 -0.03681
#
# Static dielectric constant tensor:
#      x y z
#    x 1.980230 0.043430 -0.050760 
#    y 0.043430 2.050700 0.030740 
#    z -0.050760 0.030740 1.885940 
# 
# From -- ./inp_files/409710.got.cif
#   From: 2010.05.17/outbox.cif.g08.bks.cpg/sg2_205_cif.got.tgz:409710.got - 2010.06.03 11:33:40.
