data_PCOD9002520
_publ_section_title
;
Structure prediction by ZEFSAII (Michael W. Deem and Ramdas Pophale) SiO2 
 PCOD9002520
Probable space group: P -1
;
_chemical_formula_sum "Si O2"
_cell_formula_units_Z 16
_cell_length_a 11.514272
_cell_length_b 14.485555
_cell_length_c 14.528898
_cell_angle_alpha 59.914261
_cell_angle_beta 27.334728
_cell_angle_gamma 43.989313
_cell_volume 696.916647
_symmetry_space_group_name_H-M "P -1"
_symmetry_group_IT_number 2
_symmetry_cell_setting 'triclinic'
loop_
_space_group_symop_operation_xyz
x,y,z
-x,-y,-z
loop_
_atom_site_type_symbol
_atom_site_label
_atom_site_fract_x
_atom_site_fract_y
_atom_site_fract_z
Si Si1 0.223022 0.895748 0.501386
Si Si2 0.357079 0.976037 0.698656
Si Si3 0.114009 0.063348 0.014440
Si Si4 0.296395 0.597703 0.399699
Si Si5 0.453356 0.784875 0.202545
Si Si6 0.430554 0.318002 0.467469
Si Si7 0.260384 0.162927 0.186986
Si Si8 0.973161 0.632718 0.429751
O O1 0.464451 0.833589 0.271837
O O2 0.440264 0.792748 0.485727
O O3 0.963350 0.872250 0.672066
O O4 0.953615 0.072681 0.613025
O O5 0.500000 0.000000 0.500000
O O6 0.639281 0.801548 0.608244
O O7 0.287002 0.057351 0.802604
O O8 0.003677 0.022330 0.889020
O O9 0.753791 0.222966 0.215582
O O10 0.367850 0.981793 0.962787
O O11 0.519212 0.639688 0.238223
O O12 0.391466 0.454708 0.445676
O O13 0.938165 0.727676 0.641443
O O14 0.260675 0.597477 0.313980
O O15 0.686261 0.772923 0.967739
O O16 0.091698 0.360461 0.637835
O O17 0.000000 0.500000 0.500000
#
# Coordination Sequence:
#
# PCOD9002520 Si02
#       8
#     2   2   2   2   2   2   2   2
#     4  10  22  40  62  88 123 160 202 252 304 347
#     4  10  21  36  61  93 119 154 204 252 292 353
#     4  10  21  37  61  89 121 156 204 246 297 362
#     4  10  22  40  63  89 123 157 199 251 309 353
#     4  10  22  38  63  91 114 158 209 250 289 366
#     4  10  21  41  61  86 128 163 194 249 305 360
#     4  11  21  38  66  87 118 164 201 248 301 358
#     4   9  19  37  60  86 121 159 187 237 308 358
#
# _framework density 22.958268
#
# number of rings (size 3 to 8) (size 9 to 14) (size 15 to 20)
#    0.000    2.000    2.500    0.375    1.750    2.000 
#    2.250    6.250    0.000    6.750    0.000    0.000 
#    0.000    0.000    0.000    0.000    0.000    0.000 
#
# Total GULP energy -89239.345371 kJ/mol
# GULP energy per Si atom -5577.459086 kJ/mol
# Density = 2.290601 g / cm^3
# Si number density = 22.958268 Si / 1000 Ang^3
#
#
#
# Elastic Constant Matrix: (Units=GPa)
#
#
# Indices 1 2 3 4 5 6 
#
# 1 72.9288 25.4015 4.9697 -8.4286 17.0688 -19.1159
# 2 25.4015 101.4524 25.5722 -3.8020 18.9628 3.2644
# 3 4.9697 25.5722 47.6305 -24.2747 18.8908 -2.2465
# 4 -8.4286 -3.8020 -24.2747 29.8679 -7.6381 5.7832
# 5 17.0688 18.9628 18.8908 -7.6381 25.2335 0.0230
# 6 -19.1159 3.2644 -2.2465 5.7832 0.0230 40.2379
#
#
#
# Elastic Compliance Matrix: (Units=1/GPa)
#
#
# Indices 1 2 3 4 5 6 
#
# 1 0.023086 -0.005731 0.013627 0.010052 -0.018479 0.010759
# 2 -0.005731 0.014030 -0.010952 -0.008353 -0.000993 -0.003271
# 3 0.013627 -0.010952 0.060382 0.042056 -0.033466 0.004708
# 4 0.010052 -0.008353 0.042056 0.066764 -0.011796 -0.001788
# 5 -0.018479 -0.000993 -0.033466 -0.011796 0.074367 -0.008914
# 6 0.010759 -0.003271 0.004708 -0.001788 -0.008914 0.030754
#
#
# Mechanical properties :
#
#
# Convention : Reuss Voigt Hill
#
# Bulk Modulus (GPa) = 10.94247 37.09983 24.02115
# Shear Modulus (GPa) = 16.34217 30.13909 23.24063
#
# Velocity S-wave (km/s) = 2.67089 3.62716 3.18512
# Velocity P-wave (km/s) = 3.77997 5.80831 4.90023
#
# Compressibility (1/GPa) = 0.09138701
#
# Stress axis : x y z
#
# Youngs Moduli (GPa) = 43.31583 71.27495 16.56129
#
# Poissons Ratio (x) = 0.40846 -0.22568
# Poissons Ratio (y) = 0.24823 0.18138
# Poissons Ratio (z) = -0.59027 0.78061
#
# Static dielectric constant tensor:
#      x y z
#    x 1.967840 0.024220 0.003290 
#    y 0.024220 1.843880 -0.017460 
#    z 0.003290 -0.017460 1.889260 
# 
# From -- ./inp_files/471795.got.cif
#   From: 2010.05.17/outbox.cif.g08.bks.cpg/sg2_236_cif.got.tgz:471795.got - 2010.06.03 11:33:40.
