data_PCOD9002769
_publ_section_title
;
Structure prediction by ZEFSAII (Michael W. Deem and Ramdas Pophale) SiO2 
 PCOD9002769
Probable space group: P -1
;
_chemical_formula_sum "Si O2"
_cell_formula_units_Z 16
_cell_length_a 11.981687
_cell_length_b 9.218961
_cell_length_c 11.336258
_cell_angle_alpha 89.986142
_cell_angle_beta 63.690940
_cell_angle_gamma 131.013271
_cell_volume 764.531209
_symmetry_space_group_name_H-M "P -1"
_symmetry_group_IT_number 2
_symmetry_cell_setting 'triclinic'
loop_
_space_group_symop_operation_xyz
x,y,z
-x,-y,-z
loop_
_atom_site_type_symbol
_atom_site_label
_atom_site_fract_x
_atom_site_fract_y
_atom_site_fract_z
Si Si1 0.797381 0.800110 0.646685
Si Si2 0.004265 0.180435 0.253396
Si Si3 0.497612 0.573927 0.373462
Si Si4 0.877689 0.535894 0.031556
Si Si5 0.126142 0.181609 0.844798
Si Si6 0.463654 0.154455 0.267683
Si Si7 0.156484 0.701882 0.507956
Si Si8 0.579492 0.225997 0.472060
O O1 0.823887 0.736352 0.755485
O O2 0.691622 0.613677 0.601298
O O3 0.671991 0.836723 0.716579
O O4 0.000000 0.000000 0.500000
O O5 0.901010 0.201297 0.392651
O O6 0.054986 0.320072 0.116159
O O7 0.901892 0.944742 0.257268
O O8 0.500000 0.500000 0.500000
O O9 0.663155 0.657751 0.219056
O O10 0.522182 0.764365 0.384893
O O11 0.905685 0.673970 0.127630
O O12 0.662779 0.310837 0.114306
O O13 0.000000 0.500000 0.000000
O O14 0.000000 0.000000 0.000000
O O15 0.532548 0.252799 0.368016
O O16 0.332394 0.902197 0.347114
O O17 0.218696 0.633551 0.574226
O O18 0.000000 0.500000 0.500000
O O19 0.500000 0.000000 0.500000
#
# Coordination Sequence:
#
# PCOD9002769 Si02
#       8
#     2   2   2   2   2   2   2   2
#     4  12  23  39  67  99 137 172 231 285 336 398
#     4  11  24  43  69 100 142 179 225 285 344 400
#     4  12  21  38  66  94 127 173 226 274 334 397
#     4  11  24  46  72 100 135 178 234 285 340 413
#     4  10  22  42  66  98 130 175 230 275 333 407
#     4  11  22  43  65 100 131 179 231 277 337 408
#     4  11  23  43  67 103 142 177 222 285 352 403
#     4  10  21  36  64  93 129 170 222 277 331 394
#
# _framework density 20.927856999999999
#
# number of rings (size 3 to 8) (size 9 to 14) (size 15 to 20)
#    0.000    1.000    3.750    3.750    0.000    3.500 
#    2.250    0.625    0.000    0.000    0.000    0.000 
#    0.000    0.000    0.000    0.000    0.000    0.000 
#
# Total GULP energy -89172.239858 kJ/mol
# GULP energy per Si atom -5573.264991 kJ/mol
# Density = 2.088022 g / cm^3
# Si number density = 20.927857 Si / 1000 Ang^3
#
#
#
# Elastic Constant Matrix: (Units=GPa)
#
#
# Indices 1 2 3 4 5 6 
#
# 1 171.9619 42.0584 37.9990 0.7651 -8.6656 0.7665
# 2 42.0584 136.4017 42.1631 -0.7445 -13.6886 1.4537
# 3 37.9990 42.1631 77.7184 -19.2365 -13.4048 -3.4749
# 4 0.7651 -0.7445 -19.2365 35.1069 -0.8412 -5.8466
# 5 -8.6656 -13.6886 -13.4048 -0.8412 36.7530 5.7947
# 6 0.7665 1.4537 -3.4749 -5.8466 5.7947 44.6946
#
#
#
# Elastic Compliance Matrix: (Units=1/GPa)
#
#
# Indices 1 2 3 4 5 6 
#
# 1 0.006820 -0.001091 -0.003271 -0.002065 0.000058 -0.000613
# 2 -0.001091 0.009367 -0.005003 -0.002686 0.001539 -0.001226
# 3 -0.003271 -0.005003 0.021161 0.012147 0.004918 0.002815
# 4 -0.002065 -0.002686 0.012147 0.036099 0.002916 0.005411
# 5 0.000058 0.001539 0.004918 0.002916 0.030160 -0.003198
# 6 -0.000613 -0.001226 0.002815 0.005411 -0.003198 0.023766
#
#
# Mechanical properties :
#
#
# Convention : Reuss Voigt Hill
#
# Bulk Modulus (GPa) = 53.70970 70.05811 61.88390
# Shear Modulus (GPa) = 32.82837 40.90168 36.86502
#
# Velocity S-wave (km/s) = 3.96491 4.42567 4.20161
# Velocity P-wave (km/s) = 6.83232 7.72425 7.29194
#
# Compressibility (1/GPa) = 0.01861861
#
# Stress axis : x y z
#
# Youngs Moduli (GPa) = 146.63469 106.76106 47.25683
#
# Poissons Ratio (x) = 0.11642 0.15459
# Poissons Ratio (y) = 0.15991 0.23641
# Poissons Ratio (z) = 0.47968 0.53408
#
# Static dielectric constant tensor:
#      x y z
#    x 1.797240 -0.003440 -0.008490 
#    y -0.003440 1.807890 0.003640 
#    z -0.008490 0.003640 1.796080 
# 
# From -- ./inp_files/419451.got.cif
#   From: 2010.05.17/outbox.cif.g08.bks.cpg/sg2_210_cif.got.tgz:419451.got - 2010.06.03 11:33:40.
