data_PCOD9002003
_publ_section_title
;
Structure prediction by ZEFSAII (Michael W. Deem and Ramdas Pophale) SiO2 
 PCOD9002003
Probable space group: P -1
;
_chemical_formula_sum "Si O2"
_cell_formula_units_Z 14
_cell_length_a 20.441314
_cell_length_b 5.373812
_cell_length_c 5.083220
_cell_angle_alpha 86.095430
_cell_angle_beta 67.788443
_cell_angle_gamma 79.636345
_cell_volume 508.511881
_symmetry_space_group_name_H-M "P -1"
_symmetry_group_IT_number 2
_symmetry_cell_setting 'triclinic'
loop_
_space_group_symop_operation_xyz
x,y,z
-x,-y,-z
loop_
_atom_site_type_symbol
_atom_site_label
_atom_site_fract_x
_atom_site_fract_y
_atom_site_fract_z
Si Si1 0.040230 0.289203 0.763303
Si Si2 0.153619 0.557022 0.444071
Si Si3 0.597380 0.576391 0.238527
Si Si4 0.274206 0.119021 0.093045
Si Si5 0.319484 0.904933 0.540624
Si Si6 0.891358 0.145825 0.983945
Si Si7 0.446426 0.216425 0.211955
O O1 0.084706 0.424621 0.480392
O O2 0.976190 0.146250 0.788696
O O3 0.000000 0.500000 0.000000
O O4 0.100889 0.113633 0.851770
O O5 0.221042 0.347781 0.287362
O O6 0.147628 0.792297 0.236978
O O7 0.142801 0.650644 0.755092
O O8 0.652673 0.769204 0.082349
O O9 0.569584 0.549817 0.986693
O O10 0.640107 0.340509 0.351004
O O11 0.535981 0.702118 0.527061
O O12 0.286908 0.888852 0.301065
O O13 0.259304 0.029852 0.829001
O O14 0.376099 0.091256 0.384890
O O15 0.500000 0.000000 0.000000
#
# Coordination Sequence:
#
# PCOD9002003 Si02
#       7
#     2   2   2   2   2   2   2
#     4   9  21  38  57  80 110 141 176 223 273 321
#     4  11  22  37  57  81 108 141 181 223 266 320
#     4  10  21  37  56  79 112 146 177 222 270 313
#     4  10  22  37  55  81 109 141 184 222 262 321
#     4  10  21  38  57  79 111 146 177 221 272 312
#     4  10  22  37  56  81 108 140 178 221 273 323
#     4  10  21  36  56  84 111 140 183 223 262 320
#
# _framework density 27.531313000000001
#
# number of rings (size 3 to 8) (size 9 to 14) (size 15 to 20)
#    0.000    2.000    0.000    2.571    0.000   10.857 
#    0.000    0.000    0.000    0.000    0.000    0.000 
#    0.000    0.000    0.000    0.000    0.000    0.000 
#
# Total GULP energy -78333.298063 kJ/mol
# GULP energy per Si atom -5595.235576 kJ/mol
# Density = 2.746865 g / cm^3
# Si number density = 27.531313 Si / 1000 Ang^3
#
#
#
# Elastic Constant Matrix: (Units=GPa)
#
#
# Indices 1 2 3 4 5 6 
#
# 1 65.9428 1.4768 54.0481 -6.2951 10.9572 -12.8491
# 2 1.4768 124.2965 55.8861 -8.8124 17.9880 -33.2229
# 3 54.0481 55.8861 212.7286 3.2239 19.8158 -13.3503
# 4 -6.2951 -8.8124 3.2239 69.7893 -5.6792 3.3486
# 5 10.9572 17.9880 19.8158 -5.6792 51.6158 -13.6217
# 6 -12.8491 -33.2229 -13.3503 3.3486 -13.6217 37.1280
#
#
#
# Elastic Compliance Matrix: (Units=1/GPa)
#
#
# Indices 1 2 3 4 5 6 
#
# 1 0.022845 0.005724 -0.006591 0.002497 -0.001424 0.009911
# 2 0.005724 0.013266 -0.004135 0.001737 -0.000928 0.011868
# 3 -0.006591 -0.004135 0.007357 -0.001372 -0.001088 -0.003611
# 4 0.002497 0.001737 -0.001372 0.014892 0.001310 0.001063
# 5 -0.001424 -0.000928 -0.001088 0.001310 0.022230 0.006323
# 6 0.009911 0.011868 -0.003611 0.001063 0.006323 0.041909
#
#
# Mechanical properties :
#
#
# Convention : Reuss Voigt Hill
#
# Bulk Modulus (GPa) = 29.88239 69.53223 49.70731
# Shear Modulus (GPa) = 34.80501 51.14373 42.97437
#
# Velocity S-wave (km/s) = 3.55941 4.31473 3.95514
# Velocity P-wave (km/s) = 5.26973 7.08047 6.24112
#
# Compressibility (1/GPa) = 0.03346453
#
# Stress axis : x y z
#
# Youngs Moduli (GPa) = 43.77369 75.38195 135.92129
#
# Poissons Ratio (x) = -0.43150 0.89589
# Poissons Ratio (y) = -0.25057 0.56197
# Poissons Ratio (z) = 0.28852 0.31167
#
# Static dielectric constant tensor:
#      x y z
#    x 2.348130 0.023830 0.036810 
#    y 0.023830 2.120940 0.005650 
#    z 0.036810 0.005650 2.058990 
# 
# From -- ./inp_files/125728.got.cif
#   From: 2010.05.17/outbox.cif.g08.bks.cpg/sg2_63_cif.got.tgz:125728.got - 2010.06.03 11:33:40.
