data_PCOD9002515
_publ_section_title
;
Structure prediction by ZEFSAII (Michael W. Deem and Ramdas Pophale) SiO2 
 PCOD9002515
Probable space group: P -1
;
_chemical_formula_sum "Si O2"
_cell_formula_units_Z 16
_cell_length_a 17.856102
_cell_length_b 5.178040
_cell_length_c 9.214623
_cell_angle_alpha 111.639827
_cell_angle_beta 89.051811
_cell_angle_gamma 57.042302
_cell_volume 638.210749
_symmetry_space_group_name_H-M "P -1"
_symmetry_group_IT_number 2
_symmetry_cell_setting 'triclinic'
loop_
_space_group_symop_operation_xyz
x,y,z
-x,-y,-z
loop_
_atom_site_type_symbol
_atom_site_label
_atom_site_fract_x
_atom_site_fract_y
_atom_site_fract_z
Si Si1 0.798191 0.650985 0.269758
Si Si2 0.100045 0.207194 0.370457
Si Si3 0.445783 0.540585 0.773111
Si Si4 0.219881 0.431187 0.326297
Si Si5 0.312569 0.543631 0.576472
Si Si6 0.002524 0.675312 0.888304
Si Si7 0.715344 0.714362 0.998228
Si Si8 0.578377 0.589117 0.920061
O O1 0.759072 0.471000 0.321177
O O2 0.900835 0.554147 0.252207
O O3 0.730604 0.062476 0.377705
O O4 0.792468 0.557888 0.083646
O O5 0.167928 0.322272 0.404944
O O6 0.000000 0.500000 0.500000
O O7 0.078165 0.216519 0.201437
O O8 0.146843 0.831172 0.362003
O O9 0.408483 0.396365 0.629759
O O10 0.549164 0.440907 0.761834
O O11 0.430675 0.488257 0.929728
O O12 0.371876 0.953780 0.849069
O O13 0.307134 0.374442 0.396234
O O14 0.253749 0.206120 0.132686
O O15 0.000000 0.500000 0.000000
O O16 0.000000 0.000000 0.000000
O O17 0.679113 0.503286 0.893205
O O18 0.500000 0.000000 0.000000
#
# Coordination Sequence:
#
# PCOD9002515 Si02
#       8
#     2   2   2   2   2   2   2   2
#     4  11  22  39  61  85 116 158 205 252 302 362
#     4  12  26  46  63  87 125 173 208 251 314 380
#     4   9  19  35  63  89 123 161 205 243 299 370
#     4  12  26  41  64  92 127 162 208 259 312 359
#     4  11  22  40  60  89 118 163 204 249 292 368
#     4  12  24  40  62  91 119 153 203 263 309 358
#     4  10  21  36  61  92 124 158 201 259 307 357
#     4   9  17  35  60  93 120 158 201 245 301 367
#
# _framework density 25.070086
#
# number of rings (size 3 to 8) (size 9 to 14) (size 15 to 20)
#    0.000    1.250    1.250    5.625    1.750    1.000 
#    0.000    0.625    0.000    6.750    0.000    0.000 
#    0.000    0.000    0.000    0.000    0.000    0.000 
#
# Total GULP energy -89352.881818 kJ/mol
# GULP energy per Si atom -5584.555114 kJ/mol
# Density = 2.501303 g / cm^3
# Si number density = 25.070086 Si / 1000 Ang^3
#
#
#
# Elastic Constant Matrix: (Units=GPa)
#
#
# Indices 1 2 3 4 5 6 
#
# 1 116.3653 20.2315 17.7295 -8.7407 40.2412 2.6926
# 2 20.2315 118.3059 13.1843 3.5178 10.7342 13.3838
# 3 17.7295 13.1843 89.6605 -19.0943 29.9549 -8.2716
# 4 -8.7407 3.5178 -19.0943 39.4834 -14.7103 -1.2287
# 5 40.2412 10.7342 29.9549 -14.7103 48.6581 -17.4699
# 6 2.6926 13.3838 -8.2716 -1.2287 -17.4699 40.3276
#
#
#
# Elastic Compliance Matrix: (Units=1/GPa)
#
#
# Indices 1 2 3 4 5 6 
#
# 1 0.013791 -0.000193 0.001314 -0.002306 -0.015519 -0.007380
# 2 -0.000193 0.009689 -0.001176 -0.003178 -0.004127 -0.005329
# 3 0.001314 -0.001176 0.014898 0.004306 -0.008815 -0.000329
# 4 -0.002306 -0.003178 0.004306 0.032215 0.012789 0.008614
# 5 -0.015519 -0.004127 -0.008815 0.012789 0.052038 0.023530
# 6 -0.007380 -0.005329 -0.000329 0.008614 0.023530 0.037446
#
#
# Mechanical properties :
#
#
# Convention : Reuss Voigt Hill
#
# Bulk Modulus (GPa) = 26.13177 47.40247 36.76712
# Shear Modulus (GPa) = 28.91123 43.90625 36.40874
#
# Velocity S-wave (km/s) = 3.39959 4.18944 3.81501
# Velocity P-wave (km/s) = 5.08485 6.50776 5.83980
#
# Compressibility (1/GPa) = 0.03826759
#
# Stress axis : x y z
#
# Youngs Moduli (GPa) = 72.50969 103.21418 67.12309
#
# Poissons Ratio (x) = 0.01996 -0.08821
# Poissons Ratio (y) = 0.01402 0.07893
# Poissons Ratio (z) = -0.09529 0.12137
#
# Static dielectric constant tensor:
#      x y z
#    x 2.039100 0.016320 0.057130 
#    y 0.016320 2.005000 -0.007070 
#    z 0.057130 -0.007070 1.993800 
# 
# From -- ./inp_files/37800.got.cif
#   From: 2010.05.17/outbox.cif.g08.bks.cpg/sg2_19_cif.got.tgz:37800.got - 2010.06.03 11:33:40.
