data_PCOD9002105
_publ_section_title
;
Structure prediction by ZEFSAII (Michael W. Deem and Ramdas Pophale) SiO2 
 PCOD9002105
Probable space group: P -1
;
_chemical_formula_sum "Si O2"
_cell_formula_units_Z 16
_cell_length_a 9.319987
_cell_length_b 12.515807
_cell_length_c 14.234982
_cell_angle_alpha 107.132768
_cell_angle_beta 121.045828
_cell_angle_gamma 33.929126
_cell_volume 762.573325
_symmetry_space_group_name_H-M "P -1"
_symmetry_group_IT_number 2
_symmetry_cell_setting 'triclinic'
loop_
_space_group_symop_operation_xyz
x,y,z
-x,-y,-z
loop_
_atom_site_type_symbol
_atom_site_label
_atom_site_fract_x
_atom_site_fract_y
_atom_site_fract_z
Si Si1 0.057948 0.009010 0.328775
Si Si2 0.855676 0.314567 0.067880
Si Si3 0.849035 0.217458 0.850888
Si Si4 0.004824 0.484175 0.109216
Si Si5 0.416587 0.162988 0.464141
Si Si6 0.273735 0.142135 0.874185
Si Si7 0.147091 0.645216 0.714070
Si Si8 0.387602 0.896754 0.696143
O O1 0.024241 0.959956 0.206969
O O2 0.409230 0.837511 0.420284
O O3 0.901434 0.217135 0.329366
O O4 0.903316 0.016379 0.356703
O O5 0.968166 0.247308 0.194818
O O6 0.922338 0.403298 0.081562
O O7 0.500000 0.500000 0.000000
O O8 0.958216 0.174380 0.983789
O O9 0.490578 0.420197 0.779435
O O10 0.969255 0.256777 0.841864
O O11 0.327058 0.326532 0.223224
O O12 0.773783 0.702964 0.125538
O O13 0.000000 0.500000 0.000000
O O14 0.551838 0.103454 0.390138
O O15 0.060793 0.344677 0.381820
O O16 0.500000 0.000000 0.500000
O O17 0.368247 0.018272 0.784897
O O18 0.500000 0.000000 0.000000
#
# Coordination Sequence:
#
# PCOD9002105 Si02
#       8
#     2   2   2   2   2   2   2   2
#     4  10  23  39  66  88 119 167 213 257 312 353
#     4  10  21  36  57  88 128 158 200 246 306 377
#     4  10  21  38  59  93 122 164 206 254 304 380
#     4  12  21  38  63  92 127 170 195 245 322 372
#     4  10  22  44  65  89 125 168 212 263 309 357
#     4  11  22  36  62  96 130 158 205 253 305 379
#     4  10  21  41  60  88 129 166 203 260 307 372
#     4  11  22  41  65  94 125 162 212 260 306 373
#
# _framework density 20.981589
#
# number of rings (size 3 to 8) (size 9 to 14) (size 15 to 20)
#    0.000    1.500    3.750    1.125    1.750    1.000 
#    9.000    2.500    0.000    9.000    0.000    0.000 
#    0.000    0.000    0.000    0.000    0.000    0.000 
#
# Total GULP energy -89286.956702 kJ/mol
# GULP energy per Si atom -5580.434794 kJ/mol
# Density = 2.093383 g / cm^3
# Si number density = 20.981589 Si / 1000 Ang^3
#
#
#
# Elastic Constant Matrix: (Units=GPa)
#
#
# Indices 1 2 3 4 5 6 
#
# 1 110.0430 11.0512 22.9682 -4.1714 11.5752 2.7210
# 2 11.0512 52.6494 2.5693 1.0581 3.8305 4.6518
# 3 22.9682 2.5693 64.3054 -0.5892 6.6146 6.4388
# 4 -4.1714 1.0581 -0.5892 26.4745 -6.0081 5.7242
# 5 11.5752 3.8305 6.6146 -6.0081 45.9193 0.4950
# 6 2.7210 4.6518 6.4388 5.7242 0.4950 20.5816
#
#
#
# Elastic Compliance Matrix: (Units=1/GPa)
#
#
# Indices 1 2 3 4 5 6 
#
# 1 0.010214 -0.001860 -0.003362 0.001247 -0.001770 -0.000182
# 2 -0.001860 0.019836 0.000419 -0.000452 -0.001260 -0.004213
# 3 -0.003362 0.000419 0.017425 0.000619 -0.001560 -0.005236
# 4 0.001247 -0.000452 0.000619 0.041783 0.005230 -0.012003
# 5 -0.001770 -0.001260 -0.001560 0.005230 0.023249 -0.001007
# 6 -0.000182 -0.004213 -0.005236 -0.012003 -0.001007 0.054564
#
#
# Mechanical properties :
#
#
# Convention : Reuss Voigt Hill
#
# Bulk Modulus (GPa) = 26.40639 33.35283 29.87961
# Shear Modulus (GPa) = 26.41310 31.28902 28.85106
#
# Velocity S-wave (km/s) = 3.55191 3.86587 3.71221
# Velocity P-wave (km/s) = 5.42533 5.98810 5.71365
#
# Compressibility (1/GPa) = 0.03786962
#
# Stress axis : x y z
#
# Youngs Moduli (GPa) = 97.90640 50.41219 57.38768
#
# Poissons Ratio (x) = 0.09377 0.19294
# Poissons Ratio (y) = 0.18211 -0.02405
# Poissons Ratio (z) = 0.32917 -0.02112
#
# Static dielectric constant tensor:
#      x y z
#    x 1.658450 0.239800 -0.168240 
#    y 0.239800 1.119210 0.448810 
#    z -0.168240 0.448810 1.496360 
# 
# From -- ./inp_files/269896.got.cif
#   From: 2010.05.17/outbox.cif.g08.bks.cpg/sg2_135_cif.got.tgz:269896.got - 2010.06.03 11:33:40.
