data_PCOD9002804
_publ_section_title
;
Structure prediction by ZEFSAII (Michael W. Deem and Ramdas Pophale) SiO2 
 PCOD9002804
Probable space group: P -1
;
_chemical_formula_sum "Si O2"
_cell_formula_units_Z 14
_cell_length_a 5.297988
_cell_length_b 9.238642
_cell_length_c 20.932699
_cell_angle_alpha 131.986818
_cell_angle_beta 89.437019
_cell_angle_gamma 115.349070
_cell_volume 627.194505
_symmetry_space_group_name_H-M "P -1"
_symmetry_group_IT_number 2
_symmetry_cell_setting 'triclinic'
loop_
_space_group_symop_operation_xyz
x,y,z
-x,-y,-z
loop_
_atom_site_type_symbol
_atom_site_label
_atom_site_fract_x
_atom_site_fract_y
_atom_site_fract_z
Si Si1 0.300783 0.157373 0.005329
Si Si2 0.879801 0.587130 0.710482
Si Si3 0.833867 0.870818 0.142950
Si Si4 0.811029 0.327243 0.136178
Si Si5 0.853119 0.374160 0.895046
Si Si6 0.677425 0.797509 0.471780
Si Si7 0.045672 0.627722 0.471763
O O1 0.263201 0.239838 0.961573
O O2 0.362961 0.953658 0.929176
O O3 0.544126 0.341324 0.110158
O O4 0.000000 0.000000 0.000000
O O5 0.524183 0.392731 0.639332
O O6 0.042147 0.551757 0.640036
O O7 0.002738 0.547765 0.763900
O O8 0.955275 0.848269 0.785785
O O9 0.511818 0.788803 0.150102
O O10 0.010574 0.784560 0.156637
O O11 0.036986 0.438466 0.107486
O O12 0.000000 0.500000 0.000000
O O13 0.413624 0.821333 0.511592
O O14 0.809286 0.702152 0.494051
O O15 0.000000 0.000000 0.500000
O O16 0.000000 0.500000 0.500000
#
# Coordination Sequence:
#
# PCOD9002804 Si02
#       7
#     2   2   2   2   2   2   2
#     4  10  21  36  65  82 123 177 218 257 325 385
#     4   9  25  42  67  95 135 169 222 267 332 397
#     4  11  25  41  63  91 131 175 220 274 319 376
#     4  10  22  40  57  94 123 171 214 272 316 385
#     4  12  24  42  61  94 130 175 226 269 321 369
#     4  10  22  44  72 100 131 168 217 272 336 408
#     4  10  22  44  72  98 130 171 216 268 335 412
#
# _framework density 22.321622000000001
#
# number of rings (size 3 to 8) (size 9 to 14) (size 15 to 20)
#    0.857    0.857    1.429    2.143    8.000    1.143 
#    2.571    0.000    0.000    0.000    0.000    0.000 
#    0.000    0.000    0.000    0.000    0.000    0.000 
#
# Total GULP energy -77973.912241 kJ/mol
# GULP energy per Si atom -5569.565160 kJ/mol
# Density = 2.227082 g / cm^3
# Si number density = 22.321622 Si / 1000 Ang^3
#
#
#
# Elastic Constant Matrix: (Units=GPa)
#
#
# Indices 1 2 3 4 5 6 
#
# 1 119.9008 23.8034 23.4762 3.8881 31.8345 5.7382
# 2 23.8034 123.0922 43.1204 -17.3873 20.3415 1.0269
# 3 23.4762 43.1204 49.2613 1.7338 30.8756 15.9494
# 4 3.8881 -17.3873 1.7338 37.0711 5.8165 6.1103
# 5 31.8345 20.3415 30.8756 5.8165 31.8677 7.3823
# 6 5.7382 1.0269 15.9494 6.1103 7.3823 36.1513
#
#
#
# Elastic Compliance Matrix: (Units=1/GPa)
#
#
# Indices 1 2 3 4 5 6 
#
# 1 0.012076 -0.002028 0.007960 0.000551 -0.018176 -0.001752
# 2 -0.002028 0.014667 -0.020054 0.005542 0.009731 0.005829
# 3 0.007960 -0.020054 0.090828 0.001851 -0.077646 -0.025223
# 4 0.000551 0.005542 0.001851 0.031811 -0.010703 -0.004253
# 5 -0.018176 0.009731 -0.077646 -0.010703 0.117088 0.014764
# 6 -0.001752 0.005829 -0.025223 -0.004253 0.014764 0.036606
#
#
# Mechanical properties :
#
#
# Convention : Reuss Voigt Hill
#
# Bulk Modulus (GPa) = 11.19465 52.56160 31.87813
# Shear Modulus (GPa) = 13.84679 34.47499 24.16089
#
# Velocity S-wave (km/s) = 2.49335 3.93423 3.29355
# Velocity P-wave (km/s) = 3.64898 6.65102 5.36429
#
# Compressibility (1/GPa) = 0.08932836
#
# Stress axis : x y z
#
# Youngs Moduli (GPa) = 82.80840 68.17855 11.00983
#
# Poissons Ratio (x) = 0.13824 -0.08764
# Poissons Ratio (y) = 0.16791 0.22079
# Poissons Ratio (z) = -0.65916 1.36725
#
# Static dielectric constant tensor:
#      x y z
#    x 1.970050 -0.018750 -0.062040 
#    y -0.018750 1.902580 0.053410 
#    z -0.062040 0.053410 1.855590 
# 
# From -- ./inp_files/582037.got.cif
#   From: 2010.05.17/outbox.cif.g08.bks.cpg/sg2_292_cif.got.tgz:582037.got - 2010.06.03 11:33:40.
