data_PCOD9002207
_publ_section_title
;
Structure prediction by ZEFSAII (Michael W. Deem and Ramdas Pophale) SiO2 
 PCOD9002207
Probable space group: P -1
;
_chemical_formula_sum "Si O2"
_cell_formula_units_Z 16
_cell_length_a 19.091209
_cell_length_b 11.007907
_cell_length_c 10.151931
_cell_angle_alpha 69.129055
_cell_angle_beta 123.473922
_cell_angle_gamma 150.784348
_cell_volume 826.582634
_symmetry_space_group_name_H-M "P -1"
_symmetry_group_IT_number 2
_symmetry_cell_setting 'triclinic'
loop_
_space_group_symop_operation_xyz
x,y,z
-x,-y,-z
loop_
_atom_site_type_symbol
_atom_site_label
_atom_site_fract_x
_atom_site_fract_y
_atom_site_fract_z
Si Si1 0.399146 0.229315 0.019779
Si Si2 0.788112 0.670400 0.615785
Si Si3 0.888165 0.996428 0.087154
Si Si4 0.881119 0.026547 0.773053
Si Si5 0.256039 0.412230 0.699642
Si Si6 0.559891 0.730148 0.486421
Si Si7 0.578222 0.899325 0.164381
Si Si8 0.241124 0.585800 0.832803
O O1 0.227112 0.033682 0.990209
O O2 0.364210 0.117392 0.886778
O O3 0.500000 0.500000 0.000000
O O4 0.540682 0.331453 0.196556
O O5 0.813289 0.707998 0.470724
O O6 0.588440 0.393245 0.543968
O O7 0.845138 0.876470 0.675396
O O8 0.913101 0.728968 0.781123
O O9 0.817650 0.790025 0.192160
O O10 0.863482 0.932389 0.932364
O O11 0.068738 0.331452 0.830070
O O12 0.744072 0.958299 0.651768
O O13 0.218570 0.500014 0.694255
O O14 0.500000 0.500000 0.500000
O O15 0.572621 0.811198 0.325936
O O16 0.698246 0.184982 0.191548
O O17 0.392588 0.704292 0.008398
#
# Coordination Sequence:
#
# PCOD9002207 Si02
#       8
#     2   2   2   2   2   2   2   2
#     4   9  21  33  62  86 121 151 198 249 305 349
#     4  11  22  35  58  91 128 152 206 256 301 347
#     4  11  21  34  59  90 125 153 203 256 299 349
#     4  11  23  36  59  93 122 163 197 252 303 357
#     4  10  21  36  58  92 122 159 196 254 301 355
#     4  10  24  35  61  88 126 153 204 253 303 345
#     4  10  22  43  61  93 118 168 196 250 298 373
#     4  10  22  40  66  83 128 161 209 233 306 371
#
# _framework density 19.356805999999999
#
# number of rings (size 3 to 8) (size 9 to 14) (size 15 to 20)
#    0.000    1.750    1.250    2.250   17.500    0.500 
#    0.000    1.250    0.000    0.000    0.000    0.000 
#    0.000    0.000    0.000    0.000    0.000    0.000 
#
# Total GULP energy -89249.521372 kJ/mol
# GULP energy per Si atom -5578.095086 kJ/mol
# Density = 1.931275 g / cm^3
# Si number density = 19.356806 Si / 1000 Ang^3
#
#
#
# Elastic Constant Matrix: (Units=GPa)
#
#
# Indices 1 2 3 4 5 6 
#
# 1 107.0864 51.0906 50.6229 3.8457 -11.9719 18.1688
# 2 51.0906 76.7883 45.2558 6.8786 -6.9746 16.3715
# 3 50.6229 45.2558 130.4948 -13.2046 -28.6960 4.3099
# 4 3.8457 6.8786 -13.2046 20.1039 7.7049 13.8098
# 5 -11.9719 -6.9746 -28.6960 7.7049 33.2614 10.0015
# 6 18.1688 16.3715 4.3099 13.8098 10.0015 33.6070
#
#
#
# Elastic Compliance Matrix: (Units=1/GPa)
#
#
# Indices 1 2 3 4 5 6 
#
# 1 0.015272 -0.007276 -0.002391 0.000558 0.003484 -0.005671
# 2 -0.007276 0.022605 -0.005741 -0.008005 -0.000066 -0.003033
# 3 -0.002391 -0.005741 0.013842 0.011659 0.008700 -0.005066
# 4 0.000558 -0.008005 0.011659 0.081875 -0.000989 -0.031247
# 5 0.003484 -0.000066 0.008700 -0.000989 0.043723 -0.015573
# 6 -0.005671 -0.003033 -0.005066 -0.031247 -0.015573 0.052424
#
#
# Mechanical properties :
#
#
# Convention : Reuss Voigt Hill
#
# Bulk Modulus (GPa) = 47.84136 67.58979 57.71557
# Shear Modulus (GPa) = 18.68988 28.55447 23.62218
#
# Velocity S-wave (km/s) = 3.11069 3.84495 3.49715
# Velocity P-wave (km/s) = 6.13768 7.39630 6.79619
#
# Compressibility (1/GPa) = 0.02090242
#
# Stress axis : x y z
#
# Youngs Moduli (GPa) = 65.48066 44.23727 72.24432
#
# Poissons Ratio (x) = 0.32188 0.17273
# Poissons Ratio (y) = 0.47645 0.41477
# Poissons Ratio (z) = 0.15656 0.25397
#
# Static dielectric constant tensor:
#      x y z
#    x 1.728970 0.048810 0.020850 
#    y 0.048810 1.689970 0.037800 
#    z 0.020850 0.037800 1.703500 
# 
# From -- ./inp_files/332288.got.cif
#   From: 2010.05.17/outbox.cif.g08.bks.cpg/sg2_167_cif.got.tgz:332288.got - 2010.06.03 11:33:40.
