data_PCOD9002639
_publ_section_title
;
Structure prediction by ZEFSAII (Michael W. Deem and Ramdas Pophale) SiO2 
 PCOD9002639
Probable space group: P -1
;
_chemical_formula_sum "Si O2"
_cell_formula_units_Z 16
_cell_length_a 11.546732
_cell_length_b 14.411174
_cell_length_c 5.276325
_cell_angle_alpha 91.812515
_cell_angle_beta 120.829067
_cell_angle_gamma 103.121277
_cell_volume 722.662215
_symmetry_space_group_name_H-M "P -1"
_symmetry_group_IT_number 2
_symmetry_cell_setting 'triclinic'
loop_
_space_group_symop_operation_xyz
x,y,z
-x,-y,-z
loop_
_atom_site_type_symbol
_atom_site_label
_atom_site_fract_x
_atom_site_fract_y
_atom_site_fract_z
Si Si1 0.921249 0.363454 0.118200
Si Si2 0.818001 0.989152 0.031158
Si Si3 0.009949 0.133436 0.657703
Si Si4 0.837749 0.537303 0.954551
Si Si5 0.783286 0.173216 0.707458
Si Si6 0.596169 0.533544 0.361676
Si Si7 0.811522 0.680836 0.337731
Si Si8 0.508282 0.938157 0.756379
O O1 0.006022 0.406527 0.959414
O O2 0.048856 0.345795 0.415948
O O3 0.850300 0.446104 0.125067
O O4 0.809980 0.260079 0.941989
O O5 0.912908 0.919359 0.061385
O O6 0.662433 0.924134 0.922387
O O7 0.899922 0.052263 0.363652
O O8 0.796652 0.071515 0.827092
O O9 0.134166 0.205246 0.642967
O O10 0.917296 0.197247 0.676423
O O11 0.732340 0.497751 0.595579
O O12 0.776398 0.614082 0.041770
O O13 0.630457 0.151893 0.411746
O O14 0.500000 0.500000 0.500000
O O15 0.684163 0.643947 0.389866
O O16 0.500000 0.500000 0.000000
O O17 0.500000 0.000000 0.500000
O O18 0.500000 0.000000 0.000000
#
# Coordination Sequence:
#
# PCOD9002639 Si02
#       8
#     2   2   2   2   2   2   2   2
#     4  10  21  36  62  98 127 166 222 276 332 389
#     4  10  22  39  59  92 129 176 219 273 330 392
#     4  11  21  37  65  94 127 169 226 273 327 391
#     4  10  21  39  64  95 126 173 216 274 330 395
#     4  11  20  38  63  91 133 173 223 277 331 392
#     4  11  23  44  68  92 132 179 214 266 338 402
#     4  11  21  39  68  95 132 171 223 278 331 394
#     4  10  21  39  64  88 126 174 215 268 333 387
#
# _framework density 22.140359
#
# number of rings (size 3 to 8) (size 9 to 14) (size 15 to 20)
#    0.000    1.500    5.000    0.750    0.000    0.000 
#    2.250    0.000    5.500    0.000    0.000    0.000 
#    0.000    0.000    0.000    0.000    0.000    0.000 
#
# Total GULP energy -89079.745316 kJ/mol
# GULP energy per Si atom -5567.484082 kJ/mol
# Density = 2.208997 g / cm^3
# Si number density = 22.140359 Si / 1000 Ang^3
#
#
#
# Elastic Constant Matrix: (Units=GPa)
#
#
# Indices 1 2 3 4 5 6 
#
# 1 84.7993 29.4506 29.1929 8.8863 16.4315 24.5842
# 2 29.4506 75.5084 35.8340 -1.6246 23.2931 16.1249
# 3 29.1929 35.8340 113.5832 15.6138 18.4418 10.6286
# 4 8.8863 -1.6246 15.6138 27.7737 10.4076 -1.0318
# 5 16.4315 23.2931 18.4418 10.4076 39.2390 3.8649
# 6 24.5842 16.1249 10.6286 -1.0318 3.8649 29.1386
#
#
#
# Elastic Compliance Matrix: (Units=1/GPa)
#
#
# Indices 1 2 3 4 5 6 
#
# 1 0.018028 -0.002855 -0.001459 -0.004590 -0.002680 -0.012905
# 2 -0.002855 0.021574 -0.004941 0.008876 -0.011057 -0.005947
# 3 -0.001459 -0.004941 0.011690 -0.006329 -0.000223 -0.000494
# 4 -0.004590 0.008876 -0.006329 0.046676 -0.013213 0.004675
# 5 -0.002680 -0.011057 -0.000223 -0.013213 0.036470 0.003157
# 6 -0.012905 -0.005947 -0.000494 0.004675 0.003157 0.048424
#
#
# Mechanical properties :
#
#
# Convention : Reuss Voigt Hill
#
# Bulk Modulus (GPa) = 30.50427 51.42732 40.96580
# Shear Modulus (GPa) = 23.55166 31.19116 27.37141
#
# Velocity S-wave (km/s) = 3.26505 3.75746 3.51987
# Velocity P-wave (km/s) = 5.29355 6.48868 5.92134
#
# Compressibility (1/GPa) = 0.03278229
#
# Stress axis : x y z
#
# Youngs Moduli (GPa) = 55.46901 46.35257 85.54129
#
# Poissons Ratio (x) = 0.13234 0.12481
# Poissons Ratio (y) = 0.15837 0.42264
# Poissons Ratio (z) = 0.08093 0.22902
#
# Static dielectric constant tensor:
#      x y z
#    x 1.907550 0.050860 -0.048960 
#    y 0.050860 1.864520 -0.028460 
#    z -0.048960 -0.028460 1.907900 
# 
# From -- ./inp_files/77991.got.cif
#   From: 2010.05.17/outbox.cif.g08.bks.cpg/sg2_39_cif.got.tgz:77991.got - 2010.06.03 11:33:40.
