data_PCOD9002018
_publ_section_title
;
Structure prediction by ZEFSAII (Michael W. Deem and Ramdas Pophale) SiO2 
 PCOD9002018
Probable space group: P -1
;
_chemical_formula_sum "Si O2"
_cell_formula_units_Z 14
_cell_length_a 14.609888
_cell_length_b 6.619139
_cell_length_c 27.205054
_cell_angle_alpha 48.892273
_cell_angle_beta 159.213033
_cell_angle_gamma 133.386641
_cell_volume 677.345457
_symmetry_space_group_name_H-M "P -1"
_symmetry_group_IT_number 2
_symmetry_cell_setting 'triclinic'
loop_
_space_group_symop_operation_xyz
x,y,z
-x,-y,-z
loop_
_atom_site_type_symbol
_atom_site_label
_atom_site_fract_x
_atom_site_fract_y
_atom_site_fract_z
Si Si1 0.013373 0.021036 0.845974
Si Si2 0.306762 0.595192 0.926986
Si Si3 0.500640 0.241051 0.310481
Si Si4 0.804510 0.854589 0.193928
Si Si5 0.062815 0.476862 0.448838
Si Si6 0.423303 0.065801 0.688868
Si Si7 0.711212 0.284087 0.896582
O O1 0.725324 0.830351 0.748980
O O2 0.056175 0.326721 0.842368
O O3 0.063690 0.041402 0.809748
O O4 0.243278 0.903541 0.005897
O O5 0.215149 0.875746 0.828119
O O6 0.500000 0.500000 0.000000
O O7 0.499617 0.671710 0.059056
O O8 0.794043 0.313966 0.469618
O O9 0.482737 0.516422 0.227569
O O10 0.431799 0.986975 0.279006
O O11 0.968226 0.662128 0.331498
O O12 0.289452 0.319487 0.574458
O O13 0.812646 0.218778 0.377897
O O14 0.608136 0.115459 0.822028
O O15 0.000000 0.500000 0.000000
#
# Coordination Sequence:
#
# PCOD9002018 Si02
#       7
#     2   2   2   2   2   2   2
#     4  10  21  36  56  86 118 149 187 232 292 347
#     4   9  20  36  55  83 111 148 190 225 279 341
#     4  10  22  37  58  86 115 152 196 238 283 339
#     4  10  21  38  59  83 118 149 183 239 286 339
#     4  10  22  39  58  84 113 153 197 234 286 341
#     4  10  21  39  61  82 113 153 195 244 284 331
#     4   9  20  36  56  86 115 144 189 237 288 342
#
# _framework density 20.668921999999998
#
# number of rings (size 3 to 8) (size 9 to 14) (size 15 to 20)
#    0.000    2.286    0.000    1.286    0.000   13.143 
#    0.000    1.429    0.000    0.000    0.000    0.000 
#    0.000    0.000    0.000    0.000    0.000    0.000 
#
# Total GULP energy -78033.174959 kJ/mol
# GULP energy per Si atom -5573.798211 kJ/mol
# Density = 2.062188 g / cm^3
# Si number density = 20.668922 Si / 1000 Ang^3
#
#
#
# Elastic Constant Matrix: (Units=GPa)
#
#
# Indices 1 2 3 4 5 6 
#
# 1 80.9737 39.7913 39.5224 -14.2263 -3.0418 -4.6506
# 2 39.7913 114.4212 37.9134 -2.5585 -7.4552 -3.6230
# 3 39.5224 37.9134 103.3083 -6.6093 -25.3280 8.8601
# 4 -14.2263 -2.5585 -6.6093 42.9166 13.5533 -3.1846
# 5 -3.0418 -7.4552 -25.3280 13.5533 20.9712 -0.1911
# 6 -4.6506 -3.6230 8.8601 -3.1846 -0.1911 26.8162
#
#
#
# Elastic Compliance Matrix: (Units=1/GPa)
#
#
# Indices 1 2 3 4 5 6 
#
# 1 0.022298 -0.004635 -0.011827 0.012449 -0.020666 0.008479
# 2 -0.004635 0.011160 -0.002065 -0.001705 0.001914 0.001197
# 3 -0.011827 -0.002065 0.023311 -0.011772 0.033211 -0.011193
# 4 0.012449 -0.001705 -0.011772 0.038124 -0.037566 0.010078
# 5 -0.020666 0.001914 0.033211 -0.037566 0.109592 -0.017978
# 6 0.008479 0.001197 -0.011193 0.010078 -0.017978 0.043690
#
#
# Mechanical properties :
#
#
# Convention : Reuss Voigt Hill
#
# Bulk Modulus (GPa) = 50.72164 59.23972 54.98068
# Shear Modulus (GPa) = 17.13491 30.23922 23.68706
#
# Velocity S-wave (km/s) = 2.88239 3.82910 3.38897
# Velocity P-wave (km/s) = 5.97251 6.94787 6.47857
#
# Compressibility (1/GPa) = 0.01971545
#
# Stress axis : x y z
#
# Youngs Moduli (GPa) = 44.84727 89.60311 42.89759
#
# Poissons Ratio (x) = 0.41533 0.50734
# Poissons Ratio (y) = 0.20788 0.08859
# Poissons Ratio (z) = 0.53040 0.18504
#
# Static dielectric constant tensor:
#      x y z
#    x 1.780350 -0.002860 0.030280 
#    y -0.002860 1.786470 0.002740 
#    z 0.030280 0.002740 1.785210 
# 
# From -- ./inp_files/67086.got.cif
#   From: 2010.05.17/outbox.cif.g08.bks.cpg/sg2_34_cif.got.tgz:67086.got - 2010.06.03 11:33:40.
