data_PCOD9002257
_publ_section_title
;
Structure prediction by ZEFSAII (Michael W. Deem and Ramdas Pophale) SiO2 
 PCOD9002257
Probable space group: P -1
;
_chemical_formula_sum "Si O2"
_cell_formula_units_Z 16
_cell_length_a 30.401274
_cell_length_b 15.090401
_cell_length_c 8.988993
_cell_angle_alpha 38.004402
_cell_angle_beta 143.286693
_cell_angle_gamma 161.139116
_cell_volume 787.700519
_symmetry_space_group_name_H-M "P -1"
_symmetry_group_IT_number 2
_symmetry_cell_setting 'triclinic'
loop_
_space_group_symop_operation_xyz
x,y,z
-x,-y,-z
loop_
_atom_site_type_symbol
_atom_site_label
_atom_site_fract_x
_atom_site_fract_y
_atom_site_fract_z
Si Si1 0.778162 0.165648 0.787484
Si Si2 0.727183 0.923952 0.244206
Si Si3 0.013305 0.727467 0.877444
Si Si4 0.940838 0.038951 0.584461
Si Si5 0.881626 0.405241 0.234470
Si Si6 0.432200 0.518410 0.380938
Si Si7 0.334698 0.859733 0.759884
Si Si8 0.219670 0.383488 0.036134
O O1 0.892572 0.449380 0.815804
O O2 0.698515 0.133739 0.501234
O O3 0.859213 0.175360 0.904092
O O4 0.684407 0.930403 0.968368
O O5 0.608069 0.618965 0.387411
O O6 0.872629 0.078221 0.399356
O O7 0.772115 0.118366 0.229085
O O8 0.057660 0.940548 0.617824
O O9 0.950858 0.628862 0.004620
O O10 0.842117 0.766395 0.772446
O O11 0.096351 0.256698 0.777027
O O12 0.800262 0.345165 0.226543
O O13 0.000000 0.500000 0.500000
O O14 0.500000 0.500000 0.500000
O O15 0.281881 0.347591 0.166267
O O16 0.545328 0.834163 0.260936
O O17 0.345099 0.706253 0.978318
#
# Coordination Sequence:
#
# PCOD9002257 Si02
#       8
#     2   2   2   2   2   2   2   2
#     4   9  17  30  55  85 115 146 191 235 283 343
#     4   9  19  36  57  85 114 153 191 233 286 344
#     4   9  16  31  53  85 121 150 181 233 296 340
#     4   9  17  35  61  81 116 150 194 232 293 336
#     4  11  19  29  55  90 122 142 185 238 288 336
#     4  11  23  40  57  80 117 157 195 239 284 342
#     4  12  21  35  57  88 116 150 198 233 284 342
#     4  10  21  36  59  87 112 152 199 234 287 348
#
# _framework density 20.312287999999999
#
# number of rings (size 3 to 8) (size 9 to 14) (size 15 to 20)
#    0.000    2.000    3.750    1.875    0.000    0.500 
#    0.000    0.625    0.000    7.500    0.000    0.000 
#    0.000    0.000    0.000    0.000    0.000    0.000 
#
# Total GULP energy -89125.054660 kJ/mol
# GULP energy per Si atom -5570.315916 kJ/mol
# Density = 2.026606 g / cm^3
# Si number density = 20.312288 Si / 1000 Ang^3
#
#
#
# Elastic Constant Matrix: (Units=GPa)
#
#
# Indices 1 2 3 4 5 6 
#
# 1 89.1754 16.4327 39.0937 -2.8240 5.2832 20.9874
# 2 16.4327 49.0738 18.8993 -16.6536 1.9971 13.7491
# 3 39.0937 18.8993 106.8385 -24.8184 -13.0202 13.9476
# 4 -2.8240 -16.6536 -24.8184 18.3876 3.1796 -5.3949
# 5 5.2832 1.9971 -13.0202 3.1796 33.8201 -8.2867
# 6 20.9874 13.7491 13.9476 -5.3949 -8.2867 23.3644
#
#
#
# Elastic Compliance Matrix: (Units=1/GPa)
#
#
# Indices 1 2 3 4 5 6 
#
# 1 0.020087 -0.003265 -0.009338 -0.016013 -0.009336 -0.017556
# 2 -0.003265 0.036161 0.003880 0.034231 -0.007092 -0.015274
# 3 -0.009338 0.003880 0.018796 0.027333 0.006778 0.003600
# 4 -0.016013 0.034231 0.027333 0.121496 0.001145 0.006383
# 5 -0.009336 -0.007092 0.006778 0.001145 0.039534 0.022800
# 6 -0.017556 -0.015274 0.003600 0.006383 0.022800 0.074970
#
#
# Mechanical properties :
#
#
# Convention : Reuss Voigt Hill
#
# Bulk Modulus (GPa) = 17.36219 43.77102 30.56661
# Shear Modulus (GPa) = 14.38058 26.49190 20.43624
#
# Velocity S-wave (km/s) = 2.66367 3.61533 3.17535
# Velocity P-wave (km/s) = 4.24574 6.24686 5.34086
#
# Compressibility (1/GPa) = 0.05759640
#
# Stress axis : x y z
#
# Youngs Moduli (GPa) = 49.78267 27.65389 53.20222
#
# Poissons Ratio (x) = 0.09030 0.49682
# Poissons Ratio (y) = 0.16257 -0.20640
# Poissons Ratio (z) = 0.46488 -0.10728
#
# Static dielectric constant tensor:
#      x y z
#    x 1.731840 0.011620 0.010540 
#    y 0.011620 1.776570 -0.029560 
#    z 0.010540 -0.029560 1.734850 
# 
# From -- ./inp_files/274494.got.cif
#   From: 2010.05.17/outbox.cif.g08.bks.cpg/sg2_138_cif.got.tgz:274494.got - 2010.06.03 11:33:40.
