data_PCOD9002792
_publ_section_title
;
Structure prediction by ZEFSAII (Michael W. Deem and Ramdas Pophale) SiO2 
 PCOD9002792
Probable space group: P -1
;
_chemical_formula_sum "Si O2"
_cell_formula_units_Z 16
_cell_length_a 8.791647
_cell_length_b 18.785845
_cell_length_c 5.702294
_cell_angle_alpha 50.427308
_cell_angle_beta 82.311394
_cell_angle_gamma 88.804349
_cell_volume 716.857172
_symmetry_space_group_name_H-M "P -1"
_symmetry_group_IT_number 2
_symmetry_cell_setting 'triclinic'
loop_
_space_group_symop_operation_xyz
x,y,z
-x,-y,-z
loop_
_atom_site_type_symbol
_atom_site_label
_atom_site_fract_x
_atom_site_fract_y
_atom_site_fract_z
Si Si1 0.897302 0.081945 0.418938
Si Si2 0.360561 0.039526 0.085397
Si Si3 0.585968 0.403960 0.654373
Si Si4 0.042967 0.251416 0.778952
Si Si5 0.844054 0.856519 0.407101
Si Si6 0.033530 0.452808 0.342723
Si Si7 0.661477 0.459074 0.018856
Si Si8 0.638241 0.780397 0.988971
O O1 0.995214 0.118714 0.547500
O O2 0.721431 0.040647 0.562933
O O3 0.000000 0.000000 0.500000
O O4 0.924371 0.165298 0.053208
O O5 0.406178 0.138314 0.996022
O O6 0.209321 0.062660 0.917654
O O7 0.500000 0.000000 0.000000
O O8 0.500000 0.500000 0.500000
O O9 0.687245 0.420825 0.358398
O O10 0.656254 0.393334 0.925905
O O11 0.476494 0.310673 0.821963
O O12 0.119914 0.233948 0.552093
O O13 0.971343 0.347234 0.599119
O O14 0.191690 0.249681 0.918142
O O15 0.686212 0.834068 0.629108
O O16 0.000000 0.500000 0.500000
O O17 0.217980 0.457909 0.263277
O O18 0.000000 0.500000 0.000000
O O19 0.500000 0.500000 0.000000
#
# Coordination Sequence:
#
# PCOD9002792 Si02
#       8
#     2   2   2   2   2   2   2   2
#     4  11  20  43  67 100 127 175 240 280 340 427
#     4  11  24  42  63 101 142 177 219 295 361 413
#     4  10  21  36  65 100 132 170 231 291 334 392
#     4  10  23  40  72  97 132 183 239 285 343 430
#     4  10  21  38  74  93 128 180 237 281 342 422
#     4  12  28  48  71 105 150 186 234 295 368 415
#     4  10  22  42  69  95 131 183 230 282 342 414
#     4  10  22  39  67 102 131 181 244 281 344 425
#
# _framework density 22.319647
#
# number of rings (size 3 to 8) (size 9 to 14) (size 15 to 20)
#    0.000    1.500    3.750    2.625   10.500    0.500 
#    2.250    2.500    0.000    0.000    0.000    0.000 
#    0.000    0.000    0.000    0.000    0.000    0.000 
#
# Total GULP energy -89084.075587 kJ/mol
# GULP energy per Si atom -5567.754724 kJ/mol
# Density = 2.226885 g / cm^3
# Si number density = 22.319647 Si / 1000 Ang^3
#
#
#
# Elastic Constant Matrix: (Units=GPa)
#
#
# Indices 1 2 3 4 5 6 
#
# 1 52.5001 35.8398 17.4495 -6.4921 -19.1856 -22.8568
# 2 35.8398 119.3308 80.5080 -2.3710 -1.6343 -12.9580
# 3 17.4495 80.5080 112.0075 -3.6601 -22.1459 -9.2435
# 4 -6.4921 -2.3710 -3.6601 48.1418 7.1063 -2.6874
# 5 -19.1856 -1.6343 -22.1459 7.1063 39.3155 0.3593
# 6 -22.8568 -12.9580 -9.2435 -2.6874 0.3593 26.4476
#
#
#
# Elastic Compliance Matrix: (Units=1/GPa)
#
#
# Indices 1 2 3 4 5 6 
#
# 1 0.083363 -0.037655 0.030353 0.007262 0.054313 0.064204
# 2 -0.037655 0.035472 -0.028092 -0.002108 -0.032118 -0.024760
# 3 0.030353 -0.028092 0.032624 0.001864 0.031468 0.023632
# 4 0.007262 -0.002108 0.001864 0.022181 0.000422 0.008143
# 5 0.054313 -0.032118 0.031468 0.000422 0.067876 0.041322
# 6 0.064204 -0.024760 0.023632 0.008143 0.041322 0.089692
#
#
# Mechanical properties :
#
#
# Convention : Reuss Voigt Hill
#
# Bulk Modulus (GPa) = 12.39613 61.27033 36.83323
# Shear Modulus (GPa) = 11.65802 32.78374 22.22088
#
# Velocity S-wave (km/s) = 2.28791 3.83669 3.15870
# Velocity P-wave (km/s) = 3.54194 6.86570 5.46274
#
# Compressibility (1/GPa) = 0.08067034
#
# Stress axis : x y z
#
# Youngs Moduli (GPa) = 11.99566 28.19121 30.65188
#
# Poissons Ratio (x) = 1.06155 -0.93038
# Poissons Ratio (y) = 0.45170 0.86109
# Poissons Ratio (z) = -0.36411 0.79196
#
# Static dielectric constant tensor:
#      x y z
#    x 1.791780 -0.038600 0.017680 
#    y -0.038600 1.757700 0.032100 
#    z 0.017680 0.032100 1.947830 
# 
# From -- ./inp_files/46228.got.cif
#   From: 2010.05.17/outbox.cif.g08.bks.cpg/sg2_24_cif.got.tgz:46228.got - 2010.06.03 11:33:40.
