data_PCOD9002321
_publ_section_title
;
Structure prediction by ZEFSAII (Michael W. Deem and Ramdas Pophale) SiO2 
 PCOD9002321
Probable space group: P -1
;
_chemical_formula_sum "Si O2"
_cell_formula_units_Z 16
_cell_length_a 14.689613
_cell_length_b 8.923143
_cell_length_c 28.398806
_cell_angle_alpha 42.475238
_cell_angle_beta 19.988999
_cell_angle_gamma 51.664395
_cell_volume 815.330637
_symmetry_space_group_name_H-M "P -1"
_symmetry_group_IT_number 2
_symmetry_cell_setting 'triclinic'
loop_
_space_group_symop_operation_xyz
x,y,z
-x,-y,-z
loop_
_atom_site_type_symbol
_atom_site_label
_atom_site_fract_x
_atom_site_fract_y
_atom_site_fract_z
Si Si1 0.192146 0.865978 0.697957
Si Si2 0.788885 0.493402 0.912536
Si Si3 0.875678 0.243463 0.779281
Si Si4 0.196574 0.750610 0.829087
Si Si5 0.852034 0.665435 0.734702
Si Si6 0.164213 0.190721 0.473999
Si Si7 0.219865 0.688098 0.294816
Si Si8 0.772181 0.031087 0.980152
O O1 0.203862 0.752957 0.768786
O O2 0.013641 0.661903 0.798128
O O3 0.500000 0.000000 0.500000
O O4 0.051483 0.069830 0.724295
O O5 0.840190 0.620699 0.807137
O O6 0.801336 0.233586 0.956852
O O7 0.473669 0.448753 0.094979
O O8 0.018060 0.515754 0.661151
O O9 0.722952 0.245998 0.803152
O O10 0.740390 0.146869 0.918058
O O11 0.514538 0.805325 0.679390
O O12 0.038970 0.939764 0.874236
O O13 0.000000 0.500000 0.000000
O O14 0.978263 0.940723 0.602525
O O15 0.150667 0.411179 0.398921
O O16 0.031869 0.230299 0.579780
O O17 0.488066 0.812609 0.168681
#
# Coordination Sequence:
#
# PCOD9002321 Si02
#       8
#     2   2   2   2   2   2   2   2
#     4  11  24  41  64  91 123 165 206 251 306 374
#     4  10  21  37  61  90 122 156 206 255 306 356
#     4  10  23  35  63  92 118 151 209 257 304 355
#     4  11  23  41  62  89 126 167 204 245 307 371
#     4  10  21  36  59  93 123 156 197 263 309 352
#     4  11  23  39  62  86 127 166 201 245 309 366
#     4  11  21  38  62  89 121 162 206 251 298 366
#     4  10  21  39  62  90 121 159 205 252 306 362
#
# _framework density 19.623940999999999
#
# number of rings (size 3 to 8) (size 9 to 14) (size 15 to 20)
#    0.000    1.500    2.500    2.625    7.000    1.500 
#    0.000    4.375    0.000    0.000    0.000    0.000 
#    0.000    0.000    0.000    0.000    0.000    0.000 
#
# Total GULP energy -89238.596184 kJ/mol
# GULP energy per Si atom -5577.412262 kJ/mol
# Density = 1.957928 g / cm^3
# Si number density = 19.623941 Si / 1000 Ang^3
#
#
#
# Elastic Constant Matrix: (Units=GPa)
#
#
# Indices 1 2 3 4 5 6 
#
# 1 55.2905 28.6570 30.5665 -5.9273 -0.1237 2.1537
# 2 28.6570 103.9368 47.2556 -26.1649 -1.9705 6.4250
# 3 30.5665 47.2556 99.2117 -15.5373 -18.0124 5.0202
# 4 -5.9273 -26.1649 -15.5373 37.0187 0.8992 -2.0664
# 5 -0.1237 -1.9705 -18.0124 0.8992 20.1267 -0.5946
# 6 2.1537 6.4250 5.0202 -2.0664 -0.5946 21.0195
#
#
#
# Elastic Compliance Matrix: (Units=1/GPa)
#
#
# Indices 1 2 3 4 5 6 
#
# 1 0.023726 -0.004003 -0.006817 -0.001735 -0.006267 0.000073
# 2 -0.004003 0.015192 -0.005340 0.007818 -0.003734 -0.002295
# 3 -0.006817 -0.005340 0.017919 0.002210 0.015335 -0.001298
# 4 -0.001735 0.007818 0.002210 0.033189 0.001266 0.000559
# 5 -0.006267 -0.003734 0.015335 0.001266 0.062950 0.000026
# 6 0.000073 -0.002295 -0.001298 0.000559 0.000026 0.048635
#
#
# Mechanical properties :
#
#
# Convention : Reuss Voigt Hill
#
# Bulk Modulus (GPa) = 40.78535 52.37747 46.58141
# Shear Modulus (GPa) = 20.65232 25.76362 23.20797
#
# Velocity S-wave (km/s) = 3.24760 3.62728 3.44268
# Velocity P-wave (km/s) = 5.90687 6.65518 6.29216
#
# Compressibility (1/GPa) = 0.02451861
#
# Stress axis : x y z
#
# Youngs Moduli (GPa) = 42.14698 65.82412 55.80593
#
# Poissons Ratio (x) = 0.26346 0.38041
# Poissons Ratio (y) = 0.16869 0.29802
# Poissons Ratio (z) = 0.28730 0.35152
#
# Static dielectric constant tensor:
#      x y z
#    x 1.680670 -0.005230 0.009490 
#    y -0.005230 1.697170 -0.008570 
#    z 0.009490 -0.008570 1.663850 
# 
# From -- ./inp_files/205720.got.cif
#   From: 2010.05.17/outbox.cif.g08.bks.cpg/sg2_103_cif.got.tgz:205720.got - 2010.06.03 11:33:40.
