data_PCOD9002352
_publ_section_title
;
Structure prediction by ZEFSAII (Michael W. Deem and Ramdas Pophale) SiO2 
 PCOD9002352
Probable space group: P -1
;
_chemical_formula_sum "Si O2"
_cell_formula_units_Z 16
_cell_length_a 12.790980
_cell_length_b 15.572370
_cell_length_c 8.868128
_cell_angle_alpha 50.873183
_cell_angle_beta 32.290138
_cell_angle_gamma 36.508161
_cell_volume 554.841362
_symmetry_space_group_name_H-M "P -1"
_symmetry_group_IT_number 2
_symmetry_cell_setting 'triclinic'
loop_
_space_group_symop_operation_xyz
x,y,z
-x,-y,-z
loop_
_atom_site_type_symbol
_atom_site_label
_atom_site_fract_x
_atom_site_fract_y
_atom_site_fract_z
Si Si1 0.445774 0.965396 0.347631
Si Si2 0.699797 0.335863 0.318693
Si Si3 0.998193 0.280417 0.480492
Si Si4 0.714462 0.694805 0.490006
Si Si5 0.710910 0.477337 0.892851
Si Si6 0.208763 0.845229 0.331374
Si Si7 0.994352 0.037879 0.139639
Si Si8 0.120100 0.308089 0.008866
O O1 0.555040 0.867599 0.474848
O O2 0.251684 0.946749 0.532445
O O3 0.693806 0.869714 0.041971
O O4 0.263622 0.138012 0.389524
O O5 0.563767 0.460162 0.218657
O O6 0.848521 0.372794 0.196482
O O7 0.619828 0.274506 0.611930
O O8 0.903184 0.193379 0.122116
O O9 0.794700 0.381834 0.745633
O O10 0.893591 0.222724 0.562712
O O11 0.083925 0.344025 0.188011
O O12 0.005195 0.602898 0.293963
O O13 0.744086 0.659099 0.311732
O O14 0.607159 0.633392 0.786107
O O15 0.000000 0.000000 0.500000
O O16 0.246143 0.914606 0.066935
O O17 0.000000 0.000000 0.000000
#
# Coordination Sequence:
#
# PCOD9002352 Si02
#       8
#     2   2   2   2   2   2   2   2
#     4   9  18  33  49  71 107 127 160 201 260 294
#     4   9  16  30  49  68  92 135 164 190 241 301
#     4  10  17  27  52  80  97 122 172 212 231 293
#     4   8  19  34  48  65 109 136 156 198 265 292
#     4  10  18  32  50  76  98 130 173 204 238 292
#     4   8  16  29  46  71 101 128 155 196 250 293
#     4  10  18  30  49  75 100 124 162 207 244 291
#     4   8  17  32  49  71  99 131 163 198 253 296
#
# _framework density 28.837070000000001
#
# number of rings (size 3 to 8) (size 9 to 14) (size 15 to 20)
#    0.750    2.250    0.000    1.875    0.000    1.000 
#    2.250    0.625    0.000    0.000    0.000   14.875 
#    0.000    0.000    0.000    0.000    0.000    0.000 
#
# Total GULP energy -89166.744044 kJ/mol
# GULP energy per Si atom -5572.921503 kJ/mol
# Density = 2.877144 g / cm^3
# Si number density = 28.837070 Si / 1000 Ang^3
#
#
#
# Elastic Constant Matrix: (Units=GPa)
#
#
# Indices 1 2 3 4 5 6 
#
# 1 88.2753 41.8440 42.0227 -6.4150 24.8487 -11.9652
# 2 41.8440 160.2661 36.9740 -10.7126 40.3560 3.7990
# 3 42.0227 36.9740 140.7773 -23.1843 45.2754 -5.8017
# 4 -6.4150 -10.7126 -23.1843 46.2171 -14.5542 19.2000
# 5 24.8487 40.3560 45.2754 -14.5542 58.3818 -6.5973
# 6 -11.9652 3.7990 -5.8017 19.2000 -6.5973 34.9836
#
#
#
# Elastic Compliance Matrix: (Units=1/GPa)
#
#
# Indices 1 2 3 4 5 6 
#
# 1 0.015753 -0.003235 -0.003603 -0.003813 -0.001847 0.006886
# 2 -0.003235 0.008390 0.000425 0.001811 -0.004734 -0.003833
# 3 -0.003603 0.000425 0.010671 0.004211 -0.006326 -0.003013
# 4 -0.003813 0.001811 0.004211 0.031995 0.003072 -0.017783
# 5 -0.001847 -0.004734 -0.006326 0.003072 0.027115 0.002260
# 6 0.006886 -0.003833 -0.003013 -0.017783 0.002260 0.041043
#
#
# Mechanical properties :
#
#
# Convention : Reuss Voigt Hill
#
# Bulk Modulus (GPa) = 45.47798 70.11111 57.79455
# Shear Modulus (GPa) = 32.23281 45.81502 39.02392
#
# Velocity S-wave (km/s) = 3.34691 3.99024 3.68265
# Velocity P-wave (km/s) = 5.54443 6.75241 6.17801
#
# Compressibility (1/GPa) = 0.02198866
#
# Stress axis : x y z
#
# Youngs Moduli (GPa) = 63.48083 119.18745 93.70932
#
# Poissons Ratio (x) = 0.38553 0.33761
# Poissons Ratio (y) = 0.20534 -0.03979
# Poissons Ratio (z) = 0.22871 -0.05061
#
# Static dielectric constant tensor:
#      x y z
#    x 2.273980 -0.052670 0.013520 
#    y -0.052670 2.276770 -0.072250 
#    z 0.013520 -0.072250 2.433920 
# 
# From -- ./inp_files/316966.got.cif
#   From: 2010.05.17/outbox.cif.g08.bks.cpg/sg2_159_cif.got.tgz:316966.got - 2010.06.03 11:33:40.
