data_PCOD9002798
_publ_section_title
;
Structure prediction by ZEFSAII (Michael W. Deem and Ramdas Pophale) SiO2 
 PCOD9002798
Probable space group: P -1
;
_chemical_formula_sum "Si O2"
_cell_formula_units_Z 14
_cell_length_a 10.141561
_cell_length_b 8.977610
_cell_length_c 17.763002
_cell_angle_alpha 57.192337
_cell_angle_beta 152.614179
_cell_angle_gamma 110.732836
_cell_volume 590.505349
_symmetry_space_group_name_H-M "P -1"
_symmetry_group_IT_number 2
_symmetry_cell_setting 'triclinic'
loop_
_space_group_symop_operation_xyz
x,y,z
-x,-y,-z
loop_
_atom_site_type_symbol
_atom_site_label
_atom_site_fract_x
_atom_site_fract_y
_atom_site_fract_z
Si Si1 0.566697 0.512170 0.135927
Si Si2 0.356418 0.368803 0.219724
Si Si3 0.743588 0.108668 0.281283
Si Si4 0.850390 0.494086 0.506841
Si Si5 0.212432 0.936756 0.851170
Si Si6 0.387506 0.868647 0.213265
Si Si7 0.845309 0.972466 0.800151
O O1 0.508088 0.404705 0.209714
O O2 0.649151 0.336019 0.168033
O O3 0.862254 0.580235 0.272474
O O4 0.297839 0.710364 0.953334
O O5 0.576293 0.410575 0.382766
O O6 0.356464 0.157618 0.282439
O O7 0.000000 0.500000 0.000000
O O8 0.859338 0.012794 0.285815
O O9 0.443908 0.061255 0.166943
O O10 0.000000 0.000000 0.500000
O O11 0.690795 0.705775 0.393406
O O12 0.000000 0.500000 0.500000
O O13 0.971206 0.015354 0.773361
O O14 0.500000 0.000000 0.000000
O O15 0.314298 0.866493 0.264827
O O16 0.131278 0.853499 0.030152
#
# Coordination Sequence:
#
# PCOD9002798 Si02
#       7
#     2   2   2   2   2   2   2
#     4  11  23  42  69 100 141 185 231 291 351 423
#     4  11  19  35  67 102 135 182 233 279 355 417
#     4  12  25  43  71 102 140 186 236 289 352 423
#     4  10  21  36  65 102 138 175 234 285 344 417
#     4  12  26  45  69 106 142 185 239 294 350 418
#     4  11  21  39  68 102 136 185 231 285 351 423
#     4  11  22  40  66 103 142 183 236 292 349 421
#
# _framework density 23.708506
#
# number of rings (size 3 to 8) (size 9 to 14) (size 15 to 20)
#    0.000    0.857    7.143    1.286    0.000    0.000 
#    0.000    0.714    0.000    1.714    0.000    0.000 
#    0.000    0.000    0.000    0.000    0.000    0.000 
#
# Total GULP energy -78153.451798 kJ/mol
# GULP energy per Si atom -5582.389414 kJ/mol
# Density = 2.365454 g / cm^3
# Si number density = 23.708506 Si / 1000 Ang^3
#
#
#
# Elastic Constant Matrix: (Units=GPa)
#
#
# Indices 1 2 3 4 5 6 
#
# 1 168.6203 41.3962 24.3030 4.8123 10.0845 -26.2503
# 2 41.3962 102.3123 25.1460 21.4420 -5.3767 2.5990
# 3 24.3030 25.1460 55.9413 3.8205 18.1576 -6.4860
# 4 4.8123 21.4420 3.8205 50.6044 -2.2298 9.3117
# 5 10.0845 -5.3767 18.1576 -2.2298 29.1201 0.9658
# 6 -26.2503 2.5990 -6.4860 9.3117 0.9658 37.0319
#
#
#
# Elastic Compliance Matrix: (Units=1/GPa)
#
#
# Indices 1 2 3 4 5 6 
#
# 1 0.007966 -0.003458 0.000036 -0.000586 -0.003668 0.006139
# 2 -0.003458 0.014585 -0.008090 -0.004102 0.008756 -0.004088
# 3 0.000036 -0.008090 0.028658 -0.000767 -0.019644 0.006318
# 4 -0.000586 -0.004102 -0.000767 0.022808 0.001871 -0.006046
# 5 -0.003668 0.008756 -0.019644 0.001871 0.049899 -0.008427
# 6 0.006139 -0.004088 0.006318 -0.006046 -0.008427 0.034489
#
#
# Mechanical properties :
#
#
# Convention : Reuss Voigt Hill
#
# Bulk Modulus (GPa) = 35.47958 56.50715 45.99337
# Shear Modulus (GPa) = 26.20230 39.08651 32.64441
#
# Velocity S-wave (km/s) = 3.32804 4.06474 3.71470
# Velocity P-wave (km/s) = 5.45575 6.77608 6.15144
#
# Compressibility (1/GPa) = 0.02818523
#
# Stress axis : x y z
#
# Youngs Moduli (GPa) = 125.53434 68.56328 34.89469
#
# Poissons Ratio (x) = 0.23707 -0.00125
# Poissons Ratio (y) = 0.43406 0.28230
# Poissons Ratio (z) = -0.00451 0.55467
#
# Static dielectric constant tensor:
#      x y z
#    x 1.958260 -0.244660 0.101460 
#    y -0.244660 2.736460 -0.454040 
#    z 0.101460 -0.454040 2.257940 
# 
# From -- ./inp_files/557060.got.cif
#   From: 2010.05.17/outbox.cif.g08.bks.cpg/sg2_279_cif.got.tgz:557060.got - 2010.06.03 11:33:40.
