data_PCOD9002641
_publ_section_title
;
Structure prediction by ZEFSAII (Michael W. Deem and Ramdas Pophale) SiO2 
 PCOD9002641
Probable space group: P -1
;
_chemical_formula_sum "Si O2"
_cell_formula_units_Z 14
_cell_length_a 11.909920
_cell_length_b 12.897411
_cell_length_c 5.390039
_cell_angle_alpha 115.382437
_cell_angle_beta 128.697271
_cell_angle_gamma 74.843492
_cell_volume 583.777716
_symmetry_space_group_name_H-M "P -1"
_symmetry_group_IT_number 2
_symmetry_cell_setting 'triclinic'
loop_
_space_group_symop_operation_xyz
x,y,z
-x,-y,-z
loop_
_atom_site_type_symbol
_atom_site_label
_atom_site_fract_x
_atom_site_fract_y
_atom_site_fract_z
Si Si1 0.774489 0.856540 0.275271
Si Si2 0.814489 0.721871 0.687150
Si Si3 0.919483 0.376788 0.268192
Si Si4 0.726518 0.102393 0.493601
Si Si5 0.901270 0.159643 0.295772
Si Si6 0.377323 0.475891 0.612002
Si Si7 0.618261 0.340634 0.561655
O O1 0.754025 0.772697 0.397243
O O2 0.942450 0.896382 0.571363
O O3 0.680747 0.970072 0.283251
O O4 0.772618 0.798890 0.942977
O O5 0.749765 0.597042 0.524588
O O6 0.984284 0.702282 0.864569
O O7 0.929083 0.297636 0.446052
O O8 0.000000 0.500000 0.500000
O O9 0.752529 0.378550 0.961519
O O10 0.825410 0.125277 0.410754
O O11 0.611464 0.204222 0.418215
O O12 0.805059 0.122853 0.888074
O O13 0.462370 0.393077 0.454439
O O14 0.336275 0.596168 0.562091
O O15 0.500000 0.500000 0.000000
#
# Coordination Sequence:
#
# PCOD9002641 Si02
#       7
#     2   2   2   2   2   2   2
#     4  11  22  42  63  98 135 176 213 274 328 396
#     4  11  26  42  69 100 137 172 216 270 347 383
#     4  10  22  40  66 104 137 166 216 280 332 391
#     4  11  22  40  66  96 133 172 227 265 324 398
#     4  10  21  36  62  99 136 176 211 263 336 399
#     4  11  26  46  68  90 134 180 223 273 331 404
#     4  10  25  42  68  97 125 179 224 269 330 397
#
# _framework density 23.981728
#
# number of rings (size 3 to 8) (size 9 to 14) (size 15 to 20)
#    0.000    1.429    0.000    5.143   14.000    0.571 
#    0.000    1.429    0.000    0.000    0.000    0.000 
#    0.000    0.000    0.000    0.000    0.000    0.000 
#
# Total GULP energy -78240.384023 kJ/mol
# GULP energy per Si atom -5588.598859 kJ/mol
# Density = 2.392714 g / cm^3
# Si number density = 23.981728 Si / 1000 Ang^3
#
#
#
# Elastic Constant Matrix: (Units=GPa)
#
#
# Indices 1 2 3 4 5 6 
#
# 1 88.3506 16.9183 19.4692 -4.4368 -12.1066 7.2509
# 2 16.9183 101.3403 22.8141 -9.7713 -14.8891 -2.9381
# 3 19.4692 22.8141 63.1706 -2.2308 -23.9150 6.5348
# 4 -4.4368 -9.7713 -2.2308 33.9893 2.6656 -7.6576
# 5 -12.1066 -14.8891 -23.9150 2.6656 40.3433 -5.2128
# 6 7.2509 -2.9381 6.5348 -7.6576 -5.2128 43.8771
#
#
#
# Elastic Compliance Matrix: (Units=1/GPa)
#
#
# Indices 1 2 3 4 5 6 
#
# 1 0.012501 -0.001249 -0.002668 0.000652 0.001477 -0.001463
# 2 -0.001249 0.011458 -0.003073 0.003272 0.002107 0.002253
# 3 -0.002668 -0.003073 0.022079 -0.001080 0.010974 -0.001938
# 4 0.000652 0.003272 -0.001080 0.031715 -0.000591 0.005737
# 5 0.001477 0.002107 0.010974 -0.000591 0.032819 0.002058
# 6 -0.001463 0.002253 -0.001938 0.005737 0.002058 0.024718
#
#
# Mechanical properties :
#
#
# Convention : Reuss Voigt Hill
#
# Bulk Modulus (GPa) = 31.19327 41.25163 36.22245
# Shear Modulus (GPa) = 31.25851 36.55261 33.90556
#
# Velocity S-wave (km/s) = 3.61422 3.90832 3.76414
# Velocity P-wave (km/s) = 5.51835 6.13231 5.83341
#
# Compressibility (1/GPa) = 0.03205819
#
# Stress axis : x y z
#
# Youngs Moduli (GPa) = 79.99471 87.27210 45.29106
#
# Poissons Ratio (x) = 0.10899 0.12085
# Poissons Ratio (y) = 0.09990 0.13918
# Poissons Ratio (z) = 0.21346 0.26819
#
# Static dielectric constant tensor:
#      x y z
#    x 2.007320 -0.041790 -0.042590 
#    y -0.041790 1.825420 0.099300 
#    z -0.042590 0.099300 1.884460 
# 
# From -- ./inp_files/72092.got.cif
#   From: 2010.05.17/outbox.cif.g08.bks.cpg/sg2_37_cif.got.tgz:72092.got - 2010.06.03 11:33:40.
