data_PCOD9002212
_publ_section_title
;
Structure prediction by ZEFSAII (Michael W. Deem and Ramdas Pophale) SiO2 
 PCOD9002212
Probable space group: P -1
;
_chemical_formula_sum "Si O2"
_cell_formula_units_Z 16
_cell_length_a 8.120777
_cell_length_b 15.240481
_cell_length_c 7.946972
_cell_angle_alpha 108.157222
_cell_angle_beta 75.565783
_cell_angle_gamma 136.021815
_cell_volume 648.489164
_symmetry_space_group_name_H-M "P -1"
_symmetry_group_IT_number 2
_symmetry_cell_setting 'triclinic'
loop_
_space_group_symop_operation_xyz
x,y,z
-x,-y,-z
loop_
_atom_site_type_symbol
_atom_site_label
_atom_site_fract_x
_atom_site_fract_y
_atom_site_fract_z
Si Si1 0.044785 0.930608 0.335311
Si Si2 0.358424 0.345934 0.834695
Si Si3 0.822473 0.777532 0.849463
Si Si4 0.346403 0.799222 0.501857
Si Si5 0.190065 0.369092 0.546805
Si Si6 0.556120 0.050579 0.729691
Si Si7 0.300387 0.068464 0.017096
Si Si8 0.272826 0.574525 0.444946
O O1 0.189881 0.897711 0.346660
O O2 0.796750 0.802996 0.254343
O O3 0.213924 0.025114 0.200411
O O4 0.000000 0.000000 0.500000
O O5 0.268968 0.326792 0.038733
O O6 0.269527 0.379496 0.725287
O O7 0.629697 0.423677 0.761475
O O8 0.806980 0.716470 0.639737
O O9 0.662137 0.808254 0.938730
O O10 0.081289 0.929421 0.894333
O O11 0.503842 0.894792 0.362426
O O12 0.402029 0.722084 0.522266
O O13 0.081652 0.698059 0.436270
O O14 0.378955 0.897148 0.676640
O O15 0.326694 0.509748 0.516746
O O16 0.533853 0.098841 0.933610
O O17 0.000000 0.500000 0.500000
#
# Coordination Sequence:
#
# PCOD9002212 Si02
#       8
#     2   2   2   2   2   2   2   2
#     4  11  22  35  60  93 131 170 214 262 320 389
#     4  11  22  40  63  92 122 162 217 262 318 375
#     4  10  22  38  63  93 130 167 212 264 317 383
#     4  10  21  36  62  93 128 168 215 254 321 379
#     4  11  21  42  66  90 127 170 216 260 317 376
#     4  11  20  36  62  92 134 170 207 263 321 386
#     4  10  21  36  58  92 137 168 209 263 320 377
#     4  10  23  41  65  92 123 168 216 268 316 381
#
# _framework density 24.672736
#
# number of rings (size 3 to 8) (size 9 to 14) (size 15 to 20)
#    0.000    1.500    2.500    3.000    0.000    2.500 
#    0.000    0.000    0.000    9.000    0.000    0.000 
#    0.000    0.000    0.000    0.000    0.000    0.000 
#
# Total GULP energy -89112.499107 kJ/mol
# GULP energy per Si atom -5569.531194 kJ/mol
# Density = 2.461658 g / cm^3
# Si number density = 24.672736 Si / 1000 Ang^3
#
#
#
# Elastic Constant Matrix: (Units=GPa)
#
#
# Indices 1 2 3 4 5 6 
#
# 1 79.9143 40.2819 33.6746 -1.7871 -12.3103 -17.0179
# 2 40.2819 120.3109 43.0156 -2.9917 -0.0019 -40.8615
# 3 33.6746 43.0156 103.3077 -5.8685 -15.3365 -22.0999
# 4 -1.7871 -2.9917 -5.8685 39.4342 -6.4685 -2.2318
# 5 -12.3103 -0.0019 -15.3365 -6.4685 37.0583 -1.5002
# 6 -17.0179 -40.8615 -22.0999 -2.2318 -1.5002 65.4764
#
#
#
# Elastic Compliance Matrix: (Units=1/GPa)
#
#
# Indices 1 2 3 4 5 6 
#
# 1 0.016760 -0.004312 -0.002750 0.000828 0.004609 0.000871
# 2 -0.004312 0.012819 -0.003032 0.000260 -0.002406 0.005810
# 3 -0.002750 -0.003032 0.013173 0.002552 0.005066 0.002042
# 4 0.000828 0.000260 0.002552 0.026931 0.006125 0.002297
# 5 0.004609 -0.002406 0.005066 0.006125 0.031776 0.002343
# 6 0.000871 0.005810 0.002042 0.002297 0.002343 0.019946
#
#
# Mechanical properties :
#
#
# Convention : Reuss Voigt Hill
#
# Bulk Modulus (GPa) = 44.31827 59.71966 52.01897
# Shear Modulus (GPa) = 33.53189 40.83116 37.18153
#
# Velocity S-wave (km/s) = 3.69055 4.07247 3.88621
# Velocity P-wave (km/s) = 6.01346 6.80960 6.42387
#
# Compressibility (1/GPa) = 0.02256406
#
# Stress axis : x y z
#
# Youngs Moduli (GPa) = 59.66750 78.00964 75.91533
#
# Poissons Ratio (x) = 0.33635 0.20878
# Poissons Ratio (y) = 0.25726 0.23015
# Poissons Ratio (z) = 0.16410 0.23650
#
# Static dielectric constant tensor:
#      x y z
#    x 2.136410 -0.022990 0.042660 
#    y -0.022990 2.092680 -0.105390 
#    z 0.042660 -0.105390 2.046000 
# 
# From -- ./inp_files/208215.got.cif
#   From: 2010.05.17/outbox.cif.g08.bks.cpg/sg2_105_cif.got.tgz:208215.got - 2010.06.03 11:33:40.
