data_PCOD9002805
_publ_section_title
;
Structure prediction by ZEFSAII (Michael W. Deem and Ramdas Pophale) SiO2 
 PCOD9002805
Probable space group: P -1
;
_chemical_formula_sum "Si O2"
_cell_formula_units_Z 16
_cell_length_a 9.821136
_cell_length_b 15.718298
_cell_length_c 8.832865
_cell_angle_alpha 114.014288
_cell_angle_beta 49.613182
_cell_angle_gamma 83.565850
_cell_volume 798.448407
_symmetry_space_group_name_H-M "P -1"
_symmetry_group_IT_number 2
_symmetry_cell_setting 'triclinic'
loop_
_space_group_symop_operation_xyz
x,y,z
-x,-y,-z
loop_
_atom_site_type_symbol
_atom_site_label
_atom_site_fract_x
_atom_site_fract_y
_atom_site_fract_z
Si Si1 0.678952 0.031662 0.866820
Si Si2 0.982566 0.616996 0.414492
Si Si3 0.082339 0.376659 0.190384
Si Si4 0.608061 0.518497 0.578215
Si Si5 0.170496 0.896418 0.467067
Si Si6 0.498337 0.250731 0.655671
Si Si7 0.357176 0.650731 0.141285
Si Si8 0.588910 0.731247 0.617682
O O1 0.567590 0.153000 0.107073
O O2 0.083049 0.044972 0.289291
O O3 0.747576 0.041606 0.652322
O O4 0.500000 0.000000 0.000000
O O5 0.870473 0.641053 0.677316
O O6 0.067921 0.489082 0.231378
O O7 0.830069 0.697546 0.450413
O O8 0.170233 0.636147 0.313058
O O9 0.843681 0.410998 0.353913
O O10 0.274158 0.273589 0.892477
O O11 0.500000 0.500000 0.500000
O O12 0.491430 0.558587 0.852501
O O13 0.608566 0.626201 0.606896
O O14 0.299609 0.862010 0.507132
O O15 0.255999 0.775904 0.242265
O O16 0.480609 0.263173 0.499718
O O17 0.521703 0.342441 0.794809
#
# Coordination Sequence:
#
# PCOD9002805 Si02
#       8
#     2   2   2   2   2   2   2   2
#     4  11  21  42  74  92 123 168 216 265 334 379
#     4  10  21  36  65  84 122 174 216 255 312 373
#     4  10  22  38  55  89 126 173 213 262 307 382
#     4  11  25  38  61  94 130 169 215 261 311 378
#     4   9  22  42  63  97 123 164 213 265 322 388
#     4  10  23  40  61  89 132 165 202 269 318 371
#     4  10  21  41  61  88 128 166 211 258 315 383
#     4  11  23  41  61  96 128 161 214 267 310 386
#
# _framework density 20.038865000000001
#
# number of rings (size 3 to 8) (size 9 to 14) (size 15 to 20)
#    0.750    1.000    1.250    3.750    5.250    2.500 
#    0.000    0.625    0.000    0.000    0.000    0.000 
#    0.000    0.000    0.000    0.000    0.000    0.000 
#
# Total GULP energy -89092.208663 kJ/mol
# GULP energy per Si atom -5568.263041 kJ/mol
# Density = 1.999326 g / cm^3
# Si number density = 20.038865 Si / 1000 Ang^3
#
#
#
# Elastic Constant Matrix: (Units=GPa)
#
#
# Indices 1 2 3 4 5 6 
#
# 1 147.1615 36.7725 61.9178 -3.7611 -5.2251 -25.4421
# 2 36.7725 58.6788 24.6742 -9.4529 -13.5453 -11.5984
# 3 61.9178 24.6742 68.7193 -4.7211 -16.8094 -6.1874
# 4 -3.7611 -9.4529 -4.7211 18.6768 -1.4223 1.5682
# 5 -5.2251 -13.5453 -16.8094 -1.4223 33.7137 -1.3600
# 6 -25.4421 -11.5984 -6.1874 1.5682 -1.3600 35.9222
#
#
#
# Elastic Compliance Matrix: (Units=1/GPa)
#
#
# Indices 1 2 3 4 5 6 
#
# 1 0.013526 -0.004071 -0.011670 -0.003206 -0.005243 0.006197
# 2 -0.004071 0.025420 -0.001931 0.011862 0.009315 0.004826
# 3 -0.011670 -0.001931 0.028656 0.005125 0.011768 -0.003732
# 4 -0.003206 0.011862 0.005125 0.060900 0.009399 0.000139
# 5 -0.005243 0.009315 0.011768 0.009399 0.038952 0.002385
# 6 0.006197 0.004826 -0.003732 0.000139 0.002385 0.033227
#
#
# Mechanical properties :
#
#
# Convention : Reuss Voigt Hill
#
# Bulk Modulus (GPa) = 31.00175 57.92094 44.46134
# Shear Modulus (GPa) = 20.26111 27.74221 24.00166
#
# Velocity S-wave (km/s) = 3.18321 3.72482 3.46462
# Velocity P-wave (km/s) = 5.38655 6.88956 6.18389
#
# Compressibility (1/GPa) = 0.03225625
#
# Stress axis : x y z
#
# Youngs Moduli (GPa) = 73.93125 39.33857 34.89719
#
# Poissons Ratio (x) = 0.16015 0.40727
# Poissons Ratio (y) = 0.30098 0.06740
# Poissons Ratio (z) = 0.86281 0.07597
#
# Static dielectric constant tensor:
#      x y z
#    x 1.797590 0.009820 -0.039530 
#    y 0.009820 1.739570 -0.009270 
#    z -0.039530 -0.009270 1.718530 
# 
# From -- ./inp_files/202939.got.cif
#   From: 2010.05.17/outbox.cif.g08.bks.cpg/sg2_102_cif.got.tgz:202939.got - 2010.06.03 11:33:40.
