data_PCOD9002089
_publ_section_title
;
Structure prediction by ZEFSAII (Michael W. Deem and Ramdas Pophale) SiO2 
 PCOD9002089
Probable space group: P -1
;
_chemical_formula_sum "Si O2"
_cell_formula_units_Z 16
_cell_length_a 24.663575
_cell_length_b 6.847429
_cell_length_c 9.767753
_cell_angle_alpha 135.793962
_cell_angle_beta 40.728104
_cell_angle_gamma 130.208310
_cell_volume 731.214899
_symmetry_space_group_name_H-M "P -1"
_symmetry_group_IT_number 2
_symmetry_cell_setting 'triclinic'
loop_
_space_group_symop_operation_xyz
x,y,z
-x,-y,-z
loop_
_atom_site_type_symbol
_atom_site_label
_atom_site_fract_x
_atom_site_fract_y
_atom_site_fract_z
Si Si1 0.369623 0.474727 0.868072
Si Si2 0.110711 0.259239 0.445803
Si Si3 0.083260 0.866068 0.780625
Si Si4 0.413530 0.980495 0.848674
Si Si5 0.083887 0.739893 0.418403
Si Si6 0.596216 0.142835 0.498901
Si Si7 0.301733 0.427496 0.276313
Si Si8 0.182135 0.291879 0.018846
O O1 0.420813 0.762718 0.845659
O O2 0.410040 0.198138 0.645612
O O3 0.346672 0.527205 0.094907
O O4 0.280960 0.377617 0.906309
O O5 0.066092 0.527838 0.678970
O O6 0.201838 0.345405 0.393748
O O7 0.135179 0.225937 0.223369
O O8 0.065165 0.967370 0.461046
O O9 0.118389 0.890335 0.570833
O O10 0.149309 0.033778 0.848303
O O11 0.000000 0.000000 0.000000
O O12 0.505302 0.189543 0.747335
O O13 0.390671 0.806293 0.662361
O O14 0.341376 0.156177 0.104690
O O15 0.151395 0.563628 0.150219
O O16 0.000000 0.500000 0.500000
O O17 0.670693 0.330308 0.540576
#
# Coordination Sequence:
#
# PCOD9002089 Si02
#       8
#     2   2   2   2   2   2   2   2
#     4  10  21  37  59  84 118 154 195 237 286 340
#     4  10  24  40  63  84 118 155 192 242 296 340
#     4  11  23  41  59  89 114 147 197 239 291 353
#     4  10  21  36  57  87 119 156 191 238 287 334
#     4  11  23  42  59  87 116 148 194 243 290 351
#     4  10  21  36  57  86 122 151 195 239 281 342
#     4  10  21  39  58  87 115 153 196 235 286 345
#     4  10  22  41  60  85 118 152 195 244 288 347
#
# _framework density 21.881392000000002
#
# number of rings (size 3 to 8) (size 9 to 14) (size 15 to 20)
#    0.000    1.750    1.250    2.250    0.000    6.000 
#    0.000    0.000    0.000    0.000    0.000    0.000 
#    0.000    0.000    0.000    0.000    0.000    0.000 
#
# Total GULP energy -89445.943071 kJ/mol
# GULP energy per Si atom -5590.371442 kJ/mol
# Density = 2.183159 g / cm^3
# Si number density = 21.881392 Si / 1000 Ang^3
#
#
#
# Elastic Constant Matrix: (Units=GPa)
#
#
# Indices 1 2 3 4 5 6 
#
# 1 67.9111 3.4015 0.8972 4.4556 6.4286 -3.6826
# 2 3.4015 85.7753 22.8828 5.9540 2.0297 -28.8461
# 3 0.8972 22.8828 48.3677 15.2327 -2.6035 -7.4654
# 4 4.4556 5.9540 15.2327 19.9770 0.9294 -9.3104
# 5 6.4286 2.0297 -2.6035 0.9294 49.7786 10.2983
# 6 -3.6826 -28.8461 -7.4654 -9.3104 10.2983 31.5333
#
#
#
# Elastic Compliance Matrix: (Units=1/GPa)
#
#
# Indices 1 2 3 4 5 6 
#
# 1 0.015227 0.000075 0.000814 -0.003061 -0.002257 0.001873
# 2 0.000075 0.021686 -0.011175 0.013167 -0.006528 0.023221
# 3 0.000814 -0.011175 0.033184 -0.028102 0.005145 -0.012249
# 4 -0.003061 0.013167 -0.028102 0.084169 -0.010044 0.033166
# 5 -0.002257 -0.006528 0.005145 -0.010044 0.024404 -0.015953
# 6 0.001873 0.023221 -0.012249 0.033166 -0.015953 0.065276
#
#
# Mechanical properties :
#
#
# Convention : Reuss Voigt Hill
#
# Bulk Modulus (GPa) = 20.19265 28.49078 24.34172
# Shear Modulus (GPa) = 17.79192 31.91596 24.85394
#
# Velocity S-wave (km/s) = 2.85460 3.82329 3.37389
# Velocity P-wave (km/s) = 4.48478 5.70429 5.13089
#
# Compressibility (1/GPa) = 0.04952297
#
# Stress axis : x y z
#
# Youngs Moduli (GPa) = 65.67410 46.11175 30.13537
#
# Poissons Ratio (x) = -0.00344 -0.02453
# Poissons Ratio (y) = -0.00491 0.33678
# Poissons Ratio (z) = -0.05345 0.51532
#
# Static dielectric constant tensor:
#      x y z
#    x 1.822390 -0.000640 -0.031780 
#    y -0.000640 1.803390 0.011340 
#    z -0.031780 0.011340 1.804610 
# 
# From -- ./inp_files/107787.got.cif
#   From: 2010.05.17/outbox.cif.g08.bks.cpg/sg2_54_cif.got.tgz:107787.got - 2010.06.03 11:33:40.
