data_PCOD9002595
_publ_section_title
;
Structure prediction by ZEFSAII (Michael W. Deem and Ramdas Pophale) SiO2 
 PCOD9002595
Probable space group: P -1
;
_chemical_formula_sum "Si O2"
_cell_formula_units_Z 16
_cell_length_a 20.490040
_cell_length_b 10.859295
_cell_length_c 16.693902
_cell_angle_alpha 32.603495
_cell_angle_beta 158.937219
_cell_angle_gamma 148.418360
_cell_volume 676.563122
_symmetry_space_group_name_H-M "P -1"
_symmetry_group_IT_number 2
_symmetry_cell_setting 'triclinic'
loop_
_space_group_symop_operation_xyz
x,y,z
-x,-y,-z
loop_
_atom_site_type_symbol
_atom_site_label
_atom_site_fract_x
_atom_site_fract_y
_atom_site_fract_z
Si Si1 0.780674 0.673690 0.213820
Si Si2 0.081019 0.165649 0.256975
Si Si3 0.555653 0.950125 0.219954
Si Si4 0.842664 0.748119 0.433393
Si Si5 0.580099 0.356406 0.916332
Si Si6 0.529527 0.833346 0.553347
Si Si7 0.913512 0.471514 0.799059
Si Si8 0.432024 0.837916 0.724155
O O1 0.807001 0.713820 0.317715
O O2 0.742550 0.389210 0.317493
O O3 0.588724 0.722347 0.934899
O O4 0.954266 0.884493 0.258398
O O5 0.026079 0.293085 0.202731
O O6 0.295703 0.176820 0.511636
O O7 0.042121 0.312899 0.057366
O O8 0.466240 0.003081 0.170216
O O9 0.418099 0.772445 0.095675
O O10 0.662817 0.206588 0.155855
O O11 0.641807 0.721872 0.262284
O O12 0.914986 0.545272 0.668248
O O13 0.000000 0.000000 0.500000
O O14 0.631283 0.643694 0.804338
O O15 0.312117 0.679008 0.358651
O O16 0.500000 0.000000 0.500000
O O17 0.625219 0.007355 0.493606
#
# Coordination Sequence:
#
# PCOD9002595 Si02
#       8
#     2   2   2   2   2   2   2   2
#     4  11  22  39  61  92 121 163 217 254 300 368
#     4  11  21  40  61  89 127 162 203 258 312 367
#     4  11  22  40  62  91 132 163 205 251 322 377
#     4  11  18  36  62  88 119 158 211 262 294 357
#     4  10  22  39  59  94 128 168 202 251 320 377
#     4  11  22  41  65  90 124 162 211 262 307 364
#     4  10  21  36  62  91 117 162 212 251 310 359
#     4  11  24  38  62  94 123 163 208 261 306 369
#
# _framework density 23.648938999999999
#
# number of rings (size 3 to 8) (size 9 to 14) (size 15 to 20)
#    0.000    1.250    6.250    1.500    1.750    1.000 
#    0.000    2.500    0.000    2.250    0.000    0.000 
#    0.000    0.000    0.000    0.000    0.000    0.000 
#
# Total GULP energy -89417.595698 kJ/mol
# GULP energy per Si atom -5588.599731 kJ/mol
# Density = 2.359511 g / cm^3
# Si number density = 23.648939 Si / 1000 Ang^3
#
#
#
# Elastic Constant Matrix: (Units=GPa)
#
#
# Indices 1 2 3 4 5 6 
#
# 1 64.1354 19.2348 9.5266 -22.1141 -15.8631 -15.6952
# 2 19.2348 89.4631 14.0519 -22.1123 -0.3187 -6.6327
# 3 9.5266 14.0519 106.7308 -36.3551 -22.5419 6.6426
# 4 -22.1141 -22.1123 -36.3551 45.5959 5.4599 -6.6147
# 5 -15.8631 -0.3187 -22.5419 5.4599 23.2710 -4.4612
# 6 -15.6952 -6.6327 6.6426 -6.6147 -4.4612 25.4556
#
#
#
# Elastic Compliance Matrix: (Units=1/GPa)
#
#
# Indices 1 2 3 4 5 6 
#
# 1 0.048268 -0.000513 0.015398 0.036016 0.047666 0.043321
# 2 -0.000513 0.013398 0.000332 0.007295 -0.000621 0.004875
# 3 0.015398 0.000332 0.020800 0.023031 0.028135 0.015068
# 4 0.036016 0.007295 0.023031 0.062487 0.040233 0.041385
# 5 0.047666 -0.000621 0.028135 0.040233 0.102928 0.050379
# 6 0.043321 0.004875 0.015068 0.041385 0.050379 0.082916
#
#
# Mechanical properties :
#
#
# Convention : Reuss Voigt Hill
#
# Bulk Modulus (GPa) = 8.85728 38.43954 23.64841
# Shear Modulus (GPa) = 14.79304 33.36556 24.07930
#
# Velocity S-wave (km/s) = 2.50377 3.76023 3.19438
# Velocity P-wave (km/s) = 3.48022 5.92806 4.86075
#
# Compressibility (1/GPa) = 0.11290154
#
# Stress axis : x y z
#
# Youngs Moduli (GPa) = 20.71760 74.63650 48.07580
#
# Poissons Ratio (x) = 0.03828 -0.74027
# Poissons Ratio (y) = 0.01063 -0.01597
# Poissons Ratio (z) = -0.31901 -0.02479
#
# Static dielectric constant tensor:
#      x y z
#    x 1.902900 -0.006650 0.010540 
#    y -0.006650 1.956920 -0.010240 
#    z 0.010540 -0.010240 1.915470 
# 
# From -- ./inp_files/464384.got.cif
#   From: 2010.05.17/outbox.cif.g08.bks.cpg/sg2_233_cif.got.tgz:464384.got - 2010.06.03 11:33:40.
