data_PCOD9002252
_publ_section_title
;
Structure prediction by ZEFSAII (Michael W. Deem and Ramdas Pophale) SiO2 
 PCOD9002252
Probable space group: P -1
;
_chemical_formula_sum "Si O2"
_cell_formula_units_Z 13
_cell_length_a 13.148368
_cell_length_b 13.857802
_cell_length_c 8.082339
_cell_angle_alpha 41.585099
_cell_angle_beta 138.522102
_cell_angle_gamma 148.769417
_cell_volume 480.388936
_symmetry_space_group_name_H-M "P -1"
_symmetry_group_IT_number 2
_symmetry_cell_setting 'triclinic'
loop_
_space_group_symop_operation_xyz
x,y,z
-x,-y,-z
loop_
_atom_site_type_symbol
_atom_site_label
_atom_site_fract_x
_atom_site_fract_y
_atom_site_fract_z
Si Si1 0.220354 0.715904 0.523838
Si Si2 0.795506 0.036931 0.072432
Si Si3 0.460543 0.620631 0.086320
Si Si4 0.034048 0.808016 0.403341
Si Si5 0.500000 0.000000 0.000000
Si Si6 0.807382 0.784763 0.830006
Si Si7 0.214840 0.547895 0.212400
O O1 0.199739 0.787386 0.582433
O O2 0.000000 0.500000 0.500000
O O3 0.258242 0.865886 0.245554
O O4 0.383264 0.690340 0.768020
O O5 0.693742 0.027169 0.126822
O O6 0.684764 0.819932 0.152769
O O7 0.036727 0.158818 0.200939
O O8 0.316700 0.558879 0.150966
O O9 0.408654 0.428193 0.202854
O O10 0.863017 0.634414 0.537700
O O11 0.911451 0.772728 0.131636
O O12 0.162945 0.028945 0.333031
O O13 0.623576 0.231683 0.805502
O O14 0.000000 0.500000 0.000000
#
# Coordination Sequence:
#
# PCOD9002252 Si02
#       7
#     2   2   2   2   1   2   2
#     4  11  18  36  63  86 115 155 197 247 288 337
#     4  10  21  36  59  86 120 152 196 246 290 344
#     4  11  21  35  61  87 116 152 201 241 290 346
#     4  10  21  39  64  86 118 163 190 237 303 345
#     4  10  22  36  56  92 118 152 198 240 298 340
#     4  10  22  42  60  84 124 157 195 237 293 359
#     4  11  21  37  59  88 120 149 197 247 288 344
#
# _framework density 27.061405000000001
#
# number of rings (size 3 to 8) (size 9 to 14) (size 15 to 20)
#    0.000    1.538    4.615    2.308    0.000    0.615 
#    0.000   11.538    0.000    0.000    0.000    0.000 
#    0.000    0.000    0.000    0.000    0.000    0.000 
#
# Total GULP energy -72634.781696 kJ/mol
# GULP energy per Si atom -5587.290900 kJ/mol
# Density = 2.699981 g / cm^3
# Si number density = 27.061405 Si / 1000 Ang^3
#
#
#
# Elastic Constant Matrix: (Units=GPa)
#
#
# Indices 1 2 3 4 5 6 
#
# 1 63.9195 28.3197 29.7176 -17.0525 6.7961 -12.9045
# 2 28.3197 171.1665 44.5433 -58.0623 27.2530 -18.5442
# 3 29.7176 44.5433 108.2864 -33.7265 -4.2668 -9.0100
# 4 -17.0525 -58.0623 -33.7265 50.7349 -9.6961 16.5308
# 5 6.7961 27.2530 -4.2668 -9.6961 35.0723 -17.9975
# 6 -12.9045 -18.5442 -9.0100 16.5308 -17.9975 44.3928
#
#
#
# Elastic Compliance Matrix: (Units=1/GPa)
#
#
# Indices 1 2 3 4 5 6 
#
# 1 0.019219 -0.001173 -0.004281 0.000925 -0.001370 0.003328
# 2 -0.001173 0.010780 -0.001278 0.010721 -0.006802 -0.002847
# 3 -0.004281 -0.001278 0.013345 0.006831 0.005691 0.000694
# 4 0.000925 0.010721 0.006831 0.039545 -0.001459 -0.009183
# 5 -0.001370 -0.006802 0.005691 -0.001459 0.042378 0.015639
# 6 0.003328 -0.002847 0.000694 -0.009183 0.015639 0.032205
#
#
# Mechanical properties :
#
#
# Convention : Reuss Voigt Hill
#
# Bulk Modulus (GPa) = 33.46770 60.94816 47.20793
# Shear Modulus (GPa) = 27.64019 42.09280 34.86650
#
# Velocity S-wave (km/s) = 3.19938 3.94820 3.59335
# Velocity P-wave (km/s) = 5.10316 6.58449 5.89057
#
# Compressibility (1/GPa) = 0.02987956
#
# Stress axis : x y z
#
# Youngs Moduli (GPa) = 52.03173 92.76197 74.93529
#
# Poissons Ratio (x) = 0.10885 0.32077
# Poissons Ratio (y) = 0.06105 0.09579
# Poissons Ratio (z) = 0.22273 0.11858
#
# Static dielectric constant tensor:
#      x y z
#    x 2.112800 -0.050590 -0.014140 
#    y -0.050590 2.077410 0.062740 
#    z -0.014140 0.062740 2.159300 
# 
# From -- ./inp_files/151225.got.cif
#   From: 2010.05.17/outbox.cif.g08.bks.cpg/sg2_76_cif.got.tgz:151225.got - 2010.06.03 11:33:40.
