data_PCOD9002610
_publ_section_title
;
Structure prediction by ZEFSAII (Michael W. Deem and Ramdas Pophale) SiO2 
 PCOD9002610
Probable space group: P -1
;
_chemical_formula_sum "Si O2"
_cell_formula_units_Z 15
_cell_length_a 22.419270
_cell_length_b 13.594159
_cell_length_c 11.229334
_cell_angle_alpha 144.462615
_cell_angle_beta 21.261486
_cell_angle_gamma 149.693762
_cell_volume 625.470126
_symmetry_space_group_name_H-M "P -1"
_symmetry_group_IT_number 2
_symmetry_cell_setting 'triclinic'
loop_
_space_group_symop_operation_xyz
x,y,z
-x,-y,-z
loop_
_atom_site_type_symbol
_atom_site_label
_atom_site_fract_x
_atom_site_fract_y
_atom_site_fract_z
Si Si1 0.658244 0.377980 0.843253
Si Si2 0.357347 0.117695 0.982188
Si Si3 0.576778 0.849436 0.719395
Si Si4 0.216492 0.239464 0.144610
Si Si5 0.890800 0.309419 0.936019
Si Si6 0.871110 0.875240 0.351065
Si Si7 0.718032 0.420742 0.150083
Si Si8 0.000000 0.500000 0.500000
O O1 0.671002 0.575288 0.966116
O O2 0.858982 0.427105 0.570769
O O3 0.564956 0.220728 0.755941
O O4 0.513839 0.286172 0.130300
O O5 0.343645 0.226495 0.999215
O O6 0.224639 0.127457 0.345485
O O7 0.257616 0.888352 0.916202
O O8 0.795140 0.949400 0.453450
O O9 0.503075 0.710747 0.604985
O O10 0.500000 0.000000 0.000000
O O11 0.054420 0.276732 0.541439
O O12 0.093600 0.029942 0.103193
O O13 0.770706 0.340942 0.088542
O O14 0.000000 0.500000 0.000000
O O15 0.808914 0.652612 0.220287
O O16 0.818469 0.393883 0.820838
#
# Coordination Sequence:
#
# PCOD9002610 Si02
#       8
#     2   2   2   2   2   2   2   1
#     4  10  21  37  62  85 121 163 202 247 318 362
#     4  10  21  38  61  89 123 158 206 257 312 363
#     4  10  21  38  63  88 121 160 204 257 310 369
#     4  11  20  38  60  89 123 161 202 257 312 371
#     4  11  21  37  64  92 118 164 205 253 310 369
#     4  10  21  36  62  93 116 160 211 253 306 365
#     4  11  20  38  62  86 126 157 213 251 309 368
#     4  10  22  38  60  84 120 168 200 250 306 360
#
# _framework density 23.981959
#
# number of rings (size 3 to 8) (size 9 to 14) (size 15 to 20)
#    0.000    1.600    1.333    6.400    1.867    0.000 
#    0.000    3.333   20.533    0.000    0.000    0.000 
#    0.000    0.000    0.000    0.000    0.000    0.000 
#
# Total GULP energy -83593.963334 kJ/mol
# GULP energy per Si atom -5572.930889 kJ/mol
# Density = 2.392738 g / cm^3
# Si number density = 23.981959 Si / 1000 Ang^3
#
#
#
# Elastic Constant Matrix: (Units=GPa)
#
#
# Indices 1 2 3 4 5 6 
#
# 1 174.6871 65.9430 32.1472 -1.7486 -37.5681 14.9879
# 2 65.9430 151.9415 19.2034 12.2130 -0.7689 11.6313
# 3 32.1472 19.2034 23.3119 2.2680 -6.6245 -2.7323
# 4 -1.7486 12.2130 2.2680 26.8756 2.2662 -8.2468
# 5 -37.5681 -0.7689 -6.6245 2.2662 30.3206 -4.7688
# 6 14.9879 11.6313 -2.7323 -8.2468 -4.7688 47.2690
#
#
#
# Elastic Compliance Matrix: (Units=1/GPa)
#
#
# Indices 1 2 3 4 5 6 
#
# 1 0.011709 -0.003740 -0.010109 0.001743 0.011777 -0.001884
# 2 -0.003740 0.009220 -0.003820 -0.004466 -0.005313 -0.002619
# 3 -0.010109 -0.003820 0.061690 -0.001985 0.002198 0.007586
# 4 0.001743 -0.004466 -0.001985 0.041912 -0.000307 0.007713
# 5 0.011777 -0.005313 0.002198 -0.000307 0.048338 0.002523
# 6 -0.001884 -0.002619 0.007586 0.007713 0.002523 0.024436
#
#
# Mechanical properties :
#
#
# Convention : Reuss Voigt Hill
#
# Bulk Modulus (GPa) = 21.15001 64.94751 43.04876
# Shear Modulus (GPa) = 20.12860 36.40283 28.26572
#
# Velocity S-wave (km/s) = 2.90025 3.90028 3.43683
# Velocity P-wave (km/s) = 4.47812 6.88648 5.80849
#
# Compressibility (1/GPa) = 0.04728131
#
# Stress axis : x y z
#
# Youngs Moduli (GPa) = 85.40682 108.45866 16.21009
#
# Poissons Ratio (x) = 0.40566 0.16387
# Poissons Ratio (y) = 0.31944 0.06192
# Poissons Ratio (z) = 0.86337 0.41427
#
# Static dielectric constant tensor:
#      x y z
#    x 1.899710 0.047410 -0.025930 
#    y 0.047410 1.942520 -0.007390 
#    z -0.025930 -0.007390 1.975870 
# 
# From -- ./inp_files/308077.got.cif
#   From: 2010.05.17/outbox.cif.g08.bks.cpg/sg2_155_cif.got.tgz:308077.got - 2010.06.03 11:33:40.
