data_PCOD9002035
_publ_section_title
;
Structure prediction by ZEFSAII (Michael W. Deem and Ramdas Pophale) SiO2 
 PCOD9002035
Probable space group: P -1
;
_chemical_formula_sum "Si O2"
_cell_formula_units_Z 14
_cell_length_a 11.431127
_cell_length_b 14.605465
_cell_length_c 7.080610
_cell_angle_alpha 51.311124
_cell_angle_beta 117.446076
_cell_angle_gamma 134.823157
_cell_volume 654.043700
_symmetry_space_group_name_H-M "P -1"
_symmetry_group_IT_number 2
_symmetry_cell_setting 'triclinic'
loop_
_space_group_symop_operation_xyz
x,y,z
-x,-y,-z
loop_
_atom_site_type_symbol
_atom_site_label
_atom_site_fract_x
_atom_site_fract_y
_atom_site_fract_z
Si Si1 0.911822 0.841748 0.033740
Si Si2 0.464233 0.618701 0.335561
Si Si3 0.213741 0.936708 0.913556
Si Si4 0.745759 0.794230 0.585359
Si Si5 0.246088 0.855473 0.640545
Si Si6 0.863060 0.655961 0.575219
Si Si7 0.440219 0.121313 0.174666
O O1 0.828241 0.720080 0.288048
O O2 0.789161 0.811291 0.814246
O O3 0.000000 0.000000 0.000000
O O4 0.052303 0.835599 0.050740
O O5 0.500000 0.500000 0.500000
O O6 0.555560 0.700713 0.493793
O O7 0.266327 0.519581 0.303429
O O8 0.542403 0.737224 0.071661
O O9 0.181349 0.049152 0.655795
O O10 0.246720 0.872475 0.844351
O O11 0.365851 0.018696 0.064860
O O12 0.825182 0.721185 0.640932
O O13 0.377601 0.828564 0.711659
O O14 0.055941 0.730124 0.614133
O O15 0.318239 0.011614 0.390612
#
# Coordination Sequence:
#
# PCOD9002035 Si02
#       7
#     2   2   2   2   2   2   2
#     4  12  21  32  59  94 123 154 199 254 301 357
#     4   9  22  41  61  88 127 157 199 249 301 364
#     4  11  20  35  59  89 121 151 201 254 304 349
#     4  10  21  36  56  89 125 157 196 248 307 354
#     4  11  22  38  65  87 118 162 203 251 297 353
#     4  11  21  37  59  89 122 161 201 242 299 362
#     4  10  23  41  59  90 119 159 205 250 300 352
#
# _framework density 21.405298999999999
#
# number of rings (size 3 to 8) (size 9 to 14) (size 15 to 20)
#    0.000    1.429    4.286    1.714    0.000    1.143 
#    0.000    4.286    0.000    0.857    0.000    0.000 
#    0.000    0.000    0.000    0.000    0.000    0.000 
#
# Total GULP energy -78119.711716 kJ/mol
# GULP energy per Si atom -5579.979408 kJ/mol
# Density = 2.135658 g / cm^3
# Si number density = 21.405299 Si / 1000 Ang^3
#
#
#
# Elastic Constant Matrix: (Units=GPa)
#
#
# Indices 1 2 3 4 5 6 
#
# 1 56.0043 30.0478 13.7107 13.1778 -3.6460 27.0887
# 2 30.0478 91.3576 31.5967 1.7889 -8.6414 30.9583
# 3 13.7107 31.5967 100.4170 9.2133 -14.9296 1.0160
# 4 13.1778 1.7889 9.2133 30.9166 2.0919 2.0496
# 5 -3.6460 -8.6414 -14.9296 2.0919 35.1872 6.1025
# 6 27.0887 30.9583 1.0160 2.0496 6.1025 35.8038
#
#
#
# Elastic Compliance Matrix: (Units=1/GPa)
#
#
# Indices 1 2 3 4 5 6 
#
# 1 0.035190 -0.001023 -0.001822 -0.013193 0.007966 -0.026291
# 2 -0.001023 0.019128 -0.005081 0.001591 0.005221 -0.016602
# 3 -0.001822 -0.005081 0.012524 -0.003213 0.003191 0.005056
# 4 -0.013193 0.001591 -0.003213 0.038739 -0.005942 0.007493
# 5 0.007966 0.005221 0.003191 -0.005942 0.035055 -0.016266
# 6 -0.026291 -0.016602 0.005056 0.007493 -0.016266 0.064377
#
#
# Mechanical properties :
#
#
# Convention : Reuss Voigt Hill
#
# Bulk Modulus (GPa) = 19.61136 44.27659 31.94398
# Shear Modulus (GPa) = 21.02044 31.87643 26.44843
#
# Velocity S-wave (km/s) = 3.13712 3.86318 3.51893
# Velocity P-wave (km/s) = 4.72269 6.37406 5.60948
#
# Compressibility (1/GPa) = 0.05099084
#
# Stress axis : x y z
#
# Youngs Moduli (GPa) = 28.41683 52.27804 79.84616
#
# Poissons Ratio (x) = 0.05348 0.14548
# Poissons Ratio (y) = 0.02907 0.40570
# Poissons Ratio (z) = 0.05178 0.26562
#
# Static dielectric constant tensor:
#      x y z
#    x 1.847740 0.049290 0.018490 
#    y 0.049290 1.844490 0.009860 
#    z 0.018490 0.009860 1.760490 
# 
# From -- ./inp_files/81169.got.cif
#   From: 2010.05.17/outbox.cif.g08.bks.cpg/sg2_41_cif.got.tgz:81169.got - 2010.06.03 11:33:40.
