data_PCOD9002208
_publ_section_title
;
Structure prediction by ZEFSAII (Michael W. Deem and Ramdas Pophale) SiO2 
 PCOD9002208
Probable space group: P -1
;
_chemical_formula_sum "Si O2"
_cell_formula_units_Z 16
_cell_length_a 24.250656
_cell_length_b 5.296374
_cell_length_c 6.671899
_cell_angle_alpha 109.606932
_cell_angle_beta 95.619997
_cell_angle_gamma 104.339149
_cell_volume 766.564569
_symmetry_space_group_name_H-M "P -1"
_symmetry_group_IT_number 2
_symmetry_cell_setting 'triclinic'
loop_
_space_group_symop_operation_xyz
x,y,z
-x,-y,-z
loop_
_atom_site_type_symbol
_atom_site_label
_atom_site_fract_x
_atom_site_fract_y
_atom_site_fract_z
Si Si1 0.998744 0.001912 0.236970
Si Si2 0.097502 0.785575 0.130262
Si Si3 0.337835 0.129585 0.145109
Si Si4 0.607282 0.062075 0.276125
Si Si5 0.160636 0.441484 0.338644
Si Si6 0.080822 0.415273 0.651213
Si Si7 0.439435 0.427425 0.574295
Si Si8 0.291077 0.639936 0.294327
O O1 0.937396 0.854396 0.277532
O O2 0.032878 0.294769 0.428808
O O3 0.040576 0.802395 0.234535
O O4 0.000000 0.000000 0.000000
O O5 0.080925 0.660974 0.869168
O O6 0.128790 0.596484 0.214220
O O7 0.137597 0.105780 0.212586
O O8 0.389600 0.277933 0.356710
O O9 0.305210 0.360326 0.149791
O O10 0.296850 0.860218 0.174881
O O11 0.365725 0.034268 0.935574
O O12 0.573989 0.290899 0.281819
O O13 0.660027 0.211167 0.485398
O O14 0.566271 0.792645 0.306231
O O15 0.140525 0.486524 0.569302
O O16 0.228526 0.557313 0.352623
O O17 0.500000 0.500000 0.500000
#
# Coordination Sequence:
#
# PCOD9002208 Si02
#       8
#     2   2   2   2   2   2   2   2
#     4  10  22  41  64  89 119 154 191 234 290 362
#     4  11  24  41  60  89 120 149 192 241 294 357
#     4  10  21  39  61  84 118 160 201 245 292 347
#     4  10  21  38  60  87 118 162 204 236 294 353
#     4  11  25  41  60  88 118 150 196 248 296 347
#     4  10  22  39  63  88 117 153 189 234 294 352
#     4  10  21  36  58  92 127 155 196 248 291 346
#     4  10  22  40  59  84 116 153 202 251 290 343
#
# _framework density 20.872343000000001
#
# number of rings (size 3 to 8) (size 9 to 14) (size 15 to 20)
#    0.000    1.750    0.000    3.750    0.000    9.000 
#    0.000    0.000    0.000    0.000    0.000    0.000 
#    0.000    0.000    0.000    0.000    0.000    0.000 
#
# Total GULP energy -89383.768573 kJ/mol
# GULP energy per Si atom -5586.485536 kJ/mol
# Density = 2.082484 g / cm^3
# Si number density = 20.872343 Si / 1000 Ang^3
#
#
#
# Elastic Constant Matrix: (Units=GPa)
#
#
# Indices 1 2 3 4 5 6 
#
# 1 85.4329 53.8152 19.7200 -3.8123 -35.4352 11.1957
# 2 53.8152 162.8518 45.6761 -9.1007 -24.2035 2.2991
# 3 19.7200 45.6761 117.0419 2.1416 -42.1625 -1.3269
# 4 -3.8123 -9.1007 2.1416 29.3340 -3.9922 -15.0521
# 5 -35.4352 -24.2035 -42.1625 -3.9922 36.2308 -9.4449
# 6 11.1957 2.2991 -1.3269 -15.0521 -9.4449 36.2656
#
#
#
# Elastic Compliance Matrix: (Units=1/GPa)
#
#
# Indices 1 2 3 4 5 6 
#
# 1 0.030653 -0.006823 0.013164 0.010588 0.043799 0.007253
# 2 -0.006823 0.008898 -0.004237 0.001882 -0.005243 0.000803
# 3 0.013164 -0.004237 0.022499 0.010345 0.040459 0.011858
# 4 0.010588 0.001882 0.010345 0.055770 0.037599 0.029930
# 5 0.043799 -0.005243 0.040459 0.037599 0.127858 0.037196
# 6 0.007253 0.000803 0.011858 0.029930 0.037196 0.047828
#
#
# Mechanical properties :
#
#
# Convention : Reuss Voigt Hill
#
# Bulk Modulus (GPa) = 15.09213 67.08325 41.08769
# Shear Modulus (GPa) = 16.05737 36.77377 26.41557
#
# Velocity S-wave (km/s) = 2.77666 4.20198 3.56136
# Velocity P-wave (km/s) = 4.18643 7.46671 6.05301
#
# Compressibility (1/GPa) = 0.06625968
#
# Stress axis : x y z
#
# Youngs Moduli (GPa) = 32.62333 112.38242 44.44583
#
# Poissons Ratio (x) = 0.76677 -0.58510
# Poissons Ratio (y) = 0.22258 0.18831
# Poissons Ratio (z) = -0.42947 0.47616
#
# Static dielectric constant tensor:
#      x y z
#    x 1.745610 -0.028180 0.022310 
#    y -0.028180 1.781110 -0.008720 
#    z 0.022310 -0.008720 1.730650 
# 
# From -- ./inp_files/121832.got.cif
#   From: 2010.05.17/outbox.cif.g08.bks.cpg/sg2_61_cif.got.tgz:121832.got - 2010.06.03 11:33:40.
