data_PCOD9002604
_publ_section_title
;
Structure prediction by ZEFSAII (Michael W. Deem and Ramdas Pophale) SiO2 
 PCOD9002604
Probable space group: P -1
;
_chemical_formula_sum "Si O2"
_cell_formula_units_Z 16
_cell_length_a 14.882594
_cell_length_b 18.805838
_cell_length_c 11.637870
_cell_angle_alpha 148.139642
_cell_angle_beta 26.733829
_cell_angle_gamma 146.875645
_cell_volume 729.439431
_symmetry_space_group_name_H-M "P -1"
_symmetry_group_IT_number 2
_symmetry_cell_setting 'triclinic'
loop_
_space_group_symop_operation_xyz
x,y,z
-x,-y,-z
loop_
_atom_site_type_symbol
_atom_site_label
_atom_site_fract_x
_atom_site_fract_y
_atom_site_fract_z
Si Si1 0.060028 0.956895 0.542431
Si Si2 0.639911 0.131789 0.362953
Si Si3 0.150239 0.836687 0.061536
Si Si4 0.211750 0.706905 0.363976
Si Si5 0.187314 0.997463 0.702379
Si Si6 0.048195 0.525308 0.805853
Si Si7 0.611993 0.807063 0.910619
Si Si8 0.636300 0.403922 0.261710
O O1 0.856313 0.820081 0.627376
O O2 0.206707 0.908908 0.220639
O O3 0.163001 0.024818 0.635225
O O4 0.976200 0.070950 0.729354
O O5 0.788289 0.241325 0.433748
O O6 0.406384 0.111604 0.646027
O O7 0.679987 0.170961 0.237623
O O8 0.646266 0.969571 0.135256
O O9 0.016873 0.674669 0.017885
O O10 0.198061 0.839660 0.486600
O O11 0.011755 0.571768 0.372673
O O12 0.443603 0.703610 0.050645
O O13 0.000000 0.000000 0.000000
O O14 0.274780 0.561940 0.662744
O O15 0.856649 0.440050 0.990993
O O16 0.502342 0.755816 0.840984
O O17 0.500000 0.500000 0.500000
#
# Coordination Sequence:
#
# PCOD9002604 Si02
#       8
#     2   2   2   2   2   2   2   2
#     4  10  21  36  62  92 121 158 201 255 302 363
#     4  10  21  39  57  88 120 162 202 243 313 361
#     4  10  22  40  57  87 127 165 196 239 310 378
#     4  10  21  38  62  87 117 160 204 255 305 358
#     4  11  21  36  64  91 117 150 209 268 301 348
#     4  10  23  39  60  89 123 169 199 245 315 366
#     4   9  18  35  60  88 113 149 196 260 300 337
#     4  10  21  37  61  91 124 156 206 256 302 365
#
# _framework density 21.934650999999999
#
# number of rings (size 3 to 8) (size 9 to 14) (size 15 to 20)
#    0.000    2.000    0.000    4.500    8.750    1.000 
#    6.750    0.000    0.000    1.500    0.000    0.000 
#    0.000    0.000    0.000    0.000    0.000    0.000 
#
# Total GULP energy -89097.869088 kJ/mol
# GULP energy per Si atom -5568.616818 kJ/mol
# Density = 2.188473 g / cm^3
# Si number density = 21.934651 Si / 1000 Ang^3
#
#
#
# Elastic Constant Matrix: (Units=GPa)
#
#
# Indices 1 2 3 4 5 6 
#
# 1 99.1057 25.2334 46.6564 5.0564 31.3408 27.4024
# 2 25.2334 46.4806 17.8275 11.8884 15.6502 26.8389
# 3 46.6564 17.8275 82.9001 4.3646 25.0249 17.2760
# 4 5.0564 11.8884 4.3646 22.8049 6.7473 7.4255
# 5 31.3408 15.6502 25.0249 6.7473 31.2229 8.2532
# 6 27.4024 26.8389 17.2760 7.4255 8.2532 37.5771
#
#
#
# Elastic Compliance Matrix: (Units=1/GPa)
#
#
# Indices 1 2 3 4 5 6 
#
# 1 0.019135 0.001145 -0.004871 0.003531 -0.013953 -0.010165
# 2 0.001145 0.043749 0.000371 -0.010141 -0.014001 -0.027174
# 3 -0.004871 0.000371 0.018124 0.001208 -0.009222 -0.003258
# 4 0.003531 -0.010141 0.001208 0.052315 -0.009649 -0.004105
# 5 -0.013953 -0.014001 -0.009222 -0.009649 0.058995 0.013364
# 6 -0.010165 -0.027174 -0.003258 -0.004105 0.013364 0.052807
#
#
# Mechanical properties :
#
#
# Convention : Reuss Voigt Hill
#
# Bulk Modulus (GPa) = 13.45949 45.32454 29.39202
# Shear Modulus (GPa) = 18.07660 27.57226 22.82443
#
# Velocity S-wave (km/s) = 2.87385 3.54929 3.22928
# Velocity P-wave (km/s) = 4.14264 6.12413 5.22812
#
# Compressibility (1/GPa) = 0.07429701
#
# Stress axis : x y z
#
# Youngs Moduli (GPa) = 52.26109 22.85752 55.17650
#
# Poissons Ratio (x) = -0.02617 0.26876
# Poissons Ratio (y) = -0.05983 -0.02046
# Poissons Ratio (z) = 0.25456 -0.00847
#
# Static dielectric constant tensor:
#      x y z
#    x 1.882490 0.020830 -0.007040 
#    y 0.020830 1.821150 -0.003220 
#    z -0.007040 -0.003220 1.930430 
# 
# From -- ./inp_files/457533.got.cif
#   From: 2010.05.17/outbox.cif.g08.bks.cpg/sg2_229_cif.got.tgz:457533.got - 2010.06.03 11:33:40.
