data_PCOD9002276
_publ_section_title
;
Structure prediction by ZEFSAII (Michael W. Deem and Ramdas Pophale) SiO2 
 PCOD9002276
Probable space group: P -1
;
_chemical_formula_sum "Si O2"
_cell_formula_units_Z 14
_cell_length_a 11.024280
_cell_length_b 12.252310
_cell_length_c 5.148467
_cell_angle_alpha 71.272086
_cell_angle_beta 81.884969
_cell_angle_gamma 95.869242
_cell_volume 643.875763
_symmetry_space_group_name_H-M "P -1"
_symmetry_group_IT_number 2
_symmetry_cell_setting 'triclinic'
loop_
_space_group_symop_operation_xyz
x,y,z
-x,-y,-z
loop_
_atom_site_type_symbol
_atom_site_label
_atom_site_fract_x
_atom_site_fract_y
_atom_site_fract_z
Si Si1 0.562548 0.634585 0.869315
Si Si2 0.045637 0.322641 0.608620
Si Si3 0.790476 0.311351 0.504901
Si Si4 0.862579 0.448146 0.862611
Si Si5 0.292428 0.258128 0.769119
Si Si6 0.405665 0.821875 0.684797
Si Si7 0.393967 0.029861 0.817839
O O1 0.626164 0.674372 0.542737
O O2 0.454073 0.712987 0.883145
O O3 0.500000 0.500000 0.000000
O O4 0.661706 0.671303 0.039260
O O5 0.112494 0.416063 0.309635
O O6 0.148668 0.256104 0.745303
O O7 0.917951 0.259795 0.563618
O O8 0.990408 0.399452 0.789594
O O9 0.774214 0.384726 0.711000
O O10 0.676824 0.220171 0.508092
O O11 0.817173 0.402269 0.189277
O O12 0.317815 0.124455 0.886538
O O13 0.533502 0.898982 0.495711
O O14 0.333350 0.904109 0.819754
O O15 0.500000 0.000000 0.000000
#
# Coordination Sequence:
#
# PCOD9002276 Si02
#       7
#     2   2   2   2   2   2   2
#     4  11  25  38  59  94 123 157 192 254 306 359
#     4   9  22  36  59  87 122 160 198 234 305 357
#     4  10  21  36  59  89 114 158 197 248 287 363
#     4   9  21  34  57  85 124 160 194 227 301 366
#     4  11  24  39  63  87 124 161 199 249 301 359
#     4  10  23  39  64  87 120 156 212 246 300 359
#     4  10  21  43  62  85 115 167 209 247 300 352
#
# _framework density 21.743324000000001
#
# number of rings (size 3 to 8) (size 9 to 14) (size 15 to 20)
#    0.857    1.143    1.429    0.857    8.000    0.000 
#    0.000    0.714    0.000    1.714    0.000    0.000 
#    0.000    0.000    0.000    0.000    0.000    0.000 
#
# Total GULP energy -78106.029973 kJ/mol
# GULP energy per Si atom -5579.002141 kJ/mol
# Density = 2.169384 g / cm^3
# Si number density = 21.743324 Si / 1000 Ang^3
#
#
#
# Elastic Constant Matrix: (Units=GPa)
#
#
# Indices 1 2 3 4 5 6 
#
# 1 68.6257 12.6977 13.5698 -7.1338 21.0174 -5.6782
# 2 12.6977 74.6385 7.0231 -14.2829 15.9873 -1.5561
# 3 13.5698 7.0231 93.2524 6.1706 7.5726 -6.0570
# 4 -7.1338 -14.2829 6.1706 34.3164 -0.2774 18.1204
# 5 21.0174 15.9873 7.5726 -0.2774 39.6670 1.0290
# 6 -5.6782 -1.5561 -6.0570 18.1204 1.0290 31.2352
#
#
#
# Elastic Compliance Matrix: (Units=1/GPa)
#
#
# Indices 1 2 3 4 5 6 
#
# 1 0.018293 -0.000299 -0.002023 0.003268 -0.009198 0.001326
# 2 -0.000299 0.016670 -0.001697 0.009790 -0.006038 -0.005034
# 3 -0.002023 -0.001697 0.011968 -0.006175 -0.000714 0.005474
# 4 0.003268 0.009790 -0.006175 0.050427 -0.003387 -0.029258
# 5 -0.009198 -0.006038 -0.000714 -0.003387 0.032661 -0.001222
# 6 0.001326 -0.005034 0.005474 -0.029258 -0.001222 0.050081
#
#
# Mechanical properties :
#
#
# Convention : Reuss Voigt Hill
#
# Bulk Modulus (GPa) = 25.70992 33.67754 29.69373
# Shear Modulus (GPa) = 24.86306 34.59214 29.72760
#
# Velocity S-wave (km/s) = 3.38521 3.99298 3.70159
# Velocity P-wave (km/s) = 5.20859 6.06472 5.65289
#
# Compressibility (1/GPa) = 0.03889549
#
# Stress axis : x y z
#
# Youngs Moduli (GPa) = 54.66485 59.98758 83.55686
#
# Poissons Ratio (x) = 0.01792 0.16901
# Poissons Ratio (y) = 0.01633 0.14175
# Poissons Ratio (z) = 0.11057 0.10177
#
# Static dielectric constant tensor:
#      x y z
#    x 1.840760 -0.007500 -0.021520 
#    y -0.007500 1.851690 0.012730 
#    z -0.021520 0.012730 1.823660 
# 
# From -- ./inp_files/63553.got.cif
#   From: 2010.05.17/outbox.cif.g08.bks.cpg/sg2_32_cif.got.tgz:63553.got - 2010.06.03 11:33:40.
