data_PCOD9002757
_publ_section_title
;
Structure prediction by ZEFSAII (Michael W. Deem and Ramdas Pophale) SiO2 
 PCOD9002757
Probable space group: P -1
;
_chemical_formula_sum "Si O2"
_cell_formula_units_Z 16
_cell_length_a 19.187315
_cell_length_b 25.910629
_cell_length_c 12.747936
_cell_angle_alpha 153.820816
_cell_angle_beta 35.492498
_cell_angle_gamma 162.972320
_cell_volume 770.091203
_symmetry_space_group_name_H-M "P -1"
_symmetry_group_IT_number 2
_symmetry_cell_setting 'triclinic'
loop_
_space_group_symop_operation_xyz
x,y,z
-x,-y,-z
loop_
_atom_site_type_symbol
_atom_site_label
_atom_site_fract_x
_atom_site_fract_y
_atom_site_fract_z
Si Si1 0.134451 0.129753 0.182099
Si Si2 0.241173 0.660374 0.931710
Si Si3 0.121407 0.443585 0.455889
Si Si4 0.318502 0.095235 0.050138
Si Si5 0.913858 0.084042 0.549846
Si Si6 0.511058 0.935375 0.761944
Si Si7 0.635494 0.637527 0.411261
Si Si8 0.530196 0.600348 0.249059
O O1 0.258296 0.120095 0.064288
O O2 0.373839 0.418139 0.394064
O O3 0.938034 0.022960 0.306585
O O4 0.000000 0.000000 0.000000
O O5 0.136708 0.521740 0.693489
O O6 0.406856 0.712804 0.895530
O O7 0.446130 0.936096 0.149546
O O8 0.000000 0.500000 0.000000
O O9 0.282083 0.464505 0.319772
O O10 0.272514 0.644525 0.545417
O O11 0.856534 0.168963 0.235080
O O12 0.238681 0.126983 0.291913
O O13 0.763151 0.072439 0.695476
O O14 0.199191 0.326914 0.683142
O O15 0.757338 0.884288 0.467364
O O16 0.500000 0.000000 0.000000
O O17 0.584664 0.574877 0.238572
O O18 0.500000 0.500000 0.000000
#
# Coordination Sequence:
#
# PCOD9002757 Si02
#       8
#     2   2   2   2   2   2   2   2
#     4  11  24  40  65  99 136 171 212 275 338 401
#     4  11  25  42  72  93 130 177 226 278 324 387
#     4  10  22  44  65  93 134 169 220 277 323 395
#     4  11  23  41  69  98 132 175 218 269 342 389
#     4  10  21  36  64  91 126 167 214 265 329 393
#     4   9  22  43  64  90 128 175 220 272 322 375
#     4  11  22  39  64  98 134 168 215 270 339 405
#     4  11  20  37  62  96 130 166 208 264 336 393
#
# _framework density 20.776759999999999
#
# number of rings (size 3 to 8) (size 9 to 14) (size 15 to 20)
#    0.000    1.500    1.250    4.875    3.500    1.000 
#    0.000    0.000    2.750    0.000    0.000    0.000 
#    0.000    0.000    0.000    0.000    0.000    0.000 
#
# Total GULP energy -89132.467178 kJ/mol
# GULP energy per Si atom -5570.779199 kJ/mol
# Density = 2.072947 g / cm^3
# Si number density = 20.776760 Si / 1000 Ang^3
#
#
#
# Elastic Constant Matrix: (Units=GPa)
#
#
# Indices 1 2 3 4 5 6 
#
# 1 132.0081 46.6068 43.0357 -7.5228 2.3239 -4.3542
# 2 46.6068 87.1723 32.9734 -13.0656 8.5342 9.1157
# 3 43.0357 32.9734 78.4434 6.0298 2.5094 2.6520
# 4 -7.5228 -13.0656 6.0298 32.7150 3.2302 -2.5771
# 5 2.3239 8.5342 2.5094 3.2302 31.2296 -5.9996
# 6 -4.3542 9.1157 2.6520 -2.5771 -5.9996 28.3728
#
#
#
# Elastic Compliance Matrix: (Units=1/GPa)
#
#
# Indices 1 2 3 4 5 6 
#
# 1 0.010744 -0.004377 -0.004360 0.001703 0.001319 0.003896
# 2 -0.004377 0.018288 -0.005427 0.007391 -0.006287 -0.006698
# 3 -0.004360 -0.005427 0.017939 -0.006641 0.000856 -0.001024
# 4 0.001703 0.007391 -0.006641 0.035697 -0.005179 0.000655
# 5 0.001319 -0.006287 0.000856 -0.005179 0.035887 0.009260
# 6 0.003896 -0.006698 -0.001024 0.000655 0.009260 0.040108
#
#
# Mechanical properties :
#
#
# Convention : Reuss Voigt Hill
#
# Bulk Modulus (GPa) = 53.63405 60.31729 56.97567
# Shear Modulus (GPa) = 25.87944 30.13067 28.00506
#
# Velocity S-wave (km/s) = 3.53313 3.81229 3.67536
# Velocity P-wave (km/s) = 6.52031 6.96220 6.74488
#
# Compressibility (1/GPa) = 0.01864487
#
# Stress axis : x y z
#
# Youngs Moduli (GPa) = 93.07448 54.68111 55.74568
#
# Poissons Ratio (x) = 0.23932 0.24302
# Poissons Ratio (y) = 0.40736 0.30251
# Poissons Ratio (z) = 0.40576 0.29673
#
# Static dielectric constant tensor:
#      x y z
#    x 1.779400 0.017930 0.003120 
#    y 0.017930 1.773730 0.066620 
#    z 0.003120 0.066620 1.798510 
# 
# From -- ./inp_files/467472.got.cif
#   From: 2010.05.17/outbox.cif.g08.bks.cpg/sg2_234_cif.got.tgz:467472.got - 2010.06.03 11:33:40.
