data_PCOD9002963
_publ_section_title
;
Structure prediction by ZEFSAII (Michael W. Deem and Ramdas Pophale) SiO2 
 PCOD9002963
Probable space group: P -1
;
_chemical_formula_sum "Si O2"
_cell_formula_units_Z 14
_cell_length_a 11.089451
_cell_length_b 10.256699
_cell_length_c 9.195146
_cell_angle_alpha 59.782040
_cell_angle_beta 44.277510
_cell_angle_gamma 58.740321
_cell_volume 608.751316
_symmetry_space_group_name_H-M "P -1"
_symmetry_group_IT_number 2
_symmetry_cell_setting 'triclinic'
loop_
_space_group_symop_operation_xyz
x,y,z
-x,-y,-z
loop_
_atom_site_type_symbol
_atom_site_label
_atom_site_fract_x
_atom_site_fract_y
_atom_site_fract_z
Si Si1 0.348433 0.007414 0.830049
Si Si2 0.043399 0.832921 0.885358
Si Si3 0.699079 0.086117 0.767995
Si Si4 0.464008 0.770049 0.620290
Si Si5 0.513477 0.561589 0.291940
Si Si6 0.968109 0.805736 0.617297
Si Si7 0.076647 0.500360 0.096446
O O1 0.382689 0.978961 0.986693
O O2 0.218023 0.064053 0.321008
O O3 0.453904 0.857098 0.733763
O O4 0.132730 0.037274 0.982262
O O5 0.254314 0.824481 0.718113
O O6 0.028316 0.681073 0.076022
O O7 0.007209 0.810675 0.756043
O O8 0.414541 0.154042 0.631986
O O9 0.586650 0.256163 0.722238
O O10 0.881186 0.135683 0.627398
O O11 0.532831 0.581808 0.675954
O O12 0.500000 0.500000 0.500000
O O13 0.711758 0.555529 0.074551
O O14 0.978369 0.625713 0.684468
O O15 0.000000 0.500000 0.000000
#
# Coordination Sequence:
#
# PCOD9002963 Si02
#       7
#     2   2   2   2   2   2   2
#     4  10  22  39  61  84 115 164 186 245 285 338
#     4   9  18  36  61  84 114 151 195 241 284 342
#     4  10  21  37  55  85 118 151 192 235 300 330
#     4  10  22  39  60  87 116 148 212 227 283 356
#     4  11  23  36  59  88 113 152 190 246 290 346
#     4   9  19  36  54  86 119 150 186 239 290 353
#     4   9  18  33  55  83 116 146 189 230 289 348
#
# _framework density 22.997896999999998
#
# number of rings (size 3 to 8) (size 9 to 14) (size 15 to 20)
#    0.000    2.286    0.000    3.000    8.000    1.143 
#    7.714    0.000    0.000    1.714    0.000    0.000 
#    0.000    0.000    0.000    0.000    0.000    0.000 
#
# Total GULP energy -78049.408160 kJ/mol
# GULP energy per Si atom -5574.957726 kJ/mol
# Density = 2.294555 g / cm^3
# Si number density = 22.997897 Si / 1000 Ang^3
#
#
#
# Elastic Constant Matrix: (Units=GPa)
#
#
# Indices 1 2 3 4 5 6 
#
# 1 34.4213 0.3791 -5.3301 2.1184 -10.6227 -1.3106
# 2 0.3791 109.9375 14.0306 -17.2669 7.1099 -14.5289
# 3 -5.3301 14.0306 62.0140 -5.7814 -16.2169 0.9868
# 4 2.1184 -17.2669 -5.7814 33.4994 4.9885 -6.4317
# 5 -10.6227 7.1099 -16.2169 4.9885 23.9917 -2.2164
# 6 -1.3106 -14.5289 0.9868 -6.4317 -2.2164 27.3995
#
#
#
# Elastic Compliance Matrix: (Units=1/GPa)
#
#
# Indices 1 2 3 4 5 6 
#
# 1 0.039880 -0.004530 0.011103 -0.007166 0.027966 -0.000314
# 2 -0.004530 0.013022 -0.005397 0.009228 -0.010676 0.008186
# 3 0.011103 -0.005397 0.024129 -0.003185 0.023297 -0.002063
# 4 -0.007166 0.009228 -0.003185 0.039179 -0.015038 0.012646
# 5 0.027966 -0.010676 0.023297 -0.015038 0.075865 -0.002556
# 6 -0.000314 0.008186 -0.002063 0.012646 -0.002556 0.043658
#
#
# Mechanical properties :
#
#
# Convention : Reuss Voigt Hill
#
# Bulk Modulus (GPa) = 12.59729 24.94799 18.77264
# Shear Modulus (GPa) = 19.24241 30.13100 24.68670
#
# Velocity S-wave (km/s) = 2.89572 3.62354 3.27988
# Velocity P-wave (km/s) = 4.08286 5.32712 4.74595
#
# Compressibility (1/GPa) = 0.07938215
#
# Stress axis : x y z
#
# Youngs Moduli (GPa) = 25.07501 76.79252 41.44426
#
# Poissons Ratio (x) = 0.34787 -0.46014
# Poissons Ratio (y) = 0.11359 0.22368
# Poissons Ratio (z) = -0.27840 0.41446
#
# Static dielectric constant tensor:
#      x y z
#    x 1.971930 0.003250 0.005150 
#    y 0.003250 1.952450 -0.004180 
#    z 0.005150 -0.004180 1.815400 
# 
# From -- ./inp_files/247600.got.cif
#   From: 2010.05.17/outbox.cif.g08.bks.cpg/sg2_124_cif.got.tgz:247600.got - 2010.06.03 11:33:40.
