data_PCOD9002989
_publ_section_title
;
Structure prediction by ZEFSAII (Michael W. Deem and Ramdas Pophale) SiO2 
 PCOD9002989
Probable space group: P -1
;
_chemical_formula_sum "Si O2"
_cell_formula_units_Z 14
_cell_length_a 6.598648
_cell_length_b 7.648507
_cell_length_c 15.998544
_cell_angle_alpha 78.832876
_cell_angle_beta 61.087608
_cell_angle_gamma 56.243814
_cell_volume 584.516813
_symmetry_space_group_name_H-M "P -1"
_symmetry_group_IT_number 2
_symmetry_cell_setting 'triclinic'
loop_
_space_group_symop_operation_xyz
x,y,z
-x,-y,-z
loop_
_atom_site_type_symbol
_atom_site_label
_atom_site_fract_x
_atom_site_fract_y
_atom_site_fract_z
Si Si1 0.515937 0.498755 0.798385
Si Si2 0.435937 0.132833 0.867511
Si Si3 0.271907 0.016857 0.633432
Si Si4 0.125207 0.169429 0.083280
Si Si5 0.190689 0.569951 0.412503
Si Si6 0.035366 0.827372 0.154702
Si Si7 0.682643 0.164226 0.526821
O O1 0.529030 0.281001 0.796574
O O2 0.619918 0.566076 0.691347
O O3 0.736729 0.409631 0.838567
O O4 0.198271 0.663599 0.865485
O O5 0.207179 0.150041 0.852444
O O6 0.696230 0.900736 0.860279
O O7 0.274240 0.225641 0.978942
O O8 0.116950 0.028605 0.746806
O O9 0.504326 0.068649 0.602385
O O10 0.040827 0.218210 0.608775
O O11 0.364801 0.829811 0.564893
O O12 0.162196 0.944806 0.072116
O O13 0.356901 0.632390 0.436355
O O14 0.000000 0.500000 0.500000
O O15 0.000000 0.000000 0.500000
#
# Coordination Sequence:
#
# PCOD9002989 Si02
#       7
#     2   2   2   2   2   2   2
#     4  10  22  39  60  89 122 159 205 251 302 370
#     4  10  21  40  63  88 124 160 197 253 311 366
#     4   9  19  36  56  81 113 158 206 248 304 365
#     4  10  22  38  61  93 121 156 205 249 303 375
#     4  10  21  37  56  84 120 157 204 256 303 358
#     4  10  21  38  59  87 123 157 199 253 306 364
#     4   9  18  34  56  77 107 152 198 247 300 354
#
# _framework density 23.951407
#
# number of rings (size 3 to 8) (size 9 to 14) (size 15 to 20)
#    0.000    2.286    0.000    1.714    0.000    6.857 
#    0.000    2.857    0.000    0.000    0.000    0.000 
#    0.000    0.000    0.000    0.000    0.000    0.000 
#
# Total GULP energy -78109.272299 kJ/mol
# GULP energy per Si atom -5579.233736 kJ/mol
# Density = 2.389689 g / cm^3
# Si number density = 23.951407 Si / 1000 Ang^3
#
#
#
# Elastic Constant Matrix: (Units=GPa)
#
#
# Indices 1 2 3 4 5 6 
#
# 1 177.7459 29.3556 36.7238 -1.8969 -10.3593 -23.2349
# 2 29.3556 87.0642 28.8589 6.3344 0.6826 -23.5082
# 3 36.7238 28.8589 93.0532 -3.4099 -26.7020 -12.8931
# 4 -1.8969 6.3344 -3.4099 34.1477 -7.5179 -10.5568
# 5 -10.3593 0.6826 -26.7020 -7.5179 34.0717 -3.7691
# 6 -23.2349 -23.5082 -12.8931 -10.5568 -3.7691 40.5599
#
#
#
# Elastic Compliance Matrix: (Units=1/GPa)
#
#
# Indices 1 2 3 4 5 6 
#
# 1 0.006636 -0.001059 -0.001179 0.001956 0.001934 0.003502
# 2 -0.001059 0.015187 -0.004888 -0.002622 -0.004422 0.005548
# 3 -0.001179 -0.004888 0.018770 0.008377 0.016986 0.006217
# 4 0.001956 -0.002622 0.008377 0.038857 0.017333 0.013988
# 5 0.001934 -0.004422 0.016986 0.017333 0.048598 0.012972
# 6 0.003502 0.005548 0.006217 0.013988 0.012972 0.036699
#
#
# Mechanical properties :
#
#
# Convention : Reuss Voigt Hill
#
# Bulk Modulus (GPa) = 37.96305 60.85995 49.41150
# Shear Modulus (GPa) = 26.62720 39.28418 32.95569
#
# Velocity S-wave (km/s) = 3.33786 4.05428 3.71339
# Velocity P-wave (km/s) = 5.54432 6.88340 6.24983
#
# Compressibility (1/GPa) = 0.02634140
#
# Stress axis : x y z
#
# Youngs Moduli (GPa) = 150.70000 65.84766 53.27544
#
# Poissons Ratio (x) = 0.06971 0.06280
# Poissons Ratio (y) = 0.15953 0.26043
# Poissons Ratio (z) = 0.17763 0.32188
#
# Static dielectric constant tensor:
#      x y z
#    x 1.946250 -0.013700 0.038740 
#    y -0.013700 2.011380 0.023570 
#    z 0.038740 0.023570 1.926130 
# 
# From -- ./inp_files/547953.got.cif
#   From: 2010.05.17/outbox.cif.g08.bks.cpg/sg2_274_cif.got.tgz:547953.got - 2010.06.03 11:33:40.
