data_PCOD9002782
_publ_section_title
;
Structure prediction by ZEFSAII (Michael W. Deem and Ramdas Pophale) SiO2 
 PCOD9002782
Probable space group: P -1
;
_chemical_formula_sum "Si O2"
_cell_formula_units_Z 14
_cell_length_a 9.763952
_cell_length_b 9.629158
_cell_length_c 11.877190
_cell_angle_alpha 58.974930
_cell_angle_beta 141.840682
_cell_angle_gamma 109.002601
_cell_volume 584.508420
_symmetry_space_group_name_H-M "P -1"
_symmetry_group_IT_number 2
_symmetry_cell_setting 'triclinic'
loop_
_space_group_symop_operation_xyz
x,y,z
-x,-y,-z
loop_
_atom_site_type_symbol
_atom_site_label
_atom_site_fract_x
_atom_site_fract_y
_atom_site_fract_z
Si Si1 0.583431 0.162266 0.947863
Si Si2 0.074710 0.095920 0.395054
Si Si3 0.140418 0.948845 0.277229
Si Si4 0.926899 0.527260 0.753540
Si Si5 0.456898 0.500311 0.105529
Si Si6 0.236108 0.785684 0.178010
Si Si7 0.118995 0.622917 0.453867
O O1 0.486535 0.330037 0.876236
O O2 0.578112 0.174180 0.805275
O O3 0.840301 0.136916 0.161554
O O4 0.500000 0.000000 0.000000
O O5 0.136685 0.277814 0.373216
O O6 0.228486 0.002611 0.433116
O O7 0.000000 0.000000 0.500000
O O8 0.278097 0.845952 0.307157
O O9 0.993715 0.807954 0.281223
O O10 0.998288 0.103101 0.057773
O O11 0.797030 0.403128 0.791992
O O12 0.870869 0.460705 0.624336
O O13 0.196299 0.487516 0.963613
O O14 0.640063 0.366796 0.338865
O O15 0.500000 0.500000 0.000000
O O16 0.000000 0.500000 0.500000
#
# Coordination Sequence:
#
# PCOD9002782 Si02
#       7
#     2   2   2   2   2   2   2
#     4  10  24  40  64  92 123 166 212 275 320 384
#     4  10  21  36  64  97 126 162 215 260 319 371
#     4   9  20  36  65  92 118 171 214 257 314 389
#     4  10  22  41  64  92 129 173 208 268 313 388
#     4  11  24  38  61  99 126 165 217 263 318 384
#     4   9  20  42  66  88 125 172 218 255 339 375
#     4  11  21  37  65  91 130 169 210 258 327 377
#
# _framework density 23.951750000000001
#
# number of rings (size 3 to 8) (size 9 to 14) (size 15 to 20)
#    0.000    2.000    1.429    0.857    8.000    6.286 
#    0.000    3.571   12.571    0.000    0.000    0.000 
#    0.000    0.000    0.000    0.000    0.000    0.000 
#
# Total GULP energy -77988.871403 kJ/mol
# GULP energy per Si atom -5570.633672 kJ/mol
# Density = 2.389723 g / cm^3
# Si number density = 23.951750 Si / 1000 Ang^3
#
#
#
# Elastic Constant Matrix: (Units=GPa)
#
#
# Indices 1 2 3 4 5 6 
#
# 1 73.2148 41.9362 14.9751 -1.9868 -21.5069 -0.9006
# 2 41.9362 168.2665 21.1673 -26.0204 -18.7589 -10.4914
# 3 14.9751 21.1673 94.4049 6.7963 -1.6216 0.9954
# 4 -1.9868 -26.0204 6.7963 35.6866 3.8162 -12.3325
# 5 -21.5069 -18.7589 -1.6216 3.8162 38.0673 4.4094
# 6 -0.9006 -10.4914 0.9954 -12.3325 4.4094 44.6758
#
#
#
# Elastic Compliance Matrix: (Units=1/GPa)
#
#
# Indices 1 2 3 4 5 6 
#
# 1 0.018978 -0.004194 -0.001632 -0.003523 0.009223 -0.002449
# 2 -0.004194 0.008773 -0.001903 0.007891 0.000603 0.004137
# 3 -0.001632 -0.001903 0.011591 -0.004243 -0.000728 -0.001837
# 4 -0.003523 0.007891 -0.004243 0.039313 -0.003741 0.013098
# 5 0.009223 0.000603 -0.000728 -0.003741 0.032573 -0.003904
# 6 -0.002449 0.004137 -0.001837 0.013098 -0.003904 0.027347
#
#
# Mechanical properties :
#
#
# Convention : Reuss Voigt Hill
#
# Bulk Modulus (GPa) = 41.87047 54.67149 48.27098
# Shear Modulus (GPa) = 30.86535 40.87312 35.86923
#
# Velocity S-wave (km/s) = 3.59367 4.13543 3.87403
# Velocity P-wave (km/s) = 5.89393 6.75852 6.34098
#
# Compressibility (1/GPa) = 0.02388318
#
# Stress axis : x y z
#
# Youngs Moduli (GPa) = 52.69326 113.98855 86.27660
#
# Poissons Ratio (x) = 0.47803 0.14082
# Poissons Ratio (y) = 0.22098 0.16420
# Poissons Ratio (z) = 0.08601 0.21693
#
# Static dielectric constant tensor:
#      x y z
#    x 14.991740 -2.017860 -2.738930 
#    y -2.017860 2.426250 0.296930 
#    z -2.738930 0.296930 2.638560 
# 
# From -- ./inp_files/416720.got.cif
#   From: 2010.05.17/outbox.cif.g08.bks.cpg/sg2_209_cif.got.tgz:416720.got - 2010.06.03 11:33:40.
