data_PCOD9002867
_publ_section_title
;
Structure prediction by ZEFSAII (Michael W. Deem and Ramdas Pophale) SiO2 
 PCOD9002867
Probable space group: P -1
;
_chemical_formula_sum "Si O2"
_cell_formula_units_Z 16
_cell_length_a 9.300841
_cell_length_b 15.853739
_cell_length_c 8.575595
_cell_angle_alpha 126.907770
_cell_angle_beta 79.970235
_cell_angle_gamma 128.624536
_cell_volume 748.045341
_symmetry_space_group_name_H-M "P -1"
_symmetry_group_IT_number 2
_symmetry_cell_setting 'triclinic'
loop_
_space_group_symop_operation_xyz
x,y,z
-x,-y,-z
loop_
_atom_site_type_symbol
_atom_site_label
_atom_site_fract_x
_atom_site_fract_y
_atom_site_fract_z
Si Si1 0.608870 0.640055 0.236422
Si Si2 0.085829 0.988837 0.732893
Si Si3 0.078574 0.665432 0.069913
Si Si4 0.959210 0.115400 0.705364
Si Si5 0.323674 0.625929 0.121657
Si Si6 0.432887 0.272249 0.127024
Si Si7 0.162202 0.544488 0.641440
Si Si8 0.213483 0.322466 0.429759
O O1 0.813680 0.766931 0.258681
O O2 0.460822 0.667647 0.287580
O O3 0.652116 0.623648 0.383293
O O4 0.500000 0.500000 0.000000
O O5 0.144955 0.974191 0.532948
O O6 0.962367 0.840452 0.676830
O O7 0.957970 0.030931 0.752353
O O8 0.262514 0.108558 0.940812
O O9 0.230228 0.697548 0.207129
O O10 0.106703 0.797068 0.152967
O O11 0.108095 0.592418 0.850731
O O12 0.858953 0.541416 0.030368
O O13 0.455906 0.666972 0.991189
O O14 0.604649 0.325140 0.274849
O O15 0.328246 0.328107 0.268371
O O16 0.150938 0.412991 0.521074
O O17 0.000000 0.500000 0.500000
#
# Coordination Sequence:
#
# PCOD9002867 Si02
#       8
#     2   2   2   2   2   2   2   2
#     4  11  19  35  66 100 125 167 225 280 318 382
#     4  10  23  41  68  98 130 178 230 272 327 392
#     4  10  22  39  66  96 137 172 214 279 339 390
#     4  10  21  38  67  95 134 174 223 274 324 395
#     4  10  21  36  66  97 130 166 218 272 338 385
#     4  11  23  45  68  98 133 177 226 277 326 396
#     4  11  27  44  66 103 135 176 220 277 345 402
#     4  11  26  43  71  99 134 176 225 278 333 396
#
# _framework density 21.389078000000001
#
# number of rings (size 3 to 8) (size 9 to 14) (size 15 to 20)
#    0.000    1.500    2.500    2.250   10.500    0.000 
#    0.000    3.125    2.750    0.000    0.000    0.000 
#    0.000    0.000    0.000    0.000    0.000    0.000 
#
# Total GULP energy -89322.335978 kJ/mol
# GULP energy per Si atom -5582.645999 kJ/mol
# Density = 2.134040 g / cm^3
# Si number density = 21.389078 Si / 1000 Ang^3
#
#
#
# Elastic Constant Matrix: (Units=GPa)
#
#
# Indices 1 2 3 4 5 6 
#
# 1 151.8487 55.8558 67.4812 5.1235 1.8815 -36.0836
# 2 55.8558 64.5749 46.2287 12.9022 -0.3797 -16.4207
# 3 67.4812 46.2287 130.6951 19.2076 7.5120 -11.5505
# 4 5.1235 12.9022 19.2076 24.1900 -4.8666 -2.2114
# 5 1.8815 -0.3797 7.5120 -4.8666 38.3826 -9.8818
# 6 -36.0836 -16.4207 -11.5505 -2.2114 -9.8818 38.4091
#
#
#
# Elastic Compliance Matrix: (Units=1/GPa)
#
#
# Indices 1 2 3 4 5 6 
#
# 1 0.013101 -0.006900 -0.004594 0.006060 0.003320 0.009179
# 2 -0.006900 0.027480 -0.004591 -0.008943 0.001331 0.003712
# 3 -0.004594 -0.004591 0.012703 -0.007908 -0.004347 -0.004032
# 4 0.006060 -0.008943 -0.007908 0.053408 0.009204 0.004935
# 5 0.003320 0.001331 -0.004347 0.009204 0.030705 0.010810
# 6 0.009179 0.003712 -0.004032 0.004935 0.010810 0.038099
#
#
# Mechanical properties :
#
#
# Convention : Reuss Voigt Hill
#
# Bulk Modulus (GPa) = 47.36455 76.25002 61.80729
# Shear Modulus (GPa) = 23.28785 32.03321 27.66053
#
# Velocity S-wave (km/s) = 3.30324 3.87414 3.60002
# Velocity P-wave (km/s) = 6.06142 7.46581 6.79997
#
# Compressibility (1/GPa) = 0.02111284
#
# Stress axis : x y z
#
# Youngs Moduli (GPa) = 76.33095 36.38985 78.72156
#
# Poissons Ratio (x) = 0.25111 0.36163
# Poissons Ratio (y) = 0.52672 0.36144
# Poissons Ratio (z) = 0.35065 0.16708
#
# Static dielectric constant tensor:
#      x y z
#    x 1.845330 -0.032790 0.025790 
#    y -0.032790 1.828470 -0.025790 
#    z 0.025790 -0.025790 1.828860 
# 
# From -- ./inp_files/396405.got.cif
#   From: 2010.05.17/outbox.cif.g08.bks.cpg/sg2_199_cif.got.tgz:396405.got - 2010.06.03 11:33:40.
