data_PCOD9002249
_publ_section_title
;
Structure prediction by ZEFSAII (Michael W. Deem and Ramdas Pophale) SiO2 
 PCOD9002249
Probable space group: P -1
;
_chemical_formula_sum "Si O2"
_cell_formula_units_Z 16
_cell_length_a 8.641300
_cell_length_b 6.028917
_cell_length_c 23.733878
_cell_angle_alpha 57.759662
_cell_angle_beta 51.546630
_cell_angle_gamma 80.522224
_cell_volume 792.523061
_symmetry_space_group_name_H-M "P -1"
_symmetry_group_IT_number 2
_symmetry_cell_setting 'triclinic'
loop_
_space_group_symop_operation_xyz
x,y,z
-x,-y,-z
loop_
_atom_site_type_symbol
_atom_site_label
_atom_site_fract_x
_atom_site_fract_y
_atom_site_fract_z
Si Si1 0.144948 0.064722 0.866131
Si Si2 0.867039 0.266861 0.984551
Si Si3 0.171322 0.746366 0.454394
Si Si4 0.188391 0.293045 0.234624
Si Si5 0.866230 0.818784 0.860797
Si Si6 0.045329 0.303603 0.383749
Si Si7 0.528629 0.114211 0.915367
Si Si8 0.385875 0.801257 0.290346
O O1 0.384877 0.161505 0.787421
O O2 0.050678 0.260363 0.900782
O O3 0.027829 0.004403 0.841339
O O4 0.095162 0.786382 0.951745
O O5 0.794480 0.531500 0.948406
O O6 0.690690 0.995195 0.047525
O O7 0.366182 0.766971 0.367532
O O8 0.000000 0.500000 0.500000
O O9 0.151338 0.697089 0.532775
O O10 0.103617 0.022180 0.421146
O O11 0.072281 0.234389 0.209394
O O12 0.039621 0.327132 0.314711
O O13 0.367056 0.569144 0.151617
O O14 0.296880 0.056622 0.259173
O O15 0.683930 0.961479 0.873349
O O16 0.233063 0.543594 0.330694
O O17 0.500000 0.000000 0.000000
#
# Coordination Sequence:
#
# PCOD9002249 Si02
#       8
#     2   2   2   2   2   2   2   2
#     4  11  24  37  52  79 113 149 192 231 280 340
#     4  11  24  39  55  75 107 152 196 241 284 327
#     4   8  16  32  58  89 116 142 175 228 282 329
#     4  11  22  35  58  85 112 148 189 239 283 330
#     4  12  23  38  55  77 108 152 192 238 285 329
#     4   9  17  34  57  88 116 140 183 228 277 336
#     4  12  23  39  57  79 108 147 199 245 279 324
#     4  10  21  36  59  86 116 149 184 230 282 336
#
# _framework density 20.188686000000001
#
# number of rings (size 3 to 8) (size 9 to 14) (size 15 to 20)
#    0.000    1.500    2.500    3.000    1.750    4.000 
#    0.000    0.000    0.000    0.750    0.000   38.500 
#    0.000    0.000    0.000    0.000    0.000    0.000 
#
# Total GULP energy -89250.583663 kJ/mol
# GULP energy per Si atom -5578.161479 kJ/mol
# Density = 2.014274 g / cm^3
# Si number density = 20.188686 Si / 1000 Ang^3
#
#
#
# Elastic Constant Matrix: (Units=GPa)
#
#
# Indices 1 2 3 4 5 6 
#
# 1 52.1114 7.8245 31.0779 18.1126 6.9593 1.3992
# 2 7.8245 82.4991 45.4150 -9.6892 -5.3732 -1.9730
# 3 31.0779 45.4150 133.5338 27.8733 10.0873 8.0555
# 4 18.1126 -9.6892 27.8733 50.9408 8.5366 12.2995
# 5 6.9593 -5.3732 10.0873 8.5366 22.7683 11.9265
# 6 1.3992 -1.9730 8.0555 12.2995 11.9265 17.5090
#
#
#
# Elastic Compliance Matrix: (Units=1/GPa)
#
#
# Indices 1 2 3 4 5 6 
#
# 1 0.025615 -0.001928 -0.003444 -0.008906 -0.009858 0.012291
# 2 -0.001928 0.017853 -0.007614 0.008253 0.008005 -0.005582
# 3 -0.003444 -0.007614 0.012527 -0.006662 -0.004545 0.001430
# 4 -0.008906 0.008253 -0.006662 0.032336 0.007666 -0.023230
# 5 -0.009858 0.008005 -0.004545 0.007666 0.075876 -0.053288
# 6 0.012291 -0.005582 0.001430 -0.023230 -0.053288 0.107461
#
#
# Mechanical properties :
#
#
# Convention : Reuss Voigt Hill
#
# Bulk Modulus (GPa) = 33.30636 48.53104 40.91870
# Shear Modulus (GPa) = 16.25240 30.49875 23.37557
#
# Velocity S-wave (km/s) = 2.84037 3.89097 3.40642
# Velocity P-wave (km/s) = 5.22401 6.65410 5.98195
#
# Compressibility (1/GPa) = 0.03002429
#
# Stress axis : x y z
#
# Youngs Moduli (GPa) = 39.04020 56.01389 79.82521
#
# Poissons Ratio (x) = 0.10798 0.27489
# Poissons Ratio (y) = 0.07526 0.60778
# Poissons Ratio (z) = 0.13444 0.42648
#
# Static dielectric constant tensor:
#      x y z
#    x 1.774070 0.026680 0.056760 
#    y 0.026680 1.791070 0.066530 
#    z 0.056760 0.066530 1.774310 
# 
# From -- ./inp_files/39424.got.cif
#   From: 2010.05.17/outbox.cif.g08.bks.cpg/sg2_20_cif.got.tgz:39424.got - 2010.06.03 11:33:40.
