data_PCOD9002883
_publ_section_title
;
Structure prediction by ZEFSAII (Michael W. Deem and Ramdas Pophale) SiO2 
 PCOD9002883
Probable space group: P -1
;
_chemical_formula_sum "Si O2"
_cell_formula_units_Z 14
_cell_length_a 12.685013
_cell_length_b 10.077420
_cell_length_c 18.926822
_cell_angle_alpha 67.440013
_cell_angle_beta 58.556918
_cell_angle_gamma 22.691379
_cell_volume 760.457403
_symmetry_space_group_name_H-M "P -1"
_symmetry_group_IT_number 2
_symmetry_cell_setting 'triclinic'
loop_
_space_group_symop_operation_xyz
x,y,z
-x,-y,-z
loop_
_atom_site_type_symbol
_atom_site_label
_atom_site_fract_x
_atom_site_fract_y
_atom_site_fract_z
Si Si1 0.330851 0.585717 0.823520
Si Si2 0.595024 0.013025 0.783387
Si Si3 0.382031 0.707806 0.067379
Si Si4 0.234773 0.466795 0.676100
Si Si5 0.355405 0.072648 0.969321
Si Si6 0.721527 0.139219 0.526151
Si Si7 0.829033 0.156084 0.640080
O O1 0.477315 0.271847 0.820274
O O2 0.406942 0.541216 0.886804
O O3 0.513589 0.494592 0.724526
O O4 0.967640 0.966886 0.859631
O O5 0.381190 0.251696 0.740593
O O6 0.535124 0.934210 0.864991
O O7 0.954829 0.661244 0.711920
O O8 0.500000 0.500000 0.000000
O O9 0.374487 0.884052 0.015192
O O10 0.527726 0.198602 0.579438
O O11 0.065198 0.803987 0.674822
O O12 0.000000 0.500000 0.000000
O O13 0.500000 0.000000 0.000000
O O14 0.500000 0.500000 0.500000
O O15 0.788683 0.108365 0.590801
O O16 0.029247 0.842905 0.433723
#
# Coordination Sequence:
#
# PCOD9002883 Si02
#       7
#     2   2   2   2   2   2   2
#     4  11  20  35  56  74 107 145 188 216 278 325
#     4  11  19  30  51  75 100 134 182 217 261 317
#     4  12  25  40  55  78 111 148 187 235 277 317
#     4  10  17  28  43  69 107 139 163 211 265 319
#     4  12  22  36  56  81 104 138 188 235 275 329
#     4   9  16  26  42  71 110 141 166 205 270 328
#     4   9  18  27  45  71 104 146 171 209 262 339
#
# _framework density 18.409973000000001
#
# number of rings (size 3 to 8) (size 9 to 14) (size 15 to 20)
#    0.000    1.429    5.714    3.000    2.000    0.000 
#    0.000    0.000    0.000    0.000    0.000    0.000 
#    0.000    6.857    0.000    0.000    0.000    0.000 
#
# Total GULP energy -78048.045804 kJ/mol
# GULP energy per Si atom -5574.860415 kJ/mol
# Density = 1.836807 g / cm^3
# Si number density = 18.409973 Si / 1000 Ang^3
#
#
#
# Elastic Constant Matrix: (Units=GPa)
#
#
# Indices 1 2 3 4 5 6 
#
# 1 49.7440 33.7281 24.4974 4.1262 -8.3359 -15.3170
# 2 33.7281 52.9160 24.1691 -14.7934 -5.9647 -24.6247
# 3 24.4974 24.1691 106.5691 -8.8587 -34.2920 -2.4462
# 4 4.1262 -14.7934 -8.8587 30.5080 -11.3986 4.8135
# 5 -8.3359 -5.9647 -34.2920 -11.3986 36.1973 5.3119
# 6 -15.3170 -24.6247 -2.4462 4.8135 5.3119 26.3422
#
#
#
# Elastic Compliance Matrix: (Units=1/GPa)
#
#
# Indices 1 2 3 4 5 6 
#
# 1 0.054520 -0.039933 -0.012376 -0.037722 -0.018183 0.003782
# 2 -0.039933 0.073253 -0.000399 0.038558 0.009313 0.036297
# 3 -0.012376 -0.000399 0.022238 0.020193 0.026648 -0.014567
# 4 -0.037722 0.038558 0.020193 0.079619 0.042928 -0.007219
# 5 -0.018183 0.009313 0.026648 0.042928 0.066775 -0.020702
# 6 0.003782 0.036297 -0.014567 -0.007219 -0.020702 0.078232
#
#
# Mechanical properties :
#
#
# Convention : Reuss Voigt Hill
#
# Bulk Modulus (GPa) = 22.42376 41.55760 31.99068
# Shear Modulus (GPa) = 10.10269 27.06514 18.58391
#
# Velocity S-wave (km/s) = 2.34511 3.83839 3.18063
# Velocity P-wave (km/s) = 4.42034 6.50129 5.55905
#
# Compressibility (1/GPa) = 0.04459555
#
# Stress axis : x y z
#
# Youngs Moduli (GPa) = 18.34182 13.65133 44.96821
#
# Poissons Ratio (x) = 0.54514 0.55653
# Poissons Ratio (y) = 0.73244 0.01793
# Poissons Ratio (z) = 0.22700 0.00544
#
# Static dielectric constant tensor:
#      x y z
#    x 1.653140 -0.041620 -0.039850 
#    y -0.041620 1.649790 0.021320 
#    z -0.039850 0.021320 1.727650 
# 
# From -- ./inp_files/111527.got.cif
#   From: 2010.05.17/outbox.cif.g08.bks.cpg/sg2_56_cif.got.tgz:111527.got - 2010.06.03 11:33:40.
