data_PCOD9002532
_publ_section_title
;
Structure prediction by ZEFSAII (Michael W. Deem and Ramdas Pophale) SiO2 
 PCOD9002532
Probable space group: P -1
;
_chemical_formula_sum "Si O2"
_cell_formula_units_Z 12
_cell_length_a 5.323400
_cell_length_b 19.719770
_cell_length_c 9.688963
_cell_angle_alpha 139.388303
_cell_angle_beta 112.177142
_cell_angle_gamma 77.208885
_cell_volume 609.495975
_symmetry_space_group_name_H-M "P -1"
_symmetry_group_IT_number 2
_symmetry_cell_setting 'triclinic'
loop_
_space_group_symop_operation_xyz
x,y,z
-x,-y,-z
loop_
_atom_site_type_symbol
_atom_site_label
_atom_site_fract_x
_atom_site_fract_y
_atom_site_fract_z
Si Si1 0.961390 0.295378 0.487252
Si Si2 0.760968 0.436097 0.440871
Si Si3 0.722103 0.196854 0.026839
Si Si4 0.451278 0.386612 0.879707
Si Si5 0.969391 0.298267 0.800649
Si Si6 0.897331 0.882575 0.254142
O O1 0.873619 0.400446 0.558315
O O2 0.847426 0.277026 0.588762
O O3 0.281571 0.314457 0.617718
O O4 0.865739 0.205452 0.220110
O O5 0.500000 0.500000 0.500000
O O6 0.000000 0.500000 0.500000
O O7 0.685467 0.319695 0.181331
O O8 0.424765 0.133308 0.869433
O O9 0.922138 0.153454 0.890664
O O10 0.737077 0.346623 0.911448
O O11 0.238034 0.377931 0.948113
O O12 0.500000 0.500000 0.000000
O O13 0.054927 0.195908 0.731972
O O14 0.000000 0.000000 0.500000
#
# Coordination Sequence:
#
# PCOD9002532 Si02
#       6
#     2   2   2   2   2   2
#     4   8  24  38  64  86 133 160 213 254 312 368
#     4  10  21  36  61  94 128 167 209 249 314 378
#     4  10  24  42  65  93 133 161 217 274 314 384
#     4  10  21  38  63  92 131 169 211 246 319 381
#     4  10  23  41  62  89 131 161 214 267 310 382
#     4  12  25  46  68  94 124 171 220 281 339 369
#
# _framework density 19.688400999999999
#
# number of rings (size 3 to 8) (size 9 to 14) (size 15 to 20)
#    2.000    0.000    0.000    3.000    4.667    4.000 
#    0.000    1.667    0.000    0.000    0.000    0.000 
#    0.000    0.000    0.000    0.000    0.000    0.000 
#
# Total GULP energy -66842.164191 kJ/mol
# GULP energy per Si atom -5570.180349 kJ/mol
# Density = 1.964359 g / cm^3
# Si number density = 19.688401 Si / 1000 Ang^3
#
#
#
# Elastic Constant Matrix: (Units=GPa)
#
#
# Indices 1 2 3 4 5 6 
#
# 1 152.8060 12.7762 37.6786 -5.6776 15.2660 6.0646
# 2 12.7762 34.1469 -12.7440 -10.8835 0.8244 2.8047
# 3 37.6786 -12.7440 86.7733 -0.0219 16.0309 13.6357
# 4 -5.6776 -10.8835 -0.0219 28.6580 5.7654 -4.5849
# 5 15.2660 0.8244 16.0309 5.7654 32.8180 -2.4410
# 6 6.0646 2.8047 13.6357 -4.5849 -2.4410 15.4798
#
#
#
# Elastic Compliance Matrix: (Units=1/GPa)
#
#
# Indices 1 2 3 4 5 6 
#
# 1 0.008039 -0.004407 -0.003988 0.000417 -0.001678 0.001021
# 2 -0.004407 0.040995 0.011434 0.014269 -0.008025 -0.012812
# 3 -0.003988 0.011434 0.019695 0.002573 -0.009892 -0.018656
# 4 0.000417 0.014269 0.002573 0.043214 -0.008926 0.006377
# 5 -0.001678 -0.008025 -0.009892 -0.008926 0.038918 0.014318
# 6 0.001021 -0.012812 -0.018656 0.006377 0.014318 0.087102
#
#
# Mechanical properties :
#
#
# Convention : Reuss Voigt Hill
#
# Bulk Modulus (GPa) = 13.36781 38.79422 26.08101
# Shear Modulus (GPa) = 19.46890 31.12554 25.29722
#
# Velocity S-wave (km/s) = 3.14801 3.98038 3.58841
# Velocity P-wave (km/s) = 4.47412 6.39307 5.51766
#
# Compressibility (1/GPa) = 0.07480657
#
# Stress axis : x y z
#
# Youngs Moduli (GPa) = 124.39915 24.39323 50.77444
#
# Poissons Ratio (x) = 0.10749 0.20249
# Poissons Ratio (y) = 0.54817 -0.58053
# Poissons Ratio (z) = 0.49611 -0.27890
#
# Static dielectric constant tensor:
#      x y z
#    x 2.210690 0.076360 -0.082880 
#    y 0.076360 1.730280 -0.066160 
#    z -0.082880 -0.066160 1.723540 
# 
# From -- ./inp_files/369904.got.cif
#   From: 2010.05.17/outbox.cif.g08.bks.cpg/sg2_185_cif.got.tgz:369904.got - 2010.06.03 11:33:40.
