data_PCOD9002198
_publ_section_title
;
Structure prediction by ZEFSAII (Michael W. Deem and Ramdas Pophale) SiO2 
 PCOD9002198
Probable space group: P -1
;
_chemical_formula_sum "Si O2"
_cell_formula_units_Z 12
_cell_length_a 11.857491
_cell_length_b 13.331333
_cell_length_c 9.406046
_cell_angle_alpha 46.804698
_cell_angle_beta 38.510996
_cell_angle_gamma 29.425488
_cell_volume 454.827533
_symmetry_space_group_name_H-M "P -1"
_symmetry_group_IT_number 2
_symmetry_cell_setting 'triclinic'
loop_
_space_group_symop_operation_xyz
x,y,z
-x,-y,-z
loop_
_atom_site_type_symbol
_atom_site_label
_atom_site_fract_x
_atom_site_fract_y
_atom_site_fract_z
Si Si1 0.112250 0.135726 0.717014
Si Si2 0.651275 0.263498 0.596327
Si Si3 0.794054 0.657721 0.174289
Si Si4 0.659304 0.704443 0.561511
Si Si5 0.555398 0.365354 0.908956
Si Si6 0.974722 0.184880 0.109374
O O1 0.182683 0.254240 0.568192
O O2 0.830967 0.274163 0.783490
O O3 0.366361 0.928958 0.585759
O O4 0.103052 0.066230 0.948641
O O5 0.500000 0.500000 0.500000
O O6 0.485936 0.231827 0.721446
O O7 0.634253 0.248998 0.795960
O O8 0.905901 0.141199 0.361389
O O9 0.806828 0.576466 0.395125
O O10 0.000000 0.500000 0.000000
O O11 0.855471 0.779536 0.037835
O O12 0.588056 0.641892 0.819321
O O13 0.320615 0.603082 0.864043
#
# Coordination Sequence:
#
# PCOD9002198 Si02
#       6
#     2   2   2   2   2   2
#     4  10  22  42  60  85 124 155 195 241 299 349
#     4  10  21  36  58  91 121 151 190 243 300 339
#     4  11  20  39  61  83 119 157 195 241 290 349
#     4  10  24  40  61  87 118 161 195 240 297 350
#     4  11  21  36  63  95 112 153 202 248 285 343
#     4  10  22  39  62  90 117 158 193 244 294 347
#
# _framework density 26.383624999999999
#
# number of rings (size 3 to 8) (size 9 to 14) (size 15 to 20)
#    0.000    1.667    3.333    2.000    0.000    8.000 
#    0.000    3.333    0.000    6.000    0.000    0.000 
#    0.000    0.000    0.000    0.000    0.000    0.000 
#
# Total GULP energy -67181.706176 kJ/mol
# GULP energy per Si atom -5598.475515 kJ/mol
# Density = 2.632357 g / cm^3
# Si number density = 26.383625 Si / 1000 Ang^3
#
#
#
# Elastic Constant Matrix: (Units=GPa)
#
#
# Indices 1 2 3 4 5 6 
#
# 1 192.1481 31.5029 99.5239 -1.2485 10.4377 -15.5966
# 2 31.5029 56.9476 44.4195 9.9854 9.3100 0.9214
# 3 99.5239 44.4195 230.9765 1.4810 22.9517 -18.5446
# 4 -1.2485 9.9854 1.4810 49.6581 0.7854 21.9987
# 5 10.4377 9.3100 22.9517 0.7854 74.5283 15.6263
# 6 -15.5966 0.9214 -18.5446 21.9987 15.6263 37.0785
#
#
#
# Elastic Compliance Matrix: (Units=1/GPa)
#
#
# Indices 1 2 3 4 5 6 
#
# 1 0.006961 -0.001868 -0.002423 -0.000316 -0.000440 0.002136
# 2 -0.001868 0.022169 -0.003244 -0.004559 -0.001544 0.000397
# 3 -0.002423 -0.003244 0.006536 -0.001349 -0.002096 0.004014
# 4 -0.000316 -0.004559 -0.001349 0.030195 0.005060 -0.020742
# 5 -0.000440 -0.001544 -0.002096 0.005060 0.016612 -0.011198
# 6 0.002136 0.000397 0.004014 -0.020742 -0.011198 0.046891
#
#
# Mechanical properties :
#
#
# Convention : Reuss Voigt Hill
#
# Bulk Modulus (GPa) = 48.55166 92.32941 70.44053
# Shear Modulus (GPa) = 33.04696 52.56137 42.80417
#
# Velocity S-wave (km/s) = 3.54299 4.46825 4.03224
# Velocity P-wave (km/s) = 5.93120 7.85438 6.95954
#
# Compressibility (1/GPa) = 0.02059662
#
# Stress axis : x y z
#
# Youngs Moduli (GPa) = 143.66458 45.10777 152.98844
#
# Poissons Ratio (x) = 0.08426 0.37066
# Poissons Ratio (y) = 0.26836 0.49630
# Poissons Ratio (z) = 0.34807 0.14633
#
# Static dielectric constant tensor:
#      x y z
#    x 2.005620 0.023680 -0.000730 
#    y 0.023680 2.306220 -0.073230 
#    z -0.000730 -0.073230 2.037970 
# 
# From -- ./inp_files/230922.got.cif
#   From: 2010.05.17/outbox.cif.g08.bks.cpg/sg2_116_cif.got.tgz:230922.got - 2010.06.03 11:33:40.
