data_PCOD9002839
_publ_section_title
;
Structure prediction by ZEFSAII (Michael W. Deem and Ramdas Pophale) SiO2 
 PCOD9002839
Probable space group: P -1
;
_chemical_formula_sum "Si O2"
_cell_formula_units_Z 15
_cell_length_a 12.412377
_cell_length_b 8.784310
_cell_length_c 11.710374
_cell_angle_alpha 117.951093
_cell_angle_beta 35.561266
_cell_angle_gamma 131.546965
_cell_volume 548.343340
_symmetry_space_group_name_H-M "P -1"
_symmetry_group_IT_number 2
_symmetry_cell_setting 'triclinic'
loop_
_space_group_symop_operation_xyz
x,y,z
-x,-y,-z
loop_
_atom_site_type_symbol
_atom_site_label
_atom_site_fract_x
_atom_site_fract_y
_atom_site_fract_z
Si Si1 0.068542 0.766552 0.416279
Si Si2 0.488152 0.007360 0.782460
Si Si3 0.182759 0.476304 0.085448
Si Si4 0.000000 0.500000 0.000000
Si Si5 0.079940 0.863640 0.198490
Si Si6 0.441826 0.789256 0.538043
Si Si7 0.935744 0.028527 0.193062
Si Si8 0.399739 0.569234 0.280055
O O1 0.269124 0.938725 0.380390
O O2 0.015395 0.849687 0.378759
O O3 0.837497 0.613537 0.625158
O O4 0.169010 0.639955 0.231936
O O5 0.520361 0.211565 0.769953
O O6 0.345535 0.804796 0.748591
O O7 0.339450 0.944354 0.999297
O O8 0.408619 0.477961 0.904586
O O9 0.980637 0.253567 0.225546
O O10 0.127642 0.486501 0.004766
O O11 0.946525 0.648643 0.171752
O O12 0.073866 0.019409 0.172691
O O13 0.343065 0.604915 0.470395
O O14 0.500000 0.000000 0.500000
O O15 0.687025 0.845350 0.367340
O O16 0.000000 0.000000 0.000000
#
# Coordination Sequence:
#
# PCOD9002839 Si02
#       8
#     2   2   2   1   2   2   2   2
#     4  11  27  45  66 100 147 182 224 288 348 404
#     4  11  23  45  69  96 139 188 230 274 348 419
#     4  11  22  42  70 100 137 178 228 281 346 402
#     4  10  22  36  66 104 130 166 218 296 336 382
#     4  11  23  42  67  96 137 181 225 282 347 409
#     4  10  21  36  66 103 125 169 231 289 329 398
#     4  12  19  40  68 101 133 172 233 282 339 415
#     4  11  22  43  71 103 135 176 240 286 337 405
#
# _framework density 27.355124
#
# number of rings (size 3 to 8) (size 9 to 14) (size 15 to 20)
#    0.000    1.067    4.000    3.200    3.733    0.533 
#    7.200    4.000    0.000    0.000    0.000    0.000 
#    0.000    0.000    0.000    0.000    0.000    0.000 
#
# Total GULP energy -83819.943360 kJ/mol
# GULP energy per Si atom -5587.996224 kJ/mol
# Density = 2.729286 g / cm^3
# Si number density = 27.355124 Si / 1000 Ang^3
#
#
#
# Elastic Constant Matrix: (Units=GPa)
#
#
# Indices 1 2 3 4 5 6 
#
# 1 134.1035 43.4482 20.3362 10.7924 -10.9359 -9.2024
# 2 43.4482 94.1879 29.5301 18.1244 14.8240 10.6513
# 3 20.3362 29.5301 87.2312 15.9484 -11.5841 -2.3515
# 4 10.7924 18.1244 15.9484 48.0221 9.8535 7.4530
# 5 -10.9359 14.8240 -11.5841 9.8535 46.0480 -10.6194
# 6 -9.2024 10.6513 -2.3515 7.4530 -10.6194 51.6259
#
#
#
# Elastic Compliance Matrix: (Units=1/GPa)
#
#
# Indices 1 2 3 4 5 6 
#
# 1 0.010342 -0.006200 0.001101 -0.002404 0.006356 0.004827
# 2 -0.006200 0.017882 -0.006182 -0.000040 -0.010440 -0.007218
# 3 0.001101 -0.006182 0.015562 -0.005547 0.008442 0.004718
# 4 -0.002404 -0.000040 -0.005547 0.026036 -0.008972 -0.006277
# 5 0.006356 -0.010440 0.008442 -0.008972 0.033358 0.011829
# 6 0.004827 -0.007218 0.004718 -0.006277 0.011829 0.025274
#
#
# Mechanical properties :
#
#
# Convention : Reuss Voigt Hill
#
# Bulk Modulus (GPa) = 47.11255 55.79464 51.45359
# Shear Modulus (GPa) = 31.62762 43.95308 37.79035
#
# Velocity S-wave (km/s) = 3.40396 4.01279 3.72085
# Velocity P-wave (km/s) = 5.71920 6.47384 6.10819
#
# Compressibility (1/GPa) = 0.02122577
#
# Stress axis : x y z
#
# Youngs Moduli (GPa) = 96.69758 55.92159 64.25886
#
# Poissons Ratio (x) = 0.34669 -0.07078
# Poissons Ratio (y) = 0.59949 0.39724
# Poissons Ratio (z) = -0.10651 0.34570
#
# Static dielectric constant tensor:
#      x y z
#    x 2.234540 -0.015690 -0.056430 
#    y -0.015690 2.073200 0.093820 
#    z -0.056430 0.093820 2.075480 
# 
# From -- ./inp_files/172687.got.cif
#   From: 2010.05.17/outbox.cif.g08.bks.cpg/sg2_87_cif.got.tgz:172687.got - 2010.06.03 11:33:40.
