data_PCOD9002314
_publ_section_title
;
Structure prediction by ZEFSAII (Michael W. Deem and Ramdas Pophale) SiO2 
 PCOD9002314
Probable space group: P -1
;
_chemical_formula_sum "Si O2"
_cell_formula_units_Z 14
_cell_length_a 14.158474
_cell_length_b 25.653703
_cell_length_c 8.712712
_cell_angle_alpha 152.918533
_cell_angle_beta 156.797724
_cell_angle_gamma 23.577794
_cell_volume 475.040215
_symmetry_space_group_name_H-M "P -1"
_symmetry_group_IT_number 2
_symmetry_cell_setting 'triclinic'
loop_
_space_group_symop_operation_xyz
x,y,z
-x,-y,-z
loop_
_atom_site_type_symbol
_atom_site_label
_atom_site_fract_x
_atom_site_fract_y
_atom_site_fract_z
Si Si1 0.288656 0.361990 0.620527
Si Si2 0.208093 0.238826 0.894404
Si Si3 0.100926 0.756840 0.919938
Si Si4 0.769115 0.517707 0.827157
Si Si5 0.146903 0.988761 0.457605
Si Si6 0.514598 0.934472 0.599058
Si Si7 0.664723 0.281283 0.517613
O O1 0.245282 0.256113 0.178042
O O2 0.588190 0.339018 0.948365
O O3 0.000000 0.500000 0.500000
O O4 0.273238 0.386703 0.843332
O O5 0.436566 0.265184 0.229093
O O6 0.298495 0.083999 0.593265
O O7 0.910821 0.364839 0.710428
O O8 0.173704 0.697634 0.046835
O O9 0.066872 0.900153 0.204665
O O10 0.761681 0.811727 0.542914
O O11 0.478946 0.601774 0.515704
O O12 0.000000 0.500000 0.000000
O O13 0.331122 0.906180 0.368067
O O14 0.875186 0.131698 0.369093
O O15 0.309379 0.031251 0.927761
#
# Coordination Sequence:
#
# PCOD9002314 Si02
#       7
#     2   2   2   2   2   2   2
#     4   9  17  29  50  78  98 135 171 209 251 296
#     4   9  15  30  51  74 106 128 174 209 243 304
#     4  10  17  32  54  76 107 127 173 212 243 302
#     4   9  18  29  50  78  99 135 173 207 255 307
#     4  10  17  27  51  79 104 132 171 206 245 302
#     4  10  17  28  52  82  99 134 170 206 252 290
#     4   9  15  29  47  74 104 128 169 205 245 302
#
# _framework density 29.471188999999999
#
# number of rings (size 3 to 8) (size 9 to 14) (size 15 to 20)
#    0.000    2.571    4.286    1.714    0.000    0.000 
#    0.000    1.429    0.000    1.714   18.571    5.000 
#    0.000    0.000    0.000    0.000    0.000    0.000 
#
# Total GULP energy -78320.806893 kJ/mol
# GULP energy per Si atom -5594.343350 kJ/mol
# Density = 2.940411 g / cm^3
# Si number density = 29.471189 Si / 1000 Ang^3
#
#
#
# Elastic Constant Matrix: (Units=GPa)
#
#
# Indices 1 2 3 4 5 6 
#
# 1 210.6375 81.3193 60.4227 -19.8809 -2.0337 -14.5544
# 2 81.3193 244.1542 48.5997 -28.0228 -7.8707 1.4823
# 3 60.4227 48.5997 88.3346 -19.1528 -27.5494 3.2847
# 4 -19.8809 -28.0228 -19.1528 37.3678 4.7119 -4.6457
# 5 -2.0337 -7.8707 -27.5494 4.7119 54.1350 -12.6096
# 6 -14.5544 1.4823 3.2847 -4.6457 -12.6096 67.4806
#
#
#
# Elastic Compliance Matrix: (Units=1/GPa)
#
#
# Indices 1 2 3 4 5 6 
#
# 1 0.006639 -0.001344 -0.004275 0.000739 -0.001866 0.001372
# 2 -0.001344 0.005097 -0.001460 0.002371 -0.000311 -0.000226
# 3 -0.004275 -0.001460 0.018940 0.005247 0.008857 0.000204
# 4 0.000739 0.002371 0.005247 0.031794 0.000785 0.002188
# 5 -0.001866 -0.000311 0.008857 0.000785 0.023645 0.003646
# 6 0.001372 -0.000226 0.000204 0.002188 0.003646 0.015942
#
#
# Mechanical properties :
#
#
# Convention : Reuss Voigt Hill
#
# Bulk Modulus (GPa) = 60.53412 102.64554 81.58983
# Shear Modulus (GPa) = 41.07755 55.31565 48.19660
#
# Velocity S-wave (km/s) = 3.73744 4.33707 4.04837
# Velocity P-wave (km/s) = 6.26173 7.74499 7.04252
#
# Compressibility (1/GPa) = 0.01651961
#
# Stress axis : x y z
#
# Youngs Moduli (GPa) = 150.62299 196.17770 52.79857
#
# Poissons Ratio (x) = 0.26367 0.22569
# Poissons Ratio (y) = 0.20244 0.07708
# Poissons Ratio (z) = 0.64385 0.28638
#
# Static dielectric constant tensor:
#      x y z
#    x 2.331660 -0.102230 -0.095330 
#    y -0.102230 2.364710 0.051710 
#    z -0.095330 0.051710 2.435330 
# 
# From -- ./inp_files/284434.got.cif
#   From: 2010.05.17/outbox.cif.g08.bks.cpg/sg2_143_cif.got.tgz:284434.got - 2010.06.03 11:33:40.
