data_PCOD9002326
_publ_section_title
;
Structure prediction by ZEFSAII (Michael W. Deem and Ramdas Pophale) SiO2 
 PCOD9002326
Probable space group: P -1
;
_chemical_formula_sum "Si O2"
_cell_formula_units_Z 16
_cell_length_a 9.665972
_cell_length_b 8.114337
_cell_length_c 15.141457
_cell_angle_alpha 100.392518
_cell_angle_beta 104.797961
_cell_angle_gamma 134.331191
_cell_volume 702.088097
_symmetry_space_group_name_H-M "P -1"
_symmetry_group_IT_number 2
_symmetry_cell_setting 'triclinic'
loop_
_space_group_symop_operation_xyz
x,y,z
-x,-y,-z
loop_
_atom_site_type_symbol
_atom_site_label
_atom_site_fract_x
_atom_site_fract_y
_atom_site_fract_z
Si Si1 0.587579 0.402665 0.538853
Si Si2 0.787739 0.989029 0.150396
Si Si3 0.074650 0.521955 0.160140
Si Si4 0.931162 0.296946 0.383975
Si Si5 0.639832 0.299584 0.039072
Si Si6 0.503539 0.275478 0.711013
Si Si7 0.127114 0.785106 0.375415
Si Si8 0.238110 0.325398 0.769167
O O1 0.500000 0.500000 0.500000
O O2 0.624619 0.434494 0.653918
O O3 0.830063 0.580471 0.551523
O O4 0.389518 0.084230 0.456850
O O5 0.858598 0.870348 0.182499
O O6 0.829978 0.143034 0.257647
O O7 0.521003 0.740478 0.055017
O O8 0.933335 0.219092 0.122828
O O9 0.328408 0.685205 0.198243
O O10 0.112037 0.661338 0.270838
O O11 0.900610 0.483827 0.074466
O O12 0.005359 0.556229 0.407053
O O13 0.718943 0.039200 0.382002
O O14 0.650208 0.408417 0.143867
O O15 0.500000 0.000000 0.000000
O O16 0.410478 0.358290 0.750510
O O17 0.968576 0.803074 0.338366
#
# Coordination Sequence:
#
# PCOD9002326 Si02
#       8
#     2   2   2   2   2   2   2   2
#     4  12  24  41  66  89 124 165 207 253 311 369
#     4   9  16  35  62  86 121 163 196 248 306 359
#     4   9  19  38  61  88 122 160 205 251 305 364
#     4  10  22  40  62  89 126 162 203 259 303 358
#     4   9  18  35  64  89 119 168 205 244 304 370
#     4  11  23  41  62  91 129 156 206 261 306 360
#     4  10  21  40  62  87 121 166 210 244 309 365
#     4  10  21  36  59  94 125 158 204 253 311 358
#
# _framework density 22.789162999999999
#
# number of rings (size 3 to 8) (size 9 to 14) (size 15 to 20)
#    0.000    2.000    2.500    3.000    0.000    2.500 
#    2.250    5.000    0.000    0.000    0.000    0.000 
#    0.000    0.000    0.000    0.000    0.000    0.000 
#
# Total GULP energy -89241.890633 kJ/mol
# GULP energy per Si atom -5577.618165 kJ/mol
# Density = 2.273729 g / cm^3
# Si number density = 22.789163 Si / 1000 Ang^3
#
#
#
# Elastic Constant Matrix: (Units=GPa)
#
#
# Indices 1 2 3 4 5 6 
#
# 1 144.6061 30.1165 40.3540 18.3398 40.9746 1.4904
# 2 30.1165 75.5869 6.3723 19.0638 14.3405 -5.4279
# 3 40.3540 6.3723 76.4498 29.8167 13.9314 2.3615
# 4 18.3398 19.0638 29.8167 27.7204 -5.9872 5.8498
# 5 40.9746 14.3405 13.9314 -5.9872 46.1635 0.3008
# 6 1.4904 -5.4279 2.3615 5.8498 0.3008 37.0855
#
#
#
# Elastic Compliance Matrix: (Units=1/GPa)
#
#
# Indices 1 2 3 4 5 6 
#
# 1 0.011509 0.000741 0.000606 -0.011730 -0.012160 0.001556
# 2 0.000741 0.028136 0.019418 -0.047593 -0.021499 0.010533
# 3 0.000606 0.019418 0.042365 -0.067746 -0.028213 0.011035
# 4 -0.011730 -0.047593 -0.067746 0.170354 0.067928 -0.029603
# 5 -0.012160 -0.021499 -0.028213 0.067928 0.056537 -0.012035
# 6 0.001556 0.010533 0.011035 -0.029603 -0.012035 0.032508
#
#
# Mechanical properties :
#
#
# Convention : Reuss Voigt Hill
#
# Bulk Modulus (GPa) = 8.09455 50.03649 29.06552
# Shear Modulus (GPa) = 14.66023 36.84721 25.75372
#
# Velocity S-wave (km/s) = 2.53908 4.02540 3.36532
# Velocity P-wave (km/s) = 3.48648 6.60372 5.28037
#
# Compressibility (1/GPa) = 0.12353992
#
# Stress axis : x y z
#
# Youngs Moduli (GPa) = 86.88663 35.54116 23.60467
#
# Poissons Ratio (x) = -0.02632 -0.01431
# Poissons Ratio (y) = -0.06434 -0.45836
# Poissons Ratio (z) = -0.05266 -0.69015
#
# Static dielectric constant tensor:
#      x y z
#    x 1.874000 0.022720 0.020080 
#    y 0.022720 1.907010 -0.019220 
#    z 0.020080 -0.019220 1.920330 
# 
# From -- ./inp_files/557385.got.cif
#   From: 2010.05.17/outbox.cif.g08.bks.cpg/sg2_279_cif.got.tgz:557385.got - 2010.06.03 11:33:40.
