data_PCOD9002367
_publ_section_title
;
Structure prediction by ZEFSAII (Michael W. Deem and Ramdas Pophale) SiO2 
 PCOD9002367
Probable space group: P -1
;
_chemical_formula_sum "Si O2"
_cell_formula_units_Z 16
_cell_length_a 11.526810
_cell_length_b 17.572059
_cell_length_c 18.110790
_cell_angle_alpha 150.844987
_cell_angle_beta 30.708194
_cell_angle_gamma 129.581840
_cell_volume 811.791290
_symmetry_space_group_name_H-M "P -1"
_symmetry_group_IT_number 2
_symmetry_cell_setting 'triclinic'
loop_
_space_group_symop_operation_xyz
x,y,z
-x,-y,-z
loop_
_atom_site_type_symbol
_atom_site_label
_atom_site_fract_x
_atom_site_fract_y
_atom_site_fract_z
Si Si1 0.803308 0.117617 0.269854
Si Si2 0.237940 0.361840 0.798770
Si Si3 0.666871 0.118402 0.813978
Si Si4 0.855165 0.478253 0.760173
Si Si5 0.381781 0.121406 0.739186
Si Si6 0.848379 0.949974 0.430451
Si Si7 0.676848 0.399837 0.930045
Si Si8 0.091133 0.326813 0.354780
O O1 0.517977 0.260017 0.520977
O O2 0.926668 0.224374 0.337319
O O3 0.748865 0.980272 0.231779
O O4 0.000000 0.000000 0.000000
O O5 0.146037 0.220073 0.753220
O O6 0.291175 0.453472 0.916506
O O7 0.000000 0.500000 0.000000
O O8 0.699684 0.257512 0.858607
O O9 0.874941 0.066159 0.720346
O O10 0.738974 0.960847 0.583006
O O11 0.382596 0.200383 0.067194
O O12 0.870336 0.358193 0.720118
O O13 0.067095 0.387622 0.504679
O O14 0.805650 0.669905 0.980301
O O15 0.601159 0.517088 0.884585
O O16 0.500000 0.000000 0.500000
O O17 0.630859 0.104959 0.634540
O O18 0.000000 0.500000 0.500000
#
# Coordination Sequence:
#
# PCOD9002367 Si02
#       8
#     2   2   2   2   2   2   2   2
#     4  11  23  38  58  93 123 157 202 254 308 358
#     4  11  20  36  59  88 118 156 203 252 298 359
#     4  11  21  38  61  89 120 158 200 247 300 365
#     4  11  22  37  61  91 120 154 203 254 301 359
#     4  11  23  40  64  88 122 158 202 248 304 366
#     4  10  21  36  60  87 120 155 202 247 298 356
#     4  11  21  37  60  91 116 156 203 251 297 356
#     4  12  21  36  60  90 124 158 200 250 303 359
#
# _framework density 19.709499999999998
#
# number of rings (size 3 to 8) (size 9 to 14) (size 15 to 20)
#    0.000    1.000    5.000    3.750    1.750    0.000 
#    0.000    0.000    2.750    5.250    0.000    0.000 
#    0.000    0.000    0.000    0.000    0.000    0.000 
#
# Total GULP energy -89185.474561 kJ/mol
# GULP energy per Si atom -5574.092160 kJ/mol
# Density = 1.966464 g / cm^3
# Si number density = 19.709500 Si / 1000 Ang^3
#
#
#
# Elastic Constant Matrix: (Units=GPa)
#
#
# Indices 1 2 3 4 5 6 
#
# 1 77.6395 30.7286 41.4119 -5.2063 6.0625 19.7079
# 2 30.7286 103.3857 37.7134 0.0755 7.4380 4.8592
# 3 41.4119 37.7134 108.9836 -21.8388 1.6870 6.3655
# 4 -5.2063 0.0755 -21.8388 35.8234 3.5752 7.6467
# 5 6.0625 7.4380 1.6870 3.5752 42.8816 -0.0814
# 6 19.7079 4.8592 6.3655 7.6467 -0.0814 31.8041
#
#
#
# Elastic Compliance Matrix: (Units=1/GPa)
#
#
# Indices 1 2 3 4 5 6 
#
# 1 0.020377 -0.003385 -0.005376 0.002401 -0.002304 -0.011617
# 2 -0.003385 0.011972 -0.003515 -0.002894 -0.001215 0.001665
# 3 -0.005376 -0.003515 0.014083 0.007982 0.000149 -0.000869
# 4 0.002401 -0.002894 0.007982 0.035857 -0.003162 -0.011272
# 5 -0.002304 -0.001215 0.000149 -0.003162 0.024119 0.002406
# 6 -0.011617 0.001665 -0.000869 -0.011272 0.002406 0.041277
#
#
# Mechanical properties :
#
#
# Convention : Reuss Voigt Hill
#
# Bulk Modulus (GPa) = 45.70544 56.63518 51.17031
# Shear Modulus (GPa) = 27.85018 34.11215 30.98116
#
# Velocity S-wave (km/s) = 3.76311 4.16474 3.96901
# Velocity P-wave (km/s) = 6.49009 7.20584 6.85731
#
# Compressibility (1/GPa) = 0.02187923
#
# Stress axis : x y z
#
# Youngs Moduli (GPa) = 49.07411 83.52674 71.00860
#
# Poissons Ratio (x) = 0.28277 0.38176
# Poissons Ratio (y) = 0.16614 0.24959
# Poissons Ratio (z) = 0.26383 0.29359
#
# Static dielectric constant tensor:
#      x y z
#    x 1.745660 -0.004410 0.026420 
#    y -0.004410 1.755920 0.045340 
#    z 0.026420 0.045340 1.753640 
# 
# From -- ./inp_files/391286.got.cif
#   From: 2010.05.17/outbox.cif.g08.bks.cpg/sg2_196_cif.got.tgz:391286.got - 2010.06.03 11:33:40.
