data_PCOD9002510
_publ_section_title
;
Structure prediction by ZEFSAII (Michael W. Deem and Ramdas Pophale) SiO2 
 PCOD9002510
Probable space group: P -1
;
_chemical_formula_sum "Si O2"
_cell_formula_units_Z 16
_cell_length_a 30.483156
_cell_length_b 5.050049
_cell_length_c 5.184954
_cell_angle_alpha 90.933720
_cell_angle_beta 111.912969
_cell_angle_gamma 62.750412
_cell_volume 646.665232
_symmetry_space_group_name_H-M "P -1"
_symmetry_group_IT_number 2
_symmetry_cell_setting 'triclinic'
loop_
_space_group_symop_operation_xyz
x,y,z
-x,-y,-z
loop_
_atom_site_type_symbol
_atom_site_label
_atom_site_fract_x
_atom_site_fract_y
_atom_site_fract_z
Si Si1 0.687367 0.957637 0.868408
Si Si2 0.437028 0.057169 0.681848
Si Si3 0.652807 0.307856 0.295975
Si Si4 0.467965 0.796181 0.251080
Si Si5 0.100620 0.629137 0.857102
Si Si6 0.053441 0.252935 0.976745
Si Si7 0.258752 0.704060 0.813180
Si Si8 0.145832 0.742154 0.446712
O O1 0.663730 0.065504 0.537101
O O2 0.647296 0.187571 0.002896
O O3 0.737856 0.026394 0.023539
O O4 0.706975 0.612276 0.967403
O O5 0.394733 0.369497 0.721458
O O6 0.491207 0.076974 0.733064
O O7 0.422252 0.013305 0.357793
O O8 0.446893 0.799220 0.913547
O O9 0.707789 0.326223 0.374469
O O10 0.500000 0.500000 0.500000
O O11 0.076461 0.407150 0.835003
O O12 0.144733 0.572323 0.178621
O O13 0.053038 0.971312 0.827631
O O14 0.126479 0.621065 0.641383
O O15 0.099097 0.082650 0.290714
O O16 0.000000 0.500000 0.000000
O O17 0.200980 0.740894 0.627617
#
# Coordination Sequence:
#
# PCOD9002510 Si02
#       8
#     2   2   2   2   2   2   2   2
#     4  10  25  39  65  89 127 162 217 262 325 373
#     4  10  21  39  59  89 125 158 214 251 316 376
#     4  10  24  41  64  93 127 171 216 269 318 382
#     4  10  21  36  61  91 125 165 201 258 312 378
#     4  10  25  39  65  94 127 167 208 260 315 379
#     4  10  24  44  67  97 130 168 213 263 319 381
#     4  10  26  41  66  92 128 168 214 266 321 382
#     4  10  26  40  67  92 132 165 216 258 324 381
#
# _framework density 24.742322999999999
#
# number of rings (size 3 to 8) (size 9 to 14) (size 15 to 20)
#    1.500    0.500    0.000    1.500    7.000    4.000 
#    0.000    0.000    0.000    0.000    0.000    0.000 
#    0.000    0.000    0.000    0.000    0.000    0.000 
#
# Total GULP energy -89434.954979 kJ/mol
# GULP energy per Si atom -5589.684686 kJ/mol
# Density = 2.468601 g / cm^3
# Si number density = 24.742323 Si / 1000 Ang^3
#
#
#
# Elastic Constant Matrix: (Units=GPa)
#
#
# Indices 1 2 3 4 5 6 
#
# 1 105.0032 36.3957 47.0049 -19.5256 -31.9943 -2.2568
# 2 36.3957 -274.2706 242.9654 135.0655 71.1864 16.0522
# 3 47.0049 242.9654 20.8456 -92.5681 -92.9315 -13.8274
# 4 -19.5256 135.0655 -92.5681 -32.5181 -28.5801 -4.6404
# 5 -31.9943 71.1864 -92.9315 -28.5801 26.7404 -12.1065
# 6 -2.2568 16.0522 -13.8274 -4.6404 -12.1065 29.6485
#
#
#
# Elastic Compliance Matrix: (Units=1/GPa)
#
#
# Indices 1 2 3 4 5 6 
#
# 1 0.012935 0.000420 -0.004325 0.003388 0.003209 0.000581
# 2 0.000420 0.006416 0.003338 0.010230 0.007153 0.002637
# 3 -0.004325 0.003338 0.006888 -0.006522 0.003595 0.001523
# 4 0.003388 0.010230 -0.006522 0.037085 -0.009019 -0.006201
# 5 0.003209 0.007153 0.003595 -0.009019 0.028862 0.008422
# 6 0.000581 0.002637 0.001523 -0.006201 0.008422 0.035523
#
#
# Mechanical properties :
#
#
# Convention : Reuss Voigt Hill
#
# Bulk Modulus (GPa) = 39.83216 56.03449 47.93333
# Shear Modulus (GPa) = 36.44030 -26.87836 4.78097
#
# Velocity S-wave (km/s) = 3.84186 -3.29953 1.39158
# Velocity P-wave (km/s) = 5.98445 2.86016 4.69010
#
# Compressibility (1/GPa) = 0.02510534
#
# Stress axis : x y z
#
# Youngs Moduli (GPa) = 77.31229 155.86029 145.17281
#
# Poissons Ratio (x) = -0.06549 0.62793
# Poissons Ratio (y) = -0.03249 -0.48465
# Poissons Ratio (z) = 0.33441 -0.52033
#
# Static dielectric constant tensor:
#      x y z
#    x 1.973920 0.013700 0.085360 
#    y 0.013700 1.954470 0.054110 
#    z 0.085360 0.054110 1.966770 
# 
# From -- ./inp_files/127974.got.cif
#   From: 2010.05.17/outbox.cif.g08.bks.cpg/sg2_64_cif.got.tgz:127974.got - 2010.06.03 11:33:40.
