data_PCOD9002700
_publ_section_title
;
Structure prediction by ZEFSAII (Michael W. Deem and Ramdas Pophale) SiO2 
 PCOD9002700
Probable space group: P -1
;
_chemical_formula_sum "Si O2"
_cell_formula_units_Z 16
_cell_length_a 7.994596
_cell_length_b 9.485973
_cell_length_c 12.060497
_cell_angle_alpha 126.480891
_cell_angle_beta 112.615530
_cell_angle_gamma 62.368810
_cell_volume 643.892583
_symmetry_space_group_name_H-M "P -1"
_symmetry_group_IT_number 2
_symmetry_cell_setting 'triclinic'
loop_
_space_group_symop_operation_xyz
x,y,z
-x,-y,-z
loop_
_atom_site_type_symbol
_atom_site_label
_atom_site_fract_x
_atom_site_fract_y
_atom_site_fract_z
Si Si1 0.728940 0.436191 0.518861
Si Si2 0.693679 0.011266 0.793486
Si Si3 0.654767 0.926710 0.408723
Si Si4 0.983207 0.972775 0.640732
Si Si5 0.402511 0.773847 0.931013
Si Si6 0.902245 0.655882 0.809509
Si Si7 0.740124 0.520131 0.319275
Si Si8 0.201825 0.143082 0.915901
O O1 0.500000 0.500000 0.500000
O O2 0.853690 0.225756 0.424933
O O3 0.815156 0.495812 0.679197
O O4 0.762090 0.544037 0.466866
O O5 0.481828 0.020790 0.706075
O O6 0.686068 0.187280 0.949740
O O7 0.751059 0.842381 0.813650
O O8 0.844826 0.980710 0.717339
O O9 0.720902 0.707744 0.339379
O O10 0.830202 0.000888 0.514839
O O11 0.500000 0.000000 0.500000
O O12 0.090751 0.120586 0.766182
O O13 0.608565 0.798442 0.010745
O O14 0.420481 0.575413 0.790873
O O15 0.273707 0.936490 0.893361
O O16 0.079987 0.625467 0.759755
O O17 0.934125 0.702953 0.965064
#
# Coordination Sequence:
#
# PCOD9002700 Si02
#       8
#     2   2   2   2   2   2   2   2
#     4  12  23  34  59  98 127 155 201 264 313 353
#     4  10  21  39  64  89 126 163 208 249 309 364
#     4  10  23  40  63  89 125 165 209 257 304 363
#     4  11  20  40  61  90 125 162 202 252 307 368
#     4  10  21  36  63  94 125 163 201 258 314 367
#     4  11  21  37  66  96 121 161 206 263 303 368
#     4  12  21  39  65  95 120 160 217 258 303 364
#     4  10  21  38  60  95 133 154 201 258 321 362
#
# _framework density 24.848866000000001
#
# number of rings (size 3 to 8) (size 9 to 14) (size 15 to 20)
#    0.000    1.250    3.750    3.375    3.500    2.500 
#    0.000    0.625    2.750    3.750    0.000    0.000 
#    0.000    0.000    0.000    0.000    0.000    0.000 
#
# Total GULP energy -89459.717410 kJ/mol
# GULP energy per Si atom -5591.232338 kJ/mol
# Density = 2.479231 g / cm^3
# Si number density = 24.848866 Si / 1000 Ang^3
#
#
#
# Elastic Constant Matrix: (Units=GPa)
#
#
# Indices 1 2 3 4 5 6 
#
# 1 106.8116 13.0141 28.8792 0.6870 10.4518 -25.3894
# 2 13.0141 43.5143 15.1289 -12.6140 6.3028 -10.6393
# 3 28.8792 15.1289 161.4989 -4.0199 26.2510 -12.8245
# 4 0.6870 -12.6140 -4.0199 26.1856 -4.8178 9.4731
# 5 10.4518 6.3028 26.2510 -4.8178 42.6941 -4.0050
# 6 -25.3894 -10.6393 -12.8245 9.4731 -4.0050 27.2350
#
#
#
# Elastic Compliance Matrix: (Units=1/GPa)
#
#
# Indices 1 2 3 4 5 6 
#
# 1 0.013204 -0.002042 -0.000999 -0.006540 -0.001831 0.013046
# 2 -0.002042 0.028789 -0.001518 0.011929 -0.001065 0.004321
# 3 -0.000999 -0.001518 0.007261 -0.000906 -0.003945 0.001630
# 4 -0.006540 0.011929 -0.000906 0.051731 0.004433 -0.019205
# 5 -0.001831 -0.001065 -0.003945 0.004433 0.026806 -0.001580
# 6 0.013046 0.004321 0.001630 -0.019205 -0.001580 0.057783
#
#
# Mechanical properties :
#
#
# Convention : Reuss Voigt Hill
#
# Bulk Modulus (GPa) = 24.91693 47.31881 36.11787
# Shear Modulus (GPa) = 24.03038 36.20979 30.12008
#
# Velocity S-wave (km/s) = 3.11313 3.82147 3.48534
# Velocity P-wave (km/s) = 4.79284 6.20931 5.54648
#
# Compressibility (1/GPa) = 0.04013335
#
# Stress axis : x y z
#
# Youngs Moduli (GPa) = 75.73736 34.73605 137.72222
#
# Poissons Ratio (x) = 0.07095 0.13758
# Poissons Ratio (y) = 0.15469 0.20913
# Poissons Ratio (z) = 0.07566 0.05275
#
# Static dielectric constant tensor:
#      x y z
#    x 2.038240 0.000310 0.008910 
#    y 0.000310 1.826130 -0.037960 
#    z 0.008910 -0.037960 2.009230 
# 
# From -- ./inp_files/398370.got.cif
#   From: 2010.05.17/outbox.cif.g08.bks.cpg/sg2_200_cif.got.tgz:398370.got - 2010.06.03 11:33:40.
