data_PCOD9002886
_publ_section_title
;
Structure prediction by ZEFSAII (Michael W. Deem and Ramdas Pophale) SiO2 
 PCOD9002886
Probable space group: P -1
;
_chemical_formula_sum "Si O2"
_cell_formula_units_Z 16
_cell_length_a 9.254404
_cell_length_b 10.201521
_cell_length_c 9.477981
_cell_angle_alpha 89.119126
_cell_angle_beta 76.640821
_cell_angle_gamma 116.051043
_cell_volume 775.124489
_symmetry_space_group_name_H-M "P -1"
_symmetry_group_IT_number 2
_symmetry_cell_setting 'triclinic'
loop_
_space_group_symop_operation_xyz
x,y,z
-x,-y,-z
loop_
_atom_site_type_symbol
_atom_site_label
_atom_site_fract_x
_atom_site_fract_y
_atom_site_fract_z
Si Si1 0.852719 0.317438 0.173639
Si Si2 0.020162 0.933866 0.847379
Si Si3 0.170351 0.595923 0.144438
Si Si4 0.645481 0.801131 0.297690
Si Si5 0.346187 0.193673 0.196489
Si Si6 0.495570 0.862851 0.589669
Si Si7 0.461683 0.857972 0.096966
Si Si8 0.543650 0.485486 0.828836
O O1 0.819564 0.372158 0.027672
O O2 0.927849 0.199200 0.142286
O O3 0.685356 0.236293 0.301847
O O4 0.986672 0.468354 0.213257
O O5 0.163730 0.076386 0.734809
O O6 0.843439 0.869494 0.809498
O O7 0.000000 0.000000 0.000000
O O8 0.265410 0.763907 0.173431
O O9 0.292953 0.538997 0.189285
O O10 0.552093 0.775675 0.466431
O O11 0.566600 0.881020 0.212408
O O12 0.596531 0.648337 0.227226
O O13 0.459880 0.214431 0.031708
O O14 0.500000 0.500000 0.000000
O O15 0.407931 0.354842 0.247348
O O16 0.500000 0.000000 0.500000
O O17 0.619939 0.904527 0.694376
O O18 0.500000 0.000000 0.000000
#
# Coordination Sequence:
#
# PCOD9002886 Si02
#       8
#     2   2   2   2   2   2   2   2
#     4  11  22  41  66  98 138 176 220 281 342 399
#     4  12  23  40  67 109 131 169 235 290 331 394
#     4  10  21  36  67  99 127 175 225 277 336 388
#     4  11  24  39  68  97 134 178 229 276 337 409
#     4  12  24  40  71  94 138 182 217 287 350 393
#     4  12  25  47  66  96 141 192 224 270 344 423
#     4  11  20  39  64 101 129 174 232 276 334 398
#     4  11  19  41  65  99 134 172 223 282 345 397
#
# _framework density 20.641846999999999
#
# number of rings (size 3 to 8) (size 9 to 14) (size 15 to 20)
#    0.000    0.750    7.500    1.500    0.000    1.000 
#    0.000    2.500    0.000    0.000    0.000    0.000 
#    0.000    0.000    0.000    0.000    0.000    0.000 
#
# Total GULP energy -89187.337724 kJ/mol
# GULP energy per Si atom -5574.208608 kJ/mol
# Density = 2.059487 g / cm^3
# Si number density = 20.641847 Si / 1000 Ang^3
#
#
#
# Elastic Constant Matrix: (Units=GPa)
#
#
# Indices 1 2 3 4 5 6 
#
# 1 72.7876 39.3719 29.4786 -15.7007 4.0355 11.0250
# 2 39.3719 132.7373 32.4544 -21.6016 -14.6863 7.4727
# 3 29.4786 32.4544 96.5907 -5.8053 -0.6706 0.1131
# 4 -15.7007 -21.6016 -5.8053 34.6629 1.9995 -5.1936
# 5 4.0355 -14.6863 -0.6706 1.9995 30.3068 -7.2402
# 6 11.0250 7.4727 0.1131 -5.1936 -7.2402 35.1294
#
#
#
# Elastic Compliance Matrix: (Units=1/GPa)
#
#
# Indices 1 2 3 4 5 6 
#
# 1 0.020394 -0.004539 -0.004429 0.005151 -0.006801 -0.006061
# 2 -0.004539 0.010568 -0.001885 0.004030 0.005643 0.000941
# 3 -0.004429 -0.001885 0.012286 -0.000892 0.000414 0.001705
# 4 0.005151 0.004030 -0.000892 0.033937 -0.000403 0.002463
# 5 -0.006801 0.005643 0.000414 -0.000403 0.038790 0.008868
# 6 -0.006061 0.000941 0.001705 0.002463 0.008868 0.032354
#
#
# Mechanical properties :
#
#
# Convention : Reuss Voigt Hill
#
# Bulk Modulus (GPa) = 46.42548 56.08059 51.25303
# Shear Modulus (GPa) = 28.21404 33.40720 30.81062
#
# Velocity S-wave (km/s) = 3.70109 4.02732 3.86765
# Velocity P-wave (km/s) = 6.38779 6.98950 6.69541
#
# Compressibility (1/GPa) = 0.02153990
#
# Stress axis : x y z
#
# Youngs Moduli (GPa) = 49.03402 94.62384 81.39666
#
# Poissons Ratio (x) = 0.42951 0.36054
# Poissons Ratio (y) = 0.22257 0.15346
# Poissons Ratio (z) = 0.21719 0.17840
#
# Static dielectric constant tensor:
#      x y z
#    x 1.819160 -0.062840 -0.039230 
#    y -0.062840 1.878770 0.024480 
#    z -0.039230 0.024480 1.743630 
# 
# From -- ./inp_files/267815.got.cif
#   From: 2010.05.17/outbox.cif.g08.bks.cpg/sg2_134_cif.got.tgz:267815.got - 2010.06.03 11:33:40.
