data_PCOD9002591
_publ_section_title
;
Structure prediction by ZEFSAII (Michael W. Deem and Ramdas Pophale) SiO2 
 PCOD9002591
Probable space group: P -1
;
_chemical_formula_sum "Si O2"
_cell_formula_units_Z 16
_cell_length_a 5.718178
_cell_length_b 15.821221
_cell_length_c 10.140612
_cell_angle_alpha 70.611605
_cell_angle_beta 95.700592
_cell_angle_gamma 108.236283
_cell_volume 821.905186
_symmetry_space_group_name_H-M "P -1"
_symmetry_group_IT_number 2
_symmetry_cell_setting 'triclinic'
loop_
_space_group_symop_operation_xyz
x,y,z
-x,-y,-z
loop_
_atom_site_type_symbol
_atom_site_label
_atom_site_fract_x
_atom_site_fract_y
_atom_site_fract_z
Si Si1 0.139259 0.652985 0.906149
Si Si2 0.038705 0.011111 0.150269
Si Si3 0.809297 0.113186 0.575576
Si Si4 0.941615 0.522727 0.195334
Si Si5 0.560340 0.521944 0.644898
Si Si6 0.177611 0.270961 0.357476
Si Si7 0.430972 0.174053 0.217826
Si Si8 0.691054 0.013949 0.363256
O O1 0.157215 0.564813 0.865800
O O2 0.397908 0.732279 0.887594
O O3 0.967512 0.697502 0.786071
O O4 0.026675 0.614218 0.060191
O O5 0.119758 0.925665 0.263468
O O6 0.816411 0.011253 0.233321
O O7 0.229553 0.111940 0.140481
O O8 0.000000 0.000000 0.000000
O O9 0.830770 0.042079 0.495527
O O10 0.981619 0.212680 0.484736
O O11 0.515345 0.086194 0.583725
O O12 0.702779 0.520744 0.271503
O O13 0.195535 0.509958 0.281834
O O14 0.500000 0.500000 0.500000
O O15 0.644531 0.634010 0.620199
O O16 0.316675 0.206295 0.324994
O O17 0.582145 0.102048 0.298842
#
# Coordination Sequence:
#
# PCOD9002591 Si02
#       8
#     2   2   2   2   2   2   2   2
#     4  10  21  37  63  96 120 154 215 276 319 373
#     4  11  24  40  57  87 133 167 201 259 328 383
#     4  10  21  36  62  90 118 163 211 261 305 379
#     4  10  23  40  67  94 129 168 213 269 332 384
#     4  11  24  45  65  93 137 175 212 260 333 396
#     4  11  22  38  65  95 121 157 219 268 313 387
#     4  11  20  37  64  89 122 158 213 263 314 376
#     4  10  21  37  62  89 119 159 215 261 313 372
#
# _framework density 19.466964999999998
#
# number of rings (size 3 to 8) (size 9 to 14) (size 15 to 20)
#    0.000    1.500    3.750    0.750    5.250    3.500 
#    2.250    1.250    0.000    0.000    0.000    0.000 
#    0.000    0.000    0.000    0.000    0.000    0.000 
#
# Total GULP energy -89129.133377 kJ/mol
# GULP energy per Si atom -5570.570836 kJ/mol
# Density = 1.942266 g / cm^3
# Si number density = 19.466965 Si / 1000 Ang^3
#
#
#
# Elastic Constant Matrix: (Units=GPa)
#
#
# Indices 1 2 3 4 5 6 
#
# 1 153.5339 98.7972 97.9346 -7.9141 -60.5726 3.7948
# 2 98.7972 131.0737 93.9795 -12.4441 -33.6465 15.1941
# 3 97.9346 93.9795 194.0146 -0.8248 -32.6554 17.6809
# 4 -7.9141 -12.4441 -0.8248 39.0811 5.7865 -7.2153
# 5 -60.5726 -33.6465 -32.6554 5.7865 49.4560 0.4489
# 6 3.7948 15.1941 17.6809 -7.2153 0.4489 36.0380
#
#
#
# Elastic Compliance Matrix: (Units=1/GPa)
#
#
# Indices 1 2 3 4 5 6 
#
# 1 0.022354 -0.009993 -0.003679 -0.000826 0.018218 0.003272
# 2 -0.009993 0.017853 -0.003716 0.003280 -0.002895 -0.003959
# 3 -0.003679 -0.003716 0.008914 -0.002134 -0.000873 -0.002836
# 4 -0.000826 0.003280 -0.002134 0.027934 -0.003507 0.005388
# 5 0.018218 -0.002895 -0.000873 -0.003507 0.040411 -0.001475
# 6 0.003272 -0.003959 -0.002836 0.005388 -0.001475 0.031561
#
#
# Mechanical properties :
#
#
# Convention : Reuss Voigt Hill
#
# Bulk Modulus (GPa) = 69.70879 117.78273 93.74576
# Shear Modulus (GPa) = 26.51313 37.44242 31.97778
#
# Velocity S-wave (km/s) = 3.69447 4.39040 4.05738
# Velocity P-wave (km/s) = 7.35427 9.29172 8.37918
#
# Compressibility (1/GPa) = 0.01434539
#
# Stress axis : x y z
#
# Youngs Moduli (GPa) = 44.73435 56.01165 112.18599
#
# Poissons Ratio (x) = 0.55973 0.41269
# Poissons Ratio (y) = 0.44703 0.41692
# Poissons Ratio (z) = 0.16456 0.20816
#
# Static dielectric constant tensor:
#      x y z
#    x 1.821680 -0.002620 0.019760 
#    y -0.002620 1.682830 -0.035980 
#    z 0.019760 -0.035980 1.668460 
# 
# From -- ./inp_files/135160.got.cif
#   From: 2010.05.17/outbox.cif.g08.bks.cpg/sg2_68_cif.got.tgz:135160.got - 2010.06.03 11:33:40.
