data_PCOD9002443
_publ_section_title
;
Structure prediction by ZEFSAII (Michael W. Deem and Ramdas Pophale) SiO2 
 PCOD9002443
Probable space group: P -1
;
_chemical_formula_sum "Si O2"
_cell_formula_units_Z 16
_cell_length_a 5.531914
_cell_length_b 16.203617
_cell_length_c 10.044373
_cell_angle_alpha 96.242461
_cell_angle_beta 107.928711
_cell_angle_gamma 120.099193
_cell_volume 702.237283
_symmetry_space_group_name_H-M "P -1"
_symmetry_group_IT_number 2
_symmetry_cell_setting 'triclinic'
loop_
_space_group_symop_operation_xyz
x,y,z
-x,-y,-z
loop_
_atom_site_type_symbol
_atom_site_label
_atom_site_fract_x
_atom_site_fract_y
_atom_site_fract_z
Si Si1 0.571720 0.785546 0.328168
Si Si2 0.341292 0.527396 0.589842
Si Si3 0.753564 0.652551 0.321054
Si Si4 0.839081 0.031581 0.091838
Si Si5 0.122476 0.954065 0.298600
Si Si6 0.316183 0.253135 0.208635
Si Si7 0.634657 0.180464 0.416725
Si Si8 0.028086 0.766616 0.113001
O O1 0.493476 0.673314 0.302951
O O2 0.927734 0.876223 0.372417
O O3 0.500027 0.808179 0.464601
O O4 0.356179 0.779919 0.170134
O O5 0.500000 0.500000 0.500000
O O6 0.316030 0.456028 0.691986
O O7 0.554606 0.645680 0.672367
O O8 0.000000 0.500000 0.500000
O O9 0.873641 0.695874 0.202498
O O10 0.008622 0.732163 0.484523
O O11 0.003315 0.149051 0.173371
O O12 0.899359 0.986999 0.222485
O O13 0.500000 0.000000 0.000000
O O14 0.000000 0.000000 0.000000
O O15 0.120426 0.878099 0.181621
O O16 0.461819 0.058903 0.370302
O O17 0.540081 0.216398 0.276102
O O18 0.224219 0.272165 0.051880
#
# Coordination Sequence:
#
# PCOD9002443 Si02
#       8
#     2   2   2   2   2   2   2   2
#     4  10  21  39  61  92 139 185 229 287 350 416
#     4  12  27  50  77 106 138 184 241 304 354 419
#     4  10  23  43  66  95 136 180 234 293 350 413
#     4  11  23  41  67 101 150 181 228 281 354 423
#     4  10  21  36  60  97 134 186 228 289 343 424
#     4  11  23  45  71 106 134 192 234 296 356 419
#     4  10  21  38  63  95 134 182 238 286 349 416
#     4  10  22  41  65  96 143 174 235 282 362 416
#
# _framework density 22.784323000000001
#
# number of rings (size 3 to 8) (size 9 to 14) (size 15 to 20)
#    0.000    1.500    2.500    1.875    1.750    7.000 
#   11.250    0.625    0.000    0.000    0.000    0.000 
#    0.000    0.000    0.000    0.000    0.000    0.000 
#
# Total GULP energy -89077.960876 kJ/mol
# GULP energy per Si atom -5567.372555 kJ/mol
# Density = 2.273246 g / cm^3
# Si number density = 22.784323 Si / 1000 Ang^3
#
#
#
# Elastic Constant Matrix: (Units=GPa)
#
#
# Indices 1 2 3 4 5 6 
#
# 1 71.7787 25.5637 28.8514 14.4136 13.1988 -11.2094
# 2 25.5637 153.5067 25.6431 9.1575 -1.0679 -21.0381
# 3 28.8514 25.6431 88.8120 -3.5457 22.7215 -5.4150
# 4 14.4136 9.1575 -3.5457 44.5396 -12.1042 -2.6771
# 5 13.1988 -1.0679 22.7215 -12.1042 27.7034 -2.4727
# 6 -11.2094 -21.0381 -5.4150 -2.6771 -2.4727 24.3736
#
#
#
# Elastic Compliance Matrix: (Units=1/GPa)
#
#
# Indices 1 2 3 4 5 6 
#
# 1 0.020500 -0.001640 -0.003569 -0.009102 -0.010419 0.005163
# 2 -0.001640 0.008023 -0.002322 0.000020 0.003541 0.006017
# 3 -0.003569 -0.002322 0.016015 -0.000382 -0.011809 -0.001328
# 4 -0.009102 0.000020 -0.000382 0.030300 0.017969 0.000897
# 5 -0.010419 0.003541 -0.011809 0.017969 0.059055 0.003606
# 6 0.005163 0.006017 -0.001328 0.000897 0.003606 0.048765
#
#
# Mechanical properties :
#
#
# Convention : Reuss Voigt Hill
#
# Bulk Modulus (GPa) = 33.92576 52.69044 43.30810
# Shear Modulus (GPa) = 24.09088 34.92594 29.50841
#
# Velocity S-wave (km/s) = 3.25521 3.91947 3.60268
# Velocity P-wave (km/s) = 5.38988 6.60749 6.02950
#
# Compressibility (1/GPa) = 0.02947613
#
# Stress axis : x y z
#
# Youngs Moduli (GPa) = 48.77986 124.63561 62.44229
#
# Poissons Ratio (x) = 0.20435 0.22288
# Poissons Ratio (y) = 0.07998 0.14500
# Poissons Ratio (z) = 0.17411 0.28943
#
# Static dielectric constant tensor:
#      x y z
#    x 2.002900 -0.001850 0.056070 
#    y -0.001850 2.105630 -0.184790 
#    z 0.056070 -0.184790 1.996510 
# 
# From -- ./inp_files/367798.got.cif
#   From: 2010.05.17/outbox.cif.g08.bks.cpg/sg2_184_cif.got.tgz:367798.got - 2010.06.03 11:33:40.
