data_PCOD9002740
_publ_section_title
;
Structure prediction by ZEFSAII (Michael W. Deem and Ramdas Pophale) SiO2 
 PCOD9002740
Probable space group: P -1
;
_chemical_formula_sum "Si O2"
_cell_formula_units_Z 12
_cell_length_a 16.941079
_cell_length_b 5.028512
_cell_length_c 9.527717
_cell_angle_alpha 88.107357
_cell_angle_beta 39.438272
_cell_angle_gamma 80.335773
_cell_volume 502.194768
_symmetry_space_group_name_H-M "P -1"
_symmetry_group_IT_number 2
_symmetry_cell_setting 'triclinic'
loop_
_space_group_symop_operation_xyz
x,y,z
-x,-y,-z
loop_
_atom_site_type_symbol
_atom_site_label
_atom_site_fract_x
_atom_site_fract_y
_atom_site_fract_z
Si Si1 0.746540 0.947061 0.329934
Si Si2 0.205320 0.721532 0.368933
Si Si3 0.353112 0.138715 0.222840
Si Si4 0.354194 0.493071 0.687819
Si Si5 0.133080 0.701776 0.169863
Si Si6 0.030329 0.263328 0.151508
O O1 0.692378 0.904330 0.556416
O O2 0.670272 0.789799 0.330453
O O3 0.714752 0.263925 0.325729
O O4 0.894910 0.801105 0.097332
O O5 0.318843 0.457841 0.232369
O O6 0.118322 0.687334 0.356078
O O7 0.117000 0.741373 0.628206
O O8 0.262697 0.984529 0.260902
O O9 0.500000 0.000000 0.000000
O O10 0.500000 0.500000 0.500000
O O11 0.279640 0.564057 0.934824
O O12 0.052887 0.538678 0.186283
O O13 0.101890 0.010697 0.154096
#
# Coordination Sequence:
#
# PCOD9002740 Si02
#       6
#     2   2   2   2   2   2
#     4  10  23  41  59  88 124 153 204 255 288 354
#     4  12  24  41  66  89 122 169 197 244 312 358
#     4  12  28  42  60  87 127 169 205 245 287 365
#     4  10  21  36  64  88 117 161 196 250 305 350
#     4  10  21  37  63  98 123 148 199 258 307 361
#     4  10  21  41  65  94 121 151 202 261 306 351
#
# _framework density 23.895114
#
# number of rings (size 3 to 8) (size 9 to 14) (size 15 to 20)
#    0.000    1.333    0.000    5.000    4.667    1.333 
#    0.000    0.000    0.000    0.000    0.000    0.000 
#    0.000    0.000    0.000    0.000    0.000    0.000 
#
# Total GULP energy -67190.791253 kJ/mol
# GULP energy per Si atom -5599.232604 kJ/mol
# Density = 2.384073 g / cm^3
# Si number density = 23.895114 Si / 1000 Ang^3
#
#
#
# Elastic Constant Matrix: (Units=GPa)
#
#
# Indices 1 2 3 4 5 6 
#
# 1 49.1554 2.4710 37.0418 6.8884 2.8569 4.7804
# 2 2.4710 57.4558 12.3660 -3.8962 4.2866 8.7065
# 3 37.0418 12.3660 132.5012 9.9847 -1.3018 4.9774
# 4 6.8884 -3.8962 9.9847 29.8117 -2.3076 -4.2402
# 5 2.8569 4.2866 -1.3018 -2.3076 46.5909 -12.6961
# 6 4.7804 8.7065 4.9774 -4.2402 -12.6961 28.1420
#
#
#
# Elastic Compliance Matrix: (Units=1/GPa)
#
#
# Indices 1 2 3 4 5 6 
#
# 1 0.027199 0.001281 -0.007156 -0.004917 -0.003937 -0.006268
# 2 0.001281 0.019289 -0.002039 0.001572 -0.003825 -0.007313
# 3 -0.007156 -0.002039 0.009876 -0.001822 0.000872 0.000219
# 4 -0.004917 0.001572 -0.001822 0.036971 0.004148 0.008113
# 5 -0.003937 -0.003825 0.000872 0.004148 0.026132 0.014112
# 6 -0.006268 -0.007313 0.000219 0.008113 0.014112 0.046412
#
#
# Mechanical properties :
#
#
# Convention : Reuss Voigt Hill
#
# Bulk Modulus (GPa) = 24.67082 38.09666 31.38374
# Shear Modulus (GPa) = 25.61221 33.39116 29.50169
#
# Velocity S-wave (km/s) = 3.27748 3.74224 3.51755
# Velocity P-wave (km/s) = 4.96684 5.88646 5.44610
#
# Compressibility (1/GPa) = 0.04053372
#
# Stress axis : x y z
#
# Youngs Moduli (GPa) = 36.76576 51.84371 101.25950
#
# Poissons Ratio (x) = -0.06639 0.72461
# Poissons Ratio (y) = -0.04708 0.20651
# Poissons Ratio (z) = 0.26310 0.10573
#
# Static dielectric constant tensor:
#      x y z
#    x 1.899080 0.025510 0.022730 
#    y 0.025510 1.859260 0.010260 
#    z 0.022730 0.010260 1.919700 
# 
# From -- ./inp_files/38854.got.cif
#   From: 2010.05.17/outbox.cif.g08.bks.cpg/sg2_20_cif.got.tgz:38854.got - 2010.06.03 11:33:40.
