data_PCOD9002363
_publ_section_title
;
Structure prediction by ZEFSAII (Michael W. Deem and Ramdas Pophale) SiO2 
 PCOD9002363
Probable space group: P -1
;
_chemical_formula_sum "Si O2"
_cell_formula_units_Z 14
_cell_length_a 22.728734
_cell_length_b 5.251995
_cell_length_c 5.611240
_cell_angle_alpha 98.531321
_cell_angle_beta 109.953849
_cell_angle_gamma 114.728412
_cell_volume 537.606064
_symmetry_space_group_name_H-M "P -1"
_symmetry_group_IT_number 2
_symmetry_cell_setting 'triclinic'
loop_
_space_group_symop_operation_xyz
x,y,z
-x,-y,-z
loop_
_atom_site_type_symbol
_atom_site_label
_atom_site_fract_x
_atom_site_fract_y
_atom_site_fract_z
Si Si1 0.231717 0.948949 0.689806
Si Si2 0.308977 0.426573 0.480263
Si Si3 0.960021 0.246572 0.108089
Si Si4 0.434634 0.804419 0.059223
Si Si5 0.821368 0.742829 0.957688
Si Si6 0.616814 0.785504 0.824351
Si Si7 0.094474 0.425043 0.568687
O O1 0.160953 0.628562 0.513192
O O2 0.250637 0.141511 0.506594
O O3 0.208282 0.088403 0.892568
O O4 0.308616 0.004378 0.898311
O O5 0.364110 0.656208 0.774250
O O6 0.256314 0.517870 0.283660
O O7 0.356206 0.329982 0.374142
O O8 0.932646 0.379276 0.298886
O O9 0.021715 0.188465 0.297962
O O10 0.884393 0.959070 0.891218
O O11 0.000000 0.500000 0.000000
O O12 0.433314 0.520974 0.140329
O O13 0.422749 0.024792 0.248699
O O14 0.500000 0.000000 0.000000
O O15 0.866925 0.664268 0.191110
#
# Coordination Sequence:
#
# PCOD9002363 Si02
#       7
#     2   2   2   2   2   2   2
#     4   9  21  39  59  92 130 171 223 280 341 403
#     4  10  23  43  68 100 136 184 227 290 347 411
#     4  10  21  37  56  88 128 172 220 279 346 406
#     4  11  25  47  71 105 145 184 228 288 350 416
#     4  10  21  39  59  94 126 172 233 276 343 414
#     4  10  24  43  70 104 142 178 241 280 344 424
#     4  10  21  36  60  86 128 171 220 288 332 411
#
# _framework density 26.041371999999999
#
# number of rings (size 3 to 8) (size 9 to 14) (size 15 to 20)
#    0.000    2.000    0.000    1.714    6.000    5.143 
#   10.286    0.000    0.000    0.000    0.000    0.000 
#    0.000    0.000    0.000    0.000    0.000    0.000 
#
# Total GULP energy -78285.330746 kJ/mol
# GULP energy per Si atom -5591.809339 kJ/mol
# Density = 2.598210 g / cm^3
# Si number density = 26.041372 Si / 1000 Ang^3
#
#
#
# Elastic Constant Matrix: (Units=GPa)
#
#
# Indices 1 2 3 4 5 6 
#
# 1 41.1695 41.7142 -34.6847 -2.3348 -38.1095 -6.0658
# 2 41.7142 104.7164 11.7722 3.7637 6.0031 38.5118
# 3 -34.6847 11.7722 34.3027 7.0131 -5.9810 -1.5585
# 4 -2.3348 3.7637 7.0131 29.0570 -2.5991 -11.0780
# 5 -38.1095 6.0031 -5.9810 -2.5991 28.7613 -9.5279
# 6 -6.0658 38.5118 -1.5585 -11.0780 -9.5279 48.7705
#
#
#
# Elastic Compliance Matrix: (Units=1/GPa)
#
#
# Indices 1 2 3 4 5 6 
#
# 1 -0.004416 0.007387 -0.008866 -0.004205 -0.012982 -0.010157
# 2 0.007387 0.006319 0.007175 -0.002147 0.008910 -0.002589
# 3 -0.008866 0.007175 0.016997 -0.011512 -0.014626 -0.011698
# 4 -0.004205 -0.002147 -0.011512 0.040898 -0.000512 0.009994
# 5 -0.012982 0.008910 -0.014626 -0.000512 0.010223 -0.007237
# 6 -0.010157 -0.002589 -0.011698 0.009994 -0.007237 0.021768
#
#
# Mechanical properties :
#
#
# Convention : Reuss Voigt Hill
#
# Bulk Modulus (GPa) = 33.01174 24.19910 28.60542
# Shear Modulus (GPa) = 55.25303 32.07689 43.66496
#
# Velocity S-wave (km/s) = 4.61123 3.51346 4.09926
# Velocity P-wave (km/s) = 6.40745 5.07661 5.78046
#
# Compressibility (1/GPa) = 0.03029226
#
# Stress axis : x y z
#
# Youngs Moduli (GPa) = -226.43030 158.25776 58.83354
#
# Poissons Ratio (x) = -1.16903 0.52161
# Poissons Ratio (y) = 1.67261 -0.42215
# Poissons Ratio (z) = -2.00750 -1.13555
#
# Static dielectric constant tensor:
#      x y z
#    x 1.953260 -0.050350 0.014070 
#    y -0.050350 2.075510 -0.004860 
#    z 0.014070 -0.004860 2.103000 
# 
# From -- ./inp_files/8674.got.cif
#   From: 2010.05.17/outbox.cif.g08.bks.cpg/sg2_5_cif.got.tgz:8674.got - 2010.06.03 11:33:40.
