data_PCOD9002069
_publ_section_title
;
Structure prediction by ZEFSAII (Michael W. Deem and Ramdas Pophale) SiO2 
 PCOD9002069
Probable space group: P -1
;
_chemical_formula_sum "Si O2"
_cell_formula_units_Z 14
_cell_length_a 17.004181
_cell_length_b 13.635921
_cell_length_c 9.008116
_cell_angle_alpha 154.651441
_cell_angle_beta 55.511899
_cell_angle_gamma 136.899385
_cell_volume 578.867122
_symmetry_space_group_name_H-M "P -1"
_symmetry_group_IT_number 2
_symmetry_cell_setting 'triclinic'
loop_
_space_group_symop_operation_xyz
x,y,z
-x,-y,-z
loop_
_atom_site_type_symbol
_atom_site_label
_atom_site_fract_x
_atom_site_fract_y
_atom_site_fract_z
Si Si1 0.019617 0.305763 0.919128
Si Si2 0.584266 0.165306 0.358400
Si Si3 0.232718 0.664011 0.362174
Si Si4 0.808162 0.260652 0.937944
Si Si5 0.341250 0.378390 0.693322
Si Si6 0.624889 0.412040 0.364976
Si Si7 0.441576 0.250377 0.841942
O O1 0.900156 0.282675 0.989614
O O2 0.089382 0.453876 0.201586
O O3 0.110808 0.540699 0.016487
O O4 0.000000 0.000000 0.500000
O O5 0.708768 0.276564 0.456492
O O6 0.611304 0.419971 0.567172
O O7 0.493926 0.097778 0.495040
O O8 0.506527 0.871130 0.941481
O O9 0.302105 0.985958 0.659608
O O10 0.275194 0.503590 0.002478
O O11 0.712840 0.911217 0.550716
O O12 0.723666 0.352926 0.183372
O O13 0.328197 0.352058 0.492871
O O14 0.500000 0.500000 0.000000
O O15 0.483249 0.604141 0.888302
#
# Coordination Sequence:
#
# PCOD9002069 Si02
#       7
#     2   2   2   2   2   2   2
#     4  11  21  38  63  89 116 152 205 252 288 334
#     4  10  21  36  57  84 125 160 186 243 301 350
#     4  11  19  38  59  88 119 153 193 251 295 334
#     4  11  22  36  63  92 112 160 200 243 289 363
#     4  11  19  36  62  84 123 150 189 252 295 342
#     4  11  20  39  56  86 127 158 191 234 302 362
#     4  11  20  35  60  92 118 152 197 247 296 353
#
# _framework density 24.185172000000001
#
# number of rings (size 3 to 8) (size 9 to 14) (size 15 to 20)
#    0.000    1.143    5.714    2.571    0.000    0.000 
#    2.571    2.857    0.000    3.429    0.000    0.000 
#    0.000    0.000    0.000    0.000    0.000    0.000 
#
# Total GULP energy -78097.289081 kJ/mol
# GULP energy per Si atom -5578.377791 kJ/mol
# Density = 2.413013 g / cm^3
# Si number density = 24.185172 Si / 1000 Ang^3
#
#
#
# Elastic Constant Matrix: (Units=GPa)
#
#
# Indices 1 2 3 4 5 6 
#
# 1 152.8998 18.5491 36.0704 4.2533 26.7165 -15.1401
# 2 18.5491 107.9562 31.6920 6.5532 -1.6585 -37.5386
# 3 36.0704 31.6920 62.4384 25.0521 21.9119 -14.9295
# 4 4.2533 6.5532 25.0521 42.4560 -7.6442 -1.8927
# 5 26.7165 -1.6585 21.9119 -7.6442 51.5116 5.9321
# 6 -15.1401 -37.5386 -14.9295 -1.8927 5.9321 51.8981
#
#
#
# Elastic Compliance Matrix: (Units=1/GPa)
#
#
# Indices 1 2 3 4 5 6 
#
# 1 0.008010 0.000266 -0.003887 0.001072 -0.002534 0.001739
# 2 0.000266 0.014100 -0.008062 0.003506 0.003379 0.007699
# 3 -0.003887 -0.008062 0.041759 -0.026442 -0.020673 0.006446
# 4 0.001072 0.003506 -0.026442 0.041435 0.017559 -0.005254
# 5 -0.002534 0.003379 -0.020673 0.017559 0.033086 -0.007383
# 6 0.001739 0.007699 0.006446 -0.005254 -0.007383 0.027851
#
#
# Mechanical properties :
#
#
# Convention : Reuss Voigt Hill
#
# Bulk Modulus (GPa) = 24.69006 55.10195 39.89600
# Shear Modulus (GPa) = 24.61727 44.97199 34.79463
#
# Velocity S-wave (km/s) = 3.19386 4.31685 3.79710
# Velocity P-wave (km/s) = 4.88180 6.90506 5.97962
#
# Compressibility (1/GPa) = 0.04050213
#
# Stress axis : x y z
#
# Youngs Moduli (GPa) = 124.84131 70.92088 23.94694
#
# Poissons Ratio (x) = -0.01884 0.09309
# Poissons Ratio (y) = -0.03317 0.19306
# Poissons Ratio (z) = 0.48528 0.57177
#
# Static dielectric constant tensor:
#      x y z
#    x 2.065310 -0.026980 -0.083380 
#    y -0.026980 1.932210 -0.055980 
#    z -0.083380 -0.055980 2.073710 
# 
# From -- ./inp_files/305987.got.cif
#   From: 2010.05.17/outbox.cif.g08.bks.cpg/sg2_153_cif.got.tgz:305987.got - 2010.06.03 11:33:40.
