data_PCOD9002468
_publ_section_title
;
Structure prediction by ZEFSAII (Michael W. Deem and Ramdas Pophale) SiO2 
 PCOD9002468
Probable space group: P -1
;
_chemical_formula_sum "Si O2"
_cell_formula_units_Z 16
_cell_length_a 9.020897
_cell_length_b 13.227145
_cell_length_c 5.121615
_cell_angle_alpha 83.054992
_cell_angle_beta 99.353521
_cell_angle_gamma 89.272941
_cell_volume 598.238844
_symmetry_space_group_name_H-M "P -1"
_symmetry_group_IT_number 2
_symmetry_cell_setting 'triclinic'
loop_
_space_group_symop_operation_xyz
x,y,z
-x,-y,-z
loop_
_atom_site_type_symbol
_atom_site_label
_atom_site_fract_x
_atom_site_fract_y
_atom_site_fract_z
Si Si1 0.812087 0.230143 0.506864
Si Si2 0.907767 0.841599 0.118424
Si Si3 0.679077 0.384150 0.000225
Si Si4 0.425061 0.876803 0.260180
Si Si5 0.878619 0.043441 0.252485
Si Si6 0.376824 0.116841 0.195781
Si Si7 0.890132 0.502651 0.713118
Si Si8 0.611423 0.562852 0.326903
O O1 0.756806 0.315123 0.264437
O O2 0.705684 0.203884 0.726193
O O3 0.789483 0.128385 0.356898
O O4 0.988352 0.228440 0.643770
O O5 0.811871 0.935468 0.195987
O O6 0.773101 0.809573 0.906682
O O7 0.031304 0.899824 0.965471
O O8 0.665138 0.492727 0.119665
O O9 0.790369 0.404621 0.782899
O O10 0.510589 0.359130 0.865286
O O11 0.544325 0.850952 0.526143
O O12 0.359619 0.992896 0.256256
O O13 0.506321 0.874094 0.008735
O O14 0.000000 0.000000 0.500000
O O15 0.756123 0.582525 0.545750
O O16 0.000000 0.500000 0.500000
O O17 0.000000 0.500000 0.000000
O O18 0.500000 0.500000 0.500000
#
# Coordination Sequence:
#
# PCOD9002468 Si02
#       8
#     2   2   2   2   2   2   2   2
#     4  11  24  39  63  95 129 165 215 272 326 378
#     4  10  21  36  61  86 120 172 223 268 314 383
#     4  10  22  43  67 102 132 172 215 268 326 401
#     4  10  23  38  60  88 123 167 215 269 317 379
#     4   9  19  34  58  85 119 166 224 260 317 370
#     4  10  22  39  60  86 121 170 221 262 321 372
#     4  11  21  41  72 104 132 169 217 264 324 396
#     4   9  20  41  71  96 130 176 216 256 319 408
#
# _framework density 26.745168
#
# number of rings (size 3 to 8) (size 9 to 14) (size 15 to 20)
#    0.000    2.000    1.250    2.250   10.500    2.000 
#    0.000    2.500    0.000    0.000    0.000    0.000 
#    0.000    0.000    0.000    0.000    0.000    0.000 
#
# Total GULP energy -89333.603866 kJ/mol
# GULP energy per Si atom -5583.350242 kJ/mol
# Density = 2.668429 g / cm^3
# Si number density = 26.745168 Si / 1000 Ang^3
#
#
#
# Elastic Constant Matrix: (Units=GPa)
#
#
# Indices 1 2 3 4 5 6 
#
# 1 161.3794 28.9122 90.6058 -21.4353 40.2408 -8.0820
# 2 28.9122 53.9832 20.9802 -15.4524 10.3420 -7.0884
# 3 90.6058 20.9802 216.9789 -20.1031 52.4000 -16.5954
# 4 -21.4353 -15.4524 -20.1031 28.8818 -16.6058 3.5345
# 5 40.2408 10.3420 52.4000 -16.6058 91.9460 -13.6259
# 6 -8.0820 -7.0884 -16.5954 3.5345 -13.6259 30.5382
#
#
#
# Elastic Compliance Matrix: (Units=1/GPa)
#
#
# Indices 1 2 3 4 5 6 
#
# 1 0.009038 -0.002835 -0.002952 0.002282 -0.001673 -0.000881
# 2 -0.002835 0.023383 -0.000076 0.010527 0.001137 0.003925
# 3 -0.002952 -0.000076 0.006556 0.000966 -0.002001 0.001759
# 4 0.002282 0.010527 0.000966 0.045774 0.005651 0.000796
# 5 -0.001673 0.001137 -0.002001 0.005651 0.014302 0.004461
# 6 -0.000881 0.003925 0.001759 0.000796 0.004461 0.036278
#
#
# Mechanical properties :
#
#
# Convention : Reuss Voigt Hill
#
# Bulk Modulus (GPa) = 36.69652 79.25976 57.97814
# Shear Modulus (GPa) = 32.02222 49.72942 40.87582
#
# Velocity S-wave (km/s) = 3.46397 4.31673 3.91365
# Velocity P-wave (km/s) = 5.45430 7.38546 6.49209
#
# Compressibility (1/GPa) = 0.02725054
#
# Stress axis : x y z
#
# Youngs Moduli (GPa) = 110.64425 42.76595 152.53302
#
# Poissons Ratio (x) = 0.12125 0.45026
# Poissons Ratio (y) = 0.31370 0.01161
# Poissons Ratio (z) = 0.32661 0.00326
#
# Static dielectric constant tensor:
#      x y z
#    x 2.181170 0.098070 0.168620 
#    y 0.098070 2.621840 0.373710 
#    z 0.168620 0.373710 2.417750 
# 
# From -- ./inp_files/47111.got.cif
#   From: 2010.05.17/outbox.cif.g08.bks.cpg/sg2_24_cif.got.tgz:47111.got - 2010.06.03 11:33:40.
