data_PCOD9002067
_publ_section_title
;
Structure prediction by ZEFSAII (Michael W. Deem and Ramdas Pophale) SiO2 
 PCOD9002067
Probable space group: P -1
;
_chemical_formula_sum "Si O2"
_cell_formula_units_Z 14
_cell_length_a 7.581505
_cell_length_b 13.394897
_cell_length_c 14.304095
_cell_angle_alpha 138.301780
_cell_angle_beta 145.549701
_cell_angle_gamma 42.923009
_cell_volume 519.742221
_symmetry_space_group_name_H-M "P -1"
_symmetry_group_IT_number 2
_symmetry_cell_setting 'triclinic'
loop_
_space_group_symop_operation_xyz
x,y,z
-x,-y,-z
loop_
_atom_site_type_symbol
_atom_site_label
_atom_site_fract_x
_atom_site_fract_y
_atom_site_fract_z
Si Si1 0.359396 0.909995 0.179466
Si Si2 0.289384 0.844621 0.483304
Si Si3 0.811165 0.630496 0.665582
Si Si4 0.163455 0.959849 0.321466
Si Si5 0.446315 0.676695 0.895915
Si Si6 0.211973 0.421311 0.845087
Si Si7 0.496398 0.166620 0.158483
O O1 0.134205 0.904058 0.164970
O O2 0.681701 0.767452 0.250701
O O3 0.413420 0.078190 0.325409
O O4 0.314226 0.848183 0.013661
O O5 0.472774 0.675010 0.489880
O O6 0.185487 0.831920 0.321990
O O7 0.000000 0.000000 0.500000
O O8 0.724094 0.767944 0.802881
O O9 0.129179 0.616666 0.729824
O O10 0.932061 0.487959 0.692738
O O11 0.500000 0.000000 0.500000
O O12 0.869938 0.116581 0.323137
O O13 0.538830 0.710533 0.855898
O O14 0.748890 0.575876 0.022532
O O15 0.500000 0.500000 0.000000
O O16 0.500000 0.000000 0.000000
#
# Coordination Sequence:
#
# PCOD9002067 Si02
#       7
#     2   2   2   2   2   2   2
#     4   9  19  38  60  81 120 153 195 243 305 353
#     4  11  21  36  56  83 121 153 200 250 290 346
#     4  11  21  39  62  88 122 153 204 250 298 363
#     4  10  21  36  57  84 119 160 196 246 302 355
#     4   9  20  38  59  86 124 153 187 248 314 348
#     4   8  19  38  60  86 121 159 189 246 311 362
#     4  12  23  33  62  98 115 155 209 250 308 358
#
# _framework density 26.936427999999999
#
# number of rings (size 3 to 8) (size 9 to 14) (size 15 to 20)
#    0.857    1.143    1.429    3.429    0.000    2.286 
#    0.000    1.429    3.143    0.000    0.000    0.000 
#    0.000    0.000    0.000    0.000    0.000    0.000 
#
# Total GULP energy -77964.132805 kJ/mol
# GULP energy per Si atom -5568.866629 kJ/mol
# Density = 2.687512 g / cm^3
# Si number density = 26.936428 Si / 1000 Ang^3
#
#
#
# Elastic Constant Matrix: (Units=GPa)
#
#
# Indices 1 2 3 4 5 6 
#
# 1 95.7074 26.3278 24.3023 -24.2820 -36.2213 26.4919
# 2 26.3278 110.7248 20.2434 -51.0649 0.7113 27.3787
# 3 24.3023 20.2434 54.3151 -25.2121 -11.7562 16.1278
# 4 -24.2820 -51.0649 -25.2121 58.8371 10.8787 -13.5117
# 5 -36.2213 0.7113 -11.7562 10.8787 37.9355 -14.3046
# 6 26.4919 27.3787 16.1278 -13.5117 -14.3046 50.2380
#
#
#
# Elastic Compliance Matrix: (Units=1/GPa)
#
#
# Indices 1 2 3 4 5 6 
#
# 1 0.019056 -0.003488 -0.002939 -0.000039 0.016401 -0.002545
# 2 -0.003488 0.018835 0.001948 0.015910 -0.010577 -0.007783
# 3 -0.002939 0.001948 0.025176 0.010117 0.000247 -0.004802
# 4 -0.000039 0.015910 0.010117 0.035709 -0.009304 -0.004943
# 5 0.016401 -0.010577 0.000247 -0.009304 0.048063 0.008219
# 6 -0.002545 -0.007783 -0.004802 -0.004943 0.008219 0.028041
#
#
# Mechanical properties :
#
#
# Convention : Reuss Voigt Hill
#
# Bulk Modulus (GPa) = 18.48134 44.72158 31.60146
# Shear Modulus (GPa) = 24.76811 42.06039 33.41425
#
# Velocity S-wave (km/s) = 3.03562 3.95583 3.52587
# Velocity P-wave (km/s) = 4.37751 6.12401 5.32288
#
# Compressibility (1/GPa) = 0.05410863
#
# Stress axis : x y z
#
# Youngs Moduli (GPa) = 52.47747 53.09375 39.72083
#
# Poissons Ratio (x) = 0.18518 0.11673
# Poissons Ratio (y) = 0.18303 -0.07736
# Poissons Ratio (z) = 0.15422 -0.10341
#
# Static dielectric constant tensor:
#      x y z
#    x 1.878280 0.250000 0.121200 
#    y 0.250000 2.004950 -0.071710 
#    z 0.121200 -0.071710 2.304570 
# 
# From -- ./inp_files/503116.got.cif
#   From: 2010.05.17/outbox.cif.g08.bks.cpg/sg2_252_cif.got.tgz:503116.got - 2010.06.03 11:33:40.
