data_PCOD9002819
_publ_section_title
;
Structure prediction by ZEFSAII (Michael W. Deem and Ramdas Pophale) SiO2 
 PCOD9002819
Probable space group: P -1
;
_chemical_formula_sum "Si O2"
_cell_formula_units_Z 16
_cell_length_a 11.717256
_cell_length_b 14.216364
_cell_length_c 9.371992
_cell_angle_alpha 88.098813
_cell_angle_beta 119.136397
_cell_angle_gamma 41.799021
_cell_volume 666.015600
_symmetry_space_group_name_H-M "P -1"
_symmetry_group_IT_number 2
_symmetry_cell_setting 'triclinic'
loop_
_space_group_symop_operation_xyz
x,y,z
-x,-y,-z
loop_
_atom_site_type_symbol
_atom_site_label
_atom_site_fract_x
_atom_site_fract_y
_atom_site_fract_z
Si Si1 0.545800 0.752777 0.173898
Si Si2 0.989593 0.594638 0.347128
Si Si3 0.951978 0.908750 0.941114
Si Si4 0.858853 0.417877 0.841216
Si Si5 0.153164 0.308662 0.283501
Si Si6 0.857738 0.004692 0.328714
Si Si7 0.251586 0.039730 0.458901
Si Si8 0.321989 0.703540 0.408561
O O1 0.770722 0.542026 0.387191
O O2 0.705656 0.748601 0.234675
O O3 0.324585 0.912771 0.150338
O O4 0.392258 0.813788 0.935892
O O5 0.994774 0.663347 0.217352
O O6 0.069881 0.445928 0.326269
O O7 0.905497 0.935390 0.742216
O O8 0.069181 0.730051 0.049485
O O9 0.176414 0.827604 0.168333
O O10 0.545104 0.632041 0.611207
O O11 0.960601 0.422572 0.024608
O O12 0.144766 0.213330 0.363680
O O13 0.448479 0.140890 0.409738
O O14 0.770662 0.982527 0.392952
O O15 0.089724 0.825449 0.371287
O O16 0.000000 0.000000 0.500000
O O17 0.500000 0.500000 0.500000
#
# Coordination Sequence:
#
# PCOD9002819 Si02
#       8
#     2   2   2   2   2   2   2   2
#     4  10  23  42  56  92 129 161 206 255 318 371
#     4  11  22  38  61  92 128 160 206 266 305 369
#     4   9  19  42  63  85 127 166 208 247 314 385
#     4  10  21  36  65  92 117 166 209 258 312 363
#     4  10  21  38  64  90 128 159 207 259 313 372
#     4  11  25  41  67  93 126 166 212 261 309 373
#     4  10  21  41  64  94 119 167 210 254 313 374
#     4   9  21  42  60  90 124 161 209 255 308 373
#
# _framework density 24.02346
#
# number of rings (size 3 to 8) (size 9 to 14) (size 15 to 20)
#    0.000    2.000    1.250    1.125    3.500    1.500 
#   13.500    8.125    0.000    0.000    0.000    0.000 
#    0.000    0.000    0.000    0.000    0.000    0.000 
#
# Total GULP energy -89520.110208 kJ/mol
# GULP energy per Si atom -5595.006888 kJ/mol
# Density = 2.396878 g / cm^3
# Si number density = 24.023460 Si / 1000 Ang^3
#
#
#
# Elastic Constant Matrix: (Units=GPa)
#
#
# Indices 1 2 3 4 5 6 
#
# 1 80.4844 23.0371 31.2859 7.3390 -6.7300 -18.8204
# 2 23.0371 73.4010 33.8941 1.3671 2.1650 -13.1893
# 3 31.2859 33.8941 185.8558 18.6745 5.4550 -3.0344
# 4 7.3390 1.3671 18.6745 34.1813 -5.9346 1.7897
# 5 -6.7300 2.1650 5.4550 -5.9346 37.7695 5.6520
# 6 -18.8204 -13.1893 -3.0344 1.7897 5.6520 25.2887
#
#
#
# Elastic Compliance Matrix: (Units=1/GPa)
#
#
# Indices 1 2 3 4 5 6 
#
# 1 0.016792 -0.002386 -0.001975 -0.002769 0.001346 0.010910
# 2 -0.002386 0.016884 -0.002553 0.000509 -0.002012 0.007138
# 3 -0.001975 -0.002553 0.006519 -0.003207 -0.001431 -0.001472
# 4 -0.002769 0.000509 -0.003207 0.032928 0.005990 -0.005849
# 5 0.001346 -0.002012 -0.001431 0.005990 0.029047 -0.007135
# 6 0.010910 0.007138 -0.001472 -0.005849 -0.007135 0.053218
#
#
# Mechanical properties :
#
#
# Convention : Reuss Voigt Hill
#
# Bulk Modulus (GPa) = 37.92624 57.35284 47.63954
# Shear Modulus (GPa) = 28.08941 36.21617 32.15279
#
# Velocity S-wave (km/s) = 3.42314 3.88691 3.66237
# Velocity P-wave (km/s) = 5.60761 6.63849 6.14471
#
# Compressibility (1/GPa) = 0.02636697
#
# Stress axis : x y z
#
# Youngs Moduli (GPa) = 59.55367 59.22795 153.40617
#
# Poissons Ratio (x) = 0.14131 0.30293
# Poissons Ratio (y) = 0.14209 0.39164
# Poissons Ratio (z) = 0.11760 0.15121
#
# Static dielectric constant tensor:
#      x y z
#    x 1.973600 0.061360 0.043060 
#    y 0.061360 1.906900 0.051280 
#    z 0.043060 0.051280 1.985070 
# 
# From -- ./inp_files/277855.got.cif
#   From: 2010.05.17/outbox.cif.g08.bks.cpg/sg2_139_cif.got.tgz:277855.got - 2010.06.03 11:33:40.
