data_PCOD9002139
_publ_section_title
;
Structure prediction by ZEFSAII (Michael W. Deem and Ramdas Pophale) SiO2 
 PCOD9002139
Probable space group: P -1
;
_chemical_formula_sum "Si O2"
_cell_formula_units_Z 16
_cell_length_a 6.050304
_cell_length_b 14.874223
_cell_length_c 12.384737
_cell_angle_alpha 70.114132
_cell_angle_beta 114.004692
_cell_angle_gamma 68.036349
_cell_volume 768.474964
_symmetry_space_group_name_H-M "P -1"
_symmetry_group_IT_number 2
_symmetry_cell_setting 'triclinic'
loop_
_space_group_symop_operation_xyz
x,y,z
-x,-y,-z
loop_
_atom_site_type_symbol
_atom_site_label
_atom_site_fract_x
_atom_site_fract_y
_atom_site_fract_z
Si Si1 0.548578 0.595211 0.928075
Si Si2 0.456591 0.305762 0.516354
Si Si3 0.004381 0.696975 0.458507
Si Si4 0.305455 0.767747 0.985569
Si Si5 0.507840 0.585566 0.296606
Si Si6 0.825635 0.945059 0.960202
Si Si7 0.176483 0.489866 0.206146
Si Si8 0.289453 0.175390 0.853485
O O1 0.578216 0.585259 0.809665
O O2 0.500000 0.500000 0.000000
O O3 0.315488 0.719792 0.889401
O O4 0.862301 0.557805 0.055638
O O5 0.776370 0.260667 0.537098
O O6 0.471850 0.361650 0.608912
O O7 0.220924 0.403362 0.343583
O O8 0.292796 0.244539 0.546547
O O9 0.219195 0.556331 0.586673
O O10 0.867316 0.717000 0.303723
O O11 0.463456 0.658926 0.149262
O O12 0.493635 0.820364 0.021903
O O13 0.962978 0.870479 0.909759
O O14 0.223950 0.580945 0.232563
O O15 0.483382 0.056862 0.864264
O O16 0.913528 0.846767 0.107994
O O17 0.000000 0.000000 0.000000
#
# Coordination Sequence:
#
# PCOD9002139 Si02
#       8
#     2   2   2   2   2   2   2   2
#     4  11  23  37  55  81 118 172 207 250 289 357
#     4  11  23  35  56  86 120 158 199 247 309 366
#     4  11  22  34  55  89 120 158 188 243 309 369
#     4  11  21  34  60  82 123 157 205 243 303 362
#     4  11  21  36  56  90 125 159 198 248 309 375
#     4   9  21  38  54  82 115 159 199 255 303 363
#     4  10  23  37  51  78 125 162 207 243 291 365
#     4  10  21  36  58  83 123 153 202 250 308 369
#
# _framework density 20.820457000000001
#
# number of rings (size 3 to 8) (size 9 to 14) (size 15 to 20)
#    0.000    1.500    2.500    3.375    8.750    0.000 
#    0.000    0.000    0.000    0.000    0.000    4.375 
#    0.000    0.125    0.000    0.000    0.000    0.000 
#
# Total GULP energy -89088.596832 kJ/mol
# GULP energy per Si atom -5568.037302 kJ/mol
# Density = 2.077307 g / cm^3
# Si number density = 20.820457 Si / 1000 Ang^3
#
#
#
# Elastic Constant Matrix: (Units=GPa)
#
#
# Indices 1 2 3 4 5 6 
#
# 1 122.8800 25.1586 10.3308 -1.0745 -22.0445 -5.1416
# 2 25.1586 88.9035 14.0034 7.3820 -7.8594 -19.9503
# 3 10.3308 14.0034 55.2896 14.0810 -13.1747 2.8730
# 4 -1.0745 7.3820 14.0810 11.5625 -3.3201 -8.5705
# 5 -22.0445 -7.8594 -13.1747 -3.3201 36.1174 -2.7739
# 6 -5.1416 -19.9503 2.8730 -8.5705 -2.7739 27.5320
#
#
#
# Elastic Compliance Matrix: (Units=1/GPa)
#
#
# Indices 1 2 3 4 5 6 
#
# 1 0.010169 -0.001585 -0.003292 0.011701 0.006148 0.005356
# 2 -0.001585 0.015332 -0.006044 0.008649 0.002061 0.014344
# 3 -0.003292 -0.006044 0.038676 -0.064044 0.002692 -0.028695
# 4 0.011701 0.008649 -0.064044 0.228962 0.013450 0.087765
# 5 0.006148 0.002061 0.002692 0.013450 0.034879 0.010062
# 6 0.005356 0.014344 -0.028695 0.087765 0.010062 0.079044
#
#
# Mechanical properties :
#
#
# Convention : Reuss Voigt Hill
#
# Bulk Modulus (GPa) = 23.62177 40.67320 32.14749
# Shear Modulus (GPa) = 11.28630 29.54773 20.41702
#
# Velocity S-wave (km/s) = 2.33078 3.77127 3.13489
# Velocity P-wave (km/s) = 4.31433 6.20814 5.34577
#
# Compressibility (1/GPa) = 0.04233383
#
# Stress axis : x y z
#
# Youngs Moduli (GPa) = 98.34129 65.22429 25.85613
#
# Poissons Ratio (x) = 0.10341 0.08511
# Poissons Ratio (y) = 0.15591 0.15627
# Poissons Ratio (z) = 0.32372 0.39420
#
# Static dielectric constant tensor:
#      x y z
#    x 1.917230 -0.065530 0.039400 
#    y -0.065530 1.784730 -0.049800 
#    z 0.039400 -0.049800 1.737820 
# 
# From -- ./inp_files/77351.got.cif
#   From: 2010.05.17/outbox.cif.g08.bks.cpg/sg2_39_cif.got.tgz:77351.got - 2010.06.03 11:33:40.
