data_PCOD9002901
_publ_section_title
;
Structure prediction by ZEFSAII (Michael W. Deem and Ramdas Pophale) SiO2 
 PCOD9002901
Probable space group: P -1
;
_chemical_formula_sum "Si O2"
_cell_formula_units_Z 14
_cell_length_a 13.666836
_cell_length_b 14.353262
_cell_length_c 22.303278
_cell_angle_alpha 157.667633
_cell_angle_beta 19.551354
_cell_angle_gamma 149.329271
_cell_volume 554.039842
_symmetry_space_group_name_H-M "P -1"
_symmetry_group_IT_number 2
_symmetry_cell_setting 'triclinic'
loop_
_space_group_symop_operation_xyz
x,y,z
-x,-y,-z
loop_
_atom_site_type_symbol
_atom_site_label
_atom_site_fract_x
_atom_site_fract_y
_atom_site_fract_z
Si Si1 0.998528 0.252070 0.270405
Si Si2 0.418739 0.093312 0.764861
Si Si3 0.497147 0.106510 0.272831
Si Si4 0.982689 0.502570 0.230122
Si Si5 0.219417 0.532818 0.978087
Si Si6 0.208582 0.252640 0.276454
Si Si7 0.113137 0.119235 0.710586
O O1 0.900237 0.537925 0.488006
O O2 0.974908 0.237795 0.347794
O O3 0.798632 0.090730 0.249667
O O4 0.329431 0.136643 0.998976
O O5 0.540668 0.970848 0.682666
O O6 0.670475 0.095430 0.571112
O O7 0.228773 0.354025 0.040461
O O8 0.731923 0.311807 0.254933
O O9 0.196382 0.235660 0.495335
O O10 0.138422 0.530133 0.092620
O O11 0.950104 0.678948 0.184747
O O12 0.501411 0.661646 0.870137
O O13 0.244167 0.259016 0.773454
O O14 0.187077 0.987853 0.160193
#
# Coordination Sequence:
#
# PCOD9002901 Si02
#       7
#     2   2   2   2   2   2   2
#     4  10  22  40  65  95 135 172 222 275 329 392
#     4  11  21  41  71 101 132 176 225 272 331 400
#     4  10  21  43  65 102 133 173 229 271 324 403
#     4  10  21  36  69  96 128 175 219 270 332 384
#     4  11  23  43  66 101 134 173 226 277 327 400
#     4  11  24  41  65  99 136 172 222 277 330 398
#     4  11  23  40  68 100 135 177 220 274 338 390
#
# _framework density 25.268937999999999
#
# number of rings (size 3 to 8) (size 9 to 14) (size 15 to 20)
#    0.000    1.429    2.857    3.857    4.000    1.143 
#    0.000    2.857    3.143    0.000    0.000    0.000 
#    0.000    0.000    0.000    0.000    0.000    0.000 
#
# Total GULP energy -78219.450331 kJ/mol
# GULP energy per Si atom -5587.103595 kJ/mol
# Density = 2.521142 g / cm^3
# Si number density = 25.268938 Si / 1000 Ang^3
#
#
#
# Elastic Constant Matrix: (Units=GPa)
#
#
# Indices 1 2 3 4 5 6 
#
# 1 23.9488 0.4475 -4.4094 -2.3818 -8.6529 5.8869
# 2 0.4475 50.8382 -96.6221 -57.4905 -20.0112 -16.4113
# 3 -4.4094 -96.6221 -75.4812 -82.5746 -25.4290 -10.8568
# 4 -2.3818 -57.4905 -82.5746 -0.9363 -19.9595 -8.2401
# 5 -8.6529 -20.0112 -25.4290 -19.9595 22.0468 -2.7654
# 6 5.8869 -16.4113 -10.8568 -8.2401 -2.7654 24.8561
#
#
#
# Elastic Compliance Matrix: (Units=1/GPa)
#
#
# Indices 1 2 3 4 5 6 
#
# 1 0.049407 -0.002712 -0.001438 -0.000524 0.013187 -0.012827
# 2 -0.002712 0.007026 -0.004323 -0.003560 -0.002655 0.001918
# 3 -0.001438 -0.004323 0.005276 -0.009077 -0.007123 -0.004011
# 4 -0.000524 -0.003560 -0.009077 0.013380 -0.002042 -0.001982
# 5 0.013187 -0.002655 -0.007123 -0.002042 0.037495 -0.004493
# 6 -0.012827 0.001918 -0.004011 -0.001982 -0.004493 0.041627
#
#
# Mechanical properties :
#
#
# Convention : Reuss Voigt Hill
#
# Bulk Modulus (GPa) = 22.33991 -22.42914 -0.04462
# Shear Modulus (GPa) = 26.87019 15.85264 21.36142
#
# Velocity S-wave (km/s) = 3.26447 2.50743 2.91067
# Velocity P-wave (km/s) = 4.80303 0.71591 3.35831
#
# Compressibility (1/GPa) = 0.04476294
#
# Stress axis : x y z
#
# Youngs Moduli (GPa) = 20.24002 142.32076 189.52916
#
# Poissons Ratio (x) = 0.38597 0.27263
# Poissons Ratio (y) = 0.05489 0.81932
# Poissons Ratio (z) = 0.02911 0.61525
#
# Static dielectric constant tensor:
#      x y z
#    x 2.019030 0.000150 -0.028020 
#    y 0.000150 1.966030 -0.004050 
#    z -0.028020 -0.004050 2.073120 
# 
# From -- ./inp_files/314526.got.cif
#   From: 2010.05.17/outbox.cif.g08.bks.cpg/sg2_158_cif.got.tgz:314526.got - 2010.06.03 11:33:40.
