data_PCOD9002834
_publ_section_title
;
Structure prediction by ZEFSAII (Michael W. Deem and Ramdas Pophale) SiO2 
 PCOD9002834
Probable space group: P -1
;
_chemical_formula_sum "Si O2"
_cell_formula_units_Z 16
_cell_length_a 19.862827
_cell_length_b 11.524064
_cell_length_c 7.634075
_cell_angle_alpha 102.125357
_cell_angle_beta 49.147894
_cell_angle_gamma 141.387268
_cell_volume 635.312183
_symmetry_space_group_name_H-M "P -1"
_symmetry_group_IT_number 2
_symmetry_cell_setting 'triclinic'
loop_
_space_group_symop_operation_xyz
x,y,z
-x,-y,-z
loop_
_atom_site_type_symbol
_atom_site_label
_atom_site_fract_x
_atom_site_fract_y
_atom_site_fract_z
Si Si1 0.300204 0.573960 0.822803
Si Si2 0.170093 0.177229 0.551841
Si Si3 0.323133 0.410183 0.002177
Si Si4 0.553522 0.695960 0.242267
Si Si5 0.040141 0.856237 0.948211
Si Si6 0.357059 0.084453 0.167622
Si Si7 0.173130 0.770654 0.718760
Si Si8 0.508039 0.999284 0.194238
O O1 0.232451 0.399888 0.025866
O O2 0.483947 0.719850 0.494780
O O3 0.334459 0.739519 0.906570
O O4 0.154157 0.419009 0.870679
O O5 0.362859 0.440962 0.390367
O O6 0.011657 0.085581 0.842709
O O7 0.198345 0.227566 0.316421
O O8 0.135366 0.013585 0.658963
O O9 0.379863 0.350492 0.802938
O O10 0.497589 0.681964 0.877127
O O11 0.687945 0.885566 0.913176
O O12 0.148306 0.877104 0.865222
O O13 0.212584 0.850732 0.468694
O O14 0.462759 0.105892 0.879156
O O15 0.333215 0.864904 0.519752
O O16 0.000000 0.500000 0.000000
O O17 0.500000 0.000000 0.000000
#
# Coordination Sequence:
#
# PCOD9002834 Si02
#       8
#     2   2   2   2   2   2   2   2
#     4  11  23  38  64  95 131 164 209 272 307 381
#     4   9  20  36  65  87 130 176 197 256 319 392
#     4  11  19  37  67  93 123 167 216 252 314 383
#     4  10  21  36  65  98 124 163 217 258 314 376
#     4  10  22  41  58  97 133 161 209 262 328 363
#     4  10  21  42  68  90 126 171 220 253 310 388
#     4  11  23  38  68  89 121 166 219 261 306 378
#     4  10  22  43  67  87 121 176 215 252 313 377
#
# _framework density 25.184467000000001
#
# number of rings (size 3 to 8) (size 9 to 14) (size 15 to 20)
#    0.000    1.750    2.500    3.375    5.250    1.000 
#    2.250    2.500    5.500    0.000    0.000    0.000 
#    0.000    0.000    0.000    0.000    0.000    0.000 
#
# Total GULP energy -89302.047846 kJ/mol
# GULP energy per Si atom -5581.377990 kJ/mol
# Density = 2.512715 g / cm^3
# Si number density = 25.184467 Si / 1000 Ang^3
#
#
#
# Elastic Constant Matrix: (Units=GPa)
#
#
# Indices 1 2 3 4 5 6 
#
# 1 78.7894 14.8208 16.7636 -11.0887 3.0890 -28.8579
# 2 14.8208 111.5575 26.1674 6.4367 -0.2013 -16.6430
# 3 16.7636 26.1674 110.3304 -10.3454 16.7398 -21.2377
# 4 -11.0887 6.4367 -10.3454 33.2474 -7.7702 -1.0800
# 5 3.0890 -0.2013 16.7398 -7.7702 44.6864 -7.4161
# 6 -28.8579 -16.6430 -21.2377 -1.0800 -7.4161 44.2919
#
#
#
# Elastic Compliance Matrix: (Units=1/GPa)
#
#
# Indices 1 2 3 4 5 6 
#
# 1 0.018198 -0.001077 0.000190 0.007175 0.001911 0.012039
# 2 -0.001077 0.010099 -0.002208 -0.002741 0.000820 0.002105
# 3 0.000190 -0.002208 0.011133 0.003415 -0.002897 0.004231
# 4 0.007175 -0.002741 0.003415 0.035598 0.005578 0.007084
# 5 0.001911 0.000820 -0.002897 0.005578 0.025051 0.004494
# 6 0.012039 0.002105 0.004231 0.007084 0.004494 0.034166
#
#
# Mechanical properties :
#
#
# Convention : Reuss Voigt Hill
#
# Bulk Modulus (GPa) = 30.08326 46.24233 38.16279
# Shear Modulus (GPa) = 33.00056 40.64018 36.82037
#
# Velocity S-wave (km/s) = 3.62381 4.02145 3.82779
# Velocity P-wave (km/s) = 5.42959 6.32171 5.89256
#
# Compressibility (1/GPa) = 0.03324108
#
# Stress axis : x y z
#
# Youngs Moduli (GPa) = 54.95027 99.02394 89.82633
#
# Poissons Ratio (x) = 0.10664 -0.01711
# Poissons Ratio (y) = 0.05918 0.19831
# Poissons Ratio (z) = -0.01047 0.21862
#
# Static dielectric constant tensor:
#      x y z
#    x 2.330460 -0.065790 -0.082140 
#    y -0.065790 2.029440 0.017360 
#    z -0.082140 0.017360 2.058130 
# 
# From -- ./inp_files/353557.got.cif
#   From: 2010.05.17/outbox.cif.g08.bks.cpg/sg2_177_cif.got.tgz:353557.got - 2010.06.03 11:33:40.
