data_PCOD9002013
_publ_section_title
;
Structure prediction by ZEFSAII (Michael W. Deem and Ramdas Pophale) SiO2 
 PCOD9002013
Probable space group: P -1
;
_chemical_formula_sum "Si O2"
_cell_formula_units_Z 14
_cell_length_a 19.413719
_cell_length_b 12.008002
_cell_length_c 5.265674
_cell_angle_alpha 116.075708
_cell_angle_beta 84.433155
_cell_angle_gamma 133.573523
_cell_volume 757.744427
_symmetry_space_group_name_H-M "P -1"
_symmetry_group_IT_number 2
_symmetry_cell_setting 'triclinic'
loop_
_space_group_symop_operation_xyz
x,y,z
-x,-y,-z
loop_
_atom_site_type_symbol
_atom_site_label
_atom_site_fract_x
_atom_site_fract_y
_atom_site_fract_z
Si Si1 0.861177 0.686695 0.273508
Si Si2 0.216000 0.048690 0.923251
Si Si3 0.870710 0.294793 0.620106
Si Si4 0.899156 0.480486 0.290159
Si Si5 0.301226 0.392645 0.997666
Si Si6 0.388942 0.408636 0.469657
Si Si7 0.053476 0.979477 0.161995
O O1 0.861376 0.569553 0.337462
O O2 0.767593 0.578540 0.009850
O O3 0.967494 0.825721 0.230051
O O4 0.862834 0.819248 0.555019
O O5 0.209047 0.911950 0.641031
O O6 0.226573 0.179051 0.860125
O O7 0.111480 0.936854 0.991940
O O8 0.309288 0.194260 0.223224
O O9 0.875711 0.403848 0.504437
O O10 0.981179 0.375041 0.655920
O O11 0.854024 0.332509 0.939371
O O12 0.367819 0.442588 0.782273
O O13 0.364734 0.474085 0.315769
O O14 0.500000 0.500000 0.500000
O O15 0.000000 0.000000 0.000000
#
# Coordination Sequence:
#
# PCOD9002013 Si02
#       7
#     2   2   2   2   2   2   2
#     4  11  22  33  52  82 114 152 185 223 276 325
#     4  10  22  33  59  79 117 139 190 223 277 331
#     4  10  23  38  49  77 107 160 193 225 251 315
#     4  10  24  35  53  71 115 155 197 218 256 309
#     4  10  21  36  56  86 110 140 176 230 283 343
#     4  10  21  37  58  86 112 136 174 234 298 339
#     4  11  20  32  51  81 116 149 179 224 276 332
#
# _framework density 18.475887
#
# number of rings (size 3 to 8) (size 9 to 14) (size 15 to 20)
#    0.857    0.857    2.857    1.286   12.000    0.000 
#    0.000    0.000    0.000    0.000    0.000    6.000 
#    0.000    0.000    0.000    0.000    0.000    0.000 
#
# Total GULP energy -78091.683995 kJ/mol
# GULP energy per Si atom -5577.977428 kJ/mol
# Density = 1.843384 g / cm^3
# Si number density = 18.475887 Si / 1000 Ang^3
#
#
#
# Elastic Constant Matrix: (Units=GPa)
#
#
# Indices 1 2 3 4 5 6 
#
# 1 74.3519 20.5420 -0.0162 -2.5742 10.6215 -5.5014
# 2 20.5420 26.3291 2.1818 -7.3621 0.5279 -1.7039
# 3 -0.0162 2.1818 60.3851 -6.6713 -2.0959 5.1689
# 4 -2.5742 -7.3621 -6.6713 25.1567 -3.8768 1.4663
# 5 10.6215 0.5279 -2.0959 -3.8768 24.3483 -7.4094
# 6 -5.5014 -1.7039 5.1689 1.4663 -7.4094 27.7015
#
#
#
# Elastic Compliance Matrix: (Units=1/GPa)
#
#
# Indices 1 2 3 4 5 6 
#
# 1 0.018870 -0.015609 -0.000235 -0.004027 -0.008304 0.000823
# 2 -0.015609 0.054453 -0.000106 0.015538 0.008627 0.001754
# 3 -0.000235 -0.000106 0.017436 0.004975 0.001427 -0.003188
# 4 -0.004027 0.015538 0.004975 0.046644 0.009023 -0.000828
# 5 -0.008304 0.008627 0.001427 0.009023 0.049530 0.011386
# 6 0.000823 0.001754 -0.003188 -0.000828 0.011386 0.040055
#
#
# Mechanical properties :
#
#
# Convention : Reuss Voigt Hill
#
# Bulk Modulus (GPa) = 16.98941 22.94237 19.96589
# Shear Modulus (GPa) = 17.95291 24.66519 21.30905
#
# Velocity S-wave (km/s) = 3.12058 3.65772 3.39978
# Velocity P-wave (km/s) = 4.71163 5.50300 5.12262
#
# Compressibility (1/GPa) = 0.05886019
#
# Stress axis : x y z
#
# Youngs Moduli (GPa) = 52.99488 18.36447 57.35201
#
# Poissons Ratio (x) = 0.28665 0.01345
# Poissons Ratio (y) = 0.82720 0.00607
# Poissons Ratio (z) = 0.01243 0.00194
#
# Static dielectric constant tensor:
#      x y z
#    x 1.633280 -0.001190 0.006980 
#    y -0.001190 1.643010 -0.023190 
#    z 0.006980 -0.023190 1.736470 
# 
# From -- ./inp_files/79685.got.cif
#   From: 2010.05.17/outbox.cif.g08.bks.cpg/sg2_40_cif.got.tgz:79685.got - 2010.06.03 11:33:40.
