data_PCOD9002107
_publ_section_title
;
Structure prediction by ZEFSAII (Michael W. Deem and Ramdas Pophale) SiO2 
 PCOD9002107
Probable space group: P -1
;
_chemical_formula_sum "Si O2"
_cell_formula_units_Z 16
_cell_length_a 15.345095
_cell_length_b 9.372473
_cell_length_c 14.901261
_cell_angle_alpha 99.792460
_cell_angle_beta 36.662304
_cell_angle_gamma 128.691904
_cell_volume 702.292813
_symmetry_space_group_name_H-M "P -1"
_symmetry_group_IT_number 2
_symmetry_cell_setting 'triclinic'
loop_
_space_group_symop_operation_xyz
x,y,z
-x,-y,-z
loop_
_atom_site_type_symbol
_atom_site_label
_atom_site_fract_x
_atom_site_fract_y
_atom_site_fract_z
Si Si1 0.384539 0.247137 0.066425
Si Si2 0.631064 0.168228 0.819300
Si Si3 0.162692 0.564104 0.706536
Si Si4 0.045580 0.835237 0.462346
Si Si5 0.647164 0.469175 0.603289
Si Si6 0.343251 0.942813 0.845019
Si Si7 0.133292 0.078992 0.601159
Si Si8 0.332647 0.995008 0.552290
O O1 0.250686 0.083617 0.251842
O O2 0.500000 0.500000 0.000000
O O3 0.619147 0.329591 0.861800
O O4 0.139034 0.055748 0.179751
O O5 0.879627 0.272122 0.609959
O O6 0.456993 0.006286 0.856963
O O7 0.500000 0.000000 0.000000
O O8 0.148991 0.464518 0.614176
O O9 0.458614 0.786669 0.521646
O O10 0.134458 0.711998 0.726105
O O11 0.961435 0.341906 0.922713
O O12 0.775201 0.621359 0.608043
O O13 0.085981 0.944162 0.535939
O O14 0.640279 0.614102 0.569776
O O15 0.412305 0.163912 0.782509
O O16 0.494443 0.956634 0.656118
O O17 0.199481 0.021693 0.618450
#
# Coordination Sequence:
#
# PCOD9002107 Si02
#       8
#     2   2   2   2   2   2   2   2
#     4  10  22  34  57  87 126 165 201 257 311 366
#     4  10  21  36  57  89 122 165 211 251 301 377
#     4  10  22  44  65  93 122 162 217 266 315 372
#     4  10  21  40  58  85 132 165 209 251 308 383
#     4  10  23  39  62  92 129 173 203 258 324 373
#     4  11  21  39  64  90 124 166 211 260 314 377
#     4  11  22  42  59  93 129 167 205 259 323 374
#     4  10  23  42  68  91 123 165 212 266 317 374
#
# _framework density 22.782518
#
# number of rings (size 3 to 8) (size 9 to 14) (size 15 to 20)
#    0.000    1.750    1.250    4.125    3.500    5.000 
#    0.000    0.625    0.000    0.000    0.000    0.000 
#    0.000    0.000    0.000    0.000    0.000    0.000 
#
# Total GULP energy -89375.287966 kJ/mol
# GULP energy per Si atom -5585.955498 kJ/mol
# Density = 2.273066 g / cm^3
# Si number density = 22.782518 Si / 1000 Ang^3
#
#
#
# Elastic Constant Matrix: (Units=GPa)
#
#
# Indices 1 2 3 4 5 6 
#
# 1 126.2066 45.2206 16.4090 -10.9710 2.6114 -36.0174
# 2 45.2206 102.1795 35.5998 -13.1213 6.0830 -34.5086
# 3 16.4090 35.5998 88.1421 -11.3943 20.4554 -24.5331
# 4 -10.9710 -13.1213 -11.3943 39.2608 -11.4500 10.2290
# 5 2.6114 6.0830 20.4554 -11.4500 27.2005 2.2970
# 6 -36.0174 -34.5086 -24.5331 10.2290 2.2970 52.4157
#
#
#
# Elastic Compliance Matrix: (Units=1/GPa)
#
#
# Indices 1 2 3 4 5 6 
#
# 1 0.010581 -0.003002 0.001334 0.000290 -0.001727 0.005938
# 2 -0.003002 0.014387 -0.003502 0.001485 -0.000134 0.005486
# 3 0.001334 -0.003502 0.017752 -0.001823 -0.014129 0.007895
# 4 0.000290 0.001485 -0.001823 0.031533 0.014832 -0.006480
# 5 -0.001727 -0.000134 -0.014129 0.014832 0.054942 -0.013190
# 6 0.005938 0.005486 0.007895 -0.006480 -0.013190 0.032308
#
#
# Mechanical properties :
#
#
# Convention : Reuss Voigt Hill
#
# Bulk Modulus (GPa) = 30.88405 56.77635 43.83020
# Shear Modulus (GPa) = 27.37671 38.39530 32.88601
#
# Velocity S-wave (km/s) = 3.47025 4.10969 3.80343
# Velocity P-wave (km/s) = 5.44447 6.89163 6.21035
#
# Compressibility (1/GPa) = 0.03237917
#
# Stress axis : x y z
#
# Youngs Moduli (GPa) = 94.50664 69.50849 56.33159
#
# Poissons Ratio (x) = 0.20867 -0.07512
# Poissons Ratio (y) = 0.28372 0.19726
# Poissons Ratio (z) = -0.12603 0.24341
#
# Static dielectric constant tensor:
#      x y z
#    x 1.823170 -0.019420 0.021380 
#    y -0.019420 1.879340 -0.002380 
#    z 0.021380 -0.002380 1.922640 
# 
# From -- ./inp_files/529888.got.cif
#   From: 2010.05.17/outbox.cif.g08.bks.cpg/sg2_265_cif.got.tgz:529888.got - 2010.06.03 11:33:40.
