data_PCOD9002281
_publ_section_title
;
Structure prediction by ZEFSAII (Michael W. Deem and Ramdas Pophale) SiO2 
 PCOD9002281
Probable space group: P -1
;
_chemical_formula_sum "Si O2"
_cell_formula_units_Z 12
_cell_length_a 5.642591
_cell_length_b 19.771153
_cell_length_c 5.102503
_cell_angle_alpha 69.499268
_cell_angle_beta 100.855404
_cell_angle_gamma 80.157396
_cell_volume 505.983962
_symmetry_space_group_name_H-M "P -1"
_symmetry_group_IT_number 2
_symmetry_cell_setting 'triclinic'
loop_
_space_group_symop_operation_xyz
x,y,z
-x,-y,-z
loop_
_atom_site_type_symbol
_atom_site_label
_atom_site_fract_x
_atom_site_fract_y
_atom_site_fract_z
Si Si1 0.406302 0.587719 0.900703
Si Si2 0.650213 0.913941 0.110819
Si Si3 0.826494 0.335226 0.737810
Si Si4 0.203456 0.045902 0.412541
Si Si5 0.531345 0.218155 0.893531
Si Si6 0.308479 0.291606 0.257151
O O1 0.183823 0.622418 0.598881
O O2 0.606834 0.632298 0.795554
O O3 0.500000 0.500000 0.000000
O O4 0.352987 0.609550 0.164584
O O5 0.211701 0.105322 0.559294
O O6 0.851941 0.912685 0.930465
O O7 0.460377 0.867107 0.044208
O O8 0.500000 0.000000 0.000000
O O9 0.734596 0.259969 0.783241
O O10 0.070872 0.311385 0.995698
O O11 0.500000 0.000000 0.500000
O O12 0.000000 0.000000 0.500000
O O13 0.305153 0.256525 0.591047
O O14 0.498786 0.235692 0.172448
#
# Coordination Sequence:
#
# PCOD9002281 Si02
#       6
#     2   2   2   2   2   2
#     4  10  21  36  59  89 121 155 197 247 293 357
#     4  10  21  40  62  88 119 157 206 267 320 377
#     4  10  21  38  59  83 122 157 198 245 299 361
#     4  10  21  40  61  86 123 157 198 260 328 387
#     4  10  21  40  58  84 119 155 207 248 307 370
#     4  10  21  38  59  86 118 161 199 246 301 367
#
# _framework density 23.716166999999999
#
# number of rings (size 3 to 8) (size 9 to 14) (size 15 to 20)
#    0.000    2.000    0.000    3.000    0.000    1.333 
#   18.000    0.000    0.000    0.000    0.000    0.000 
#    0.000    0.000    0.000    0.000    0.000    0.000 
#
# Total GULP energy -66897.627860 kJ/mol
# GULP energy per Si atom -5574.802322 kJ/mol
# Density = 2.366219 g / cm^3
# Si number density = 23.716167 Si / 1000 Ang^3
#
#
#
# Elastic Constant Matrix: (Units=GPa)
#
#
# Indices 1 2 3 4 5 6 
#
# 1 50.4366 16.7629 16.7178 2.1567 7.2972 12.1983
# 2 16.7629 167.9712 21.6525 1.5060 -5.3417 13.1721
# 3 16.7178 21.6525 122.9936 24.1258 -21.1968 -7.2159
# 4 2.1567 1.5060 24.1258 38.2484 -9.4873 1.9258
# 5 7.2972 -5.3417 -21.1968 -9.4873 40.1700 9.0018
# 6 12.1983 13.1721 -7.2159 1.9258 9.0018 16.2979
#
#
#
# Elastic Compliance Matrix: (Units=1/GPa)
#
#
# Indices 1 2 3 4 5 6 
#
# 1 0.027427 -0.000386 -0.005907 0.002621 -0.002677 -0.021663
# 2 -0.000386 0.006814 -0.001515 0.001620 0.002194 -0.007292
# 3 -0.005907 -0.001515 0.011636 -0.006632 0.003252 0.009784
# 4 0.002621 0.001620 -0.006632 0.032570 0.007059 -0.013955
# 5 -0.002677 0.002194 0.003252 0.007059 0.032946 -0.017361
# 6 -0.021663 -0.007292 0.009784 -0.013955 -0.017361 0.099035
#
#
# Mechanical properties :
#
#
# Convention : Reuss Voigt Hill
#
# Bulk Modulus (GPa) = 33.04343 50.18531 41.61437
# Shear Modulus (GPa) = 21.17478 38.02782 29.60130
#
# Velocity S-wave (km/s) = 2.99129 4.00866 3.53675
# Velocity P-wave (km/s) = 5.08857 6.52936 5.85346
#
# Compressibility (1/GPa) = 0.03026320
#
# Stress axis : x y z
#
# Youngs Moduli (GPa) = 36.46000 146.75117 85.94348
#
# Poissons Ratio (x) = 0.05659 0.50763
# Poissons Ratio (y) = 0.01406 0.13019
# Poissons Ratio (z) = 0.21535 0.22230
#
# Static dielectric constant tensor:
#      x y z
#    x 1.900970 -0.019660 -0.099960 
#    y -0.019660 1.889660 0.069600 
#    z -0.099960 0.069600 1.919600 
# 
# From -- ./inp_files/5982.got.cif
#   From: 2010.05.17/outbox.cif.g08.bks.cpg/sg2_3_cif.got.tgz:5982.got - 2010.06.03 11:33:40.
