data_PCOD9002598
_publ_section_title
;
Structure prediction by ZEFSAII (Michael W. Deem and Ramdas Pophale) SiO2 
 PCOD9002598
Probable space group: P -1
;
_chemical_formula_sum "Si O2"
_cell_formula_units_Z 14
_cell_length_a 20.938681
_cell_length_b 5.144836
_cell_length_c 5.268946
_cell_angle_alpha 94.984348
_cell_angle_beta 104.173531
_cell_angle_gamma 73.017899
_cell_volume 526.255664
_symmetry_space_group_name_H-M "P -1"
_symmetry_group_IT_number 2
_symmetry_cell_setting 'triclinic'
loop_
_space_group_symop_operation_xyz
x,y,z
-x,-y,-z
loop_
_atom_site_type_symbol
_atom_site_label
_atom_site_fract_x
_atom_site_fract_y
_atom_site_fract_z
Si Si1 0.579502 0.526457 0.882143
Si Si2 0.318303 0.978686 0.779743
Si Si3 0.284495 0.200641 0.258441
Si Si4 0.918420 0.911328 0.020384
Si Si5 0.788151 0.187763 0.643748
Si Si6 0.957247 0.386796 0.240279
Si Si7 0.457398 0.263192 0.635897
O O1 0.509706 0.444115 0.753143
O O2 0.598927 0.583667 0.616956
O O3 0.629798 0.276395 0.058078
O O4 0.564843 0.766360 0.097835
O O5 0.247192 0.906291 0.640643
O O6 0.337283 0.066301 0.525527
O O7 0.307222 0.217421 0.994463
O O8 0.238046 0.489530 0.331337
O O9 0.243930 0.969946 0.188573
O O10 0.900651 0.655326 0.111327
O O11 0.925204 0.140083 0.248020
O O12 0.990141 0.756019 0.942843
O O13 0.867964 0.066747 0.765502
O O14 0.000000 0.500000 0.500000
O O15 0.500000 0.000000 0.500000
#
# Coordination Sequence:
#
# PCOD9002598 Si02
#       7
#     2   2   2   2   2   2   2
#     4  10  21  39  59  90 124 158 214 250 316 374
#     4  10  24  41  64  92 129 174 213 267 316 386
#     4  10  24  41  64  90 130 167 221 255 326 371
#     4  10  21  39  60  90 125 152 215 246 318 374
#     4  10  24  40  63  94 127 173 209 271 315 385
#     4  10  21  38  62  91 120 165 196 260 307 378
#     4  10  21  36  62  91 123 163 202 261 310 372
#
# _framework density 26.603041999999999
#
# number of rings (size 3 to 8) (size 9 to 14) (size 15 to 20)
#    0.857    1.143    0.000    2.571    2.000    4.571 
#    0.000    0.000    0.000    0.000    0.000    0.000 
#    0.000    0.000    0.000    0.000    0.000    0.000 
#
# Total GULP energy -78173.465582 kJ/mol
# GULP energy per Si atom -5583.818970 kJ/mol
# Density = 2.654249 g / cm^3
# Si number density = 26.603042 Si / 1000 Ang^3
#
#
#
# Elastic Constant Matrix: (Units=GPa)
#
#
# Indices 1 2 3 4 5 6 
#
# 1 28.9947 16.8350 34.1216 -8.6557 4.8648 10.2405
# 2 16.8350 182.3970 79.0626 -7.0177 7.5675 -1.8332
# 3 34.1216 79.0626 215.9688 -1.1326 0.9344 -6.3668
# 4 -8.6557 -7.0177 -1.1326 53.5939 2.1056 14.5170
# 5 4.8648 7.5675 0.9344 2.1056 45.3622 -9.4015
# 6 10.2405 -1.8332 -6.3668 14.5170 -9.4015 33.0290
#
#
#
# Elastic Compliance Matrix: (Units=1/GPa)
#
#
# Indices 1 2 3 4 5 6 
#
# 1 0.073118 -0.000152 -0.012482 0.023032 -0.016923 -0.040024
# 2 -0.000152 0.006630 -0.002418 0.001084 -0.001275 -0.000890
# 3 -0.012482 -0.002418 0.007691 -0.004530 0.003494 0.008204
# 4 0.023032 0.001084 -0.004530 0.029052 -0.008715 -0.023204
# 5 -0.016923 -0.001275 0.003494 -0.008715 0.028067 0.017669
# 6 -0.040024 -0.000890 0.008204 -0.023204 0.017669 0.059446
#
#
# Mechanical properties :
#
#
# Convention : Reuss Voigt Hill
#
# Bulk Modulus (GPa) = 17.44179 76.37764 46.90971
# Shear Modulus (GPa) = 19.74561 46.21978 32.98270
#
# Velocity S-wave (km/s) = 2.72735 4.17272 3.52491
# Velocity P-wave (km/s) = 4.06060 7.21026 5.85134
#
# Compressibility (1/GPa) = 0.05733356
#
# Stress axis : x y z
#
# Youngs Moduli (GPa) = 13.67656 150.81858 130.02678
#
# Poissons Ratio (x) = 0.02292 1.62304
# Poissons Ratio (y) = 0.00208 0.31445
# Poissons Ratio (z) = 0.17072 0.36473
#
# Static dielectric constant tensor:
#      x y z
#    x 2.500490 0.133630 -0.268200 
#    y 0.133630 2.084990 -0.130660 
#    z -0.268200 -0.130660 2.421870 
# 
# From -- ./inp_files/125921.got.cif
#   From: 2010.05.17/outbox.cif.g08.bks.cpg/sg2_63_cif.got.tgz:125921.got - 2010.06.03 11:33:40.
