data_PCOD9002543
_publ_section_title
;
Structure prediction by ZEFSAII (Michael W. Deem and Ramdas Pophale) SiO2 
 PCOD9002543
Probable space group: P -1
;
_chemical_formula_sum "Si O2"
_cell_formula_units_Z 14
_cell_length_a 8.618346
_cell_length_b 11.060787
_cell_length_c 6.741550
_cell_angle_alpha 98.332756
_cell_angle_beta 84.644913
_cell_angle_gamma 80.745215
_cell_volume 623.089429
_symmetry_space_group_name_H-M "P -1"
_symmetry_group_IT_number 2
_symmetry_cell_setting 'triclinic'
loop_
_space_group_symop_operation_xyz
x,y,z
-x,-y,-z
loop_
_atom_site_type_symbol
_atom_site_label
_atom_site_fract_x
_atom_site_fract_y
_atom_site_fract_z
Si Si1 0.169674 0.026507 0.250667
Si Si2 0.777808 0.220901 0.365732
Si Si3 0.339450 0.380493 0.041922
Si Si4 0.534083 0.417090 0.669817
Si Si5 0.048472 0.266916 0.071611
Si Si6 0.047162 0.143571 0.644596
Si Si7 0.577482 0.123453 0.043422
O O1 0.143961 0.136941 0.121345
O O2 0.195686 0.087415 0.475393
O O3 0.009482 0.969137 0.260505
O O4 0.297561 0.906483 0.156740
O O5 0.643684 0.298953 0.536127
O O6 0.915896 0.183617 0.501787
O O7 0.685078 0.131307 0.227305
O O8 0.875679 0.285422 0.199729
O O9 0.377578 0.502839 0.172096
O O10 0.161631 0.366277 0.114337
O O11 0.457565 0.253905 0.069228
O O12 0.383915 0.389774 0.806449
O O13 0.500000 0.500000 0.500000
O O14 0.049176 0.246983 0.830935
O O15 0.500000 0.000000 0.000000
#
# Coordination Sequence:
#
# PCOD9002543 Si02
#       7
#     2   2   2   2   2   2   2
#     4  10  21  36  61  96 137 181 213 264 332 406
#     4  11  25  43  71  97 135 183 225 277 337 400
#     4  11  26  45  71 102 133 179 228 282 338 393
#     4  11  25  49  73  94 134 180 231 281 336 399
#     4  11  23  42  67 101 138 173 225 282 333 399
#     4  10  22  37  64  96 138 180 219 263 339 402
#     4  12  23  41  69 102 140 174 222 276 336 406
#
# _framework density 22.468686000000002
#
# number of rings (size 3 to 8) (size 9 to 14) (size 15 to 20)
#    0.000    1.143    4.286    1.286    4.000    4.000 
#    0.000    3.571    0.000    0.000    0.000    0.000 
#    0.000    0.000    0.000    0.000    0.000    0.000 
#
# Total GULP energy -78013.135746 kJ/mol
# GULP energy per Si atom -5572.366839 kJ/mol
# Density = 2.241755 g / cm^3
# Si number density = 22.468686 Si / 1000 Ang^3
#
#
#
# Elastic Constant Matrix: (Units=GPa)
#
#
# Indices 1 2 3 4 5 6 
#
# 1 59.0237 7.2735 43.2901 3.9675 -1.3798 20.7343
# 2 7.2735 26.9427 24.1239 1.3267 1.6991 13.9126
# 3 43.2901 24.1239 129.5413 13.6232 -11.3527 12.0828
# 4 3.9675 1.3267 13.6232 30.8941 -12.7134 3.0446
# 5 -1.3798 1.6991 -11.3527 -12.7134 20.0649 10.0007
# 6 20.7343 13.9126 12.0828 3.0446 10.0007 27.2472
#
#
#
# Elastic Compliance Matrix: (Units=1/GPa)
#
#
# Indices 1 2 3 4 5 6 
#
# 1 0.039595 0.022536 -0.012128 0.015471 0.027769 -0.048180
# 2 0.022536 0.072742 -0.014880 0.018206 0.028507 -0.060191
# 3 -0.012128 -0.014880 0.013958 -0.005482 -0.000927 0.011590
# 4 0.015471 0.018206 -0.005482 0.060499 0.058028 -0.046697
# 5 0.027769 0.028507 -0.000927 0.058028 0.130211 -0.089552
# 6 -0.048180 -0.060191 0.011590 -0.046697 -0.089552 0.137046
#
#
# Mechanical properties :
#
#
# Convention : Reuss Voigt Hill
#
# Bulk Modulus (GPa) = 8.52145 40.54253 24.53199
# Shear Modulus (GPa) = 9.95798 25.02923 17.49360
#
# Velocity S-wave (km/s) = 2.10750 3.34123 2.79333
# Velocity P-wave (km/s) = 3.11816 5.74180 4.62013
#
# Compressibility (1/GPa) = 0.11735093
#
# Stress axis : x y z
#
# Youngs Moduli (GPa) = 25.25601 13.74728 71.64496
#
# Poissons Ratio (x) = -0.30981 0.86891
# Poissons Ratio (y) = -0.56917 1.06605
# Poissons Ratio (z) = 0.30630 0.20455
#
# Static dielectric constant tensor:
#      x y z
#    x 1.913040 0.073480 0.002260 
#    y 0.073480 1.664420 -0.161900 
#    z 0.002260 -0.161900 1.805390 
# 
# From -- ./inp_files/28275.got.cif
#   From: 2010.05.17/outbox.cif.g08.bks.cpg/sg2_15_cif.got.tgz:28275.got - 2010.06.03 11:33:40.
