data_PCOD9002345
_publ_section_title
;
Structure prediction by ZEFSAII (Michael W. Deem and Ramdas Pophale) SiO2 
 PCOD9002345
Probable space group: P -1
;
_chemical_formula_sum "Si O2"
_cell_formula_units_Z 16
_cell_length_a 7.106685
_cell_length_b 12.141123
_cell_length_c 12.138707
_cell_angle_alpha 141.411209
_cell_angle_beta 96.611454
_cell_angle_gamma 80.636768
_cell_volume 644.443088
_symmetry_space_group_name_H-M "P -1"
_symmetry_group_IT_number 2
_symmetry_cell_setting 'triclinic'
loop_
_space_group_symop_operation_xyz
x,y,z
-x,-y,-z
loop_
_atom_site_type_symbol
_atom_site_label
_atom_site_fract_x
_atom_site_fract_y
_atom_site_fract_z
Si Si1 0.090462 0.778005 0.679339
Si Si2 0.264287 0.986817 0.439723
Si Si3 0.253351 0.454809 0.067786
Si Si4 0.275896 0.300802 0.521265
Si Si5 0.330346 0.681917 0.069795
Si Si6 0.645366 0.457742 0.629749
Si Si7 0.719776 0.301166 0.153790
Si Si8 0.855258 0.934568 0.273162
O O1 0.216324 0.593612 0.503060
O O2 0.153266 0.803373 0.827571
O O3 0.870413 0.760879 0.625914
O O4 0.149834 0.931458 0.723646
O O5 0.399221 0.823207 0.269681
O O6 0.063675 0.927940 0.337316
O O7 0.276861 0.172135 0.525217
O O8 0.272208 0.992930 0.575163
O O9 0.198326 0.560665 0.034028
O O10 0.224587 0.553909 0.260062
O O11 0.484389 0.437615 0.057912
O O12 0.193357 0.259109 0.914578
O O13 0.490005 0.316720 0.508162
O O14 0.207054 0.505573 0.706774
O O15 0.258629 0.781992 0.031145
O O16 0.500164 0.642927 0.773495
#
# Coordination Sequence:
#
# PCOD9002345 Si02
#       8
#     2   2   2   2   2   2   2   2
#     4  11  20  39  61  86 120 155 192 240 293 338
#     4  10  21  39  57  87 115 150 192 245 298 336
#     4  10  21  38  55  90 115 147 199 235 294 352
#     4   9  21  37  60  88 114 150 200 241 281 352
#     4  10  21  36  60  82 117 152 191 241 287 348
#     4   9  21  37  60  90 112 156 192 242 290 341
#     4   9  20  38  57  88 117 152 199 236 281 356
#     4  10  23  36  58  86 119 148 194 243 289 355
#
# _framework density 24.827636999999999
#
# number of rings (size 3 to 8) (size 9 to 14) (size 15 to 20)
#    0.750    1.500    0.000    2.250    3.500    2.000 
#    0.000    6.250    0.000    0.000    0.000    0.000 
#    0.000    0.000    0.000    0.000    0.000    0.000 
#
# Total GULP energy -89369.236583 kJ/mol
# GULP energy per Si atom -5585.577286 kJ/mol
# Density = 2.477113 g / cm^3
# Si number density = 24.827637 Si / 1000 Ang^3
#
#
#
# Elastic Constant Matrix: (Units=GPa)
#
#
# Indices 1 2 3 4 5 6 
#
# 1 69.2730 16.7532 28.9389 -4.0319 17.6713 -2.0733
# 2 16.7532 127.3345 49.3467 -11.0866 11.3950 -6.7984
# 3 28.9389 49.3467 69.8522 -12.5899 6.4595 3.0101
# 4 -4.0319 -11.0866 -12.5899 44.2597 -0.3241 7.7810
# 5 17.6713 11.3950 6.4595 -0.3241 28.7364 2.9801
# 6 -2.0733 -6.7984 3.0101 7.7810 2.9801 24.0439
#
#
#
# Elastic Compliance Matrix: (Units=1/GPa)
#
#
# Indices 1 2 3 4 5 6 
#
# 1 0.021191 0.002272 -0.009730 -0.001353 -0.012347 0.005656
# 2 0.002272 0.011749 -0.009126 -0.000422 -0.004565 0.005363
# 3 -0.009730 -0.009126 0.025788 0.005802 0.004817 -0.009123
# 4 -0.001353 -0.000422 0.005802 0.025673 0.000958 -0.009389
# 5 -0.012347 -0.004565 0.004817 0.000958 0.044035 -0.008727
# 6 0.005656 0.005363 -0.009123 -0.009389 -0.008727 0.048857
#
#
# Mechanical properties :
#
#
# Convention : Reuss Voigt Hill
#
# Bulk Modulus (GPa) = 39.12537 50.72634 44.92586
# Shear Modulus (GPa) = 22.83293 30.83605 26.83449
#
# Velocity S-wave (km/s) = 3.03588 3.52803 3.29117
# Velocity P-wave (km/s) = 5.29922 6.08866 5.70760
#
# Compressibility (1/GPa) = 0.02555887
#
# Stress axis : x y z
#
# Youngs Moduli (GPa) = 47.18970 85.11078 38.77837
#
# Poissons Ratio (x) = -0.19334 0.37731
# Poissons Ratio (y) = -0.10720 0.35391
# Poissons Ratio (z) = 0.45915 0.77676
#
# Static dielectric constant tensor:
#      x y z
#    x 2.112970 -0.086650 -0.055870 
#    y -0.086650 2.012560 -0.005340 
#    z -0.055870 -0.005340 1.947050 
# 
# From -- ./inp_files/391666.got.cif
#   From: 2010.05.17/outbox.cif.g08.bks.cpg/sg2_196_cif.got.tgz:391666.got - 2010.06.03 11:33:40.
