data_PCOD9002248
_publ_section_title
;
Structure prediction by ZEFSAII (Michael W. Deem and Ramdas Pophale) SiO2 
 PCOD9002248
Probable space group: P -1
;
_chemical_formula_sum "Si O2"
_cell_formula_units_Z 16
_cell_length_a 19.963595
_cell_length_b 7.972115
_cell_length_c 18.446615
_cell_angle_alpha 147.536433
_cell_angle_beta 157.121393
_cell_angle_gamma 36.560140
_cell_volume 607.926730
_symmetry_space_group_name_H-M "P -1"
_symmetry_group_IT_number 2
_symmetry_cell_setting 'triclinic'
loop_
_space_group_symop_operation_xyz
x,y,z
-x,-y,-z
loop_
_atom_site_type_symbol
_atom_site_label
_atom_site_fract_x
_atom_site_fract_y
_atom_site_fract_z
Si Si1 0.852588 0.773657 0.857966
Si Si2 0.585659 0.131850 0.957380
Si Si3 0.076156 0.892236 0.801389
Si Si4 0.683984 0.971785 0.468403
Si Si5 0.523113 0.279766 0.566219
Si Si6 0.840188 0.449270 0.011961
Si Si7 0.606543 0.315176 0.202962
Si Si8 0.782272 0.704782 0.191606
O O1 0.676016 0.621008 0.617287
O O2 0.845048 0.094849 0.920158
O O3 0.019775 0.562594 0.916230
O O4 0.871469 0.892724 0.001406
O O5 0.466751 0.985923 0.726302
O O6 0.500000 0.500000 0.000000
O O7 0.786240 0.085760 0.116590
O O8 0.587024 0.104342 0.035121
O O9 0.117967 0.523857 0.733815
O O10 0.871208 0.985093 0.624637
O O11 0.694703 0.616951 0.381705
O O12 0.626957 0.170559 0.556281
O O13 0.644704 0.511342 0.808980
O O14 0.500000 0.000000 0.500000
O O15 0.883329 0.653527 0.197985
O O16 0.724639 0.072614 0.283821
O O17 0.403705 0.430843 0.058194
#
# Coordination Sequence:
#
# PCOD9002248 Si02
#       8
#     2   2   2   2   2   2   2   2
#     4   9  16  28  48  79 106 133 165 228 269 306
#     4  10  20  37  54  78 108 146 185 225 262 312
#     4  11  19  33  58  83 109 138 181 229 267 317
#     4  11  20  33  57  84 109 140 184 223 270 320
#     4  10  17  27  50  81 108 132 172 227 272 309
#     4   9  17  29  49  78 106 133 172 219 272 311
#     4  10  21  38  56  75 113 153 175 220 273 320
#     4  10  20  37  56  79 114 144 178 221 274 325
#
# _framework density 26.318963
#
# number of rings (size 3 to 8) (size 9 to 14) (size 15 to 20)
#    0.000    2.000    5.000    1.500    1.750    2.500 
#    0.000    0.000    0.000    1.500    0.000    0.000 
#    0.000    0.000    0.000    0.000    0.000    0.000 
#
# Total GULP energy -89506.016168 kJ/mol
# GULP energy per Si atom -5594.126011 kJ/mol
# Density = 2.625906 g / cm^3
# Si number density = 26.318963 Si / 1000 Ang^3
#
#
#
# Elastic Constant Matrix: (Units=GPa)
#
#
# Indices 1 2 3 4 5 6 
#
# 1 119.0861 6.0375 25.4920 -12.6153 20.0309 -24.2564
# 2 6.0375 93.1354 15.7519 -26.0811 11.1092 5.8860
# 3 25.4920 15.7519 95.5092 -20.3728 31.4609 -8.0752
# 4 -12.6153 -26.0811 -20.3728 40.9586 -7.4582 3.1372
# 5 20.0309 11.1092 31.4609 -7.4582 41.6749 -6.7631
# 6 -24.2564 5.8860 -8.0752 3.1372 -6.7631 40.2873
#
#
#
# Elastic Compliance Matrix: (Units=1/GPa)
#
#
# Indices 1 2 3 4 5 6 
#
# 1 0.010409 0.000005 -0.000917 0.001771 -0.003116 0.005422
# 2 0.000005 0.013606 0.000223 0.008506 -0.002774 -0.003068
# 3 -0.000917 0.000223 0.015203 0.005567 -0.010044 0.000343
# 4 0.001771 0.008506 0.005567 0.032978 -0.001731 -0.001919
# 5 -0.003116 -0.002774 -0.010044 -0.001731 0.033884 0.002339
# 6 0.005422 -0.003068 0.000343 -0.001919 0.002339 0.029145
#
#
# Mechanical properties :
#
#
# Convention : Reuss Voigt Hill
#
# Bulk Modulus (GPa) = 26.42599 44.69926 35.56263
# Shear Modulus (GPa) = 33.50862 41.94744 37.72803
#
# Velocity S-wave (km/s) = 3.57203 3.99659 3.79026
# Velocity P-wave (km/s) = 5.20336 6.19011 5.71806
#
# Compressibility (1/GPa) = 0.03784153
#
# Stress axis : x y z
#
# Youngs Moduli (GPa) = 96.06797 73.49853 65.77680
#
# Poissons Ratio (x) = -0.00038 0.06030
# Poissons Ratio (y) = -0.00049 -0.01469
# Poissons Ratio (z) = 0.08807 -0.01642
#
# Static dielectric constant tensor:
#      x y z
#    x 1.993390 0.057090 0.019910 
#    y 0.057090 2.188280 -0.005390 
#    z 0.019910 -0.005390 2.028800 
# 
# From -- ./inp_files/542787.got.cif
#   From: 2010.05.17/outbox.cif.g08.bks.cpg/sg2_272_cif.got.tgz:542787.got - 2010.06.03 11:33:40.
