data_PCOD9002635
_publ_section_title
;
Structure prediction by ZEFSAII (Michael W. Deem and Ramdas Pophale) SiO2 
 PCOD9002635
Probable space group: P -1
;
_chemical_formula_sum "Si O2"
_cell_formula_units_Z 16
_cell_length_a 8.214735
_cell_length_b 15.120245
_cell_length_c 14.542680
_cell_angle_alpha 19.971227
_cell_angle_beta 82.469681
_cell_angle_gamma 90.387166
_cell_volume 564.808211
_symmetry_space_group_name_H-M "P -1"
_symmetry_group_IT_number 2
_symmetry_cell_setting 'triclinic'
loop_
_space_group_symop_operation_xyz
x,y,z
-x,-y,-z
loop_
_atom_site_type_symbol
_atom_site_label
_atom_site_fract_x
_atom_site_fract_y
_atom_site_fract_z
Si Si1 0.526097 0.199147 0.215287
Si Si2 0.014833 0.927764 0.705434
Si Si3 0.277205 0.837411 0.438233
Si Si4 0.145728 0.890188 0.936003
Si Si5 0.644143 0.297952 0.723615
Si Si6 0.070581 0.746187 0.364527
Si Si7 0.486935 0.606649 0.545204
Si Si8 0.227126 0.377084 0.116124
O O1 0.408714 0.389507 0.044276
O O2 0.500000 0.000000 0.500000
O O3 0.449195 0.028254 0.297018
O O4 0.727996 0.402915 0.019263
O O5 0.150898 0.089060 0.458481
O O6 0.883370 0.099149 0.562383
O O7 0.110501 0.923741 0.797096
O O8 0.897292 0.634939 0.949169
O O9 0.230938 0.894671 0.281033
O O10 0.340294 0.578139 0.661837
O O11 0.351989 0.084164 0.757256
O O12 0.049194 0.554567 0.287514
O O13 0.833844 0.282630 0.708036
O O14 0.600932 0.417249 0.704443
O O15 0.626933 0.471316 0.465319
O O16 0.500000 0.000000 0.000000
O O17 0.963580 0.944635 0.168530
#
# Coordination Sequence:
#
# PCOD9002635 Si02
#       8
#     2   2   2   2   2   2   2   2
#     4  10  21  36  62  97 126 176 227 285 335 400
#     4   9  20  43  66  92 138 183 230 284 350 404
#     4   9  21  42  60  97 132 177 227 277 342 408
#     4  11  25  43  69 106 140 180 231 292 346 414
#     4  10  24  47  72  97 136 182 226 279 351 424
#     4  10  25  45  69 101 140 183 226 288 354 416
#     4  10  24  43  69 101 130 179 227 286 344 416
#     4   9  20  41  62  93 132 182 233 282 342 408
#
# _framework density 28.328198
#
# number of rings (size 3 to 8) (size 9 to 14) (size 15 to 20)
#    0.000    2.250    0.000    0.000   10.500    3.000 
#    2.250    1.875    0.000    0.000    0.000    0.000 
#    0.000    0.000    0.000    0.000    0.000    0.000 
#
# Total GULP energy -89296.134692 kJ/mol
# GULP energy per Si atom -5581.008418 kJ/mol
# Density = 2.826372 g / cm^3
# Si number density = 28.328198 Si / 1000 Ang^3
#
#
#
# Elastic Constant Matrix: (Units=GPa)
#
#
# Indices 1 2 3 4 5 6 
#
# 1 141.3640 61.1172 23.9978 -12.5456 4.4752 5.1587
# 2 61.1172 158.0791 16.6248 -22.0845 0.3491 15.0577
# 3 23.9978 16.6248 94.8049 -13.4256 8.1460 13.9013
# 4 -12.5456 -22.0845 -13.4256 38.9344 1.5421 -2.4921
# 5 4.4752 0.3491 8.1460 1.5421 39.6186 -14.1215
# 6 5.1587 15.0577 13.9013 -2.4921 -14.1215 74.5350
#
#
#
# Elastic Compliance Matrix: (Units=1/GPa)
#
#
# Indices 1 2 3 4 5 6 
#
# 1 0.008769 -0.003173 -0.001575 0.000521 -0.000575 0.000236
# 2 -0.003173 0.008175 0.000115 0.003579 -0.000377 -0.001405
# 3 -0.001575 0.000115 0.012143 0.003708 -0.003428 -0.002704
# 4 0.000521 0.003579 0.003708 0.029194 -0.002314 -0.000913
# 5 -0.000575 -0.000377 -0.003428 -0.002314 0.028253 0.006031
# 6 0.000236 -0.001405 -0.002704 -0.000913 0.006031 0.015301
#
#
# Mechanical properties :
#
#
# Convention : Reuss Voigt Hill
#
# Bulk Modulus (GPa) = 50.45159 66.41418 58.43289
# Shear Modulus (GPa) = 42.47800 50.11814 46.29807
#
# Velocity S-wave (km/s) = 3.87653 4.21074 4.04709
# Velocity P-wave (km/s) = 6.15508 6.86556 6.52001
#
# Compressibility (1/GPa) = 0.01982098
#
# Stress axis : x y z
#
# Youngs Moduli (GPa) = 114.03895 122.31738 82.35488
#
# Poissons Ratio (x) = 0.38814 0.12969
# Poissons Ratio (y) = 0.36187 -0.00947
# Poissons Ratio (z) = 0.17959 -0.01406
#
# Static dielectric constant tensor:
#      x y z
#    x 2.349200 -0.012770 0.004610 
#    y -0.012770 2.216140 -0.065710 
#    z 0.004610 -0.065710 2.387290 
# 
# From -- ./inp_files/562025.got.cif
#   From: 2010.05.17/outbox.cif.g08.bks.cpg/sg2_282_cif.got.tgz:562025.got - 2010.06.03 11:33:40.
