data_PCOD9002170
_publ_section_title
;
Structure prediction by ZEFSAII (Michael W. Deem and Ramdas Pophale) SiO2 
 PCOD9002170
Probable space group: P -1
;
_chemical_formula_sum "Si O2"
_cell_formula_units_Z 14
_cell_length_a 9.438155
_cell_length_b 9.547181
_cell_length_c 10.029223
_cell_angle_alpha 44.317385
_cell_angle_beta 95.375262
_cell_angle_gamma 110.927275
_cell_volume 571.280129
_symmetry_space_group_name_H-M "P -1"
_symmetry_group_IT_number 2
_symmetry_cell_setting 'triclinic'
loop_
_space_group_symop_operation_xyz
x,y,z
-x,-y,-z
loop_
_atom_site_type_symbol
_atom_site_label
_atom_site_fract_x
_atom_site_fract_y
_atom_site_fract_z
Si Si1 0.342424 0.084596 0.630106
Si Si2 0.742220 0.095831 0.536134
Si Si3 0.984412 0.922587 0.700310
Si Si4 0.724249 0.175955 0.953271
Si Si5 0.353711 0.629382 0.442664
Si Si6 0.822040 0.810179 0.127049
Si Si7 0.080218 0.444983 0.888950
O O1 0.356402 0.066170 0.482975
O O2 0.163665 0.039587 0.682910
O O3 0.469464 0.318094 0.532672
O O4 0.357105 0.899084 0.857348
O O5 0.673030 0.196843 0.575424
O O6 0.841778 0.302783 0.309635
O O7 0.856160 0.005744 0.681439
O O8 0.932523 0.662585 0.893952
O O9 0.000000 0.000000 0.500000
O O10 0.659419 0.294825 0.759753
O O11 0.907249 0.335914 0.884117
O O12 0.720089 0.950100 0.041115
O O13 0.225600 0.386587 0.633505
O O14 0.811723 0.660932 0.099755
O O15 0.000000 0.000000 0.000000
#
# Coordination Sequence:
#
# PCOD9002170 Si02
#       7
#     2   2   2   2   2   2   2
#     4  10  22  39  58  90 127 152 190 247 299 353
#     4  10  21  39  63  85 114 158 202 239 287 351
#     4   9  19  35  56  82 114 152 194 235 285 345
#     4  10  21  36  58  87 120 154 195 241 293 353
#     4  11  22  39  63  87 119 161 194 239 303 349
#     4   9  20  37  57  85 117 152 201 245 281 345
#     4   9  19  35  58  87 114 147 200 251 283 335
#
# _framework density 24.506366
#
# number of rings (size 3 to 8) (size 9 to 14) (size 15 to 20)
#    0.000    2.286    0.000    1.714    0.000   15.429 
#    0.000    7.143    0.000   10.286    0.000    0.000 
#    0.000    0.000    0.000    0.000    0.000    0.000 
#
# Total GULP energy -78039.301535 kJ/mol
# GULP energy per Si atom -5574.235824 kJ/mol
# Density = 2.445059 g / cm^3
# Si number density = 24.506366 Si / 1000 Ang^3
#
#
#
# Elastic Constant Matrix: (Units=GPa)
#
#
# Indices 1 2 3 4 5 6 
#
# 1 63.9080 9.2836 30.8519 -1.1582 0.0700 4.8192
# 2 9.2836 84.9985 30.3388 1.9427 6.3936 6.7454
# 3 30.8519 30.3388 165.6006 10.1663 13.9007 20.1997
# 4 -1.1582 1.9427 10.1663 42.1356 -5.4015 -1.1260
# 5 0.0700 6.3936 13.9007 -5.4015 30.8196 4.6010
# 6 4.8192 6.7454 20.1997 -1.1260 4.6010 29.1700
#
#
#
# Elastic Compliance Matrix: (Units=1/GPa)
#
#
# Indices 1 2 3 4 5 6 
#
# 1 0.017427 -0.000869 -0.003267 0.001544 0.001985 -0.000669
# 2 -0.000869 0.012759 -0.001853 -0.000416 -0.001692 -0.001273
# 3 -0.003267 -0.001853 0.007885 -0.002398 -0.002971 -0.004116
# 4 0.001544 -0.000416 -0.002398 0.025099 0.005320 0.001631
# 5 0.001985 -0.001692 -0.002971 0.005320 0.035556 -0.003283
# 6 -0.000669 -0.001273 -0.004116 0.001631 -0.003283 0.038118
#
#
# Mechanical properties :
#
#
# Convention : Reuss Voigt Hill
#
# Bulk Modulus (GPa) = 38.32305 50.60619 44.46462
# Shear Modulus (GPa) = 31.74212 36.69389 34.21801
#
# Velocity S-wave (km/s) = 3.60288 3.87372 3.74075
# Velocity P-wave (km/s) = 5.74278 6.37986 6.06969
#
# Compressibility (1/GPa) = 0.02609396
#
# Stress axis : x y z
#
# Youngs Moduli (GPa) = 57.38122 78.37648 126.81607
#
# Poissons Ratio (x) = 0.06808 0.41436
# Poissons Ratio (y) = 0.04985 0.23496
# Poissons Ratio (z) = 0.18749 0.14522
#
# Static dielectric constant tensor:
#      x y z
#    x 2.220050 -0.049840 0.032720 
#    y -0.049840 2.061090 0.076420 
#    z 0.032720 0.076420 2.010240 
# 
# From -- ./inp_files/344697.got.cif
#   From: 2010.05.17/outbox.cif.g08.bks.cpg/sg2_173_cif.got.tgz:344697.got - 2010.06.03 11:33:40.
