data_PCOD9002784
_publ_section_title
;
Structure prediction by ZEFSAII (Michael W. Deem and Ramdas Pophale) SiO2 
 PCOD9002784
Probable space group: P -1
;
_chemical_formula_sum "Si O2"
_cell_formula_units_Z 16
_cell_length_a 10.831526
_cell_length_b 8.702095
_cell_length_c 9.079360
_cell_angle_alpha 100.498792
_cell_angle_beta 82.455447
_cell_angle_gamma 120.693482
_cell_volume 722.843019
_symmetry_space_group_name_H-M "P -1"
_symmetry_group_IT_number 2
_symmetry_cell_setting 'triclinic'
loop_
_space_group_symop_operation_xyz
x,y,z
-x,-y,-z
loop_
_atom_site_type_symbol
_atom_site_label
_atom_site_fract_x
_atom_site_fract_y
_atom_site_fract_z
Si Si1 0.155645 0.522856 0.446436
Si Si2 0.068065 0.374820 0.988958
Si Si3 0.167976 0.069027 0.533850
Si Si4 0.994398 0.846574 0.764330
Si Si5 0.293391 0.713738 0.168216
Si Si6 0.224065 0.020908 0.194489
Si Si7 0.739555 0.553689 0.293978
Si Si8 0.499370 0.667342 0.948731
O O1 0.114198 0.330540 0.344619
O O2 0.251797 0.676077 0.339925
O O3 0.232807 0.545605 0.593156
O O4 0.000000 0.500000 0.500000
O O5 0.120841 0.351854 0.818288
O O6 0.984180 0.217418 0.091429
O O7 0.212343 0.512424 0.077818
O O8 0.000000 0.500000 0.000000
O O9 0.238443 0.042122 0.373396
O O10 0.261135 0.275745 0.604420
O O11 0.000000 0.000000 0.500000
O O12 0.138598 0.948725 0.663090
O O13 0.917937 0.966051 0.815280
O O14 0.234081 0.840769 0.136454
O O15 0.450057 0.771728 0.090545
O O16 0.348609 0.186284 0.115608
O O17 0.607335 0.419565 0.190185
O O18 0.500000 0.500000 0.000000
#
# Coordination Sequence:
#
# PCOD9002784 Si02
#       8
#     2   2   2   2   2   2   2   2
#     4  11  20  37  67  95 131 168 202 260 329 385
#     4  10  22  37  58  94 130 167 208 257 321 386
#     4  10  21  36  64  98 128 158 213 264 325 381
#     4  10  21  39  62  94 129 167 209 257 330 381
#     4  10  23  40  64  90 123 167 215 264 321 374
#     4  11  21  41  67  88 124 170 212 268 322 371
#     4  11  22  39  64  97 124 169 220 259 315 390
#     4  11  25  46  67  88 126 175 225 266 313 378
#
# _framework density 22.134820000000001
#
# number of rings (size 3 to 8) (size 9 to 14) (size 15 to 20)
#    0.000    1.500    2.500    4.875    5.250    1.000 
#    2.250    0.625    2.750    0.000    0.000    0.000 
#    0.000    0.000    0.000    0.000    0.000    0.000 
#
# Total GULP energy -89272.425624 kJ/mol
# GULP energy per Si atom -5579.526601 kJ/mol
# Density = 2.208444 g / cm^3
# Si number density = 22.134820 Si / 1000 Ang^3
#
#
#
# Elastic Constant Matrix: (Units=GPa)
#
#
# Indices 1 2 3 4 5 6 
#
# 1 59.3100 22.6113 43.0041 -13.1291 -3.4780 -17.2299
# 2 22.6113 101.1557 48.5441 -26.3619 -4.8698 -14.5221
# 3 43.0041 48.5441 144.2279 -29.3658 -3.0972 -10.9955
# 4 -13.1291 -26.3619 -29.3658 49.3823 -3.5642 -1.0037
# 5 -3.4780 -4.8698 -3.0972 -3.5642 43.4518 -5.4445
# 6 -17.2299 -14.5221 -10.9955 -1.0037 -5.4445 35.7960
#
#
#
# Elastic Compliance Matrix: (Units=1/GPa)
#
#
# Indices 1 2 3 4 5 6 
#
# 1 0.025339 -0.000190 -0.005854 0.003611 0.003254 0.010918
# 2 -0.000190 0.013693 -0.002932 0.005794 0.002424 0.005095
# 3 -0.005854 -0.002932 0.010206 0.002937 0.000074 -0.000779
# 4 0.003611 0.005794 0.002937 0.026476 0.004116 0.006360
# 5 0.003254 0.002424 0.000074 0.004116 0.024696 0.006444
# 6 0.010918 0.005095 -0.000779 0.006360 0.006444 0.036177
#
#
# Mechanical properties :
#
#
# Convention : Reuss Voigt Hill
#
# Bulk Modulus (GPa) = 31.96192 59.22362 45.59277
# Shear Modulus (GPa) = 30.30860 38.42831 34.36846
#
# Velocity S-wave (km/s) = 3.70438 4.17118 3.94469
# Velocity P-wave (km/s) = 5.72430 7.07193 6.43350
#
# Compressibility (1/GPa) = 0.03128723
#
# Stress axis : x y z
#
# Youngs Moduli (GPa) = 39.46426 73.02776 97.98106
#
# Poissons Ratio (x) = 0.01385 0.57359
# Poissons Ratio (y) = 0.00748 0.28729
# Poissons Ratio (z) = 0.23103 0.21413
#
# Static dielectric constant tensor:
#      x y z
#    x 1.886510 0.015430 -0.018090 
#    y 0.015430 1.926790 0.054050 
#    z -0.018090 0.054050 1.908360 
# 
# From -- ./inp_files/239700.got.cif
#   From: 2010.05.17/outbox.cif.g08.bks.cpg/sg2_120_cif.got.tgz:239700.got - 2010.06.03 11:33:40.
