data_PCOD9002430
_publ_section_title
;
Structure prediction by ZEFSAII (Michael W. Deem and Ramdas Pophale) SiO2 
 PCOD9002430
Probable space group: P -1
;
_chemical_formula_sum "Si O2"
_cell_formula_units_Z 14
_cell_length_a 19.964840
_cell_length_b 6.726968
_cell_length_c 5.719652
_cell_angle_alpha 108.240428
_cell_angle_beta 117.124909
_cell_angle_gamma 98.464791
_cell_volume 609.940626
_symmetry_space_group_name_H-M "P -1"
_symmetry_group_IT_number 2
_symmetry_cell_setting 'triclinic'
loop_
_space_group_symop_operation_xyz
x,y,z
-x,-y,-z
loop_
_atom_site_type_symbol
_atom_site_label
_atom_site_fract_x
_atom_site_fract_y
_atom_site_fract_z
Si Si1 0.936096 0.874400 0.547900
Si Si2 0.454371 0.439014 0.654935
Si Si3 0.213326 0.774199 0.227693
Si Si4 0.677339 0.378285 0.331830
Si Si5 0.338948 0.014815 0.144155
Si Si6 0.756669 0.779304 0.254765
Si Si7 0.963844 0.310021 0.062224
O O1 0.842538 0.779847 0.297658
O O2 0.969965 0.693746 0.646259
O O3 0.000000 0.000000 0.500000
O O4 0.941771 0.069066 0.814658
O O5 0.500000 0.500000 0.500000
O O6 0.388612 0.559979 0.606036
O O7 0.409187 0.172080 0.472922
O O8 0.500000 0.500000 0.000000
O O9 0.247538 0.627060 0.395977
O O10 0.269319 0.840094 0.117348
O O11 0.227118 0.005668 0.472702
O O12 0.120156 0.675979 0.981739
O O13 0.710784 0.563575 0.253310
O O14 0.637680 0.133798 0.065361
O O15 0.298824 0.177333 0.017285
O O16 0.000000 0.500000 0.000000
#
# Coordination Sequence:
#
# PCOD9002430 Si02
#       7
#     2   2   2   2   2   2   2
#     4  10  21  36  60  93 137 186 233 288 351 396
#     4  12  29  51  77 109 149 184 231 305 373 442
#     4  10  22  40  66  99 136 186 241 289 344 431
#     4  11  25  44  74 101 138 189 235 288 365 427
#     4  11  25  44  73 103 139 182 246 283 352 443
#     4  10  21  42  64  98 142 187 240 295 346 422
#     4  10  21  37  58  95 140 177 232 293 342 401
#
# _framework density 22.953053000000001
#
# number of rings (size 3 to 8) (size 9 to 14) (size 15 to 20)
#    0.000    1.429    1.429    2.571    6.000    2.857 
#    0.000    0.000    0.000    0.000    0.000    0.000 
#    0.000    0.000    0.000    0.000    0.000    0.000 
#
# Total GULP energy -78320.480298 kJ/mol
# GULP energy per Si atom -5594.320021 kJ/mol
# Density = 2.290081 g / cm^3
# Si number density = 22.953053 Si / 1000 Ang^3
#
#
#
# Elastic Constant Matrix: (Units=GPa)
#
#
# Indices 1 2 3 4 5 6 
#
# 1 1437.2154 1206.6620 385.0210 -192.1070 19.7134 -501.1906
# 2 1206.6620 1174.1212 357.1858 -209.1689 37.1122 -452.5649
# 3 385.0210 357.1858 214.4405 -40.9318 6.8970 -146.0694
# 4 -192.1070 -209.1689 -40.9318 66.8367 2.1797 71.4173
# 5 19.7134 37.1122 6.8970 2.1797 20.2688 -13.2787
# 6 -501.1906 -452.5649 -146.0694 71.4173 -13.2787 235.7322
#
#
#
# Elastic Compliance Matrix: (Units=1/GPa)
#
#
# Indices 1 2 3 4 5 6 
#
# 1 0.007797 -0.009442 0.001560 -0.009906 0.012276 0.003110
# 2 -0.009442 0.020664 -0.008175 0.028714 -0.026101 0.004361
# 3 0.001560 -0.008175 0.012689 -0.014069 0.010883 0.000360
# 4 -0.009906 0.028714 -0.014069 0.066061 -0.043364 0.002892
# 5 0.012276 -0.026101 0.010883 -0.043364 0.086641 0.000753
# 6 0.003110 0.004361 0.000360 0.002892 0.000753 0.018618
#
#
# Mechanical properties :
#
#
# Convention : Reuss Voigt Hill
#
# Bulk Modulus (GPa) = 110.66224 747.05717 428.85970
# Shear Modulus (GPa) = 20.19425 123.02811 71.61118
#
# Velocity S-wave (km/s) = 2.96937 7.32914 5.59166
# Velocity P-wave (km/s) = 7.75070 19.94493 15.13065
#
# Compressibility (1/GPa) = 0.00903651
#
# Stress axis : x y z
#
# Youngs Moduli (GPa) = 128.25192 48.39423 78.80907
#
# Poissons Ratio (x) = 0.45693 -0.12297
# Poissons Ratio (y) = 1.21092 0.64428
# Poissons Ratio (z) = -0.20012 0.39563
#
# Static dielectric constant tensor:
#      x y z
#    x 1.848820 -0.016420 -0.023120 
#    y -0.016420 1.807490 0.014670 
#    z -0.023120 0.014670 1.910690 
# 
# From -- ./inp_files/7680.got.cif
#   From: 2010.05.17/outbox.cif.g08.bks.cpg/sg2_4_cif.got.tgz:7680.got - 2010.06.03 11:33:40.
