data_PCOD9002837
_publ_section_title
;
Structure prediction by ZEFSAII (Michael W. Deem and Ramdas Pophale) SiO2 
 PCOD9002837
Probable space group: P -1
;
_chemical_formula_sum "Si O2"
_cell_formula_units_Z 16
_cell_length_a 9.576330
_cell_length_b 11.425479
_cell_length_c 8.770828
_cell_angle_alpha 83.032274
_cell_angle_beta 118.046992
_cell_angle_gamma 118.910605
_cell_volume 734.389806
_symmetry_space_group_name_H-M "P -1"
_symmetry_group_IT_number 2
_symmetry_cell_setting 'triclinic'
loop_
_space_group_symop_operation_xyz
x,y,z
-x,-y,-z
loop_
_atom_site_type_symbol
_atom_site_label
_atom_site_fract_x
_atom_site_fract_y
_atom_site_fract_z
Si Si1 0.511100 0.209712 0.183263
Si Si2 0.977071 0.291062 0.813164
Si Si3 0.123911 0.152908 0.106306
Si Si4 0.819933 0.427245 0.521593
Si Si5 0.057244 0.921011 0.659563
Si Si6 0.826239 0.680098 0.405177
Si Si7 0.409967 0.933688 0.306149
Si Si8 0.419342 0.184497 0.805826
O O1 0.327622 0.204425 0.149876
O O2 0.671796 0.302149 0.366782
O O3 0.468942 0.056446 0.201194
O O4 0.533171 0.247187 0.009302
O O5 0.887466 0.386125 0.716346
O O6 0.800146 0.144345 0.747705
O O7 0.112841 0.319903 0.737678
O O8 0.074734 0.269238 0.012087
O O9 0.081444 0.127984 0.265448
O O10 0.000000 0.000000 0.000000
O O11 0.754146 0.538177 0.475198
O O12 0.000000 0.500000 0.500000
O O13 0.013511 0.785770 0.569010
O O14 0.000000 0.000000 0.500000
O O15 0.258569 0.032385 0.790852
O O16 0.681716 0.733456 0.313816
O O17 0.471168 0.835093 0.272816
O O18 0.500000 0.000000 0.500000
#
# Coordination Sequence:
#
# PCOD9002837 Si02
#       8
#     2   2   2   2   2   2   2   2
#     4  12  24  42  70 100 141 174 228 282 348 406
#     4  11  21  44  65  97 137 176 225 277 341 406
#     4  12  21  39  68 106 135 170 218 291 348 401
#     4  10  25  45  69  92 136 194 232 270 336 418
#     4  10  21  36  66 101 136 169 218 279 343 402
#     4  10  22  44  69  93 137 185 234 264 335 426
#     4  12  24  37  68 104 139 169 218 289 355 400
#     4  11  23  40  65 109 134 170 229 291 342 400
#
# _framework density 21.786795999999999
#
# number of rings (size 3 to 8) (size 9 to 14) (size 15 to 20)
#    0.000    1.000    5.000    1.875    5.250    0.500 
#    0.000    3.125    0.000    0.000    0.000    0.000 
#    0.000    0.000    0.000    0.000    0.000    0.000 
#
# Total GULP energy -89216.839897 kJ/mol
# GULP energy per Si atom -5576.052494 kJ/mol
# Density = 2.173721 g / cm^3
# Si number density = 21.786796 Si / 1000 Ang^3
#
#
#
# Elastic Constant Matrix: (Units=GPa)
#
#
# Indices 1 2 3 4 5 6 
#
# 1 10.9202 -9.7665 68.4373 -48.2066 7.3127 14.6375
# 2 -9.7665 80.3172 32.2230 -39.5766 14.1950 -11.0207
# 3 68.4373 32.2230 83.1261 -24.9127 -3.1716 -19.1464
# 4 -48.2066 -39.5766 -24.9127 23.1744 3.4162 20.3559
# 5 7.3127 14.1950 -3.1716 3.4162 34.7087 -5.4532
# 6 14.6375 -11.0207 -19.1464 20.3559 -5.4532 22.8594
#
#
#
# Elastic Compliance Matrix: (Units=1/GPa)
#
#
# Indices 1 2 3 4 5 6 
#
# 1 0.003097 -0.007273 -0.002784 -0.018630 0.005484 0.010076
# 2 -0.007273 0.013876 0.004202 0.004291 -0.002541 0.010439
# 3 -0.002784 0.004202 0.019489 0.025030 -0.002238 -0.002690
# 4 -0.018630 0.004291 0.025030 0.032716 0.002237 0.006363
# 5 0.005484 -0.002541 -0.002238 0.002237 0.027967 -0.001931
# 6 0.010076 0.010439 -0.002690 0.006363 -0.001931 0.033946
#
#
# Mechanical properties :
#
#
# Convention : Reuss Voigt Hill
#
# Bulk Modulus (GPa) = 40.39748 39.57236 39.98492
# Shear Modulus (GPa) = 33.10119 21.71316 27.40718
#
# Velocity S-wave (km/s) = 3.90208 3.16035 3.55064
# Velocity P-wave (km/s) = 6.23571 5.61427 5.93313
#
# Compressibility (1/GPa) = 0.02475402
#
# Stress axis : x y z
#
# Youngs Moduli (GPa) = 322.86488 72.06496 51.31058
#
# Poissons Ratio (x) = 0.52412 0.14284
# Poissons Ratio (y) = 2.34817 -0.21562
# Poissons Ratio (z) = 0.89879 -0.30284
#
# Static dielectric constant tensor:
#      x y z
#    x 1.814850 -0.048370 0.037350 
#    y -0.048370 1.862900 -0.001290 
#    z 0.037350 -0.001290 1.817750 
# 
# From -- ./inp_files/186971.got.cif
#   From: 2010.05.17/outbox.cif.g08.bks.cpg/sg2_94_cif.got.tgz:186971.got - 2010.06.03 11:33:40.
