data_PCOD9002764
_publ_section_title
;
Structure prediction by ZEFSAII (Michael W. Deem and Ramdas Pophale) SiO2 
 PCOD9002764
Probable space group: P -1
;
_chemical_formula_sum "Si O2"
_cell_formula_units_Z 16
_cell_length_a 19.860919
_cell_length_b 8.343109
_cell_length_c 9.991964
_cell_angle_alpha 133.179341
_cell_angle_beta 44.645279
_cell_angle_gamma 143.290203
_cell_volume 669.418997
_symmetry_space_group_name_H-M "P -1"
_symmetry_group_IT_number 2
_symmetry_cell_setting 'triclinic'
loop_
_space_group_symop_operation_xyz
x,y,z
-x,-y,-z
loop_
_atom_site_type_symbol
_atom_site_label
_atom_site_fract_x
_atom_site_fract_y
_atom_site_fract_z
Si Si1 0.566252 0.281642 0.658137
Si Si2 0.361311 0.180779 0.074767
Si Si3 0.808241 0.368213 0.335549
Si Si4 0.152778 0.768064 0.533863
Si Si5 0.738477 0.784435 0.025831
Si Si6 0.080551 0.290542 0.186844
Si Si7 0.798662 0.456367 0.106958
Si Si8 0.366214 0.397665 0.654386
O O1 0.593604 0.576424 0.740362
O O2 0.697930 0.360649 0.538764
O O3 0.500000 0.000000 0.500000
O O4 0.472328 0.197778 0.864375
O O5 0.315388 0.284296 0.083487
O O6 0.253579 0.850869 0.049026
O O7 0.889989 0.419169 0.376421
O O8 0.853700 0.520718 0.215246
O O9 0.750413 0.056495 0.196457
O O10 0.163727 0.598986 0.310504
O O11 0.053285 0.807587 0.655946
O O12 0.275305 0.069685 0.561667
O O13 0.656472 0.572525 0.140048
O O14 0.869082 0.855727 0.898455
O O15 0.108097 0.321267 0.007778
O O16 0.685015 0.465141 0.275348
O O17 0.500000 0.500000 0.500000
#
# Coordination Sequence:
#
# PCOD9002764 Si02
#       8
#     2   2   2   2   2   2   2   2
#     4  11  20  36  59  91 131 173 214 257 322 412
#     4  10  22  36  62  94 127 176 214 272 327 380
#     4  10  21  36  64  92 122 163 220 262 329 381
#     4  10  23  43  66  87 123 190 210 269 326 407
#     4   9  19  38  59  90 122 173 208 265 318 395
#     4  10  22  44  63  88 133 167 232 260 331 391
#     4  10  22  39  60  98 127 162 212 290 314 378
#     4  10  23  38  61  94 130 164 212 266 336 387
#
# _framework density 23.901323000000001
#
# number of rings (size 3 to 8) (size 9 to 14) (size 15 to 20)
#    0.000    2.000    2.500    0.750    5.250    6.000 
#    2.250    2.500    0.000    8.250    0.000    0.000 
#    0.000    0.000    0.000    0.000    0.000    0.000 
#
# Total GULP energy -89258.649133 kJ/mol
# GULP energy per Si atom -5578.665571 kJ/mol
# Density = 2.384692 g / cm^3
# Si number density = 23.901323 Si / 1000 Ang^3
#
#
#
# Elastic Constant Matrix: (Units=GPa)
#
#
# Indices 1 2 3 4 5 6 
#
# 1 88.0295 18.2140 17.2885 -0.4736 3.7571 -8.2203
# 2 18.2140 56.9419 18.3209 7.2732 -1.5356 3.4732
# 3 17.2885 18.3209 137.3449 31.0120 -10.9319 4.7252
# 4 -0.4736 7.2732 31.0120 30.5153 4.4421 -0.5920
# 5 3.7571 -1.5356 -10.9319 4.4421 37.3158 -4.8593
# 6 -8.2203 3.4732 4.7252 -0.5920 -4.8593 29.2666
#
#
#
# Elastic Compliance Matrix: (Units=1/GPa)
#
#
# Indices 1 2 3 4 5 6 
#
# 1 0.013218 -0.004315 -0.002297 0.003956 -0.002088 0.004329
# 2 -0.004315 0.020015 -0.001029 -0.004002 0.000999 -0.003336
# 3 -0.002297 -0.001029 0.010676 -0.011320 0.004438 -0.001739
# 4 0.003956 -0.004002 -0.011320 0.046665 -0.009063 0.002853
# 5 -0.002088 0.000999 0.004438 -0.009063 0.029865 0.003354
# 6 0.004329 -0.003336 -0.001739 0.002853 0.003354 0.036676
#
#
# Mechanical properties :
#
#
# Convention : Reuss Voigt Hill
#
# Bulk Modulus (GPa) = 34.92986 43.32923 39.12954
# Shear Modulus (GPa) = 27.48181 34.65239 31.06710
#
# Velocity S-wave (km/s) = 3.39455 3.81177 3.60919
# Velocity P-wave (km/s) = 5.47813 6.12703 5.81164
#
# Compressibility (1/GPa) = 0.02862880
#
# Stress axis : x y z
#
# Youngs Moduli (GPa) = 75.65281 49.96365 93.66455
#
# Poissons Ratio (x) = 0.21558 0.21511
# Poissons Ratio (y) = 0.32643 0.09636
# Poissons Ratio (z) = 0.17374 0.05140
#
# Static dielectric constant tensor:
#      x y z
#    x 2.018430 -0.029290 0.093090 
#    y -0.029290 1.969420 0.017120 
#    z 0.093090 0.017120 1.937480 
# 
# From -- ./inp_files/469645.got.cif
#   From: 2010.05.17/outbox.cif.g08.bks.cpg/sg2_235_cif.got.tgz:469645.got - 2010.06.03 11:33:40.
