data_PCOD9002756
_publ_section_title
;
Structure prediction by ZEFSAII (Michael W. Deem and Ramdas Pophale) SiO2 
 PCOD9002756
Probable space group: P -1
;
_chemical_formula_sum "Si O2"
_cell_formula_units_Z 16
_cell_length_a 19.753827
_cell_length_b 11.486448
_cell_length_c 8.447671
_cell_angle_alpha 129.993046
_cell_angle_beta 34.249108
_cell_angle_gamma 135.824831
_cell_volume 745.636696
_symmetry_space_group_name_H-M "P -1"
_symmetry_group_IT_number 2
_symmetry_cell_setting 'triclinic'
loop_
_space_group_symop_operation_xyz
x,y,z
-x,-y,-z
loop_
_atom_site_type_symbol
_atom_site_label
_atom_site_fract_x
_atom_site_fract_y
_atom_site_fract_z
Si Si1 0.605763 0.883248 0.636563
Si Si2 0.263523 0.247221 0.977800
Si Si3 0.057691 0.331599 0.600776
Si Si4 0.075234 0.496896 0.192618
Si Si5 0.192162 0.309299 0.630147
Si Si6 0.795400 0.995562 0.825366
Si Si7 0.516022 0.566113 0.706932
Si Si8 0.338437 0.841301 0.990436
O O1 0.710453 0.830163 0.302012
O O2 0.533451 0.755181 0.809783
O O3 0.487181 0.855105 0.718034
O O4 0.668912 0.066453 0.751068
O O5 0.388353 0.429052 0.920124
O O6 0.133250 0.280709 0.270993
O O7 0.254682 0.120097 0.024669
O O8 0.155808 0.380484 0.602691
O O9 0.008991 0.466503 0.750985
O O10 0.929228 0.161750 0.746936
O O11 0.000000 0.500000 0.500000
O O12 0.100069 0.334538 0.963882
O O13 0.221974 0.653565 0.049312
O O14 0.172338 0.121078 0.464930
O O15 0.346499 0.413558 0.466207
O O16 0.693152 0.058735 0.001860
O O17 0.500000 0.500000 0.500000
#
# Coordination Sequence:
#
# PCOD9002756 Si02
#       8
#     2   2   2   2   2   2   2   2
#     4  10  21  39  63  87 125 164 195 258 304 362
#     4  10  21  37  65  92 120 157 209 249 303 365
#     4  10  24  41  63  89 128 161 205 256 302 369
#     4  11  25  38  62  92 122 166 207 252 303 370
#     4  11  21  42  62  87 125 163 200 255 313 348
#     4  10  22  42  64  90 122 163 204 252 302 370
#     4  10  21  36  64  91 123 155 201 261 301 360
#     4  10  22  42  59  87 127 160 199 252 313 350
#
# _framework density 21.458172000000001
#
# number of rings (size 3 to 8) (size 9 to 14) (size 15 to 20)
#    0.000    1.750    1.250    3.375    5.250    4.500 
#    0.000    2.500    0.000    0.000    0.000    0.000 
#    0.000    0.000    0.000    0.000    0.000    0.000 
#
# Total GULP energy -89344.577958 kJ/mol
# GULP energy per Si atom -5584.036122 kJ/mol
# Density = 2.140933 g / cm^3
# Si number density = 21.458172 Si / 1000 Ang^3
#
#
#
# Elastic Constant Matrix: (Units=GPa)
#
#
# Indices 1 2 3 4 5 6 
#
# 1 96.4818 23.0338 4.9041 -17.8035 -25.1766 3.9489
# 2 23.0338 51.2130 8.2764 -3.2623 -0.2027 -13.2809
# 3 4.9041 8.2764 59.2000 -2.8450 0.4589 -15.4793
# 4 -17.8035 -3.2623 -2.8450 26.6763 2.2717 0.9637
# 5 -25.1766 -0.2027 0.4589 2.2717 32.0901 0.8015
# 6 3.9489 -13.2809 -15.4793 0.9637 0.8015 29.6412
#
#
#
# Elastic Compliance Matrix: (Units=1/GPa)
#
#
# Indices 1 2 3 4 5 6 
#
# 1 0.018667 -0.009580 -0.002069 0.010174 0.014108 -0.008572
# 2 -0.009580 0.027172 0.000590 -0.002877 -0.007500 0.014055
# 3 -0.002069 0.000590 0.019896 0.000606 -0.002221 0.010970
# 4 0.010174 -0.002877 0.000606 0.043707 0.004958 -0.003883
# 5 0.014108 -0.007500 -0.002221 0.004958 0.042056 -0.007698
# 6 -0.008572 0.014055 0.010970 -0.003883 -0.007698 0.047240
#
#
# Mechanical properties :
#
#
# Convention : Reuss Voigt Hill
#
# Bulk Modulus (GPa) = 22.92756 31.03593 26.98174
# Shear Modulus (GPa) = 21.24096 29.06022 25.15059
#
# Velocity S-wave (km/s) = 3.14965 3.68404 3.42727
# Velocity P-wave (km/s) = 4.89234 5.70885 5.31630
#
# Compressibility (1/GPa) = 0.04361564
#
# Stress axis : x y z
#
# Youngs Moduli (GPa) = 53.57156 36.80291 50.26247
#
# Poissons Ratio (x) = 0.35258 0.10398
# Poissons Ratio (y) = 0.51323 -0.02965
# Poissons Ratio (z) = 0.11083 -0.02171
#
# Static dielectric constant tensor:
#      x y z
#    x 1.807360 0.000870 0.011820 
#    y 0.000870 1.805930 0.031310 
#    z 0.011820 0.031310 1.790080 
# 
# From -- ./inp_files/346327.got.cif
#   From: 2010.05.17/outbox.cif.g08.bks.cpg/sg2_174_cif.got.tgz:346327.got - 2010.06.03 11:33:40.
