data_PCOD9002148
_publ_section_title
;
Structure prediction by ZEFSAII (Michael W. Deem and Ramdas Pophale) SiO2 
 PCOD9002148
Probable space group: P -1
;
_chemical_formula_sum "Si O2"
_cell_formula_units_Z 16
_cell_length_a 7.820036
_cell_length_b 16.394517
_cell_length_c 9.248228
_cell_angle_alpha 90.125668
_cell_angle_beta 73.805363
_cell_angle_gamma 50.999106
_cell_volume 859.414441
_symmetry_space_group_name_H-M "P -1"
_symmetry_group_IT_number 2
_symmetry_cell_setting 'triclinic'
loop_
_space_group_symop_operation_xyz
x,y,z
-x,-y,-z
loop_
_atom_site_type_symbol
_atom_site_label
_atom_site_fract_x
_atom_site_fract_y
_atom_site_fract_z
Si Si1 0.081791 0.724832 0.091447
Si Si2 0.419251 0.762993 0.987523
Si Si3 0.774386 0.895744 0.928540
Si Si4 0.929414 0.610604 0.969029
Si Si5 0.071324 0.983901 0.234637
Si Si6 0.295695 0.968639 0.474747
Si Si7 0.203190 0.273430 0.269620
Si Si8 0.172420 0.188089 0.558760
O O1 0.056315 0.641612 0.034131
O O2 0.029126 0.745814 0.273493
O O3 0.321859 0.700872 0.998748
O O4 0.876787 0.836710 0.057035
O O5 0.642761 0.703697 0.043804
O O6 0.206190 0.882226 0.095978
O O7 0.539560 0.762645 0.814299
O O8 0.796526 0.811799 0.818211
O O9 0.917160 0.930580 0.837855
O O10 0.500000 0.000000 0.000000
O O11 0.966620 0.618615 0.788512
O O12 0.000000 0.500000 0.000000
O O13 0.214892 0.944830 0.351972
O O14 0.817902 0.030529 0.349646
O O15 0.574989 0.880715 0.422452
O O16 0.194323 0.091119 0.484230
O O17 0.146578 0.265689 0.444921
#
# Coordination Sequence:
#
# PCOD9002148 Si02
#       8
#     2   2   2   2   2   2   2   2
#     4  11  23  36  60  85 110 150 189 235 281 323
#     4  10  21  36  58  85 109 143 196 229 274 334
#     4  11  19  32  52  73 117 157 192 224 260 322
#     4   9  21  43  65  82 106 140 184 242 300 344
#     4  11  19  33  47  81 114 158 193 220 262 320
#     4  10  22  28  50  76 120 160 185 221 265 317
#     4   9  21  35  55  80 112 146 184 231 279 326
#     4  11  20  36  49  81 116 152 185 225 270 324
#
# _framework density 18.617327
#
# number of rings (size 3 to 8) (size 9 to 14) (size 15 to 20)
#    0.750    1.000    3.750    1.500    3.500    1.000 
#    0.000    0.625    0.000    0.750    0.000    0.000 
#    0.000    0.000    0.000    0.000    0.000    0.000 
#
# Total GULP energy -89176.310378 kJ/mol
# GULP energy per Si atom -5573.519399 kJ/mol
# Density = 1.857495 g / cm^3
# Si number density = 18.617327 Si / 1000 Ang^3
#
#
#
# Elastic Constant Matrix: (Units=GPa)
#
#
# Indices 1 2 3 4 5 6 
#
# 1 75.4498 11.8730 8.5339 -2.2838 -11.1496 26.7906
# 2 11.8730 65.4070 22.8253 -27.3428 -8.2538 22.7563
# 3 8.5339 22.8253 94.1873 -30.5684 -12.0949 5.8451
# 4 -2.2838 -27.3428 -30.5684 21.6803 7.6859 -6.8178
# 5 -11.1496 -8.2538 -12.0949 7.6859 27.0618 -4.9280
# 6 26.7906 22.7563 5.8451 -6.8178 -4.9280 20.4206
#
#
#
# Elastic Compliance Matrix: (Units=1/GPa)
#
#
# Indices 1 2 3 4 5 6 
#
# 1 0.032881 0.015501 -0.002797 -0.001776 0.006868 -0.058547
# 2 0.015501 0.068525 0.014002 0.086387 -0.004265 -0.072895
# 3 -0.002797 0.014002 0.024001 0.050912 -0.000987 -0.002044
# 4 -0.001776 0.086387 0.050912 0.221951 -0.021895 -0.039692
# 5 0.006868 -0.004265 -0.000987 -0.021895 0.044143 -0.000632
# 6 -0.058547 -0.072895 -0.002044 -0.039692 -0.000632 0.194194
#
#
# Mechanical properties :
#
#
# Convention : Reuss Voigt Hill
#
# Bulk Modulus (GPa) = 5.59226 35.72316 20.65771
# Shear Modulus (GPa) = 8.44753 26.61999 17.53376
#
# Velocity S-wave (km/s) = 2.13244 3.78544 3.07220
# Velocity P-wave (km/s) = 3.01221 6.19159 4.86874
#
# Compressibility (1/GPa) = 0.17881860
#
# Stress axis : x y z
#
# Youngs Moduli (GPa) = 30.41303 14.59316 41.66524
#
# Poissons Ratio (x) = -0.22621 0.11654
# Poissons Ratio (y) = -0.47143 -0.58339
# Poissons Ratio (z) = 0.08506 -0.20433
#
# Static dielectric constant tensor:
#      x y z
#    x 1.684550 0.012750 -0.003280 
#    y 0.012750 1.630570 -0.031050 
#    z -0.003280 -0.031050 1.677730 
# 
# From -- ./inp_files/201358.got.cif
#   From: 2010.05.17/outbox.cif.g08.bks.cpg/sg2_101_cif.got.tgz:201358.got - 2010.06.03 11:33:40.
