data_PCOD9002573
_publ_section_title
;
Structure prediction by ZEFSAII (Michael W. Deem and Ramdas Pophale) SiO2 
 PCOD9002573
Probable space group: P -1
;
_chemical_formula_sum "Si O2"
_cell_formula_units_Z 14
_cell_length_a 9.786153
_cell_length_b 18.659707
_cell_length_c 5.153815
_cell_angle_alpha 68.646155
_cell_angle_beta 107.643226
_cell_angle_gamma 73.516745
_cell_volume 748.422727
_symmetry_space_group_name_H-M "P -1"
_symmetry_group_IT_number 2
_symmetry_cell_setting 'triclinic'
loop_
_space_group_symop_operation_xyz
x,y,z
-x,-y,-z
loop_
_atom_site_type_symbol
_atom_site_label
_atom_site_fract_x
_atom_site_fract_y
_atom_site_fract_z
Si Si1 0.887975 0.515277 0.664898
Si Si2 0.848966 0.789435 0.546382
Si Si3 0.854785 0.347024 0.842325
Si Si4 0.641880 0.713025 0.243094
Si Si5 0.439104 0.793034 0.512870
Si Si6 0.170780 0.742607 0.573028
Si Si7 0.537158 0.940588 0.350372
O O1 0.819559 0.445156 0.711279
O O2 0.749504 0.611660 0.453629
O O3 0.000000 0.500000 0.500000
O O4 0.000000 0.500000 0.000000
O O5 0.751866 0.759022 0.331996
O O6 0.721285 0.869233 0.525085
O O7 0.985504 0.804388 0.453573
O O8 0.956961 0.709684 0.900137
O O9 0.825472 0.317408 0.585311
O O10 0.769667 0.316947 0.057340
O O11 0.504049 0.745441 0.340083
O O12 0.566660 0.742914 0.878291
O O13 0.275525 0.790904 0.500400
O O14 0.435258 0.886100 0.367744
O O15 0.500000 0.000000 0.500000
O O16 0.500000 0.000000 0.000000
#
# Coordination Sequence:
#
# PCOD9002573 Si02
#       7
#     2   2   2   2   2   2   2
#     4  12  21  35  58  96 125 156 213 262 287 336
#     4   9  22  38  67  83 121 157 205 238 309 353
#     4  10  21  36  62  86 122 161 208 246 290 346
#     4  11  22  37  64  91 122 161 209 253 298 347
#     4  11  24  43  62  89 125 163 196 246 315 365
#     4  10  22  40  63  84 122 171 201 233 303 377
#     4  11  24  40  65  93 120 146 198 258 306 359
#
# _framework density 18.706004
#
# number of rings (size 3 to 8) (size 9 to 14) (size 15 to 20)
#    0.857    0.571    1.429    5.143    8.000    0.000 
#    0.000    5.714    0.000    0.000    0.000    0.000 
#    0.000    0.000    0.000    0.000    0.000    0.000 
#
# Total GULP energy -78152.984398 kJ/mol
# GULP energy per Si atom -5582.356028 kJ/mol
# Density = 1.866343 g / cm^3
# Si number density = 18.706004 Si / 1000 Ang^3
#
#
#
# Elastic Constant Matrix: (Units=GPa)
#
#
# Indices 1 2 3 4 5 6 
#
# 1 145.6854 51.0051 7.2318 -12.4361 -15.1448 11.2867
# 2 51.0051 128.0709 27.3039 -4.1779 -11.2902 1.2317
# 3 7.2318 27.3039 66.8419 4.2745 -16.0852 2.2201
# 4 -12.4361 -4.1779 4.2745 33.5672 -4.7441 -6.2980
# 5 -15.1448 -11.2902 -16.0852 -4.7441 30.2739 5.0730
# 6 11.2867 1.2317 2.2201 -6.2980 5.0730 21.8249
#
#
#
# Elastic Compliance Matrix: (Units=1/GPa)
#
#
# Indices 1 2 3 4 5 6 
#
# 1 0.009169 -0.003402 0.001740 0.002543 0.005526 -0.005277
# 2 -0.003402 0.009977 -0.003876 0.000794 -0.000230 0.001873
# 3 0.001740 -0.003876 0.019118 -0.001868 0.010219 -0.005540
# 4 0.002543 0.000794 -0.001868 0.033084 0.004533 0.007324
# 5 0.005526 -0.000230 0.010219 0.004533 0.043995 -0.012802
# 6 -0.005277 0.001873 -0.005540 0.007324 -0.012802 0.054095
#
#
# Mechanical properties :
#
#
# Convention : Reuss Voigt Hill
#
# Bulk Modulus (GPa) = 36.77952 56.85330 46.81641
# Shear Modulus (GPa) = 26.37451 34.13701 30.25576
#
# Velocity S-wave (km/s) = 3.75900 4.27655 4.02610
# Velocity P-wave (km/s) = 6.20844 7.40569 6.83333
#
# Compressibility (1/GPa) = 0.02718904
#
# Stress axis : x y z
#
# Youngs Moduli (GPa) = 109.06282 100.23216 52.30658
#
# Poissons Ratio (x) = 0.34097 -0.09101
# Poissons Ratio (y) = 0.37101 0.20272
# Poissons Ratio (z) = -0.18976 0.38846
#
# Static dielectric constant tensor:
#      x y z
#    x 1.670920 -0.006880 -0.009960 
#    y -0.006880 1.611190 0.005090 
#    z -0.009960 0.005090 1.642410 
# 
# From -- ./inp_files/47144.got.cif
#   From: 2010.05.17/outbox.cif.g08.bks.cpg/sg2_24_cif.got.tgz:47144.got - 2010.06.03 11:33:40.
