data_PCOD9002242
_publ_section_title
;
Structure prediction by ZEFSAII (Michael W. Deem and Ramdas Pophale) SiO2 
 PCOD9002242
Probable space group: P -1
;
_chemical_formula_sum "Si O2"
_cell_formula_units_Z 12
_cell_length_a 18.364903
_cell_length_b 8.853574
_cell_length_c 9.049394
_cell_angle_alpha 41.389663
_cell_angle_beta 149.193529
_cell_angle_gamma 139.230360
_cell_volume 469.689358
_symmetry_space_group_name_H-M "P -1"
_symmetry_group_IT_number 2
_symmetry_cell_setting 'triclinic'
loop_
_space_group_symop_operation_xyz
x,y,z
-x,-y,-z
loop_
_atom_site_type_symbol
_atom_site_label
_atom_site_fract_x
_atom_site_fract_y
_atom_site_fract_z
Si Si1 0.690001 0.514287 0.271721
Si Si2 0.541113 0.277645 0.911982
Si Si3 0.871516 0.597205 0.258522
Si Si4 0.293497 0.518415 0.325534
Si Si5 0.010684 0.118447 0.192048
Si Si6 0.221298 0.960657 0.907813
O O1 0.844195 0.549381 0.423717
O O2 0.689151 0.464566 0.477357
O O3 0.569891 0.314892 0.111376
O O4 0.677921 0.782668 0.036012
O O5 0.412839 0.395318 0.569289
O O6 0.706497 0.445779 0.019519
O O7 0.500000 0.000000 0.000000
O O8 0.000000 0.500000 0.500000
O O9 0.917695 0.884680 0.107363
O O10 0.122469 0.339526 0.134565
O O11 0.306456 0.791905 0.112538
O O12 0.894755 0.170518 0.066940
O O13 0.123741 0.028651 0.558846
#
# Coordination Sequence:
#
# PCOD9002242 Si02
#       6
#     2   2   2   2   2   2
#     4   8  20  36  57  88 113 147 192 238 283 333
#     4  10  21  36  59  85 115 158 192 231 292 337
#     4   9  18  35  58  78 114 156 186 228 288 339
#     4  11  19  34  65  88 115 147 191 240 284 343
#     4   9  18  34  55  87 116 146 187 235 286 339
#     4   9  18  34  59  89 115 145 190 237 287 338
#
# _framework density 25.548801999999998
#
# number of rings (size 3 to 8) (size 9 to 14) (size 15 to 20)
#    1.000    1.667    0.000    3.000    0.000    0.667 
#    0.000    0.000    7.333   12.000    0.000    0.000 
#    0.000    0.000    0.000    0.000    0.000    0.000 
#
# Total GULP energy -67089.525017 kJ/mol
# GULP energy per Si atom -5590.793751 kJ/mol
# Density = 2.549065 g / cm^3
# Si number density = 25.548802 Si / 1000 Ang^3
#
#
#
# Elastic Constant Matrix: (Units=GPa)
#
#
# Indices 1 2 3 4 5 6 
#
# 1 140.2384 56.9539 43.5684 -8.7693 34.4562 -5.4932
# 2 56.9539 226.0227 58.1155 10.0070 29.8634 -25.3813
# 3 43.5684 58.1155 81.4834 -9.7909 31.2029 -17.2267
# 4 -8.7693 10.0070 -9.7909 32.8477 -14.1640 7.3260
# 5 34.4562 29.8634 31.2029 -14.1640 47.7869 -5.2247
# 6 -5.4932 -25.3813 -17.2267 7.3260 -5.2247 44.0822
#
#
#
# Elastic Compliance Matrix: (Units=1/GPa)
#
#
# Indices 1 2 3 4 5 6 
#
# 1 0.009540 -0.001303 -0.002739 0.000573 -0.004241 -0.001230
# 2 -0.001303 0.006329 -0.002946 -0.004733 -0.002182 0.002858
# 3 -0.002739 -0.002946 0.020227 0.001530 -0.008433 0.004613
# 4 0.000573 -0.004733 0.001530 0.039459 0.012461 -0.007136
# 5 -0.004241 -0.002182 -0.008433 0.012461 0.034209 -0.003097
# 6 -0.001230 0.002858 0.004613 -0.007136 -0.003097 0.026799
#
#
# Mechanical properties :
#
#
# Convention : Reuss Voigt Hill
#
# Bulk Modulus (GPa) = 45.20752 85.00223 65.10488
# Shear Modulus (GPa) = 31.66310 44.21714 37.94012
#
# Velocity S-wave (km/s) = 3.52421 4.16467 3.85776
# Velocity P-wave (km/s) = 5.85603 7.51457 6.73654
#
# Compressibility (1/GPa) = 0.02212021
#
# Stress axis : x y z
#
# Youngs Moduli (GPa) = 104.81699 158.00379 49.43990
#
# Poissons Ratio (x) = 0.20586 0.13542
# Poissons Ratio (y) = 0.13656 0.14565
# Poissons Ratio (z) = 0.28710 0.46548
#
# Static dielectric constant tensor:
#      x y z
#    x 2.117620 0.014550 -0.067900 
#    y 0.014550 2.029690 0.047820 
#    z -0.067900 0.047820 2.004620 
# 
# From -- ./inp_files/341463.got.cif
#   From: 2010.05.17/outbox.cif.g08.bks.cpg/sg2_171_cif.got.tgz:341463.got - 2010.06.03 11:33:40.
