data_PCOD9002210
_publ_section_title
;
Structure prediction by ZEFSAII (Michael W. Deem and Ramdas Pophale) SiO2 
 PCOD9002210
Probable space group: P -1
;
_chemical_formula_sum "Si O2"
_cell_formula_units_Z 16
_cell_length_a 16.015553
_cell_length_b 8.328123
_cell_length_c 7.611188
_cell_angle_alpha 76.202820
_cell_angle_beta 43.900955
_cell_angle_gamma 71.491641
_cell_volume 667.454401
_symmetry_space_group_name_H-M "P -1"
_symmetry_group_IT_number 2
_symmetry_cell_setting 'triclinic'
loop_
_space_group_symop_operation_xyz
x,y,z
-x,-y,-z
loop_
_atom_site_type_symbol
_atom_site_label
_atom_site_fract_x
_atom_site_fract_y
_atom_site_fract_z
Si Si1 0.378796 0.929098 0.700012
Si Si2 0.213570 0.584054 0.742126
Si Si3 0.663367 0.125244 0.632770
Si Si4 0.072072 0.582872 0.607736
Si Si5 0.434826 0.354284 0.056776
Si Si6 0.814391 0.762851 0.058673
Si Si7 0.726574 0.372674 0.976601
Si Si8 0.195877 0.223569 0.534032
O O1 0.358077 0.913435 0.527649
O O2 0.500000 0.000000 0.500000
O O3 0.272374 0.067274 0.917846
O O4 0.366886 0.753578 0.849155
O O5 0.291230 0.698992 0.494167
O O6 0.105941 0.585010 0.763820
O O7 0.260340 0.385929 0.764865
O O8 0.201017 0.654780 0.940906
O O9 0.762110 0.955494 0.582518
O O10 0.536202 0.183678 0.913275
O O11 0.170842 0.654634 0.324261
O O12 0.096528 0.384100 0.568960
O O13 0.932790 0.685236 0.783821
O O14 0.362654 0.443746 0.969757
O O15 0.321033 0.298311 0.341847
O O16 0.500000 0.500000 0.000000
O O17 0.850093 0.805659 0.192588
#
# Coordination Sequence:
#
# PCOD9002210 Si02
#       8
#     2   2   2   2   2   2   2   2
#     4  10  24  40  63  93 135 168 213 271 324 385
#     4  10  21  40  64  93 128 168 216 267 330 379
#     4  10  21  36  58  92 128 173 214 262 325 391
#     4  10  21  44  68  90 129 172 218 271 324 389
#     4  11  22  36  61  91 135 174 214 268 321 389
#     4  10  21  40  67  91 124 177 216 262 332 382
#     4  10  24  40  62  97 128 168 221 267 327 389
#     4   9  19  37  57  91 126 161 216 264 317 374
#
# _framework density 23.971672999999999
#
# number of rings (size 3 to 8) (size 9 to 14) (size 15 to 20)
#    0.000    2.000    0.000    4.125    7.000    2.000 
#    2.250   10.000    0.000    0.000    0.000    0.000 
#    0.000    0.000    0.000    0.000    0.000    0.000 
#
# Total GULP energy -89214.028225 kJ/mol
# GULP energy per Si atom -5575.876764 kJ/mol
# Density = 2.391711 g / cm^3
# Si number density = 23.971673 Si / 1000 Ang^3
#
#
#
# Elastic Constant Matrix: (Units=GPa)
#
#
# Indices 1 2 3 4 5 6 
#
# 1 60.1859 14.1319 28.8552 2.6685 16.7105 1.7966
# 2 14.1319 65.6071 20.5653 18.5537 6.5269 5.6093
# 3 28.8552 20.5653 100.8829 24.6420 12.3603 -7.5235
# 4 2.6685 18.5537 24.6420 48.3273 -6.7407 -6.9473
# 5 16.7105 6.5269 12.3603 -6.7407 21.4907 -3.9247
# 6 1.7966 5.6093 -7.5235 -6.9473 -3.9247 21.8650
#
#
#
# Elastic Compliance Matrix: (Units=1/GPa)
#
#
# Indices 1 2 3 4 5 6 
#
# 1 0.024342 -0.000710 -0.004573 -0.002337 -0.018166 -0.007395
# 2 -0.000710 0.020568 -0.001004 -0.010320 -0.010308 -0.010693
# 3 -0.004573 -0.001004 0.014050 -0.007062 -0.006045 0.002139
# 4 -0.002337 -0.010320 -0.007062 0.033673 0.022336 0.015118
# 5 -0.018166 -0.010308 -0.006045 0.022336 0.078515 0.023247
# 6 -0.007395 -0.010693 0.002139 0.015118 0.023247 0.058798
#
#
# Mechanical properties :
#
#
# Convention : Reuss Voigt Hill
#
# Bulk Modulus (GPa) = 21.55720 39.30897 30.43308
# Shear Modulus (GPa) = 19.38120 29.21150 24.29635
#
# Velocity S-wave (km/s) = 2.84651 3.49461 3.18707
# Velocity P-wave (km/s) = 4.45149 5.71986 5.12506
#
# Compressibility (1/GPa) = 0.04638822
#
# Stress axis : x y z
#
# Youngs Moduli (GPa) = 41.08085 48.61940 71.17367
#
# Poissons Ratio (x) = 0.03450 0.32547
# Poissons Ratio (y) = 0.02915 0.07142
# Poissons Ratio (z) = 0.18786 0.04879
#
# Static dielectric constant tensor:
#      x y z
#    x 1.981810 0.001640 -0.021310 
#    y 0.001640 1.950150 0.011790 
#    z -0.021310 0.011790 1.880060 
# 
# From -- ./inp_files/328814.got.cif
#   From: 2010.05.17/outbox.cif.g08.bks.cpg/sg2_165_cif.got.tgz:328814.got - 2010.06.03 11:33:40.
