data_PCOD9002778
_publ_section_title
;
Structure prediction by ZEFSAII (Michael W. Deem and Ramdas Pophale) SiO2 
 PCOD9002778
Probable space group: P -1
;
_chemical_formula_sum "Si O2"
_cell_formula_units_Z 14
_cell_length_a 17.783533
_cell_length_b 8.445439
_cell_length_c 9.027681
_cell_angle_alpha 51.286975
_cell_angle_beta 46.891343
_cell_angle_gamma 41.084783
_cell_volume 633.079282
_symmetry_space_group_name_H-M "P -1"
_symmetry_group_IT_number 2
_symmetry_cell_setting 'triclinic'
loop_
_space_group_symop_operation_xyz
x,y,z
-x,-y,-z
loop_
_atom_site_type_symbol
_atom_site_label
_atom_site_fract_x
_atom_site_fract_y
_atom_site_fract_z
Si Si1 0.874327 0.187045 0.648915
Si Si2 0.339446 0.374685 0.473736
Si Si3 0.782230 0.896022 0.784154
Si Si4 0.783518 0.143057 0.076025
Si Si5 0.400101 0.900470 0.847600
Si Si6 0.226483 0.761103 0.636052
Si Si7 0.970396 0.379768 0.974976
O O1 0.793497 0.456184 0.528514
O O2 0.859197 0.218505 0.826633
O O3 0.812139 0.042222 0.774992
O O4 0.000000 0.000000 0.500000
O O5 0.450872 0.290574 0.258376
O O6 0.202683 0.008983 0.448965
O O7 0.359742 0.143407 0.665515
O O8 0.881773 0.605255 0.849625
O O9 0.667317 0.449902 0.490665
O O10 0.646314 0.002122 0.978362
O O11 0.665304 0.199587 0.106893
O O12 0.740657 0.263866 0.222580
O O13 0.893965 0.851841 0.125301
O O14 0.111562 0.726408 0.804389
O O15 0.000000 0.500000 0.000000
#
# Coordination Sequence:
#
# PCOD9002778 Si02
#       7
#     2   2   2   2   2   2   2
#     4  10  21  36  64  95 118 162 208 254 305 363
#     4  10  21  40  66  89 124 163 218 255 294 379
#     4  10  22  36  64  89 120 167 207 252 302 371
#     4  11  23  38  59  92 128 160 202 262 318 364
#     4  10  21  41  64  91 117 171 216 252 302 362
#     4  11  24  40  59  95 128 160 201 263 319 362
#     4  12  21  40  64  87 127 166 209 256 296 375
#
# _framework density 22.114135000000001
#
# number of rings (size 3 to 8) (size 9 to 14) (size 15 to 20)
#    0.000    1.429    4.286    2.143    2.000    6.286 
#    2.571    0.000    0.000    3.429    0.000    0.000 
#    0.000    0.000    0.000    0.000    0.000    0.000 
#
# Total GULP energy -77956.162774 kJ/mol
# GULP energy per Si atom -5568.297341 kJ/mol
# Density = 2.206380 g / cm^3
# Si number density = 22.114135 Si / 1000 Ang^3
#
#
#
# Elastic Constant Matrix: (Units=GPa)
#
#
# Indices 1 2 3 4 5 6 
#
# 1 42.6481 6.2300 30.9412 -2.3416 23.3041 -3.9380
# 2 6.2300 66.5416 19.8400 1.4849 8.3537 -20.6304
# 3 30.9412 19.8400 101.3758 -4.5495 25.3754 -13.6726
# 4 -2.3416 1.4849 -4.5495 25.0345 -0.3373 0.7368
# 5 23.3041 8.3537 25.3754 -0.3373 37.1883 4.4448
# 6 -3.9380 -20.6304 -13.6726 0.7368 4.4448 18.0903
#
#
#
# Elastic Compliance Matrix: (Units=1/GPa)
#
#
# Indices 1 2 3 4 5 6 
#
# 1 0.043076 0.007348 -0.004676 0.001748 -0.027950 0.021018
# 2 0.007348 0.028118 0.001615 -0.002062 -0.016712 0.039077
# 3 -0.004676 0.001615 0.015505 0.001715 -0.009775 0.014875
# 4 0.001748 -0.002062 0.001715 0.040586 -0.001191 -0.002035
# 5 -0.027950 -0.016712 -0.009775 -0.001191 0.060477 -0.047342
# 6 0.021018 0.039077 0.014875 -0.002035 -0.047342 0.127375
#
#
# Mechanical properties :
#
#
# Convention : Reuss Voigt Hill
#
# Bulk Modulus (GPa) = 10.49612 36.06534 23.28073
# Shear Modulus (GPa) = 14.77888 26.29957 20.53922
#
# Velocity S-wave (km/s) = 2.58795 3.45231 3.05090
# Velocity P-wave (km/s) = 3.69955 5.67763 4.79177
#
# Compressibility (1/GPa) = 0.09527332
#
# Stress axis : x y z
#
# Youngs Moduli (GPa) = 23.21465 35.56451 64.49433
#
# Poissons Ratio (x) = -0.26131 0.30158
# Poissons Ratio (y) = -0.17057 -0.10419
# Poissons Ratio (z) = 0.10855 -0.05745
#
# Static dielectric constant tensor:
#      x y z
#    x 1.915470 -0.134290 -0.204750 
#    y -0.134290 1.948700 0.219300 
#    z -0.204750 0.219300 2.457270 
# 
# From -- ./inp_files/468545.got.cif
#   From: 2010.05.17/outbox.cif.g08.bks.cpg/sg2_235_cif.got.tgz:468545.got - 2010.06.03 11:33:40.
