data_PCOD9002690
_publ_section_title
;
Structure prediction by ZEFSAII (Michael W. Deem and Ramdas Pophale) SiO2 
 PCOD9002690
Probable space group: P -1
;
_chemical_formula_sum "Si O2"
_cell_formula_units_Z 14
_cell_length_a 22.168600
_cell_length_b 9.622500
_cell_length_c 5.572448
_cell_angle_alpha 112.330538
_cell_angle_beta 71.163625
_cell_angle_gamma 152.980423
_cell_volume 499.177912
_symmetry_space_group_name_H-M "P -1"
_symmetry_group_IT_number 2
_symmetry_cell_setting 'triclinic'
loop_
_space_group_symop_operation_xyz
x,y,z
-x,-y,-z
loop_
_atom_site_type_symbol
_atom_site_label
_atom_site_fract_x
_atom_site_fract_y
_atom_site_fract_z
Si Si1 0.649314 0.319523 0.114012
Si Si2 0.782643 0.994270 0.775343
Si Si3 0.344484 0.969323 0.234428
Si Si4 0.494430 0.321429 0.783554
Si Si5 0.821201 0.625066 0.495076
Si Si6 0.157921 0.062550 0.951323
Si Si7 0.001023 0.779753 0.566264
O O1 0.677502 0.344197 0.374131
O O2 0.718825 0.622891 0.161023
O O3 0.500000 0.000000 0.000000
O O4 0.720645 0.330939 0.881538
O O5 0.743359 0.067503 0.746940
O O6 0.647618 0.614006 0.705751
O O7 0.816354 0.050455 0.052483
O O8 0.909043 0.170054 0.617727
O O9 0.415869 0.143015 0.514049
O O10 0.435976 0.133730 0.983526
O O11 0.500000 0.500000 0.000000
O O12 0.842594 0.805157 0.769043
O O13 0.868588 0.554804 0.452334
O O14 0.919584 0.896028 0.340010
O O15 0.014225 0.769486 0.820759
#
# Coordination Sequence:
#
# PCOD9002690 Si02
#       7
#     2   2   2   2   2   2   2
#     4  11  25  40  60  89 131 170 208 254 327 394
#     4  10  21  36  63  93 120 161 214 266 310 373
#     4  11  25  40  64  93 137 168 211 262 327 381
#     4  10  22  39  62  92 130 171 211 261 316 376
#     4   9  20  39  58  89 126 164 208 267 315 381
#     4  10  21  36  65  89 125 161 217 259 324 373
#     4   9  19  36  63  91 119 159 218 267 316 365
#
# _framework density 28.046109999999999
#
# number of rings (size 3 to 8) (size 9 to 14) (size 15 to 20)
#    0.000    2.000    0.000    3.000   14.000    1.714 
#    0.000    0.714    0.000    1.714    0.000    0.000 
#    0.000    0.000    0.000    0.000    0.000    0.000 
#
# Total GULP energy -78005.846558 kJ/mol
# GULP energy per Si atom -5571.846183 kJ/mol
# Density = 2.798228 g / cm^3
# Si number density = 28.046110 Si / 1000 Ang^3
#
#
#
# Elastic Constant Matrix: (Units=GPa)
#
#
# Indices 1 2 3 4 5 6 
#
# 1 212.1474 26.8976 49.7605 4.2475 27.0511 26.5691
# 2 26.8976 89.2956 34.6893 5.1669 7.2805 19.7891
# 3 49.7605 34.6893 143.7221 -7.6410 13.1870 8.2245
# 4 4.2475 5.1669 -7.6410 29.4555 13.0360 -2.4190
# 5 27.0511 7.2805 13.1870 13.0360 54.7987 9.0739
# 6 26.5691 19.7891 8.2245 -2.4190 9.0739 38.9379
#
#
#
# Elastic Compliance Matrix: (Units=1/GPa)
#
#
# Indices 1 2 3 4 5 6 
#
# 1 0.005750 -0.000227 -0.001637 -0.000701 -0.001734 -0.003102
# 2 -0.000227 0.014251 -0.003311 -0.004437 0.001222 -0.006949
# 3 -0.001637 -0.003311 0.008637 0.004127 -0.002097 0.001721
# 4 -0.000701 -0.004437 0.004127 0.041370 -0.011059 0.007009
# 5 -0.001734 0.001222 -0.002097 -0.011059 0.022909 -0.005020
# 6 -0.003102 -0.006949 0.001721 0.007009 -0.005020 0.032572
#
#
# Mechanical properties :
#
#
# Convention : Reuss Voigt Hill
#
# Bulk Modulus (GPa) = 54.68117 74.20668 64.44393
# Shear Modulus (GPa) = 35.22754 46.89293 41.06023
#
# Velocity S-wave (km/s) = 3.54794 4.09344 3.83041
# Velocity P-wave (km/s) = 6.02686 6.98984 6.52614
#
# Compressibility (1/GPa) = 0.01828783
#
# Stress axis : x y z
#
# Youngs Moduli (GPa) = 173.91307 70.17284 115.77838
#
# Poissons Ratio (x) = 0.01591 0.18950
# Poissons Ratio (y) = 0.03944 0.38339
# Poissons Ratio (z) = 0.28465 0.23237
#
# Static dielectric constant tensor:
#      x y z
#    x 2.326440 -0.070530 0.176930 
#    y -0.070530 2.537200 -0.167900 
#    z 0.176930 -0.167900 2.381380 
# 
# From -- ./inp_files/123775.got.cif
#   From: 2010.05.17/outbox.cif.g08.bks.cpg/sg2_62_cif.got.tgz:123775.got - 2010.06.03 11:33:40.
