data_PCOD9002585
_publ_section_title
;
Structure prediction by ZEFSAII (Michael W. Deem and Ramdas Pophale) SiO2 
 PCOD9002585
Probable space group: P -1
;
_chemical_formula_sum "Si O2"
_cell_formula_units_Z 16
_cell_length_a 18.688694
_cell_length_b 6.479901
_cell_length_c 9.712405
_cell_angle_alpha 97.473843
_cell_angle_beta 116.567702
_cell_angle_gamma 54.774744
_cell_volume 846.086440
_symmetry_space_group_name_H-M "P -1"
_symmetry_group_IT_number 2
_symmetry_cell_setting 'triclinic'
loop_
_space_group_symop_operation_xyz
x,y,z
-x,-y,-z
loop_
_atom_site_type_symbol
_atom_site_label
_atom_site_fract_x
_atom_site_fract_y
_atom_site_fract_z
Si Si1 0.089544 0.981025 0.722569
Si Si2 0.532499 0.345857 0.877033
Si Si3 0.729437 0.268584 0.939818
Si Si4 0.032873 0.245046 0.422985
Si Si5 0.600622 0.832998 0.786749
Si Si6 0.947977 0.520785 0.808992
Si Si7 0.444448 0.708385 0.590801
Si Si8 0.729520 0.908982 0.696915
O O1 0.104829 0.032120 0.581663
O O2 0.009290 0.247288 0.758327
O O3 0.050533 0.804499 0.668337
O O4 0.185981 0.852049 0.886102
O O5 0.634825 0.296435 0.920310
O O6 0.454473 0.537964 0.712492
O O7 0.554443 0.068711 0.872908
O O8 0.500000 0.500000 0.000000
O O9 0.690801 0.554924 0.892238
O O10 0.755965 0.081685 0.816776
O O11 0.058488 0.282172 0.293648
O O12 0.000000 0.500000 0.500000
O O13 0.511850 0.811156 0.674055
O O14 0.648880 0.896529 0.711695
O O15 0.833522 0.635541 0.745235
O O16 0.000000 0.500000 0.000000
O O17 0.500000 0.500000 0.500000
O O18 0.332537 0.933405 0.477007
#
# Coordination Sequence:
#
# PCOD9002585 Si02
#       8
#     2   2   2   2   2   2   2   2
#     4  10  21  42  63  87 121 170 202 243 306 361
#     4  10  23  40  59  91 122 153 199 252 300 357
#     4  10  21  36  62  89 119 158 205 238 302 367
#     4   9  22  41  61  80 122 161 205 249 298 353
#     4  10  21  37  64  87 121 162 195 246 306 358
#     4  11  23  38  61  95 125 153 201 261 299 353
#     4  11  20  39  62  87 120 157 200 245 295 370
#     4  11  22  37  58  95 122 156 201 246 309 354
#
# _framework density 18.910596000000002
#
# number of rings (size 3 to 8) (size 9 to 14) (size 15 to 20)
#    0.000    1.750    5.000    0.375    1.750    5.500 
#    0.000    6.250    0.000    0.000    0.000    0.000 
#    0.000    0.000    0.000    0.000    0.000    0.000 
#
# Total GULP energy -89102.242487 kJ/mol
# GULP energy per Si atom -5568.890155 kJ/mol
# Density = 1.886756 g / cm^3
# Si number density = 18.910596 Si / 1000 Ang^3
#
#
#
# Elastic Constant Matrix: (Units=GPa)
#
#
# Indices 1 2 3 4 5 6 
#
# 1 19.6297 13.0022 13.5618 -4.1966 -3.3143 3.6342
# 2 13.0022 86.1128 30.5038 0.2791 1.7329 10.4348
# 3 13.5618 30.5038 106.0547 -19.4252 0.0258 -2.5685
# 4 -4.1966 0.2791 -19.4252 32.3058 -13.8029 7.9619
# 5 -3.3143 1.7329 0.0258 -13.8029 31.2895 -0.9362
# 6 3.6342 10.4348 -2.5685 7.9619 -0.9362 31.4051
#
#
#
# Elastic Compliance Matrix: (Units=1/GPa)
#
#
# Indices 1 2 3 4 5 6 
#
# 1 0.065586 -0.007866 -0.003744 0.014135 0.013368 -0.008467
# 2 -0.007866 0.014750 -0.004118 -0.004376 -0.003677 -0.003328
# 3 -0.003744 -0.004118 0.012669 0.008511 0.003599 0.000787
# 4 0.014135 -0.004376 0.008511 0.051044 0.023899 -0.011714
# 5 0.013368 -0.003677 0.003599 0.023899 0.043976 -0.004779
# 6 -0.008467 -0.003328 0.000787 -0.011714 -0.004779 0.036819
#
#
# Mechanical properties :
#
#
# Convention : Reuss Voigt Hill
#
# Bulk Modulus (GPa) = 16.24659 36.21475 26.23067
# Shear Modulus (GPa) = 18.06247 29.31539 23.68893
#
# Velocity S-wave (km/s) = 3.09390 3.94154 3.54316
# Velocity P-wave (km/s) = 4.62308 6.31715 5.53531
#
# Compressibility (1/GPa) = 0.06155139
#
# Stress axis : x y z
#
# Youngs Moduli (GPa) = 15.24707 67.79462 78.93075
#
# Poissons Ratio (x) = 0.53324 0.29551
# Poissons Ratio (y) = 0.11993 0.32504
# Poissons Ratio (z) = 0.05708 0.27918
#
# Static dielectric constant tensor:
#      x y z
#    x 1.688790 0.010250 -0.064330 
#    y 0.010250 1.720160 -0.005050 
#    z -0.064330 -0.005050 1.720030 
# 
# From -- ./inp_files/47503.got.cif
#   From: 2010.05.17/outbox.cif.g08.bks.cpg/sg2_24_cif.got.tgz:47503.got - 2010.06.03 11:33:40.
