data_PCOD9002460
_publ_section_title
;
Structure prediction by ZEFSAII (Michael W. Deem and Ramdas Pophale) SiO2 
 PCOD9002460
Probable space group: P -1
;
_chemical_formula_sum "Si O2"
_cell_formula_units_Z 16
_cell_length_a 12.959173
_cell_length_b 19.140859
_cell_length_c 9.394936
_cell_angle_alpha 113.981566
_cell_angle_beta 51.772841
_cell_angle_gamma 152.325418
_cell_volume 783.664644
_symmetry_space_group_name_H-M "P -1"
_symmetry_group_IT_number 2
_symmetry_cell_setting 'triclinic'
loop_
_space_group_symop_operation_xyz
x,y,z
-x,-y,-z
loop_
_atom_site_type_symbol
_atom_site_label
_atom_site_fract_x
_atom_site_fract_y
_atom_site_fract_z
Si Si1 0.290730 0.512460 0.405807
Si Si2 0.831411 0.655141 0.863503
Si Si3 0.645685 0.262357 0.208828
Si Si4 0.307043 0.682842 0.454044
Si Si5 0.667923 0.016569 0.938364
Si Si6 0.795405 0.502299 0.230755
Si Si7 0.261305 0.380557 0.779784
Si Si8 0.385626 0.016430 0.700482
O O1 0.107609 0.378936 0.330259
O O2 0.436371 0.663597 0.346138
O O3 0.109744 0.439070 0.638034
O O4 0.511486 0.563926 0.318339
O O5 0.048358 0.835988 0.808772
O O6 0.500000 0.500000 0.000000
O O7 0.857435 0.642450 0.992600
O O8 0.680904 0.278149 0.362320
O O9 0.605282 0.329939 0.256171
O O10 0.936639 0.380624 0.994070
O O11 0.414207 0.096223 0.184449
O O12 0.000000 0.500000 0.500000
O O13 0.471958 0.831316 0.345843
O O14 0.594708 0.976278 0.136916
O O15 0.996278 0.201716 0.793544
O O16 0.500000 0.000000 0.000000
O O17 0.649622 0.503585 0.298704
O O18 0.500000 0.000000 0.500000
#
# Coordination Sequence:
#
# PCOD9002460 Si02
#       8
#     2   2   2   2   2   2   2   2
#     4  10  22  40  61  90 122 166 211 250 310 376
#     4   9  21  41  61  87 125 163 205 254 310 377
#     4  10  23  38  57  94 122 159 207 257 315 364
#     4  11  25  40  63  93 130 163 206 268 311 372
#     4  11  22  38  61  90 124 159 198 264 309 366
#     4  10  21  36  61  85 122 155 212 246 306 367
#     4  10  21  39  61  88 123 162 203 255 312 370
#     4  11  24  37  63  97 122 161 216 255 314 369
#
# _framework density 20.416895
#
# number of rings (size 3 to 8) (size 9 to 14) (size 15 to 20)
#    0.000    1.750    1.250    1.875   10.500    1.000 
#    0.000   10.625    0.000    0.000    0.000    0.000 
#    0.000    0.000    0.000    0.000    0.000    0.000 
#
# Total GULP energy -89132.426800 kJ/mol
# GULP energy per Si atom -5570.776675 kJ/mol
# Density = 2.037043 g / cm^3
# Si number density = 20.416895 Si / 1000 Ang^3
#
#
#
# Elastic Constant Matrix: (Units=GPa)
#
#
# Indices 1 2 3 4 5 6 
#
# 1 115.8623 68.4659 38.2733 -2.5758 12.1270 -29.7445
# 2 68.4659 167.7730 55.3942 19.3544 22.0625 -7.6482
# 3 38.2733 55.3942 78.3112 20.5408 24.9740 -8.2597
# 4 -2.5758 19.3544 20.5408 38.4508 4.3990 2.8199
# 5 12.1270 22.0625 24.9740 4.3990 28.4480 -2.5563
# 6 -29.7445 -7.6482 -8.2597 2.8199 -2.5563 34.9997
#
#
#
# Elastic Compliance Matrix: (Units=1/GPa)
#
#
# Indices 1 2 3 4 5 6 
#
# 1 0.016209 -0.005323 -0.004948 0.005394 0.001729 0.011136
# 2 -0.005323 0.009648 -0.002952 -0.003138 -0.002409 -0.003035
# 3 -0.004948 -0.002952 0.025251 -0.010554 -0.016066 0.000786
# 4 0.005394 -0.003138 -0.010554 0.033178 0.004183 -0.000960
# 5 0.001729 -0.002409 -0.016066 0.004183 0.049781 0.000450
# 6 0.011136 -0.003035 0.000786 -0.000960 0.000450 0.037668
#
#
# Mechanical properties :
#
#
# Convention : Reuss Voigt Hill
#
# Bulk Modulus (GPa) = 40.54912 76.24594 58.39753
# Shear Modulus (GPa) = 24.22488 33.70058 28.96273
#
# Velocity S-wave (km/s) = 3.44831 4.06719 3.77047
# Velocity P-wave (km/s) = 5.97981 7.71244 6.90072
#
# Compressibility (1/GPa) = 0.02466145
#
# Stress axis : x y z
#
# Youngs Moduli (GPa) = 61.69580 103.65319 39.60289
#
# Poissons Ratio (x) = 0.55171 0.19597
# Poissons Ratio (y) = 0.32839 0.11690
# Poissons Ratio (z) = 0.30529 0.30595
#
# Static dielectric constant tensor:
#      x y z
#    x 1.731190 -0.042580 -0.116950 
#    y -0.042580 1.696880 -0.095080 
#    z -0.116950 -0.095080 1.686170 
# 
# From -- ./inp_files/278087.got.cif
#   From: 2010.05.17/outbox.cif.g08.bks.cpg/sg2_140_cif.got.tgz:278087.got - 2010.06.03 11:33:40.
