data_PCOD9002473
_publ_section_title
;
Structure prediction by ZEFSAII (Michael W. Deem and Ramdas Pophale) SiO2 
 PCOD9002473
Probable space group: P -1
;
_chemical_formula_sum "Si O2"
_cell_formula_units_Z 12
_cell_length_a 21.018599
_cell_length_b 5.665679
_cell_length_c 5.193308
_cell_angle_alpha 59.037035
_cell_angle_beta 115.744922
_cell_angle_gamma 113.250914
_cell_volume 465.780619
_symmetry_space_group_name_H-M "P -1"
_symmetry_group_IT_number 2
_symmetry_cell_setting 'triclinic'
loop_
_space_group_symop_operation_xyz
x,y,z
-x,-y,-z
loop_
_atom_site_type_symbol
_atom_site_label
_atom_site_fract_x
_atom_site_fract_y
_atom_site_fract_z
Si Si1 0.944134 0.585448 0.548332
Si Si2 0.475509 0.152720 0.122955
Si Si3 0.664465 0.691632 0.093591
Si Si4 0.086336 0.872523 0.883564
Si Si5 0.710937 0.568779 0.750446
Si Si6 0.210624 0.910949 0.714189
O O1 0.000000 0.500000 0.500000
O O2 0.998987 0.760778 0.762515
O O3 0.904138 0.801097 0.221313
O O4 0.892814 0.331607 0.751425
O O5 0.500000 0.000000 0.500000
O O6 0.500000 0.500000 0.000000
O O7 0.389089 0.124674 0.995237
O O8 0.500000 0.000000 0.000000
O O9 0.674340 0.475938 0.458595
O O10 0.648353 0.578402 0.843036
O O11 0.743503 0.894159 0.090574
O O12 0.129222 0.854015 0.706440
O O13 0.758368 0.367690 0.067263
O O14 0.761510 0.873455 0.589296
#
# Coordination Sequence:
#
# PCOD9002473 Si02
#       6
#     2   2   2   2   2   2
#     4  10  21  36  61  86 126 162 206 266 318 396
#     4  12  28  46  76 107 145 191 241 294 358 430
#     4  10  26  43  69  97 137 174 227 280 342 401
#     4  10  21  39  57  90 121 162 215 258 329 391
#     4  10  24  39  67  91 134 170 218 279 335 398
#     4  10  24  39  65  92 131 172 222 275 334 403
#
# _framework density 25.763204000000002
#
# number of rings (size 3 to 8) (size 9 to 14) (size 15 to 20)
#    1.000    0.667    0.000    3.000    7.000    2.667 
#    0.000    0.000    0.000    0.000    0.000    0.000 
#    0.000    0.000    0.000    0.000    0.000    0.000 
#
# Total GULP energy -66969.355203 kJ/mol
# GULP energy per Si atom -5580.779600 kJ/mol
# Density = 2.570457 g / cm^3
# Si number density = 25.763204 Si / 1000 Ang^3
#
#
#
# Elastic Constant Matrix: (Units=GPa)
#
#
# Indices 1 2 3 4 5 6 
#
# 1 132.5993 34.2024 50.6920 -9.4540 -19.6887 -31.6025
# 2 34.2024 86.4074 67.7745 -33.4189 -22.3003 -11.0820
# 3 50.6920 67.7745 138.8779 -44.1743 -27.9557 -16.7523
# 4 -9.4540 -33.4189 -44.1743 57.2044 -6.1696 6.0881
# 5 -19.6887 -22.3003 -27.9557 -6.1696 50.6998 9.7357
# 6 -31.6025 -11.0820 -16.7523 6.0881 9.7357 47.6270
#
#
#
# Elastic Compliance Matrix: (Units=1/GPa)
#
#
# Indices 1 2 3 4 5 6 
#
# 1 0.010337 -0.001954 -0.002759 -0.002133 0.000290 0.005648
# 2 -0.001954 0.022131 -0.005994 0.008805 0.006894 -0.000790
# 3 -0.002759 -0.005994 0.014771 0.008055 0.005451 -0.000173
# 4 -0.002133 0.008805 0.008055 0.030046 0.011672 -0.002760
# 5 0.000290 0.006894 0.005451 0.011672 0.027966 -0.003495
# 6 0.005648 -0.000790 -0.000173 -0.002760 -0.003495 0.025566
#
#
# Mechanical properties :
#
#
# Convention : Reuss Voigt Hill
#
# Bulk Modulus (GPa) = 38.72012 73.69137 56.20574
# Shear Modulus (GPa) = 31.08705 44.78728 37.93717
#
# Velocity S-wave (km/s) = 3.47745 4.17396 3.84152
# Velocity P-wave (km/s) = 5.58439 7.20380 6.44516
#
# Compressibility (1/GPa) = 0.02582637
#
# Stress axis : x y z
#
# Youngs Moduli (GPa) = 96.73999 45.18497 67.69961
#
# Poissons Ratio (x) = 0.08829 0.18675
# Poissons Ratio (y) = 0.18902 0.40580
# Poissons Ratio (z) = 0.26686 0.27084
#
# Static dielectric constant tensor:
#      x y z
#    x 2.130380 0.074880 -0.052890 
#    y 0.074880 2.268750 0.052200 
#    z -0.052890 0.052200 2.127170 
# 
# From -- ./inp_files/113899.got.cif
#   From: 2010.05.17/outbox.cif.g08.bks.cpg/sg2_57_cif.got.tgz:113899.got - 2010.06.03 11:33:40.
