data_PCOD9002576
_publ_section_title
;
Structure prediction by ZEFSAII (Michael W. Deem and Ramdas Pophale) SiO2 
 PCOD9002576
Probable space group: P -1
;
_chemical_formula_sum "Si O2"
_cell_formula_units_Z 16
_cell_length_a 11.308449
_cell_length_b 10.454222
_cell_length_c 14.542174
_cell_angle_alpha 101.359521
_cell_angle_beta 137.829772
_cell_angle_gamma 112.429751
_cell_volume 676.665582
_symmetry_space_group_name_H-M "P -1"
_symmetry_group_IT_number 2
_symmetry_cell_setting 'triclinic'
loop_
_space_group_symop_operation_xyz
x,y,z
-x,-y,-z
loop_
_atom_site_type_symbol
_atom_site_label
_atom_site_fract_x
_atom_site_fract_y
_atom_site_fract_z
Si Si1 0.863586 0.426919 0.097022
Si Si2 0.250201 0.018814 0.167687
Si Si3 0.687496 0.094265 0.526168
Si Si4 0.232778 0.192933 0.024262
Si Si5 0.459475 0.679625 0.951391
Si Si6 0.105131 0.220649 0.653068
Si Si7 0.466745 0.347113 0.725686
Si Si8 0.693533 0.535958 0.689708
O O1 0.672404 0.283782 0.057463
O O2 0.020740 0.655991 0.242424
O O3 0.124501 0.479910 0.243807
O O4 0.660458 0.344408 0.881506
O O5 0.490182 0.055793 0.334470
O O6 0.361359 0.196001 0.188365
O O7 0.112701 0.996262 0.178918
O O8 0.964943 0.783366 0.922129
O O9 0.823517 0.056218 0.537047
O O10 0.500000 0.000000 0.500000
O O11 0.324302 0.163050 0.985441
O O12 0.358687 0.412796 0.115381
O O13 0.204180 0.431849 0.729831
O O14 0.645072 0.705501 0.134857
O O15 0.154462 0.187511 0.574636
O O16 0.491083 0.365768 0.632819
O O17 0.500000 0.500000 0.500000
#
# Coordination Sequence:
#
# PCOD9002576 Si02
#       8
#     2   2   2   2   2   2   2   2
#     4  10  21  36  62  87 110 147 195 225 281 341
#     4  10  22  35  56  81 119 150 183 234 283 336
#     4  11  20  33  58  95 114 139 185 244 282 327
#     4   9  17  33  57  81 112 145 179 231 292 315
#     4   8  14  31  55  83 110 144 180 234 272 333
#     4   8  15  30  54  85 114 138 184 228 286 324
#     4   9  18  37  62  83 112 149 188 240 270 330
#     4  11  24  41  57  78 113 159 192 226 279 345
#
# _framework density 23.645358000000002
#
# number of rings (size 3 to 8) (size 9 to 14) (size 15 to 20)
#    0.000    2.500    0.000    4.875    5.250    0.000 
#    2.250    2.500    0.000    2.250    0.000    0.000 
#    0.000    0.000    0.000    0.000    0.000    0.000 
#
# Total GULP energy -89161.919450 kJ/mol
# GULP energy per Si atom -5572.619966 kJ/mol
# Density = 2.359154 g / cm^3
# Si number density = 23.645358 Si / 1000 Ang^3
#
#
#
# Elastic Constant Matrix: (Units=GPa)
#
#
# Indices 1 2 3 4 5 6 
#
# 1 193.8381 47.5422 41.8126 -23.5621 42.3506 48.7999
# 2 47.5422 73.5280 30.2241 -11.6843 16.3509 20.9157
# 3 41.8126 30.2241 104.4485 -13.5335 5.2791 3.2705
# 4 -23.5621 -11.6843 -13.5335 30.5427 -7.0936 -1.9201
# 5 42.3506 16.3509 5.2791 -7.0936 34.8862 5.5503
# 6 48.7999 20.9157 3.2705 -1.9201 5.5503 33.8997
#
#
#
# Elastic Compliance Matrix: (Units=1/GPa)
#
#
# Indices 1 2 3 4 5 6 
#
# 1 0.013437 0.001568 -0.003975 0.005174 -0.012598 -0.017571
# 2 0.001568 0.020952 -0.005334 0.004183 -0.007977 -0.013126
# 3 -0.003975 -0.005334 0.012503 0.001973 0.004698 0.007150
# 4 0.005174 0.004183 0.001973 0.038848 0.000652 -0.008126
# 5 -0.012598 -0.007977 0.004698 0.000652 0.044680 0.015325
# 6 -0.017571 -0.013126 0.007150 -0.008126 0.015325 0.059232
#
#
# Mechanical properties :
#
#
# Convention : Reuss Voigt Hill
#
# Bulk Modulus (GPa) = 31.83855 67.88581 49.86218
# Shear Modulus (GPa) = 23.19055 36.68146 29.93600
#
# Velocity S-wave (km/s) = 3.13511 3.94295 3.56201
# Velocity P-wave (km/s) = 5.15747 7.03573 6.16851
#
# Compressibility (1/GPa) = 0.03140847
#
# Stress axis : x y z
#
# Youngs Moduli (GPa) = 74.42229 47.72877 79.97802
#
# Poissons Ratio (x) = -0.07483 0.31795
# Poissons Ratio (y) = -0.11668 0.42662
# Poissons Ratio (z) = 0.29586 0.25459
#
# Static dielectric constant tensor:
#      x y z
#    x 2.138700 0.005040 -0.024120 
#    y 0.005040 1.984130 0.101910 
#    z -0.024120 0.101910 1.889890 
# 
# From -- ./inp_files/401564.got.cif
#   From: 2010.05.17/outbox.cif.g08.bks.cpg/sg2_201_cif.got.tgz:401564.got - 2010.06.03 11:33:40.
