data_PCOD9002657
_publ_section_title
;
Structure prediction by ZEFSAII (Michael W. Deem and Ramdas Pophale) SiO2 
 PCOD9002657
Probable space group: P -1
;
_chemical_formula_sum "Si O2"
_cell_formula_units_Z 16
_cell_length_a 19.817113
_cell_length_b 8.558358
_cell_length_c 15.755401
_cell_angle_alpha 148.548328
_cell_angle_beta 150.629506
_cell_angle_gamma 35.836108
_cell_volume 659.782762
_symmetry_space_group_name_H-M "P -1"
_symmetry_group_IT_number 2
_symmetry_cell_setting 'triclinic'
loop_
_space_group_symop_operation_xyz
x,y,z
-x,-y,-z
loop_
_atom_site_type_symbol
_atom_site_label
_atom_site_fract_x
_atom_site_fract_y
_atom_site_fract_z
Si Si1 0.736774 0.335988 0.364330
Si Si2 0.208679 0.632170 0.756330
Si Si3 0.148853 0.302286 0.758387
Si Si4 0.791522 0.440823 0.886993
Si Si5 0.430642 0.296834 0.961338
Si Si6 0.951529 0.841953 0.681962
Si Si7 0.464540 0.171461 0.291981
Si Si8 0.389058 0.001382 0.454027
O O1 0.772318 0.293052 0.284486
O O2 0.734803 0.682794 0.547832
O O3 0.842167 0.061789 0.403903
O O4 0.571011 0.322154 0.177143
O O5 0.354161 0.576005 0.942562
O O6 0.169344 0.295133 0.557566
O O7 0.073668 0.861402 0.758687
O O8 0.303402 0.301265 0.888818
O O9 0.031644 0.555424 0.696977
O O10 0.135823 0.410961 0.891513
O O11 0.704731 0.709211 0.853482
O O12 0.887681 0.155772 0.807573
O O13 0.681182 0.283814 0.744717
O O14 0.475683 0.002196 0.810416
O O15 0.500000 0.500000 0.500000
O O16 0.534294 0.983010 0.364055
O O17 0.500000 0.000000 0.500000
#
# Coordination Sequence:
#
# PCOD9002657 Si02
#       8
#     2   2   2   2   2   2   2   2
#     4  12  22  39  63  98 128 153 207 270 313 365
#     4  10  21  40  64  90 117 168 212 262 304 365
#     4  11  25  37  67  92 128 169 208 255 311 373
#     4  11  21  44  60  90 124 171 212 249 307 376
#     4  11  21  39  63  95 125 161 202 257 320 377
#     4  10  22  44  63  84 125 175 220 243 305 376
#     4  10  21  36  63  87 126 163 202 246 315 377
#     4  11  24  39  60  97 132 158 199 260 323 369
#
# _framework density 24.250406999999999
#
# number of rings (size 3 to 8) (size 9 to 14) (size 15 to 20)
#    0.000    1.250    3.750    2.625    3.500    0.500 
#    0.000    0.625    0.000    0.000    0.000    0.000 
#    0.000    0.000    0.000    0.000    0.000    0.000 
#
# Total GULP energy -89484.980859 kJ/mol
# GULP energy per Si atom -5592.811304 kJ/mol
# Density = 2.419521 g / cm^3
# Si number density = 24.250407 Si / 1000 Ang^3
#
#
#
# Elastic Constant Matrix: (Units=GPa)
#
#
# Indices 1 2 3 4 5 6 
#
# 1 77.8863 30.4905 -9.1689 8.6409 -5.9015 -30.4934
# 2 30.4905 136.8878 1.6577 6.2878 -4.2350 -20.3719
# 3 -9.1689 1.6577 61.2207 3.3721 -2.9501 -17.4576
# 4 8.6409 6.2878 3.3721 35.3367 -8.0809 -5.7061
# 5 -5.9015 -4.2350 -2.9501 -8.0809 33.8712 1.4126
# 6 -30.4934 -20.3719 -17.4576 -5.7061 1.4126 32.2807
#
#
#
# Elastic Compliance Matrix: (Units=1/GPa)
#
#
# Indices 1 2 3 4 5 6 
#
# 1 0.028569 -0.001375 0.014098 -0.001751 0.004229 0.033249
# 2 -0.001375 0.008275 0.000842 -0.000388 0.000597 0.004284
# 3 0.014098 0.000842 0.026604 -0.000820 0.003518 0.027937
# 4 -0.001751 -0.000388 -0.000820 0.030891 0.006827 0.002819
# 5 0.004229 0.000597 0.003518 0.006827 0.032017 0.006080
# 6 0.033249 0.004284 0.027937 0.002819 0.006080 0.080431
#
#
# Mechanical properties :
#
#
# Convention : Reuss Voigt Hill
#
# Bulk Modulus (GPa) = 11.04022 35.77261 23.40641
# Shear Modulus (GPa) = 23.82641 37.16541 30.49591
#
# Velocity S-wave (km/s) = 3.13791 3.91905 3.55003
# Velocity P-wave (km/s) = 4.20608 5.93818 5.14554
#
# Compressibility (1/GPa) = 0.09057793
#
# Stress axis : x y z
#
# Youngs Moduli (GPa) = 35.00272 120.84336 37.58812
#
# Poissons Ratio (x) = 0.16613 -0.52990
# Poissons Ratio (y) = 0.04812 -0.03164
# Poissons Ratio (z) = -0.49345 -0.10174
#
# Static dielectric constant tensor:
#      x y z
#    x 1.926220 0.026170 0.046000 
#    y 0.026170 1.967230 -0.027660 
#    z 0.046000 -0.027660 2.008330 
# 
# From -- ./inp_files/176694.got.cif
#   From: 2010.05.17/outbox.cif.g08.bks.cpg/sg2_89_cif.got.tgz:176694.got - 2010.06.03 11:33:40.
