data_PCOD9002030
_publ_section_title
;
Structure prediction by ZEFSAII (Michael W. Deem and Ramdas Pophale) SiO2 
 PCOD9002030
Probable space group: P -1
;
_chemical_formula_sum "Si O2"
_cell_formula_units_Z 16
_cell_length_a 12.300310
_cell_length_b 10.411878
_cell_length_c 7.926408
_cell_angle_alpha 140.018871
_cell_angle_beta 109.202492
_cell_angle_gamma 70.864365
_cell_volume 611.144243
_symmetry_space_group_name_H-M "P -1"
_symmetry_group_IT_number 2
_symmetry_cell_setting 'triclinic'
loop_
_space_group_symop_operation_xyz
x,y,z
-x,-y,-z
loop_
_atom_site_type_symbol
_atom_site_label
_atom_site_fract_x
_atom_site_fract_y
_atom_site_fract_z
Si Si1 0.976985 0.344571 0.973465
Si Si2 0.588116 0.249726 0.514419
Si Si3 0.264681 0.679631 0.621611
Si Si4 0.424057 0.283733 0.761168
Si Si5 0.782474 0.449483 0.197272
Si Si6 0.577525 0.033436 0.840023
Si Si7 0.973280 0.055161 0.237907
Si Si8 0.798802 0.072029 0.628463
O O1 0.059794 0.150211 0.892138
O O2 0.914972 0.454299 0.217594
O O3 0.875254 0.225608 0.726640
O O4 0.000000 0.500000 0.000000
O O5 0.655058 0.385370 0.563217
O O6 0.520194 0.350043 0.744097
O O7 0.488848 0.132651 0.266311
O O8 0.687612 0.075784 0.459922
O O9 0.130423 0.767504 0.624995
O O10 0.261618 0.512567 0.597892
O O11 0.328520 0.869207 0.908256
O O12 0.697016 0.577093 0.154730
O O13 0.385566 0.092305 0.440465
O O14 0.487282 0.211610 0.892332
O O15 0.766440 0.215352 0.918342
O O16 0.097024 0.093201 0.424957
O O17 0.000000 0.000000 0.000000
#
# Coordination Sequence:
#
# PCOD9002030 Si02
#       8
#     2   2   2   2   2   2   2   2
#     4   8  18  36  60  87 114 150 202 239 292 354
#     4  10  21  36  56  88 118 150 198 242 280 357
#     4  12  20  36  60  86 121 157 193 242 301 347
#     4   9  20  38  56  85 115 152 197 240 286 356
#     4   9  20  35  64  81 116 157 195 239 304 349
#     4   9  22  37  57  84 120 152 201 238 293 351
#     4   9  18  34  61  85 113 151 197 244 293 343
#     4   8  19  36  60  84 116 150 201 235 292 349
#
# _framework density 26.180395999999998
#
# number of rings (size 3 to 8) (size 9 to 14) (size 15 to 20)
#    2.250    0.250    2.500    1.125    0.000    4.000 
#    0.000    1.250    2.750    3.750    0.000    0.000 
#    0.000    0.000    0.000    0.000    0.000    0.000 
#
# Total GULP energy -89073.479779 kJ/mol
# GULP energy per Si atom -5567.092486 kJ/mol
# Density = 2.612081 g / cm^3
# Si number density = 26.180396 Si / 1000 Ang^3
#
#
#
# Elastic Constant Matrix: (Units=GPa)
#
#
# Indices 1 2 3 4 5 6 
#
# 1 82.3250 20.7373 17.8115 -2.7055 -4.2632 -10.2921
# 2 20.7373 90.8331 -9.3459 -7.7947 -12.8754 7.4569
# 3 17.8115 -9.3459 54.8660 -10.9493 -0.0259 -0.7374
# 4 -2.7055 -7.7947 -10.9493 25.4500 6.5878 -5.8235
# 5 -4.2632 -12.8754 -0.0259 6.5878 31.0581 -16.3029
# 6 -10.2921 7.4569 -0.7374 -5.8235 -16.3029 56.9319
#
#
#
# Elastic Compliance Matrix: (Units=1/GPa)
#
#
# Indices 1 2 3 4 5 6 
#
# 1 0.015019 -0.004137 -0.005944 -0.002081 0.002755 0.003756
# 2 -0.004137 0.013379 0.004500 0.004458 0.003524 -0.000977
# 3 -0.005944 0.004500 0.023095 0.010941 -0.001625 -0.000711
# 4 -0.002081 0.004458 0.010941 0.047522 -0.007516 0.001890
# 5 0.002755 0.003524 -0.001625 -0.007516 0.041467 0.011121
# 6 0.003756 -0.000977 -0.000711 0.001890 0.011121 0.021741
#
#
# Mechanical properties :
#
#
# Convention : Reuss Voigt Hill
#
# Bulk Modulus (GPa) = 24.79415 31.82555 28.30985
# Shear Modulus (GPa) = 26.76255 35.94273 31.35264
#
# Velocity S-wave (km/s) = 3.20071 3.70927 3.46433
# Velocity P-wave (km/s) = 4.81149 5.52517 5.18064
#
# Compressibility (1/GPa) = 0.04033209
#
# Stress axis : x y z
#
# Youngs Moduli (GPa) = 66.58309 74.74432 43.29863
#
# Poissons Ratio (x) = 0.30921 0.25736
# Poissons Ratio (y) = 0.27544 -0.19485
# Poissons Ratio (z) = 0.39576 -0.33636
#
# Static dielectric constant tensor:
#      x y z
#    x 2.152750 0.094300 -0.049830 
#    y 0.094300 2.094730 0.009500 
#    z -0.049830 0.009500 2.235530 
# 
# From -- ./inp_files/250009.got.cif
#   From: 2010.05.17/outbox.cif.g08.bks.cpg/sg2_126_cif.got.tgz:250009.got - 2010.06.03 11:33:40.
