data_PCOD9002577
_publ_section_title
;
Structure prediction by ZEFSAII (Michael W. Deem and Ramdas Pophale) SiO2 
 PCOD9002577
Probable space group: P -1
;
_chemical_formula_sum "Si O2"
_cell_formula_units_Z 14
_cell_length_a 13.456562
_cell_length_b 10.293216
_cell_length_c 9.166758
_cell_angle_alpha 30.627578
_cell_angle_beta 58.201873
_cell_angle_gamma 59.064527
_cell_volume 544.348563
_symmetry_space_group_name_H-M "P -1"
_symmetry_group_IT_number 2
_symmetry_cell_setting 'triclinic'
loop_
_space_group_symop_operation_xyz
x,y,z
-x,-y,-z
loop_
_atom_site_type_symbol
_atom_site_label
_atom_site_fract_x
_atom_site_fract_y
_atom_site_fract_z
Si Si1 0.321743 0.160866 0.404406
Si Si2 0.054371 0.393465 0.882578
Si Si3 0.884351 0.439221 0.731637
Si Si4 0.415401 0.627616 0.779850
Si Si5 0.395268 0.460423 0.510660
Si Si6 0.245489 0.355866 0.982894
Si Si7 0.822290 0.156256 0.791226
O O1 0.217938 0.318868 0.424570
O O2 0.371767 0.871679 0.676276
O O3 0.417871 0.357075 0.122915
O O4 0.271515 0.147993 0.289901
O O5 0.109228 0.378224 0.018091
O O6 0.097387 0.656352 0.536272
O O7 0.925871 0.383410 0.919446
O O8 0.126437 0.133706 0.005316
O O9 0.840125 0.212807 0.893296
O O10 0.000000 0.500000 0.500000
O O11 0.534354 0.660404 0.568515
O O12 0.310694 0.582686 0.785783
O O13 0.500000 0.500000 0.500000
O O14 0.316762 0.302798 0.826811
O O15 0.309029 0.717027 0.279154
#
# Coordination Sequence:
#
# PCOD9002577 Si02
#       7
#     2   2   2   2   2   2   2
#     4  10  22  37  58  87 123 152 193 249 283 350
#     4  10  21  36  62  87 116 152 195 248 290 343
#     4  10  23  44  63  82 117 162 204 241 294 344
#     4   9  21  36  56  90 123 151 188 239 298 342
#     4   9  18  37  63  88 120 157 188 236 298 353
#     4   8  20  35  59  89 122 144 198 230 300 342
#     4  10  22  38  59  91 113 153 203 241 278 358
#
# _framework density 25.718814999999999
#
# number of rings (size 3 to 8) (size 9 to 14) (size 15 to 20)
#    0.857    1.714    0.000    0.429    6.000    8.000 
#    0.000    2.143    0.000    0.000    0.000    0.000 
#    0.000    0.000    0.000    0.000    0.000    0.000 
#
# Total GULP energy -78066.771338 kJ/mol
# GULP energy per Si atom -5576.197953 kJ/mol
# Density = 2.566028 g / cm^3
# Si number density = 25.718815 Si / 1000 Ang^3
#
#
#
# Elastic Constant Matrix: (Units=GPa)
#
#
# Indices 1 2 3 4 5 6 
#
# 1 128.7710 -25.4101 13.5588 -8.8767 27.7817 5.2064
# 2 -25.4101 18.8415 3.5435 3.4041 -5.3743 2.2499
# 3 13.5588 3.5435 57.0784 -14.4728 -8.2959 14.5499
# 4 -8.8767 3.4041 -14.4728 42.8482 5.3362 -6.2487
# 5 27.7817 -5.3743 -8.2959 5.3362 27.9979 3.4564
# 6 5.2064 2.2499 14.5499 -6.2487 3.4564 51.1410
#
#
#
# Elastic Compliance Matrix: (Units=1/GPa)
#
#
# Indices 1 2 3 4 5 6 
#
# 1 0.014789 0.016924 -0.006369 0.001364 -0.013654 0.000651
# 2 0.016924 0.078337 -0.010208 -0.006167 -0.003260 -0.002798
# 3 -0.006369 -0.010208 0.024163 0.005400 0.011216 -0.005875
# 4 0.001364 -0.006167 0.005400 0.027070 -0.006385 0.002335
# 5 -0.013654 -0.003260 0.011216 -0.006385 0.053931 -0.006083
# 6 0.000651 -0.002798 -0.005875 0.002335 -0.006083 0.021979
#
#
# Mechanical properties :
#
#
# Convention : Reuss Voigt Hill
#
# Bulk Modulus (GPa) = 8.47564 20.89726 14.68645
# Shear Modulus (GPa) = 19.31237 38.59734 28.95485
#
# Velocity S-wave (km/s) = 2.74324 3.87815 3.35897
# Velocity P-wave (km/s) = 3.65191 5.31002 4.55701
#
# Compressibility (1/GPa) = 0.11798522
#
# Stress axis : x y z
#
# Youngs Moduli (GPa) = 67.61650 12.76537 41.38519
#
# Poissons Ratio (x) = -0.21604 0.26356
# Poissons Ratio (y) = -1.14435 0.42245
# Poissons Ratio (z) = 0.43062 0.13031
#
# Static dielectric constant tensor:
#      x y z
#    x 2.152950 -0.018760 0.035770 
#    y -0.018760 2.157900 0.073190 
#    z 0.035770 0.073190 1.996170 
# 
# From -- ./inp_files/449546.got.cif
#   From: 2010.05.17/outbox.cif.g08.bks.cpg/sg2_225_cif.got.tgz:449546.got - 2010.06.03 11:33:40.
