data_PCOD9002335
_publ_section_title
;
Structure prediction by ZEFSAII (Michael W. Deem and Ramdas Pophale) SiO2 
 PCOD9002335
Probable space group: P -1
;
_chemical_formula_sum "Si O2"
_cell_formula_units_Z 16
_cell_length_a 13.575420
_cell_length_b 13.940969
_cell_length_c 14.458510
_cell_angle_alpha 150.646809
_cell_angle_beta 142.021270
_cell_angle_gamma 28.828992
_cell_volume 643.258908
_symmetry_space_group_name_H-M "P -1"
_symmetry_group_IT_number 2
_symmetry_cell_setting 'triclinic'
loop_
_space_group_symop_operation_xyz
x,y,z
-x,-y,-z
loop_
_atom_site_type_symbol
_atom_site_label
_atom_site_fract_x
_atom_site_fract_y
_atom_site_fract_z
Si Si1 0.910737 0.846499 0.152409
Si Si2 0.377815 0.365995 0.782284
Si Si3 0.760816 0.920986 0.306324
Si Si4 0.239898 0.038560 0.389016
Si Si5 0.627940 0.285386 0.059634
Si Si6 0.309363 0.147044 0.181364
Si Si7 0.355914 0.654345 0.310263
Si Si8 0.892472 0.298147 0.469243
O O1 0.859852 0.816327 0.192037
O O2 0.838351 0.129659 0.330487
O O3 0.154713 0.673092 0.168599
O O4 0.795985 0.810141 0.959150
O O5 0.258193 0.256984 0.594319
O O6 0.291131 0.597252 0.843902
O O7 0.614917 0.135104 0.733420
O O8 0.412277 0.410540 0.949323
O O9 0.555328 0.953206 0.191308
O O10 0.678797 0.208926 0.503316
O O11 0.931350 0.761544 0.377566
O O12 0.003275 0.170924 0.345391
O O13 0.344870 0.841873 0.386126
O O14 0.558794 0.395199 0.204920
O O15 0.750110 0.989468 0.911551
O O16 0.253014 0.403627 0.393810
#
# Coordination Sequence:
#
# PCOD9002335 Si02
#       8
#     2   2   2   2   2   2   2   2
#     4  10  23  44  64  95 129 164 218 264 310 374
#     4   9  17  35  66  88 121 165 215 255 306 387
#     4  10  22  45  66  91 125 175 213 256 315 374
#     4   8  16  35  62  90 115 163 210 253 310 366
#     4  10  21  36  59  96 124 165 212 256 317 379
#     4  12  26  39  64  99 128 168 210 264 319 374
#     4   9  19  38  70  87 126 175 202 258 322 370
#     4  10  23  44  66  92 133 168 208 261 314 380
#
# _framework density 24.873342000000001
#
# number of rings (size 3 to 8) (size 9 to 14) (size 15 to 20)
#    0.000    2.500    0.000    3.375    5.250    1.000 
#    4.500    1.250    0.000    0.000    0.000    0.000 
#    0.000    0.000    0.000    0.000    0.000    0.000 
#
# Total GULP energy -89316.555151 kJ/mol
# GULP energy per Si atom -5582.284697 kJ/mol
# Density = 2.481673 g / cm^3
# Si number density = 24.873342 Si / 1000 Ang^3
#
#
#
# Elastic Constant Matrix: (Units=GPa)
#
#
# Indices 1 2 3 4 5 6 
#
# 1 89.5898 15.9024 2.3154 5.7489 -6.0130 2.5816
# 2 15.9024 62.0940 -1.9310 6.2021 0.8446 3.3373
# 3 2.3154 -1.9310 72.2477 9.5167 6.0430 3.6923
# 4 5.7489 6.2021 9.5167 47.5938 8.2406 2.1886
# 5 -6.0130 0.8446 6.0430 8.2406 38.6200 -5.1147
# 6 2.5816 3.3373 3.6923 2.1886 -5.1147 17.7017
#
#
#
# Elastic Compliance Matrix: (Units=1/GPa)
#
#
# Indices 1 2 3 4 5 6 
#
# 1 0.011943 -0.002955 -0.000459 -0.001342 0.002246 -0.000274
# 2 -0.002955 0.017252 0.001035 -0.001776 -0.001033 -0.003117
# 3 -0.000459 0.001035 0.014579 -0.002429 -0.002326 -0.003541
# 4 -0.001342 -0.001776 -0.002429 0.022927 -0.005116 -0.003276
# 5 0.002246 -0.001033 -0.002326 -0.005116 0.028960 0.009352
# 6 -0.000274 -0.003117 -0.003541 -0.003276 0.009352 0.060965
#
#
# Mechanical properties :
#
#
# Convention : Reuss Voigt Hill
#
# Bulk Modulus (GPa) = 25.62875 28.50057 27.06466
# Shear Modulus (GPa) = 28.67158 34.62607 31.64882
#
# Velocity S-wave (km/s) = 3.39883 3.73513 3.57094
# Velocity P-wave (km/s) = 5.07236 5.48495 5.28269
#
# Compressibility (1/GPa) = 0.03901868
#
# Stress axis : x y z
#
# Youngs Moduli (GPa) = 83.73055 57.96267 68.59116
#
# Poissons Ratio (x) = 0.17126 0.03147
# Poissons Ratio (y) = 0.24740 -0.07102
# Poissons Ratio (z) = 0.03841 -0.06002
#
# Static dielectric constant tensor:
#      x y z
#    x 1.926200 -0.066510 -0.032970 
#    y -0.066510 2.040850 0.003250 
#    z -0.032970 0.003250 2.072190 
# 
# From -- ./inp_files/533933.got.cif
#   From: 2010.05.17/outbox.cif.g08.bks.cpg/sg2_267_cif.got.tgz:533933.got - 2010.06.03 11:33:40.
