data_PCOD9002908
_publ_section_title
;
Structure prediction by ZEFSAII (Michael W. Deem and Ramdas Pophale) SiO2 
 PCOD9002908
Probable space group: P -1
;
_chemical_formula_sum "Si O2"
_cell_formula_units_Z 14
_cell_length_a 15.464001
_cell_length_b 9.315363
_cell_length_c 8.920815
_cell_angle_alpha 116.047469
_cell_angle_beta 37.373349
_cell_angle_gamma 99.202714
_cell_volume 657.366425
_symmetry_space_group_name_H-M "P -1"
_symmetry_group_IT_number 2
_symmetry_cell_setting 'triclinic'
loop_
_space_group_symop_operation_xyz
x,y,z
-x,-y,-z
loop_
_atom_site_type_symbol
_atom_site_label
_atom_site_fract_x
_atom_site_fract_y
_atom_site_fract_z
Si Si1 0.559871 0.131056 0.070498
Si Si2 0.036887 0.915351 0.163441
Si Si3 0.128379 0.137110 0.376342
Si Si4 0.209808 0.878907 0.632731
Si Si5 0.176451 0.373335 0.190190
Si Si6 0.385603 0.096573 0.571283
Si Si7 0.622876 0.414719 0.918918
O O1 0.463526 0.177682 0.377870
O O2 0.561725 0.297278 0.055668
O O3 0.500000 0.000000 0.000000
O O4 0.733560 0.022538 0.825150
O O5 0.988667 0.800333 0.296274
O O6 0.049461 0.068918 0.319073
O O7 0.185414 0.846343 0.825648
O O8 0.915832 0.978073 0.225242
O O9 0.194328 0.270639 0.274638
O O10 0.236409 0.711377 0.425825
O O11 0.349480 0.944813 0.468438
O O12 0.302693 0.462973 0.046424
O O13 0.000000 0.500000 0.500000
O O14 0.231427 0.229403 0.917432
O O15 0.500000 0.000000 0.500000
O O16 0.500000 0.500000 0.000000
#
# Coordination Sequence:
#
# PCOD9002908 Si02
#       7
#     2   2   2   2   2   2   2
#     4  12  23  43  74 100 128 185 248 278 329 429
#     4  10  21  36  71  95 121 169 243 269 323 399
#     4  11  21  42  67  96 131 178 231 281 331 424
#     4  11  21  41  68  98 127 177 232 276 330 424
#     4  12  27  44  66 105 149 176 218 301 362 391
#     4  12  23  44  73  99 135 188 240 278 337 430
#     4  12  26  44  68 101 147 177 221 300 362 396
#
# _framework density 21.297101999999999
#
# number of rings (size 3 to 8) (size 9 to 14) (size 15 to 20)
#    0.000    0.571    5.714    2.571    4.000    0.571 
#    2.571    0.714    0.000    0.000    0.000    0.000 
#    0.000    0.000    0.000    0.000    0.000    0.000 
#
# Total GULP energy -78082.279342 kJ/mol
# GULP energy per Si atom -5577.305667 kJ/mol
# Density = 2.124863 g / cm^3
# Si number density = 21.297102 Si / 1000 Ang^3
#
#
#
# Elastic Constant Matrix: (Units=GPa)
#
#
# Indices 1 2 3 4 5 6 
#
# 1 94.6558 33.7349 0.1168 -11.1078 -5.7654 -3.5135
# 2 33.7349 129.5909 27.0723 -34.2468 7.1252 -25.2486
# 3 0.1168 27.0723 80.5136 -29.6962 17.7455 -22.5785
# 4 -11.1078 -34.2468 -29.6962 41.5411 -12.5394 9.7024
# 5 -5.7654 7.1252 17.7455 -12.5394 41.4965 -6.2507
# 6 -3.5135 -25.2486 -22.5785 9.7024 -6.2507 37.4092
#
#
#
# Elastic Compliance Matrix: (Units=1/GPa)
#
#
# Indices 1 2 3 4 5 6 
#
# 1 0.012031 -0.002933 0.001283 0.002497 0.002331 -0.000334
# 2 -0.002933 0.011593 0.000573 0.007999 0.000668 0.005932
# 3 0.001283 0.000573 0.019857 0.011896 -0.003488 0.008823
# 4 0.002497 0.007999 0.011896 0.041127 0.006809 0.003284
# 5 0.002331 0.000668 -0.003488 0.006809 0.028081 0.001491
# 6 -0.000334 0.005932 0.008823 0.003284 0.001491 0.035426
#
#
# Mechanical properties :
#
#
# Convention : Reuss Voigt Hill
#
# Bulk Modulus (GPa) = 24.19834 47.40092 35.79963
# Shear Modulus (GPa) = 30.47921 40.34511 35.41216
#
# Velocity S-wave (km/s) = 3.78715 4.35719 4.08213
# Velocity P-wave (km/s) = 5.52361 6.90063 6.25016
#
# Compressibility (1/GPa) = 0.04132516
#
# Stress axis : x y z
#
# Youngs Moduli (GPa) = 83.11861 86.25666 50.36096
#
# Poissons Ratio (x) = 0.25299 -0.06459
# Poissons Ratio (y) = 0.24379 -0.02884
# Poissons Ratio (z) = -0.10660 -0.04939
#
# Static dielectric constant tensor:
#      x y z
#    x 3.019180 0.353440 -1.151060 
#    y 0.353440 1.918690 -0.352210 
#    z -1.151060 -0.352210 2.835130 
# 
# From -- ./inp_files/185508.got.cif
#   From: 2010.05.17/outbox.cif.g08.bks.cpg/sg2_93_cif.got.tgz:185508.got - 2010.06.03 11:33:40.
