data_PCOD9002854
_publ_section_title
;
Structure prediction by ZEFSAII (Michael W. Deem and Ramdas Pophale) SiO2 
 PCOD9002854
Probable space group: P -1
;
_chemical_formula_sum "Si O2"
_cell_formula_units_Z 16
_cell_length_a 10.575283
_cell_length_b 11.567755
_cell_length_c 10.756387
_cell_angle_alpha 133.091305
_cell_angle_beta 113.887537
_cell_angle_gamma 43.643519
_cell_volume 652.676717
_symmetry_space_group_name_H-M "P -1"
_symmetry_group_IT_number 2
_symmetry_cell_setting 'triclinic'
loop_
_space_group_symop_operation_xyz
x,y,z
-x,-y,-z
loop_
_atom_site_type_symbol
_atom_site_label
_atom_site_fract_x
_atom_site_fract_y
_atom_site_fract_z
Si Si1 0.023019 0.421090 0.311848
Si Si2 0.604459 0.341179 0.584428
Si Si3 0.239548 0.862803 0.246879
Si Si4 0.338361 0.394250 0.337919
Si Si5 0.691767 0.091943 0.963768
Si Si6 0.851796 0.989912 0.209645
Si Si7 0.292103 0.158194 0.586126
Si Si8 0.366486 0.101390 0.861936
O O1 0.140855 0.465627 0.320802
O O2 0.146211 0.168181 0.176672
O O3 0.000000 0.500000 0.500000
O O4 0.817519 0.594765 0.300829
O O5 0.623225 0.291038 0.699549
O O6 0.408846 0.430595 0.516477
O O7 0.642980 0.493068 0.679311
O O8 0.755857 0.139405 0.404129
O O9 0.304473 0.813295 0.093270
O O10 0.197395 0.079018 0.424115
O O11 0.061351 0.887410 0.210395
O O12 0.480578 0.139184 0.201498
O O13 0.489174 0.165973 0.952020
O O14 0.753267 0.123325 0.140949
O O15 0.814581 0.827701 0.085195
O O16 0.312232 0.116020 0.708662
O O17 0.500000 0.000000 0.500000
#
# Coordination Sequence:
#
# PCOD9002854 Si02
#       8
#     2   2   2   2   2   2   2   2
#     4  11  22  35  64  91 121 160 209 263 304 364
#     4  10  21  36  66  91 125 167 206 260 302 373
#     4  12  22  38  66  94 127 165 212 259 306 373
#     4   9  19  37  60  98 119 153 215 260 304 352
#     4  11  24  43  62  94 131 167 204 257 318 375
#     4  11  23  38  63  96 130 167 206 250 322 376
#     4  12  21  39  65  96 120 156 216 261 309 359
#     4  10  21  40  68  89 124 170 209 261 303 375
#
# _framework density 24.514434999999999
#
# number of rings (size 3 to 8) (size 9 to 14) (size 15 to 20)
#    0.000    1.250    5.000    2.625    1.750    0.000 
#    0.000    0.625    8.250    7.500    0.000    0.000 
#    0.000    0.000    0.000    0.000    0.000    0.000 
#
# Total GULP energy -89379.474635 kJ/mol
# GULP energy per Si atom -5586.217165 kJ/mol
# Density = 2.445864 g / cm^3
# Si number density = 24.514435 Si / 1000 Ang^3
#
#
#
# Elastic Constant Matrix: (Units=GPa)
#
#
# Indices 1 2 3 4 5 6 
#
# 1 114.4188 51.2162 39.9230 -9.5010 3.3179 -2.3884
# 2 51.2162 99.1140 38.1031 -20.2026 -14.7165 29.7153
# 3 39.9230 38.1031 87.9828 -10.7108 -18.2487 4.5514
# 4 -9.5010 -20.2026 -10.7108 38.3908 14.4786 -9.2044
# 5 3.3179 -14.7165 -18.2487 14.4786 20.4707 -19.4500
# 6 -2.3884 29.7153 4.5514 -9.2044 -19.4500 39.0570
#
#
#
# Elastic Compliance Matrix: (Units=1/GPa)
#
#
# Indices 1 2 3 4 5 6 
#
# 1 0.014923 -0.006266 -0.007113 0.004859 -0.017896 -0.001258
# 2 -0.006266 0.023478 -0.009360 0.010441 -0.022391 -0.025845
# 3 -0.007113 -0.009360 0.026617 -0.012654 0.052529 0.026762
# 4 0.004859 0.010441 -0.012654 0.046441 -0.062399 -0.026301
# 5 -0.017896 -0.022391 0.052529 -0.062399 0.231517 0.110407
# 6 -0.001258 -0.025845 0.026762 -0.026301 0.110407 0.090855
#
#
# Mechanical properties :
#
#
# Convention : Reuss Voigt Hill
#
# Bulk Modulus (GPa) = 51.18016 62.22223 56.70120
# Shear Modulus (GPa) = 10.29179 31.06858 20.68018
#
# Velocity S-wave (km/s) = 2.05119 3.56386 2.90762
# Velocity P-wave (km/s) = 5.15099 6.50936 5.86960
#
# Compressibility (1/GPa) = 0.01953882
#
# Stress axis : x y z
#
# Youngs Moduli (GPa) = 67.01153 42.59274 37.56933
#
# Poissons Ratio (x) = 0.26691 0.26722
# Poissons Ratio (y) = 0.41993 0.35167
# Poissons Ratio (z) = 0.47664 0.39869
#
# Static dielectric constant tensor:
#      x y z
#    x 1.984360 -0.051980 0.014800 
#    y -0.051980 2.078000 0.075840 
#    z 0.014800 0.075840 2.029330 
# 
# From -- ./inp_files/426712.got.cif
#   From: 2010.05.17/outbox.cif.g08.bks.cpg/sg2_214_cif.got.tgz:426712.got - 2010.06.03 11:33:40.
