data_PCOD9002019
_publ_section_title
;
Structure prediction by ZEFSAII (Michael W. Deem and Ramdas Pophale) SiO2 
 PCOD9002019
Probable space group: P -1
;
_chemical_formula_sum "Si O2"
_cell_formula_units_Z 14
_cell_length_a 10.567229
_cell_length_b 26.235745
_cell_length_c 13.165601
_cell_angle_alpha 24.159577
_cell_angle_beta 33.762784
_cell_angle_gamma 22.461441
_cell_volume 569.113457
_symmetry_space_group_name_H-M "P -1"
_symmetry_group_IT_number 2
_symmetry_cell_setting 'triclinic'
loop_
_space_group_symop_operation_xyz
x,y,z
-x,-y,-z
loop_
_atom_site_type_symbol
_atom_site_label
_atom_site_fract_x
_atom_site_fract_y
_atom_site_fract_z
Si Si1 0.185608 0.663341 0.845656
Si Si2 0.692397 0.147134 0.699818
Si Si3 0.202474 0.133333 0.080707
Si Si4 0.700797 0.765988 0.513448
Si Si5 0.494680 0.615815 0.028465
Si Si6 0.109722 0.852484 0.114215
Si Si7 0.649634 0.552767 0.440131
O O1 0.211118 0.796915 0.553926
O O2 0.878902 0.770091 0.931128
O O3 0.500000 0.500000 0.000000
O O4 0.225301 0.568610 0.889477
O O5 0.491185 0.311690 0.617698
O O6 0.450935 0.129253 0.867115
O O7 0.016811 0.954982 0.883664
O O8 0.862157 0.252568 0.030175
O O9 0.382705 0.935815 0.353135
O O10 0.608012 0.712595 0.764969
O O11 0.881738 0.819981 0.331088
O O12 0.960120 0.598199 0.567863
O O13 0.445067 0.552740 0.276453
O O14 0.469286 0.670367 0.245017
O O15 0.000000 0.000000 0.000000
#
# Coordination Sequence:
#
# PCOD9002019 Si02
#       7
#     2   2   2   2   2   2   2
#     4   9  19  35  57  83 114 148 190 229 266 328
#     4   9  19  37  61  83 111 153 188 230 280 320
#     4  10  21  36  56  86 118 150 189 226 274 339
#     4  11  22  36  58  83 115 151 182 232 289 332
#     4  10  22  36  56  86 117 150 186 229 280 333
#     4   9  20  40  61  81 108 146 194 236 275 333
#     4  10  21  38  58  84 115 147 190 233 278 334
#
# _framework density 24.599665000000002
#
# number of rings (size 3 to 8) (size 9 to 14) (size 15 to 20)
#    0.000    2.286    0.000    1.714    0.000   10.857 
#    0.000    2.857    0.000   15.429    0.000    0.000 
#    0.000    0.000    0.000    0.000    0.000    0.000 
#
# Total GULP energy -78317.407467 kJ/mol
# GULP energy per Si atom -5594.100533 kJ/mol
# Density = 2.454368 g / cm^3
# Si number density = 24.599665 Si / 1000 Ang^3
#
#
#
# Elastic Constant Matrix: (Units=GPa)
#
#
# Indices 1 2 3 4 5 6 
#
# 1 54.9811 14.3763 13.8824 -6.7801 -7.6762 8.1551
# 2 14.3763 75.4064 35.0197 -13.5840 21.3071 8.1246
# 3 13.8824 35.0197 181.8830 10.2794 12.5129 -8.8981
# 4 -6.7801 -13.5840 10.2794 54.2349 -4.7260 5.1060
# 5 -7.6762 21.3071 12.5129 -4.7260 34.7957 -4.0598
# 6 8.1551 8.1246 -8.8981 5.1060 -4.0598 21.1125
#
#
#
# Elastic Compliance Matrix: (Units=1/GPa)
#
#
# Indices 1 2 3 4 5 6 
#
# 1 0.022371 -0.004133 -0.002002 0.003503 0.007818 -0.007238
# 2 -0.004133 0.022178 -0.003953 0.005779 -0.013762 -0.012648
# 3 -0.002002 -0.003953 0.006894 -0.003124 -0.000235 0.005910
# 4 0.003503 0.005779 -0.003124 0.021885 0.000145 -0.010159
# 5 0.007818 -0.013762 -0.000235 0.000145 0.040145 0.009862
# 6 -0.007238 -0.012648 0.005910 -0.010159 0.009862 0.061873
#
#
# Mechanical properties :
#
#
# Convention : Reuss Voigt Hill
#
# Bulk Modulus (GPa) = 31.98332 48.75859 40.37096
# Shear Modulus (GPa) = 24.27843 38.62810 31.45326
#
# Velocity S-wave (km/s) = 3.14497 3.96696 3.57964
# Velocity P-wave (km/s) = 5.12031 6.39111 5.79067
#
# Compressibility (1/GPa) = 0.03126630
#
# Stress axis : x y z
#
# Youngs Moduli (GPa) = 44.69997 45.09035 145.05793
#
# Poissons Ratio (x) = 0.18638 0.29035
# Poissons Ratio (y) = 0.18477 0.57344
# Poissons Ratio (z) = 0.08947 0.17825
#
# Static dielectric constant tensor:
#      x y z
#    x 1.987480 0.062600 -0.042170 
#    y 0.062600 1.959410 -0.028350 
#    z -0.042170 -0.028350 1.950460 
# 
# From -- ./inp_files/46182.got.cif
#   From: 2010.05.17/outbox.cif.g08.bks.cpg/sg2_24_cif.got.tgz:46182.got - 2010.06.03 11:33:40.
