data_PCOD9002797
_publ_section_title
;
Structure prediction by ZEFSAII (Michael W. Deem and Ramdas Pophale) SiO2 
 PCOD9002797
Probable space group: P -1
;
_chemical_formula_sum "Si O2"
_cell_formula_units_Z 14
_cell_length_a 5.079487
_cell_length_b 15.227248
_cell_length_c 12.479519
_cell_angle_alpha 46.303252
_cell_angle_beta 128.711823
_cell_angle_gamma 121.083562
_cell_volume 538.453406
_symmetry_space_group_name_H-M "P -1"
_symmetry_group_IT_number 2
_symmetry_cell_setting 'triclinic'
loop_
_space_group_symop_operation_xyz
x,y,z
-x,-y,-z
loop_
_atom_site_type_symbol
_atom_site_label
_atom_site_fract_x
_atom_site_fract_y
_atom_site_fract_z
Si Si1 0.826617 0.362181 0.262312
Si Si2 0.955575 0.158246 0.763198
Si Si3 0.762728 0.166749 0.254204
Si Si4 0.158074 0.419547 0.522678
Si Si5 0.768425 0.968217 0.263334
Si Si6 0.005521 0.163569 0.018134
Si Si7 0.957113 0.624061 0.010307
O O1 0.900216 0.231524 0.344949
O O2 0.430502 0.370954 0.131035
O O3 0.914731 0.379761 0.393325
O O4 0.025050 0.484914 0.152101
O O5 0.542603 0.129194 0.690573
O O6 0.172926 0.292374 0.693328
O O7 0.037518 0.097499 0.722668
O O8 0.019735 0.127197 0.930122
O O9 0.355192 0.133215 0.186531
O O10 0.817332 0.285424 0.089278
O O11 0.906154 0.053909 0.328449
O O12 0.500000 0.500000 0.500000
O O13 0.000000 0.500000 0.500000
O O14 0.694849 0.081900 0.069960
O O15 0.000487 0.306251 0.922913
#
# Coordination Sequence:
#
# PCOD9002797 Si02
#       7
#     2   2   2   2   2   2   2
#     4  10  22  42  65  97 135 176 224 275 336 388
#     4  12  25  41  67  96 137 180 218 268 338 392
#     4  10  21  37  66  98 132 167 220 285 328 384
#     4  12  29  49  70  98 135 180 223 271 330 414
#     4  11  23  41  64 101 134 175 224 272 331 392
#     4  10  21  36  65 102 135 170 220 281 331 388
#     4   9  20  37  68  99 132 173 221 283 335 386
#
# _framework density 26.000391
#
# number of rings (size 3 to 8) (size 9 to 14) (size 15 to 20)
#    0.000    1.429    1.429    3.000    8.000    0.000 
#    0.000    1.429    0.000    0.000    0.000    0.000 
#    0.000    0.000    0.000    0.000    0.000    0.000 
#
# Total GULP energy -78169.998488 kJ/mol
# GULP energy per Si atom -5583.571321 kJ/mol
# Density = 2.594121 g / cm^3
# Si number density = 26.000391 Si / 1000 Ang^3
#
#
#
# Elastic Constant Matrix: (Units=GPa)
#
#
# Indices 1 2 3 4 5 6 
#
# 1 153.8112 71.2798 23.3897 8.2220 -28.3088 -10.6067
# 2 71.2798 196.5184 37.4466 11.3411 -15.9854 -30.3724
# 3 23.3897 37.4466 53.9268 28.0197 -17.2835 -6.5086
# 4 8.2220 11.3411 28.0197 42.9513 -2.2146 -21.8718
# 5 -28.3088 -15.9854 -17.2835 -2.2146 27.6402 0.1976
# 6 -10.6067 -30.3724 -6.5086 -21.8718 0.1976 53.3957
#
#
#
# Elastic Compliance Matrix: (Units=1/GPa)
#
#
# Indices 1 2 3 4 5 6 
#
# 1 0.009284 -0.002951 0.001783 -0.001934 0.008765 -0.000442
# 2 -0.002951 0.007868 -0.007548 0.006049 -0.002746 0.005457
# 3 0.001783 -0.007548 0.046904 -0.033915 0.024160 -0.012204
# 4 -0.001934 0.006049 -0.033915 0.054158 -0.015503 0.021164
# 5 0.008765 -0.002746 0.024160 -0.015503 0.057459 -0.003439
# 6 -0.000442 0.005457 -0.012204 0.021164 -0.003439 0.028939
#
#
# Mechanical properties :
#
#
# Convention : Reuss Voigt Hill
#
# Bulk Modulus (GPa) = 21.44763 74.27651 47.86207
# Shear Modulus (GPa) = 21.04519 42.94013 31.99266
#
# Velocity S-wave (km/s) = 2.84811 4.06830 3.51161
# Velocity P-wave (km/s) = 4.36836 7.12022 5.90678
#
# Compressibility (1/GPa) = 0.04662519
#
# Stress axis : x y z
#
# Youngs Moduli (GPa) = 107.71237 127.09464 21.32019
#
# Poissons Ratio (x) = 0.37504 -0.03802
# Poissons Ratio (y) = 0.31785 0.16092
# Poissons Ratio (z) = -0.19210 0.95931
#
# Static dielectric constant tensor:
#      x y z
#    x 2.035900 0.003750 0.030900 
#    y 0.003750 2.160940 -0.003220 
#    z 0.030900 -0.003220 2.130800 
# 
# From -- ./inp_files/366765.got.cif
#   From: 2010.05.17/outbox.cif.g08.bks.cpg/sg2_184_cif.got.tgz:366765.got - 2010.06.03 11:33:40.
