data_PCOD9002529
_publ_section_title
;
Structure prediction by ZEFSAII (Michael W. Deem and Ramdas Pophale) SiO2 
 PCOD9002529
Probable space group: P -1
;
_chemical_formula_sum "Si O2"
_cell_formula_units_Z 12
_cell_length_a 10.005106
_cell_length_b 15.360367
_cell_length_c 4.985240
_cell_angle_alpha 52.618514
_cell_angle_beta 107.129584
_cell_angle_gamma 131.310177
_cell_volume 449.983642
_symmetry_space_group_name_H-M "P -1"
_symmetry_group_IT_number 2
_symmetry_cell_setting 'triclinic'
loop_
_space_group_symop_operation_xyz
x,y,z
-x,-y,-z
loop_
_atom_site_type_symbol
_atom_site_label
_atom_site_fract_x
_atom_site_fract_y
_atom_site_fract_z
Si Si1 0.220301 0.028673 0.624560
Si Si2 0.603693 0.955619 0.793972
Si Si3 0.078966 0.606225 0.598960
Si Si4 0.098777 0.249770 0.871021
Si Si5 0.685993 0.590672 0.776421
Si Si6 0.561703 0.296563 0.166299
O O1 0.022165 0.918529 0.836652
O O2 0.335593 0.008496 0.934024
O O3 0.360878 0.200466 0.365735
O O4 0.223614 0.981409 0.416078
O O5 0.479931 0.788090 0.972963
O O6 0.500000 0.000000 0.500000
O O7 0.295355 0.702679 0.577983
O O8 0.000000 0.500000 0.500000
O O9 0.017400 0.702294 0.384924
O O10 0.000000 0.500000 0.000000
O O11 0.169296 0.324718 0.061133
O O12 0.252729 0.305879 0.633199
O O13 0.659510 0.458629 0.873308
O O14 0.500000 0.500000 0.000000
#
# Coordination Sequence:
#
# PCOD9002529 Si02
#       6
#     2   2   2   2   2   2
#     4  10  24  39  65  93 136 169 215 267 324 404
#     4  10  21  36  61  93 135 173 208 251 331 396
#     4  12  23  37  64 101 139 164 212 271 330 406
#     4  12  24  46  67 102 131 175 225 279 336 392
#     4  12  27  48  70  93 133 180 231 280 330 388
#     4  10  25  41  68  98 135 173 218 262 341 392
#
# _framework density 26.667635000000001
#
# number of rings (size 3 to 8) (size 9 to 14) (size 15 to 20)
#    1.000    0.000    3.333    3.000    7.000    0.000 
#    0.000    1.667    0.000    0.000    0.000    0.000 
#    0.000    0.000    0.000    0.000    0.000    0.000 
#
# Total GULP energy -67059.437479 kJ/mol
# GULP energy per Si atom -5588.286457 kJ/mol
# Density = 2.660694 g / cm^3
# Si number density = 26.667635 Si / 1000 Ang^3
#
#
#
# Elastic Constant Matrix: (Units=GPa)
#
#
# Indices 1 2 3 4 5 6 
#
# 1 61.3579 7.0649 32.9265 -22.2001 -11.0004 1.8392
# 2 7.0649 113.5488 67.3545 -5.4742 -16.7876 19.4868
# 3 32.9265 67.3545 194.6257 -12.0232 -21.7287 4.7910
# 4 -22.2001 -5.4742 -12.0232 57.6047 4.4328 -14.3987
# 5 -11.0004 -16.7876 -21.7287 4.4328 45.4978 -6.2772
# 6 1.8392 19.4868 4.7910 -14.3987 -6.2772 31.0978
#
#
#
# Elastic Compliance Matrix: (Units=1/GPa)
#
#
# Indices 1 2 3 4 5 6 
#
# 1 0.021378 0.000892 -0.003089 0.008193 0.003664 0.003186
# 2 0.000892 0.012826 -0.004265 -0.001400 0.001988 -0.007680
# 3 -0.003089 -0.004265 0.007263 0.000358 0.001415 0.002188
# 4 0.008193 -0.001400 0.000358 0.023204 0.000929 0.011269
# 5 0.003664 0.001988 0.001415 0.000929 0.024699 0.003735
# 6 0.003186 -0.007680 0.002188 0.011269 0.003735 0.042415
#
#
# Mechanical properties :
#
#
# Convention : Reuss Voigt Hill
#
# Bulk Modulus (GPa) = 35.03419 64.91380 49.97400
# Shear Modulus (GPa) = 32.42053 44.31914 38.36984
#
# Velocity S-wave (km/s) = 3.49051 4.08107 3.79729
# Velocity P-wave (km/s) = 5.42317 6.82653 6.16491
#
# Compressibility (1/GPa) = 0.02854355
#
# Stress axis : x y z
#
# Youngs Moduli (GPa) = 46.77599 77.96962 137.68719
#
# Poissons Ratio (x) = -0.06955 0.42527
# Poissons Ratio (y) = -0.04172 0.58723
# Poissons Ratio (z) = 0.14447 0.33254
#
# Static dielectric constant tensor:
#      x y z
#    x 2.292200 0.022050 -0.028750 
#    y 0.022050 1.997110 -0.035540 
#    z -0.028750 -0.035540 2.038320 
# 
# From -- ./inp_files/59619.got.cif
#   From: 2010.05.17/outbox.cif.g08.bks.cpg/sg2_30_cif.got.tgz:59619.got - 2010.06.03 11:33:40.
