data_PCOD9002910
_publ_section_title
;
Structure prediction by ZEFSAII (Michael W. Deem and Ramdas Pophale) SiO2 
 PCOD9002910
Probable space group: P -1
;
_chemical_formula_sum "Si O2"
_cell_formula_units_Z 14
_cell_length_a 12.724947
_cell_length_b 11.835244
_cell_length_c 5.263710
_cell_angle_alpha 108.795513
_cell_angle_beta 118.202489
_cell_angle_gamma 51.205405
_cell_volume 544.108499
_symmetry_space_group_name_H-M "P -1"
_symmetry_group_IT_number 2
_symmetry_cell_setting 'triclinic'
loop_
_space_group_symop_operation_xyz
x,y,z
-x,-y,-z
loop_
_atom_site_type_symbol
_atom_site_label
_atom_site_fract_x
_atom_site_fract_y
_atom_site_fract_z
Si Si1 0.810154 0.500233 0.407983
Si Si2 0.104394 0.356168 0.760254
Si Si3 0.564154 0.265299 0.341058
Si Si4 0.368888 0.569225 0.093032
Si Si5 0.368093 0.197533 0.327474
Si Si6 0.796836 0.897935 0.671878
Si Si7 0.845105 0.022855 0.308663
O O1 0.866930 0.532488 0.245270
O O2 0.676090 0.659884 0.455190
O O3 0.938782 0.434547 0.711880
O O4 0.766657 0.393434 0.201660
O O5 0.115975 0.262043 0.461999
O O6 0.233738 0.253814 0.021939
O O7 0.422815 0.425991 0.223589
O O8 0.640847 0.305622 0.667678
O O9 0.501566 0.173618 0.299209
O O10 0.689271 0.179348 0.209191
O O11 0.500000 0.500000 0.000000
O O12 0.351307 0.086908 0.397839
O O13 0.808138 0.980321 0.504839
O O14 0.856680 0.929877 0.011633
O O15 0.000000 0.000000 0.500000
#
# Coordination Sequence:
#
# PCOD9002910 Si02
#       7
#     2   2   2   2   2   2   2
#     4  10  21  36  72 101 147 190 240 294 360 430
#     4  10  21  41  67 108 144 192 235 302 353 435
#     4  11  27  44  72 104 148 195 240 310 359 437
#     4  11  23  44  66 109 142 195 241 294 372 427
#     4  11  21  45  70 109 151 183 250 295 371 435
#     4  11  26  49  74 108 140 194 247 300 365 423
#     4  12  29  52  75 106 145 194 249 300 364 440
#
# _framework density 25.730159
#
# number of rings (size 3 to 8) (size 9 to 14) (size 15 to 20)
#    0.000    1.143    4.286    0.857    4.000    2.286 
#    0.000    0.000    0.000    0.000    0.000    0.000 
#    0.000    0.000    0.000    0.000    0.000    0.000 
#
# Total GULP energy -78177.747756 kJ/mol
# GULP energy per Si atom -5584.124840 kJ/mol
# Density = 2.567160 g / cm^3
# Si number density = 25.730159 Si / 1000 Ang^3
#
#
#
# Elastic Constant Matrix: (Units=GPa)
#
#
# Indices 1 2 3 4 5 6 
#
# 1 141.2380 35.7788 45.5431 -11.1402 16.9787 9.0720
# 2 35.7788 42.7923 16.4479 -5.6918 3.2027 18.1562
# 3 45.5431 16.4479 132.0046 22.2192 4.0941 11.1439
# 4 -11.1402 -5.6918 22.2192 32.8414 3.0402 -2.9209
# 5 16.9787 3.2027 4.0941 3.0402 44.3356 -4.7941
# 6 9.0720 18.1562 11.1439 -2.9209 -4.7941 39.6987
#
#
#
# Elastic Compliance Matrix: (Units=1/GPa)
#
#
# Indices 1 2 3 4 5 6 
#
# 1 0.010942 -0.007544 -0.003822 0.005488 -0.003452 0.002010
# 2 -0.007544 0.037037 -0.001322 0.003580 -0.001506 -0.014762
# 3 -0.003822 -0.001322 0.010730 -0.009059 0.000964 -0.002084
# 4 0.005488 0.003580 -0.009059 0.039617 -0.004015 0.002081
# 5 -0.003452 -0.001506 0.000964 -0.004015 0.024592 0.003881
# 6 0.002010 -0.014762 -0.002084 0.002081 0.003881 0.032689
#
#
# Mechanical properties :
#
#
# Convention : Reuss Voigt Hill
#
# Bulk Modulus (GPa) = 29.99969 56.84162 43.42066
# Shear Modulus (GPa) = 26.02893 37.92616 31.97754
#
# Velocity S-wave (km/s) = 3.18403 3.84343 3.52917
# Velocity P-wave (km/s) = 5.02017 6.46802 5.78954
#
# Compressibility (1/GPa) = 0.03333367
#
# Stress axis : x y z
#
# Youngs Moduli (GPa) = 91.38723 26.99997 93.20027
#
# Poissons Ratio (x) = 0.20370 0.35617
# Poissons Ratio (y) = 0.68947 0.12318
# Poissons Ratio (z) = 0.34924 0.03568
#
# Static dielectric constant tensor:
#      x y z
#    x 2.070000 0.009500 -0.009360 
#    y 0.009500 2.212830 -0.081750 
#    z -0.009360 -0.081750 2.069050 
# 
# From -- ./inp_files/72031.got.cif
#   From: 2010.05.17/outbox.cif.g08.bks.cpg/sg2_37_cif.got.tgz:72031.got - 2010.06.03 11:33:40.
