data_PCOD9002831
_publ_section_title
;
Structure prediction by ZEFSAII (Michael W. Deem and Ramdas Pophale) SiO2 
 PCOD9002831
Probable space group: P -1
;
_chemical_formula_sum "Si O2"
_cell_formula_units_Z 16
_cell_length_a 12.902309
_cell_length_b 22.140076
_cell_length_c 19.500644
_cell_angle_alpha 19.553257
_cell_angle_beta 151.702165
_cell_angle_gamma 154.868310
_cell_volume 776.973803
_symmetry_space_group_name_H-M "P -1"
_symmetry_group_IT_number 2
_symmetry_cell_setting 'triclinic'
loop_
_space_group_symop_operation_xyz
x,y,z
-x,-y,-z
loop_
_atom_site_type_symbol
_atom_site_label
_atom_site_fract_x
_atom_site_fract_y
_atom_site_fract_z
Si Si1 0.197685 0.059721 0.986823
Si Si2 0.080616 0.319587 0.866480
Si Si3 0.235263 0.676766 0.907658
Si Si4 0.476185 0.682412 0.327985
Si Si5 0.874950 0.966390 0.537866
Si Si6 0.110088 0.857529 0.915955
Si Si7 0.488920 0.530083 0.774356
Si Si8 0.230695 0.457887 0.555450
O O1 0.164306 0.228450 0.742035
O O2 0.493492 0.174714 0.056394
O O3 0.000000 0.000000 0.000000
O O4 0.116282 0.861273 0.104246
O O5 0.339049 0.416000 0.875516
O O6 0.993323 0.492024 0.633918
O O7 0.076866 0.236768 0.028676
O O8 0.139662 0.833701 0.659906
O O9 0.309538 0.546855 0.038401
O O10 0.000000 0.500000 0.000000
O O11 0.500000 0.500000 0.500000
O O12 0.443922 0.622397 0.454284
O O13 0.694965 0.909661 0.198349
O O14 0.238350 0.712003 0.138367
O O15 0.603210 0.772810 0.583980
O O16 0.010060 0.890751 0.751066
O O17 0.000000 0.000000 0.500000
O O18 0.317190 0.469893 0.671163
#
# Coordination Sequence:
#
# PCOD9002831 Si02
#       8
#     2   2   2   2   2   2   2   2
#     4  11  22  38  68  99 130 166 217 271 323 386
#     4  11  22  42  64  94 134 165 214 272 325 389
#     4  11  24  42  63 102 129 166 222 270 326 387
#     4  10  21  41  65  90 130 169 214 272 326 384
#     4  12  25  42  65  90 129 173 216 271 328 390
#     4  10  25  41  60  95 127 172 219 263 333 393
#     4  11  23  39  64  94 129 167 215 268 323 385
#     4  10  21  36  65  97 122 165 213 267 326 377
#
# _framework density 20.592714000000001
#
# number of rings (size 3 to 8) (size 9 to 14) (size 15 to 20)
#    0.000    1.250    3.750    2.625    3.500    5.500 
#    0.000    0.625    0.000    0.000    0.000    0.000 
#    0.000    0.000    0.000    0.000    0.000    0.000 
#
# Total GULP energy -89242.944721 kJ/mol
# GULP energy per Si atom -5577.684045 kJ/mol
# Density = 2.054584 g / cm^3
# Si number density = 20.592714 Si / 1000 Ang^3
#
#
#
# Elastic Constant Matrix: (Units=GPa)
#
#
# Indices 1 2 3 4 5 6 
#
# 1 139.4325 25.0129 60.1127 4.9343 -19.9400 30.1278
# 2 25.0129 56.8097 18.4699 -11.8338 -4.8406 16.4137
# 3 60.1127 18.4699 144.2108 -16.4822 -4.7664 5.7285
# 4 4.9343 -11.8338 -16.4822 29.8957 -6.9356 -5.8515
# 5 -19.9400 -4.8406 -4.7664 -6.9356 37.7321 -5.8221
# 6 30.1278 16.4137 5.7285 -5.8515 -5.8221 33.3441
#
#
#
# Elastic Compliance Matrix: (Units=1/GPa)
#
#
# Indices 1 2 3 4 5 6 
#
# 1 0.012780 -0.002167 -0.005378 -0.007291 0.002861 -0.010336
# 2 -0.002167 0.022760 -0.000740 0.007984 0.002012 -0.007366
# 3 -0.005378 -0.000740 0.009900 0.007081 0.000360 0.004828
# 4 -0.007291 0.007984 0.007081 0.045741 0.008154 0.010892
# 5 0.002861 0.002012 0.000360 0.008154 0.030293 0.003083
# 6 -0.010336 -0.007366 0.004828 0.010892 0.003083 0.044576
#
#
# Mechanical properties :
#
#
# Convention : Reuss Voigt Hill
#
# Bulk Modulus (GPa) = 34.63754 60.84932 47.74343
# Shear Modulus (GPa) = 26.00873 35.98490 30.99681
#
# Velocity S-wave (km/s) = 3.55774 4.18480 3.88394
# Velocity P-wave (km/s) = 5.80805 7.27758 6.58394
#
# Compressibility (1/GPa) = 0.02887041
#
# Stress axis : x y z
#
# Youngs Moduli (GPa) = 78.24872 43.93635 101.00798
#
# Poissons Ratio (x) = 0.09521 0.54319
# Poissons Ratio (y) = 0.16957 0.07476
# Poissons Ratio (z) = 0.42080 0.03252
#
# Static dielectric constant tensor:
#      x y z
#    x 1.755710 0.011890 0.014380 
#    y 0.011890 1.874800 0.021160 
#    z 0.014380 0.021160 1.720100 
# 
# From -- ./inp_files/570720.got.cif
#   From: 2010.05.17/outbox.cif.g08.bks.cpg/sg2_286_cif.got.tgz:570720.got - 2010.06.03 11:33:40.
