data_PCOD9002253
_publ_section_title
;
Structure prediction by ZEFSAII (Michael W. Deem and Ramdas Pophale) SiO2 
 PCOD9002253
Probable space group: P -1
;
_chemical_formula_sum "Si O2"
_cell_formula_units_Z 16
_cell_length_a 18.388673
_cell_length_b 9.644167
_cell_length_c 9.113792
_cell_angle_alpha 133.626132
_cell_angle_beta 45.163492
_cell_angle_gamma 146.131481
_cell_volume 615.989561
_symmetry_space_group_name_H-M "P -1"
_symmetry_group_IT_number 2
_symmetry_cell_setting 'triclinic'
loop_
_space_group_symop_operation_xyz
x,y,z
-x,-y,-z
loop_
_atom_site_type_symbol
_atom_site_label
_atom_site_fract_x
_atom_site_fract_y
_atom_site_fract_z
Si Si1 0.688527 0.492088 0.781386
Si Si2 0.094576 0.836907 0.784538
Si Si3 0.391258 0.370845 0.761695
Si Si4 0.795704 0.519724 0.355186
Si Si5 0.104486 0.945973 0.178287
Si Si6 0.835319 0.413886 0.709746
Si Si7 0.725350 0.119003 0.950279
Si Si8 0.573511 0.303710 0.310031
O O1 0.686427 0.392944 0.552552
O O2 0.706328 0.361851 0.789284
O O3 0.837202 0.780857 0.763912
O O4 0.593244 0.534230 0.024110
O O5 0.116449 0.658083 0.545552
O O6 0.949597 0.705897 0.819820
O O7 0.230558 0.132114 0.780962
O O8 0.080192 0.806044 0.956482
O O9 0.462807 0.257680 0.543641
O O10 0.448277 0.604575 0.741078
O O11 0.798598 0.316820 0.127042
O O12 0.722258 0.547065 0.348237
O O13 0.955227 0.764718 0.333097
O O14 0.231065 0.038402 0.173930
O O15 0.791947 0.235504 0.781945
O O16 0.590989 0.094428 0.119810
#
# Coordination Sequence:
#
# PCOD9002253 Si02
#       8
#     2   2   2   2   2   2   2   2
#     4  11  23  36  60  91 121 151 199 244 295 353
#     4  10  23  36  61  87 122 155 199 243 294 352
#     4  10  21  42  61  86 118 158 204 246 282 353
#     4  10  21  36  59  86 121 156 187 240 300 352
#     4  11  22  37  59  90 125 153 192 242 304 356
#     4  11  22  37  60  90 119 157 194 245 303 347
#     4  10  21  39  60  85 119 159 192 241 299 353
#     4   9  21  39  66  81 119 160 201 239 301 336
#
# _framework density 25.974466
#
# number of rings (size 3 to 8) (size 9 to 14) (size 15 to 20)
#    0.750    1.000    2.500    1.500    5.250    2.500 
#    0.000    3.125    2.750    0.000    0.000    0.000 
#    0.000    0.000    0.000    0.000    0.000    0.000 
#
# Total GULP energy -89089.807993 kJ/mol
# GULP energy per Si atom -5568.113000 kJ/mol
# Density = 2.591535 g / cm^3
# Si number density = 25.974466 Si / 1000 Ang^3
#
#
#
# Elastic Constant Matrix: (Units=GPa)
#
#
# Indices 1 2 3 4 5 6 
#
# 1 102.0419 31.4661 23.9786 -14.4652 9.3441 17.9995
# 2 31.4661 41.5299 4.2466 1.7987 -7.5394 3.3593
# 3 23.9786 4.2466 161.6418 -12.8408 21.4212 9.7389
# 4 -14.4652 1.7987 -12.8408 30.2154 10.0648 -0.8504
# 5 9.3441 -7.5394 21.4212 10.0648 30.6622 -15.0330
# 6 17.9995 3.3593 9.7389 -0.8504 -15.0330 -9.6824
#
#
#
# Elastic Compliance Matrix: (Units=1/GPa)
#
#
# Indices 1 2 3 4 5 6 
#
# 1 0.011434 -0.009714 -0.001973 0.005368 0.000743 0.014276
# 2 -0.009714 0.034391 -0.000152 -0.009475 0.006792 -0.015992
# 3 -0.001973 -0.000152 0.006618 0.002730 -0.002063 0.005900
# 4 0.005368 -0.009475 0.002730 0.041084 -0.009369 0.020376
# 5 0.000743 0.006792 -0.002063 -0.009369 0.022594 -0.032594
# 6 0.014276 -0.015992 0.005900 0.020376 -0.032594 -0.027539
#
#
# Mechanical properties :
#
#
# Convention : Reuss Voigt Hill
#
# Bulk Modulus (GPa) = 34.76325 47.17735 40.97030
# Shear Modulus (GPa) = 41.03492 26.60719 33.82106
#
# Velocity S-wave (km/s) = 3.97900 3.20403 3.61236
# Velocity P-wave (km/s) = 5.87560 5.64714 5.76250
#
# Compressibility (1/GPa) = 0.02876601
#
# Stress axis : x y z
#
# Youngs Moduli (GPa) = 87.46119 29.07709 151.10165
#
# Poissons Ratio (x) = 0.28244 0.29813
# Poissons Ratio (y) = 0.84957 0.02294
# Poissons Ratio (z) = 0.17256 0.00442
#
# Static dielectric constant tensor:
#      x y z
#    x 2.100440 0.060600 -0.063790 
#    y 0.060600 2.028800 0.043730 
#    z -0.063790 0.043730 2.143970 
# 
# From -- ./inp_files/332306.got.cif
#   From: 2010.05.17/outbox.cif.g08.bks.cpg/sg2_167_cif.got.tgz:332306.got - 2010.06.03 11:33:40.
