data_PCOD9002723
_publ_section_title
;
Structure prediction by ZEFSAII (Michael W. Deem and Ramdas Pophale) SiO2 
 PCOD9002723
Probable space group: P -1
;
_chemical_formula_sum "Si O2"
_cell_formula_units_Z 14
_cell_length_a 5.618416
_cell_length_b 10.276292
_cell_length_c 19.043121
_cell_angle_alpha 132.447189
_cell_angle_beta 67.565884
_cell_angle_gamma 78.053313
_cell_volume 549.060912
_symmetry_space_group_name_H-M "P -1"
_symmetry_group_IT_number 2
_symmetry_cell_setting 'triclinic'
loop_
_space_group_symop_operation_xyz
x,y,z
-x,-y,-z
loop_
_atom_site_type_symbol
_atom_site_label
_atom_site_fract_x
_atom_site_fract_y
_atom_site_fract_z
Si Si1 0.310009 0.143310 0.967830
Si Si2 0.412832 0.355885 0.916553
Si Si3 0.977390 0.250399 0.398603
Si Si4 0.518540 0.387194 0.762153
Si Si5 0.469378 0.218636 0.414274
Si Si6 0.296713 0.315512 0.177492
Si Si7 0.512523 0.682358 0.409727
O O1 0.485484 0.166884 0.894286
O O2 0.444951 0.881339 0.864595
O O3 0.433417 0.185673 0.039733
O O4 0.889558 0.360325 0.093485
O O5 0.500000 0.500000 0.000000
O O6 0.398763 0.721841 0.209251
O O7 0.000000 0.500000 0.000000
O O8 0.838876 0.142901 0.333994
O O9 0.816094 0.492291 0.462964
O O10 0.754911 0.327620 0.525486
O O11 0.359461 0.120657 0.337699
O O12 0.728905 0.464003 0.746154
O O13 0.562654 0.244456 0.636554
O O14 0.474468 0.170981 0.479009
O O15 0.906924 0.421563 0.269868
#
# Coordination Sequence:
#
# PCOD9002723 Si02
#       7
#     2   2   2   2   2   2   2
#     4   9  19  30  42  61  83 117 154 185 221 260
#     4  10  19  34  48  60  80 114 154 189 219 258
#     4   8  14  25  40  58  85 115 139 166 208 263
#     4  10  18  28  45  62  86 117 151 187 222 255
#     4   8  14  25  40  58  84 116 139 166 209 259
#     4  10  17  28  43  62  88 115 145 188 223 258
#     4   9  17  25  39  65  90 112 144 175 224 254
#
# _framework density 25.498080000000002
#
# number of rings (size 3 to 8) (size 9 to 14) (size 15 to 20)
#    0.857    2.000    1.429    1.286    0.000    0.000 
#    0.000    0.000    0.000    0.000    0.000    0.000 
#    0.000    4.571    0.000   19.429    0.000    1.143 
#
# Total GULP energy -78047.219691 kJ/mol
# GULP energy per Si atom -5574.801407 kJ/mol
# Density = 2.544005 g / cm^3
# Si number density = 25.498080 Si / 1000 Ang^3
#
#
#
# Elastic Constant Matrix: (Units=GPa)
#
#
# Indices 1 2 3 4 5 6 
#
# 1 164.4995 37.5322 42.7352 -11.8428 8.7384 -8.2117
# 2 37.5322 115.5711 33.8043 -31.4059 9.6760 2.7075
# 3 42.7352 33.8043 84.0392 -24.9768 0.3051 -6.3429
# 4 -11.8428 -31.4059 -24.9768 38.5638 -10.9818 0.4700
# 5 8.7384 9.6760 0.3051 -10.9818 36.0799 -4.1072
# 6 -8.2117 2.7075 -6.3429 0.4700 -4.1072 33.9441
#
#
#
# Elastic Compliance Matrix: (Units=1/GPa)
#
#
# Indices 1 2 3 4 5 6 
#
# 1 0.007416 -0.001788 -0.003558 -0.002002 -0.001772 0.001085
# 2 -0.001788 0.011986 -0.001676 0.007993 -0.000548 -0.001879
# 3 -0.003558 -0.001676 0.017636 0.010244 0.004620 0.002986
# 4 -0.002002 0.007993 0.010244 0.041601 0.011094 0.001559
# 5 -0.001772 -0.000548 0.004620 0.011094 0.032109 0.004210
# 6 0.001085 -0.001879 0.002986 0.001559 0.004210 0.030918
#
#
# Mechanical properties :
#
#
# Convention : Reuss Voigt Hill
#
# Bulk Modulus (GPa) = 43.49312 65.80591 54.64952
# Shear Modulus (GPa) = 30.60443 38.38675 34.49559
#
# Velocity S-wave (km/s) = 3.46824 3.88426 3.68213
# Velocity P-wave (km/s) = 5.75610 6.78091 6.28942
#
# Compressibility (1/GPa) = 0.02299214
#
# Stress axis : x y z
#
# Youngs Moduli (GPa) = 134.84967 83.43269 56.70278
#
# Poissons Ratio (x) = 0.14922 0.20175
# Poissons Ratio (y) = 0.24118 0.09503
# Poissons Ratio (z) = 0.47981 0.13983
#
# Static dielectric constant tensor:
#      x y z
#    x 2.049620 -0.075770 0.007090 
#    y -0.075770 2.110840 0.013430 
#    z 0.007090 0.013430 2.004900 
# 
# From -- ./inp_files/458716.got.cif
#   From: 2010.05.17/outbox.cif.g08.bks.cpg/sg2_230_cif.got.tgz:458716.got - 2010.06.03 11:33:40.
