data_PCOD9002471
_publ_section_title
;
Structure prediction by ZEFSAII (Michael W. Deem and Ramdas Pophale) SiO2 
 PCOD9002471
Probable space group: P -1
;
_chemical_formula_sum "Si O2"
_cell_formula_units_Z 16
_cell_length_a 5.445310
_cell_length_b 18.880066
_cell_length_c 9.544092
_cell_angle_alpha 99.915712
_cell_angle_beta 136.956781
_cell_angle_gamma 86.606048
_cell_volume 656.469301
_symmetry_space_group_name_H-M "P -1"
_symmetry_group_IT_number 2
_symmetry_cell_setting 'triclinic'
loop_
_space_group_symop_operation_xyz
x,y,z
-x,-y,-z
loop_
_atom_site_type_symbol
_atom_site_label
_atom_site_fract_x
_atom_site_fract_y
_atom_site_fract_z
Si Si1 0.895023 0.200313 0.017470
Si Si2 0.088592 0.944292 0.902413
Si Si3 0.951501 0.729887 0.614036
Si Si4 0.943677 0.958011 0.317328
Si Si5 0.980037 0.572564 0.926426
Si Si6 0.160434 0.574026 0.666414
Si Si7 0.123099 0.711587 0.209149
Si Si8 0.072954 0.191185 0.627935
O O1 0.066076 0.133528 0.133273
O O2 0.888010 0.255168 0.161015
O O3 0.065586 0.240936 0.968804
O O4 0.491205 0.175995 0.785513
O O5 0.912774 0.978327 0.707060
O O6 0.526023 0.942196 0.081854
O O7 0.000000 0.000000 0.000000
O O8 0.525626 0.737973 0.437091
O O9 0.102882 0.791535 0.587580
O O10 0.991168 0.646279 0.573029
O O11 0.085880 0.879101 0.373701
O O12 0.000000 0.000000 0.500000
O O13 0.561894 0.585888 0.773818
O O14 0.113954 0.568273 0.817722
O O15 0.000000 0.500000 0.000000
O O16 0.163907 0.637508 0.120684
O O17 0.000000 0.500000 0.500000
O O18 0.905501 0.729650 0.262279
#
# Coordination Sequence:
#
# PCOD9002471 Si02
#       8
#     2   2   2   2   2   2   2   2
#     4  10  21  42  58  90 128 167 219 275 339 401
#     4  10  21  36  61  86 123 167 215 275 333 400
#     4  11  24  40  65  95 129 173 224 274 336 401
#     4  10  21  38  57  90 124 167 221 273 337 397
#     4  12  27  47  74 103 144 182 223 285 338 399
#     4  12  27  47  74 105 142 181 230 277 337 408
#     4  11  24  40  65  94 131 171 225 272 342 400
#     4  10  23  38  62  89 129 173 216 283 336 406
#
# _framework density 24.372807999999999
#
# number of rings (size 3 to 8) (size 9 to 14) (size 15 to 20)
#    0.000    1.250    1.250    3.750    5.250    2.500 
#    0.000    0.000    0.000    0.000    0.000    0.000 
#    0.000    0.000    0.000    0.000    0.000    0.000 
#
# Total GULP energy -89192.502234 kJ/mol
# GULP energy per Si atom -5574.531390 kJ/mol
# Density = 2.431733 g / cm^3
# Si number density = 24.372808 Si / 1000 Ang^3
#
#
#
# Elastic Constant Matrix: (Units=GPa)
#
#
# Indices 1 2 3 4 5 6 
#
# 1 35.7666 -3.3143 -0.1966 -2.0192 -6.2856 -6.3183
# 2 -3.3143 133.9309 15.4846 -11.9130 -13.3217 -5.9696
# 3 -0.1966 15.4846 72.2151 -10.5045 -11.7715 1.7303
# 4 -2.0192 -11.9130 -10.5045 44.5550 1.0118 -8.2235
# 5 -6.2856 -13.3217 -11.7715 1.0118 44.8674 -0.1075
# 6 -6.3183 -5.9696 1.7303 -8.2235 -0.1075 28.5541
#
#
#
# Elastic Compliance Matrix: (Units=1/GPa)
#
#
# Indices 1 2 3 4 5 6 
#
# 1 0.030641 0.001830 0.000813 0.003456 0.004991 0.008128
# 2 0.001830 0.008226 -0.001077 0.002514 0.002366 0.002923
# 3 0.000813 -0.001077 0.015154 0.003234 0.003697 -0.000018
# 4 0.003456 0.002514 0.003234 0.025563 0.001523 0.008462
# 5 0.004991 0.002366 0.003697 0.001523 0.024630 0.001906
# 6 0.008128 0.002923 -0.000018 0.008462 0.001906 0.039876
#
#
# Mechanical properties :
#
#
# Convention : Reuss Voigt Hill
#
# Bulk Modulus (GPa) = 17.49711 29.53998 23.51854
# Shear Modulus (GPa) = 31.24813 38.92455 35.08634
#
# Velocity S-wave (km/s) = 3.58451 4.00064 3.79828
# Velocity P-wave (km/s) = 4.93216 5.78676 5.37646
#
# Compressibility (1/GPa) = 0.05715228
#
# Stress axis : x y z
#
# Youngs Moduli (GPa) = 32.63582 121.57054 65.98808
#
# Poissons Ratio (x) = -0.22253 -0.05362
# Poissons Ratio (y) = -0.05974 0.07109
# Poissons Ratio (z) = -0.02652 0.13098
#
# Static dielectric constant tensor:
#      x y z
#    x 2.094220 -0.021600 0.019800 
#    y -0.021600 2.105990 0.059180 
#    z 0.019800 0.059180 1.900550 
# 
# From -- ./inp_files/11431.got.cif
#   From: 2010.05.17/outbox.cif.g08.bks.cpg/sg2_6_cif.got.tgz:11431.got - 2010.06.03 11:33:40.
