data_PCOD9002454
_publ_section_title
;
Structure prediction by ZEFSAII (Michael W. Deem and Ramdas Pophale) SiO2 
 PCOD9002454
Probable space group: P -1
;
_chemical_formula_sum "Si O2"
_cell_formula_units_Z 16
_cell_length_a 11.766227
_cell_length_b 7.496542
_cell_length_c 8.157549
_cell_angle_alpha 98.021270
_cell_angle_beta 64.202377
_cell_angle_gamma 107.095180
_cell_volume 619.153685
_symmetry_space_group_name_H-M "P -1"
_symmetry_group_IT_number 2
_symmetry_cell_setting 'triclinic'
loop_
_space_group_symop_operation_xyz
x,y,z
-x,-y,-z
loop_
_atom_site_type_symbol
_atom_site_label
_atom_site_fract_x
_atom_site_fract_y
_atom_site_fract_z
Si Si1 0.611714 0.222694 0.644601
Si Si2 0.584569 0.889170 0.823343
Si Si3 0.595419 0.384216 0.344798
Si Si4 0.817498 0.742360 0.274499
Si Si5 0.312877 0.111577 0.924791
Si Si6 0.190194 0.398544 0.399916
Si Si7 0.106378 0.752320 0.030405
Si Si8 0.002262 0.399587 0.256680
O O1 0.620535 0.239570 0.445390
O O2 0.457731 0.174843 0.770000
O O3 0.686115 0.426436 0.693221
O O4 0.657712 0.052210 0.672938
O O5 0.483158 0.726152 0.770498
O O6 0.668159 0.804231 0.890725
O O7 0.500000 0.000000 0.000000
O O8 0.500000 0.500000 0.500000
O O9 0.734043 0.531930 0.249418
O O10 0.773900 0.849913 0.165461
O O11 0.780964 0.735221 0.490897
O O12 0.974157 0.801020 0.181412
O O13 0.242613 0.899151 0.987360
O O14 0.093327 0.311108 0.301879
O O15 0.097127 0.514451 0.566812
O O16 0.078185 0.723053 0.851826
O O17 0.098131 0.567946 0.117730
#
# Coordination Sequence:
#
# PCOD9002454 Si02
#       8
#     2   2   2   2   2   2   2   2
#     4  10  21  39  65  91 124 163 207 262 316 371
#     4  10  24  40  63  96 125 165 209 259 313 377
#     4  11  22  43  66  90 127 165 205 262 320 370
#     4  10  22  40  59  85 121 167 203 256 309 381
#     4  11  22  40  58  87 129 159 206 255 319 371
#     4   9  19  36  62  85 120 152 212 254 311 365
#     4  10  21  36  61  82 121 159 206 252 314 367
#     4   9  19  38  59  89 111 159 206 263 303 367
#
# _framework density 25.841725
#
# number of rings (size 3 to 8) (size 9 to 14) (size 15 to 20)
#    0.000    2.000    1.250    1.500    0.000   11.500 
#    4.500    0.625    0.000    0.000    0.000    0.000 
#    0.000    0.000    0.000    0.000    0.000    0.000 
#
# Total GULP energy -89385.769574 kJ/mol
# GULP energy per Si atom -5586.610598 kJ/mol
# Density = 2.578291 g / cm^3
# Si number density = 25.841725 Si / 1000 Ang^3
#
#
#
# Elastic Constant Matrix: (Units=GPa)
#
#
# Indices 1 2 3 4 5 6 
#
# 1 102.4773 21.9820 28.5429 -19.8222 14.5716 -5.7197
# 2 21.9820 97.8271 45.8528 -5.0991 5.1702 22.1344
# 3 28.5429 45.8528 53.0604 -22.5970 15.2905 10.7834
# 4 -19.8222 -5.0991 -22.5970 32.5838 7.3356 4.8341
# 5 14.5716 5.1702 15.2905 7.3356 62.3614 -6.7113
# 6 -5.7197 22.1344 10.7834 4.8341 -6.7113 42.6192
#
#
#
# Elastic Compliance Matrix: (Units=1/GPa)
#
#
# Indices 1 2 3 4 5 6 
#
# 1 0.012421 -0.001745 -0.002235 0.006041 -0.002702 0.002028
# 2 -0.001745 0.023288 -0.029345 -0.019299 0.007782 -0.001490
# 3 -0.002235 -0.029345 0.080794 0.058195 -0.025434 -0.016108
# 4 0.006041 -0.019299 0.058195 0.079913 -0.025304 -0.016940
# 5 -0.002702 0.007782 -0.025434 -0.025304 0.026206 0.009028
# 6 0.002028 -0.001490 -0.016108 -0.016940 0.009028 0.031928
#
#
# Mechanical properties :
#
#
# Convention : Reuss Voigt Hill
#
# Bulk Modulus (GPa) = 20.05839 49.56894 34.81366
# Shear Modulus (GPa) = 14.80090 37.97866 26.38978
#
# Velocity S-wave (km/s) = 2.39582 3.83778 3.19910
# Velocity P-wave (km/s) = 3.92838 6.23390 5.21026
#
# Compressibility (1/GPa) = 0.04985446
#
# Stress axis : x y z
#
# Youngs Moduli (GPa) = 80.51009 42.93972 12.37718
#
# Poissons Ratio (x) = 0.07492 0.02766
# Poissons Ratio (y) = 0.14047 0.36321
# Poissons Ratio (z) = 0.17991 1.26007
#
# Static dielectric constant tensor:
#      x y z
#    x 2.126240 -0.129900 -0.013150 
#    y -0.129900 2.057260 0.068410 
#    z -0.013150 0.068410 2.131700 
# 
# From -- ./inp_files/239040.got.cif
#   From: 2010.05.17/outbox.cif.g08.bks.cpg/sg2_120_cif.got.tgz:239040.got - 2010.06.03 11:33:40.
