data_PCOD9002371
_publ_section_title
;
Structure prediction by ZEFSAII (Michael W. Deem and Ramdas Pophale) SiO2 
 PCOD9002371
Probable space group: P -1
;
_chemical_formula_sum "Si O2"
_cell_formula_units_Z 16
_cell_length_a 12.264211
_cell_length_b 14.347570
_cell_length_c 12.794948
_cell_angle_alpha 95.863944
_cell_angle_beta 86.678518
_cell_angle_gamma 159.226582
_cell_volume 789.819535
_symmetry_space_group_name_H-M "P -1"
_symmetry_group_IT_number 2
_symmetry_cell_setting 'triclinic'
loop_
_space_group_symop_operation_xyz
x,y,z
-x,-y,-z
loop_
_atom_site_type_symbol
_atom_site_label
_atom_site_fract_x
_atom_site_fract_y
_atom_site_fract_z
Si Si1 0.610054 0.845340 0.821493
Si Si2 0.001844 0.724571 0.308366
Si Si3 0.863606 0.875382 0.736298
Si Si4 0.428198 0.565991 0.294828
Si Si5 0.493257 0.969601 0.376338
Si Si6 0.716160 0.253349 0.064230
Si Si7 0.446764 0.566178 0.532399
Si Si8 0.080909 0.466843 0.268388
O O1 0.735177 0.840219 0.830555
O O2 0.499394 0.828461 0.914182
O O3 0.287813 0.570122 0.746221
O O4 0.880823 0.110852 0.768409
O O5 0.290713 0.889619 0.328534
O O6 0.870764 0.668362 0.414192
O O7 0.740069 0.669966 0.728179
O O8 0.716778 0.802279 0.628981
O O9 0.228291 0.168888 0.737689
O O10 0.452547 0.615350 0.422635
O O11 0.250812 0.506013 0.237744
O O12 0.326530 0.739549 0.327634
O O13 0.500000 0.000000 0.500000
O O14 0.837646 0.247769 0.346790
O O15 0.877096 0.346446 0.172505
O O16 0.000000 0.500000 0.000000
O O17 0.500000 0.000000 0.000000
O O18 0.500000 0.500000 0.500000
#
# Coordination Sequence:
#
# PCOD9002371 Si02
#       8
#     2   2   2   2   2   2   2   2
#     4  11  21  40  63  90 121 154 209 267 323 378
#     4  11  20  35  56  84 127 164 203 259 301 361
#     4  10  21  36  60  87 123 172 212 256 303 365
#     4  11  22  38  58  88 128 174 212 253 309 366
#     4  12  23  38  59  92 132 180 205 243 320 385
#     4  12  25  44  72  95 120 161 216 282 345 382
#     4   9  19  33  53  86 121 168 219 244 282 358
#     4  12  25  44  62  93 136 165 218 269 315 398
#
# _framework density 20.257791999999998
#
# number of rings (size 3 to 8) (size 9 to 14) (size 15 to 20)
#    0.000    1.000    2.500    6.000    0.000    6.000 
#    0.000    0.000    0.000    4.500    0.000    0.000 
#    0.000    0.000    0.000    0.000    0.000    0.000 
#
# Total GULP energy -89331.171405 kJ/mol
# GULP energy per Si atom -5583.198213 kJ/mol
# Density = 2.021168 g / cm^3
# Si number density = 20.257792 Si / 1000 Ang^3
#
#
#
# Elastic Constant Matrix: (Units=GPa)
#
#
# Indices 1 2 3 4 5 6 
#
# 1 127.2893 83.5690 31.8052 2.2228 -34.6789 2.6525
# 2 83.5690 340.5319 57.5246 56.9084 -59.9622 -13.1712
# 3 31.8052 57.5246 53.6905 1.1861 -25.9595 -12.8672
# 4 2.2228 56.9084 1.1861 48.8576 -7.7222 -14.0416
# 5 -34.6789 -59.9622 -25.9595 -7.7222 45.3577 1.1064
# 6 2.6525 -13.1712 -12.8672 -14.0416 1.1064 42.5730
#
#
#
# Elastic Compliance Matrix: (Units=1/GPa)
#
#
# Indices 1 2 3 4 5 6 
#
# 1 0.011028 -0.001779 -0.002643 0.001982 0.004940 -0.001511
# 2 -0.001779 0.005445 -0.003662 -0.006146 0.002730 -0.001409
# 3 -0.002643 -0.003662 0.033196 0.009061 0.013394 0.011705
# 4 0.001982 -0.006146 0.009061 0.031001 0.003589 0.010845
# 5 0.004940 0.002730 0.013394 0.003589 0.037593 0.004792
# 6 -0.001511 -0.001409 0.011705 0.010845 0.004792 0.030137
#
#
# Mechanical properties :
#
#
# Convention : Reuss Voigt Hill
#
# Bulk Modulus (GPa) = 29.85160 96.36769 63.10964
# Shear Modulus (GPa) = 28.45186 50.59851 39.52518
#
# Velocity S-wave (km/s) = 3.75172 5.00315 4.42193
# Velocity P-wave (km/s) = 5.79094 9.00274 7.56916
#
# Compressibility (1/GPa) = 0.03349905
#
# Stress axis : x y z
#
# Youngs Moduli (GPa) = 90.68066 183.64772 30.12450
#
# Poissons Ratio (x) = 0.32679 0.07963
# Poissons Ratio (y) = 0.16136 0.11031
# Poissons Ratio (z) = 0.23970 0.67250
#
# Static dielectric constant tensor:
#      x y z
#    x 1.559810 0.032760 -0.163110 
#    y 0.032760 1.678870 0.032130 
#    z -0.163110 0.032130 1.646750 
# 
# From -- ./inp_files/434052.got.cif
#   From: 2010.05.17/outbox.cif.g08.bks.cpg/sg2_218_cif.got.tgz:434052.got - 2010.06.03 11:33:40.
