data_PCOD9002960
_publ_section_title
;
Structure prediction by ZEFSAII (Michael W. Deem and Ramdas Pophale) SiO2 
 PCOD9002960
Probable space group: P -1
;
_chemical_formula_sum "Si O2"
_cell_formula_units_Z 16
_cell_length_a 14.317440
_cell_length_b 9.275248
_cell_length_c 15.855774
_cell_angle_alpha 31.050948
_cell_angle_beta 39.075212
_cell_angle_gamma 42.590836
_cell_volume 668.014405
_symmetry_space_group_name_H-M "P -1"
_symmetry_group_IT_number 2
_symmetry_cell_setting 'triclinic'
loop_
_space_group_symop_operation_xyz
x,y,z
-x,-y,-z
loop_
_atom_site_type_symbol
_atom_site_label
_atom_site_fract_x
_atom_site_fract_y
_atom_site_fract_z
Si Si1 0.534791 0.333978 0.645289
Si Si2 0.701374 0.263120 0.299463
Si Si3 0.788548 0.968388 0.553243
Si Si4 0.102559 0.314722 0.092211
Si Si5 0.613833 0.082551 0.949866
Si Si6 0.974089 0.487619 0.774425
Si Si7 0.769016 0.023033 0.199483
Si Si8 0.539551 0.655165 0.811963
O O1 0.500000 0.500000 0.500000
O O2 0.471641 0.584946 0.631369
O O3 0.703146 0.144656 0.605626
O O4 0.427480 0.107552 0.848209
O O5 0.761139 0.515441 0.084756
O O6 0.741009 0.024573 0.319392
O O7 0.797147 0.172392 0.364293
O O8 0.920301 0.721702 0.622368
O O9 0.675108 0.796764 0.673247
O O10 0.205799 0.006465 0.151382
O O11 0.025477 0.344558 0.222096
O O12 0.000000 0.500000 0.000000
O O13 0.573205 0.412893 0.838116
O O14 0.500000 0.000000 0.000000
O O15 0.859640 0.267563 0.980605
O O16 0.133003 0.278947 0.747343
O O17 0.605060 0.107911 0.231524
O O18 0.500000 0.500000 0.000000
#
# Coordination Sequence:
#
# PCOD9002960 Si02
#       8
#     2   2   2   2   2   2   2   2
#     4   9  17  32  56  82 112 149 189 235 290 347
#     4   9  21  38  59  87 122 159 196 247 309 354
#     4  11  21  37  61  90 120 156 199 250 305 355
#     4  10  22  38  62  86 114 158 205 246 294 357
#     4  11  21  37  60  87 120 152 197 247 296 352
#     4  10  21  37  59  83 118 161 197 244 302 357
#     4  10  21  37  55  83 121 157 196 242 300 353
#     4  12  22  34  62  94 118 151 207 253 286 358
#
# _framework density 23.951577
#
# number of rings (size 3 to 8) (size 9 to 14) (size 15 to 20)
#    0.000    1.750    2.500    3.000    1.750    2.000 
#    0.000    0.625    0.000    0.000    0.000    0.000 
#    0.000    0.000    0.000    0.000    0.000    0.000 
#
# Total GULP energy -89301.428788 kJ/mol
# GULP energy per Si atom -5581.339299 kJ/mol
# Density = 2.389706 g / cm^3
# Si number density = 23.951577 Si / 1000 Ang^3
#
#
#
# Elastic Constant Matrix: (Units=GPa)
#
#
# Indices 1 2 3 4 5 6 
#
# 1 95.4799 56.6431 16.9028 -6.0782 26.9851 -7.8281
# 2 56.6431 202.1165 47.5853 -0.7039 30.4848 -20.9348
# 3 16.9028 47.5853 84.2218 -2.9359 15.0633 4.7450
# 4 -6.0782 -0.7039 -2.9359 32.9483 3.7335 16.3655
# 5 26.9851 30.4848 15.0633 3.7335 39.1026 -9.1287
# 6 -7.8281 -20.9348 4.7450 16.3655 -9.1287 29.8900
#
#
#
# Elastic Compliance Matrix: (Units=1/GPa)
#
#
# Indices 1 2 3 4 5 6 
#
# 1 0.015216 -0.003601 0.001345 0.006758 -0.010153 -0.005551
# 2 -0.003601 0.007718 -0.004343 -0.004904 0.000473 0.007981
# 3 0.001345 -0.004343 0.016399 0.008580 -0.007550 -0.012296
# 4 0.006758 -0.004904 0.008580 0.052904 -0.017945 -0.037474
# 5 -0.010153 0.000473 -0.007550 -0.017945 0.041847 0.021476
# 6 -0.005551 0.007981 -0.012296 -0.037474 0.021476 0.066621
#
#
# Mechanical properties :
#
#
# Convention : Reuss Voigt Hill
#
# Bulk Modulus (GPa) = 38.26297 69.34229 53.80263
# Shear Modulus (GPa) = 22.46034 37.76733 30.11383
#
# Velocity S-wave (km/s) = 3.06558 3.97523 3.54966
# Velocity P-wave (km/s) = 5.34230 7.07699 6.26993
#
# Compressibility (1/GPa) = 0.02613493
#
# Stress axis : x y z
#
# Youngs Moduli (GPa) = 65.71974 129.57355 60.97805
#
# Poissons Ratio (x) = 0.46661 -0.08202
# Poissons Ratio (y) = 0.23667 0.26483
# Poissons Ratio (z) = -0.08840 0.56273
#
# Static dielectric constant tensor:
#      x y z
#    x 1.879250 0.016900 0.004950 
#    y 0.016900 2.022700 -0.008270 
#    z 0.004950 -0.008270 2.027060 
# 
# From -- ./inp_files/312474.got.cif
#   From: 2010.05.17/outbox.cif.g08.bks.cpg/sg2_157_cif.got.tgz:312474.got - 2010.06.03 11:33:40.
