data_PCOD9002156
_publ_section_title
;
Structure prediction by ZEFSAII (Michael W. Deem and Ramdas Pophale) SiO2 
 PCOD9002156
Probable space group: P -1
;
_chemical_formula_sum "Si O2"
_cell_formula_units_Z 16
_cell_length_a 5.362825
_cell_length_b 11.398554
_cell_length_c 15.235936
_cell_angle_alpha 56.824359
_cell_angle_beta 66.338114
_cell_angle_gamma 97.503265
_cell_volume 635.152531
_symmetry_space_group_name_H-M "P -1"
_symmetry_group_IT_number 2
_symmetry_cell_setting 'triclinic'
loop_
_space_group_symop_operation_xyz
x,y,z
-x,-y,-z
loop_
_atom_site_type_symbol
_atom_site_label
_atom_site_fract_x
_atom_site_fract_y
_atom_site_fract_z
Si Si1 0.746458 0.467854 0.815951
Si Si2 0.827576 0.510681 0.106477
Si Si3 0.211070 0.613916 0.346565
Si Si4 0.413787 0.087216 0.052914
Si Si5 0.716557 0.888404 0.458404
Si Si6 0.606539 0.918925 0.648198
Si Si7 0.153816 0.863998 0.881052
Si Si8 0.298150 0.313509 0.622849
O O1 0.528244 0.546734 0.839501
O O2 0.788098 0.483440 0.699033
O O3 0.047260 0.537199 0.805291
O O4 0.585007 0.278277 0.935116
O O5 0.000000 0.500000 0.000000
O O6 0.945881 0.698282 0.023922
O O7 0.537158 0.713533 0.304862
O O8 0.000000 0.500000 0.500000
O O9 0.041528 0.714090 0.298737
O O10 0.553970 0.050631 0.134389
O O11 0.060641 0.050865 0.132053
O O12 0.500000 0.000000 0.000000
O O13 0.634271 0.830956 0.593668
O O14 0.700775 0.770406 0.433204
O O15 0.466158 0.943891 0.438278
O O16 0.075614 0.017952 0.368502
O O17 0.303072 0.833620 0.784690
O O18 0.500000 0.500000 0.500000
#
# Coordination Sequence:
#
# PCOD9002156 Si02
#       8
#     2   2   2   2   2   2   2   2
#     4  10  21  38  59  83 122 152 193 252 293 362
#     4  10  21  40  62  86 116 156 201 248 308 354
#     4  10  21  38  56  85 121 157 196 238 300 361
#     4  10  21  36  58  85 116 150 192 241 305 355
#     4  10  21  38  60  85 121 163 199 252 299 366
#     4  10  21  38  59  87 119 158 208 245 305 356
#     4  10  21  38  57  88 118 146 202 252 288 365
#     4  10  21  38  59  83 123 155 203 248 295 358
#
# _framework density 25.190798000000001
#
# number of rings (size 3 to 8) (size 9 to 14) (size 15 to 20)
#    0.000    2.000    0.000    3.000    0.000    3.000 
#    9.000    0.000    0.000    0.000    0.000    0.000 
#    0.000    0.000    0.000    0.000    0.000    0.000 
#
# Total GULP energy -89391.054661 kJ/mol
# GULP energy per Si atom -5586.940916 kJ/mol
# Density = 2.513346 g / cm^3
# Si number density = 25.190798 Si / 1000 Ang^3
#
#
#
# Elastic Constant Matrix: (Units=GPa)
#
#
# Indices 1 2 3 4 5 6 
#
# 1 231.2671 49.7175 27.2868 17.2656 1.3708 -8.8704
# 2 49.7175 77.3930 16.1814 25.5668 -0.8657 5.3187
# 3 27.2868 16.1814 71.5794 17.1982 1.5727 3.2381
# 4 17.2656 25.5668 17.1982 50.8237 3.8027 -3.1232
# 5 1.3708 -0.8657 1.5727 3.8027 34.2156 12.0200
# 6 -8.8704 5.3187 3.2381 -3.1232 12.0200 40.0701
#
#
#
# Elastic Compliance Matrix: (Units=1/GPa)
#
#
# Indices 1 2 3 4 5 6 
#
# 1 0.005278 -0.003456 -0.001459 0.000647 -0.001045 0.002109
# 2 -0.003456 0.018424 -0.000684 -0.008400 0.003251 -0.004785
# 3 -0.001459 -0.000684 0.015892 -0.004705 0.000553 -0.002049
# 4 0.000647 -0.008400 -0.004705 0.025936 -0.004684 0.005065
# 5 -0.001045 0.003251 0.000553 -0.004684 0.033783 -0.011206
# 6 0.002109 -0.004785 -0.002049 0.005065 -0.011206 0.029980
#
#
# Mechanical properties :
#
#
# Convention : Reuss Voigt Hill
#
# Bulk Modulus (GPa) = 35.21498 62.95676 49.08587
# Shear Modulus (GPa) = 33.34310 44.15879 38.75095
#
# Velocity S-wave (km/s) = 3.64211 4.19139 3.92637
# Velocity P-wave (km/s) = 5.62994 6.96204 6.33112
#
# Compressibility (1/GPa) = 0.02839700
#
# Stress axis : x y z
#
# Youngs Moduli (GPa) = 189.47284 54.27609 62.92349
#
# Poissons Ratio (x) = 0.18757 0.09178
# Poissons Ratio (y) = 0.65478 0.04306
# Poissons Ratio (z) = 0.27636 0.03715
#
# Static dielectric constant tensor:
#      x y z
#    x 2.048240 -0.027830 0.014210 
#    y -0.027830 2.014800 -0.035400 
#    z 0.014210 -0.035400 2.015730 
# 
# From -- ./inp_files/482780.got.cif
#   From: 2010.05.17/outbox.cif.g08.bks.cpg/sg2_242_cif.got.tgz:482780.got - 2010.06.03 11:33:40.
