data_PCOD9002247
_publ_section_title
;
Structure prediction by ZEFSAII (Michael W. Deem and Ramdas Pophale) SiO2 
 PCOD9002247
Probable space group: P -1
;
_chemical_formula_sum "Si O2"
_cell_formula_units_Z 16
_cell_length_a 7.632760
_cell_length_b 9.506128
_cell_length_c 10.153799
_cell_angle_alpha 121.311769
_cell_angle_beta 83.255740
_cell_angle_gamma 101.061590
_cell_volume 617.602726
_symmetry_space_group_name_H-M "P -1"
_symmetry_group_IT_number 2
_symmetry_cell_setting 'triclinic'
loop_
_space_group_symop_operation_xyz
x,y,z
-x,-y,-z
loop_
_atom_site_type_symbol
_atom_site_label
_atom_site_fract_x
_atom_site_fract_y
_atom_site_fract_z
Si Si1 0.181307 0.475012 0.626247
Si Si2 0.857883 0.191870 0.922249
Si Si3 0.788270 0.747935 0.934093
Si Si4 0.438961 0.736379 0.831248
Si Si5 0.276631 0.958806 0.554020
Si Si6 0.622053 0.911618 0.645478
Si Si7 0.822942 0.377918 0.764647
Si Si8 0.994697 0.773394 0.671657
O O1 0.365003 0.541826 0.714458
O O2 0.119450 0.632930 0.629792
O O3 0.027177 0.417558 0.716938
O O4 0.165942 0.327525 0.450126
O O5 0.818928 0.339683 0.900680
O O6 0.771592 0.033220 0.769944
O O7 0.068724 0.215177 0.944153
O O8 0.737390 0.196847 0.066039
O O9 0.591724 0.792534 0.954372
O O10 0.750387 0.547719 0.823360
O O11 0.907974 0.823668 0.837180
O O12 0.519934 0.797044 0.712880
O O13 0.452786 0.991220 0.642282
O O14 0.264815 0.782167 0.389155
O O15 0.110597 0.914226 0.644422
O O16 0.283378 0.103487 0.514337
#
# Coordination Sequence:
#
# PCOD9002247 Si02
#       8
#     2   2   2   2   2   2   2   2
#     4   9  17  32  58  82 114 146 182 232 284 337
#     4  11  22  41  59  79 118 158 189 232 277 333
#     4  11  23  35  59  91 115 149 185 235 289 342
#     4  12  23  36  57  89 117 152 190 229 283 343
#     4   9  17  36  66  84 107 151 195 235 283 333
#     4  10  21  36  59  86 112 152 198 231 274 340
#     4   9  19  38  62  86 113 147 188 237 290 334
#     4   9  16  34  57  82 111 148 183 231 287 329
#
# _framework density 25.906624000000001
#
# number of rings (size 3 to 8) (size 9 to 14) (size 15 to 20)
#    0.000    2.000    3.750    1.500    0.000    1.500 
#    0.000    0.625    0.000    0.000    0.000    0.000 
#    0.000    0.000    0.000    0.000    0.000    0.000 
#
# Total GULP energy -89383.623513 kJ/mol
# GULP energy per Si atom -5586.476470 kJ/mol
# Density = 2.584766 g / cm^3
# Si number density = 25.906624 Si / 1000 Ang^3
#
#
#
# Elastic Constant Matrix: (Units=GPa)
#
#
# Indices 1 2 3 4 5 6 
#
# 1 88.2099 40.2077 43.5361 6.1164 32.2136 18.5238
# 2 40.2077 115.2705 18.7692 -13.2754 1.4749 29.6866
# 3 43.5361 18.7692 84.8731 7.4307 24.7021 9.5791
# 4 6.1164 -13.2754 7.4307 42.4511 9.3767 5.9996
# 5 32.2136 1.4749 24.7021 9.3767 48.8994 6.3637
# 6 18.5238 29.6866 9.5791 5.9996 6.3637 34.6654
#
#
#
# Elastic Compliance Matrix: (Units=1/GPa)
#
#
# Indices 1 2 3 4 5 6 
#
# 1 0.021472 -0.005753 -0.006372 -0.001145 -0.010179 -0.002719
# 2 -0.005753 0.014171 -0.000650 0.006012 0.003923 -0.010642
# 3 -0.006372 -0.000650 0.016392 -0.001356 -0.003852 0.000373
# 4 -0.001145 0.006012 -0.001356 0.027680 -0.002955 -0.008410
# 5 -0.010179 0.003923 -0.003852 -0.002955 0.029786 -0.001812
# 6 -0.002719 -0.010642 0.000373 -0.008410 -0.001812 0.041099
#
#
# Mechanical properties :
#
#
# Convention : Reuss Voigt Hill
#
# Bulk Modulus (GPa) = 37.75736 54.81993 46.28865
# Shear Modulus (GPa) = 27.03021 37.59254 32.31138
#
# Velocity S-wave (km/s) = 3.23363 3.81343 3.53544
# Velocity P-wave (km/s) = 5.34302 6.37152 5.87980
#
# Compressibility (1/GPa) = 0.02648490
#
# Stress axis : x y z
#
# Youngs Moduli (GPa) = 46.57281 70.56742 61.00471
#
# Poissons Ratio (x) = 0.40600 0.38872
# Poissons Ratio (y) = 0.26795 0.03963
# Poissons Ratio (z) = 0.29676 0.04584
#
# Static dielectric constant tensor:
#      x y z
#    x 2.095090 -0.073510 -0.024360 
#    y -0.073510 2.069540 0.008960 
#    z -0.024360 0.008960 2.062230 
# 
# From -- ./inp_files/259983.got.cif
#   From: 2010.05.17/outbox.cif.g08.bks.cpg/sg2_130_cif.got.tgz:259983.got - 2010.06.03 11:33:40.
