data_PCOD9002889
_publ_section_title
;
Structure prediction by ZEFSAII (Michael W. Deem and Ramdas Pophale) SiO2 
 PCOD9002889
Probable space group: P -1
;
_chemical_formula_sum "Si O2"
_cell_formula_units_Z 12
_cell_length_a 15.600723
_cell_length_b 22.247714
_cell_length_c 5.091922
_cell_angle_alpha 64.357344
_cell_angle_beta 123.742442
_cell_angle_gamma 157.237532
_cell_volume 550.995626
_symmetry_space_group_name_H-M "P -1"
_symmetry_group_IT_number 2
_symmetry_cell_setting 'triclinic'
loop_
_space_group_symop_operation_xyz
x,y,z
-x,-y,-z
loop_
_atom_site_type_symbol
_atom_site_label
_atom_site_fract_x
_atom_site_fract_y
_atom_site_fract_z
Si Si1 0.143670 0.377198 0.500669
Si Si2 0.383829 0.111817 0.071889
Si Si3 0.460303 0.552060 0.235854
Si Si4 0.204427 0.941902 0.595568
Si Si5 0.373595 0.869392 0.721113
Si Si6 0.169061 0.115218 0.819244
O O1 0.311587 0.502438 0.311803
O O2 0.306377 0.460152 0.878007
O O3 0.899754 0.273240 0.379194
O O4 0.029918 0.242793 0.438482
O O5 0.245394 0.023467 0.724421
O O6 0.394233 0.193250 0.032035
O O7 0.217794 0.977236 0.260602
O O8 0.615469 0.197396 0.275246
O O9 0.500000 0.500000 0.500000
O O10 0.707590 0.739896 0.247181
O O11 0.439953 0.034020 0.900419
O O12 0.500000 0.000000 0.500000
O O13 0.000000 0.000000 0.500000
O O14 0.000000 0.000000 0.000000
#
# Coordination Sequence:
#
# PCOD9002889 Si02
#       6
#     2   2   2   2   2   2
#     4  12  23  42  69 101 145 176 217 292 351 392
#     4  10  23  38  66 103 134 170 241 270 329 399
#     4  12  30  46  69 102 139 177 238 288 356 399
#     4  10  21  36  68 103 140 171 229 267 340 399
#     4  10  21  36  68 108 141 176 229 276 336 413
#     4  12  28  50  74  94 136 188 240 282 343 420
#
# _framework density 21.778756999999999
#
# number of rings (size 3 to 8) (size 9 to 14) (size 15 to 20)
#    1.000    0.000    1.667    5.000    9.333    0.000 
#    0.000    1.667    0.000    0.000    0.000    0.000 
#    0.000    0.000    0.000    0.000    0.000    0.000 
#
# Total GULP energy -66945.249027 kJ/mol
# GULP energy per Si atom -5578.770752 kJ/mol
# Density = 2.172919 g / cm^3
# Si number density = 21.778757 Si / 1000 Ang^3
#
#
#
# Elastic Constant Matrix: (Units=GPa)
#
#
# Indices 1 2 3 4 5 6 
#
# 1 150.2659 37.7393 26.6327 -14.0608 14.4593 7.4097
# 2 37.7393 110.2728 44.9630 -6.5105 6.6852 10.0075
# 3 26.6327 44.9630 64.4426 0.4177 -17.3154 0.9032
# 4 -14.0608 -6.5105 0.4177 37.1244 -3.2756 -5.3258
# 5 14.4593 6.6852 -17.3154 -3.2756 50.4966 -11.4023
# 6 7.4097 10.0075 0.9032 -5.3258 -11.4023 31.6275
#
#
#
# Elastic Compliance Matrix: (Units=1/GPa)
#
#
# Indices 1 2 3 4 5 6 
#
# 1 0.008282 -0.000469 -0.004209 0.002326 -0.004236 -0.002807
# 2 -0.000469 0.015578 -0.012682 0.000987 -0.007818 -0.007109
# 3 -0.004209 -0.012682 0.030073 -0.001468 0.015219 0.009380
# 4 0.002326 0.000987 -0.001468 0.028811 0.001612 0.004617
# 5 -0.004236 -0.007818 0.015219 0.001612 0.030612 0.014339
# 6 -0.002807 -0.007109 0.009380 0.004617 0.014339 0.040204
#
#
# Mechanical properties :
#
#
# Convention : Reuss Voigt Hill
#
# Bulk Modulus (GPa) = 52.05217 60.40572 56.22894
# Shear Modulus (GPa) = 25.68219 38.22612 31.95415
#
# Velocity S-wave (km/s) = 3.43772 4.19406 3.83458
# Velocity P-wave (km/s) = 6.30155 7.15890 6.74386
#
# Compressibility (1/GPa) = 0.01921150
#
# Stress axis : x y z
#
# Youngs Moduli (GPa) = 120.73744 64.19497 33.25197
#
# Poissons Ratio (x) = 0.03013 0.13997
# Poissons Ratio (y) = 0.05667 0.42171
# Poissons Ratio (z) = 0.50823 0.81414
#
# Static dielectric constant tensor:
#      x y z
#    x 1.935170 0.008680 0.064400 
#    y 0.008680 1.729090 0.002770 
#    z 0.064400 0.002770 1.773120 
# 
# From -- ./inp_files/100039.got.cif
#   From: 2010.05.17/outbox.cif.g08.bks.cpg/sg2_51_cif.got.tgz:100039.got - 2010.06.03 11:33:40.
