data_PCOD9002704
_publ_section_title
;
Structure prediction by ZEFSAII (Michael W. Deem and Ramdas Pophale) SiO2 
 PCOD9002704
Probable space group: P -1
;
_chemical_formula_sum "Si O2"
_cell_formula_units_Z 16
_cell_length_a 13.778400
_cell_length_b 7.364204
_cell_length_c 11.059076
_cell_angle_alpha 100.327930
_cell_angle_beta 72.329433
_cell_angle_gamma 139.214313
_cell_volume 696.118677
_symmetry_space_group_name_H-M "P -1"
_symmetry_group_IT_number 2
_symmetry_cell_setting 'triclinic'
loop_
_space_group_symop_operation_xyz
x,y,z
-x,-y,-z
loop_
_atom_site_type_symbol
_atom_site_label
_atom_site_fract_x
_atom_site_fract_y
_atom_site_fract_z
Si Si1 0.494494 0.282831 0.023846
Si Si2 0.161105 0.780431 0.858392
Si Si3 0.052880 0.952050 0.085191
Si Si4 0.261842 0.156672 0.233200
Si Si5 0.600059 0.168519 0.153224
Si Si6 0.927631 0.647387 0.325373
Si Si7 0.566310 0.677606 0.330091
Si Si8 0.393915 0.644441 0.578960
O O1 0.796196 0.803366 0.857941
O O2 0.502281 0.130818 0.904806
O O3 0.330338 0.065093 0.133000
O O4 0.606859 0.363402 0.095450
O O5 0.081058 0.795545 0.990205
O O6 0.239762 0.717847 0.889473
O O7 0.078854 0.570359 0.750585
O O8 0.301117 0.089362 0.785698
O O9 0.069743 0.221617 0.781232
O O10 0.102214 0.912704 0.338567
O O11 0.000000 0.000000 0.000000
O O12 0.404565 0.417795 0.290617
O O13 0.500000 0.500000 0.000000
O O14 0.556315 0.160655 0.304481
O O15 0.768636 0.496418 0.427520
O O16 0.523976 0.790135 0.447351
O O17 0.618838 0.576603 0.380735
#
# Coordination Sequence:
#
# PCOD9002704 Si02
#       8
#     2   2   2   2   2   2   2   2
#     4  11  21  37  62 101 140 165 216 284 341 394
#     4  11  21  39  63  94 133 169 221 277 339 403
#     4  10  21  37  63  93 129 175 215 266 344 419
#     4  10  22  37  61  96 128 171 214 272 339 392
#     4  10  21  36  63  94 130 174 213 278 331 398
#     4   9  22  38  59  89 128 172 212 264 345 401
#     4  11  23  40  68  94 128 173 239 285 312 401
#     4  10  22  41  66  92 126 182 230 269 337 396
#
# _framework density 22.984584999999999
#
# number of rings (size 3 to 8) (size 9 to 14) (size 15 to 20)
#    0.750    1.000    2.500    1.875    0.000    4.500 
#    0.000    2.500    0.000    3.000    0.000    0.000 
#    0.000    0.000    0.000    0.000    0.000    0.000 
#
# Total GULP energy -89073.322722 kJ/mol
# GULP energy per Si atom -5567.082670 kJ/mol
# Density = 2.293227 g / cm^3
# Si number density = 22.984585 Si / 1000 Ang^3
#
#
#
# Elastic Constant Matrix: (Units=GPa)
#
#
# Indices 1 2 3 4 5 6 
#
# 1 91.3144 25.4979 7.4807 -0.8069 -3.0983 -15.1905
# 2 25.4979 77.1722 10.1521 3.3777 1.4748 7.6659
# 3 7.4807 10.1521 71.2955 14.1172 -26.7582 -7.8342
# 4 -0.8069 3.3777 14.1172 36.3119 -4.9083 -1.6847
# 5 -3.0983 1.4748 -26.7582 -4.9083 34.3262 1.5921
# 6 -15.1905 7.6659 -7.8342 -1.6847 1.5921 36.5341
#
#
#
# Elastic Compliance Matrix: (Units=1/GPa)
#
#
# Indices 1 2 3 4 5 6 
#
# 1 0.013606 -0.005324 0.000488 0.001154 0.001684 0.006859
# 2 -0.005324 0.015931 -0.003645 -0.000993 -0.003860 -0.006216
# 3 0.000488 -0.003645 0.022423 -0.005900 0.016615 0.004780
# 4 0.001154 -0.000993 -0.005900 0.029961 -0.000206 0.000813
# 5 0.001684 -0.003860 0.016615 -0.000206 0.042223 0.003223
# 6 0.006859 -0.006216 0.004780 0.000813 0.003223 0.032450
#
#
# Mechanical properties :
#
#
# Convention : Reuss Voigt Hill
#
# Bulk Modulus (GPa) = 28.57271 36.22706 32.39988
# Shear Modulus (GPa) = 26.99464 34.54455 30.76959
#
# Velocity S-wave (km/s) = 3.43077 3.88099 3.66280
# Velocity P-wave (km/s) = 5.30583 5.98986 5.65819
#
# Compressibility (1/GPa) = 0.03499843
#
# Stress axis : x y z
#
# Youngs Moduli (GPa) = 73.49673 62.77022 44.59649
#
# Poissons Ratio (x) = 0.33416 -0.02174
# Poissons Ratio (y) = 0.39127 0.16255
# Poissons Ratio (z) = -0.03584 0.22880
#
# Static dielectric constant tensor:
#      x y z
#    x 1.888610 0.046030 0.016090 
#    y 0.046030 2.049840 -0.009610 
#    z 0.016090 -0.009610 1.903770 
# 
# From -- ./inp_files/460018.got.cif
#   From: 2010.05.17/outbox.cif.g08.bks.cpg/sg2_231_cif.got.tgz:460018.got - 2010.06.03 11:33:40.
