data_PCOD9002535
_publ_section_title
;
Structure prediction by ZEFSAII (Michael W. Deem and Ramdas Pophale) SiO2 
 PCOD9002535
Probable space group: P -1
;
_chemical_formula_sum "Si O2"
_cell_formula_units_Z 16
_cell_length_a 5.328369
_cell_length_b 23.057892
_cell_length_c 9.666794
_cell_angle_alpha 141.298988
_cell_angle_beta 103.607378
_cell_angle_gamma 73.887169
_cell_volume 713.082831
_symmetry_space_group_name_H-M "P -1"
_symmetry_group_IT_number 2
_symmetry_cell_setting 'triclinic'
loop_
_space_group_symop_operation_xyz
x,y,z
-x,-y,-z
loop_
_atom_site_type_symbol
_atom_site_label
_atom_site_fract_x
_atom_site_fract_y
_atom_site_fract_z
Si Si1 0.965299 0.035827 0.905075
Si Si2 0.576251 0.296781 0.941680
Si Si3 0.192688 0.351765 0.523102
Si Si4 0.787688 0.436929 0.424013
Si Si5 0.654212 0.469712 0.097893
Si Si6 0.894520 0.674895 0.213805
Si Si7 0.549466 0.854172 0.850410
Si Si8 0.196863 0.840259 0.513012
O O1 0.686586 0.102635 0.998170
O O2 0.003936 0.937288 0.646170
O O3 0.209368 0.088483 0.003616
O O4 0.000000 0.000000 0.000000
O O5 0.272752 0.285983 0.872990
O O6 0.708125 0.206319 0.706852
O O7 0.740296 0.340243 0.159562
O O8 0.539883 0.387623 0.004296
O O9 0.351103 0.433081 0.645448
O O10 0.195932 0.341616 0.671369
O O11 0.328573 0.252465 0.299925
O O12 0.910666 0.395029 0.506235
O O13 0.500000 0.500000 0.500000
O O14 0.000000 0.500000 0.500000
O O15 0.500000 0.500000 0.000000
O O16 0.939729 0.421048 0.997586
O O17 0.067637 0.758076 0.415981
O O18 0.427803 0.857856 0.683685
#
# Coordination Sequence:
#
# PCOD9002535 Si02
#       8
#     2   2   2   2   2   2   2   2
#     4  10  21  36  61  95 134 156 199 263 324 372
#     4  11  23  40  60  91 124 165 217 251 315 377
#     4  12  22  40  63  87 130 168 209 263 309 377
#     4  12  29  46  63  88 129 177 216 256 312 373
#     4  11  21  34  58  92 121 157 208 263 317 363
#     4  11  22  36  62  94 122 162 213 260 316 373
#     4  11  22  37  59  99 126 164 204 256 323 373
#     4  10  21  37  65  94 130 159 209 264 320 371
#
# _framework density 22.437787
#
# number of rings (size 3 to 8) (size 9 to 14) (size 15 to 20)
#    0.000    1.000    3.750    4.875    5.250    2.000 
#    0.000    0.000    0.000    1.500    0.000    0.000 
#    0.000    0.000    0.000    0.000    0.000    0.000 
#
# Total GULP energy -89088.277334 kJ/mol
# GULP energy per Si atom -5568.017333 kJ/mol
# Density = 2.238672 g / cm^3
# Si number density = 22.437787 Si / 1000 Ang^3
#
#
#
# Elastic Constant Matrix: (Units=GPa)
#
#
# Indices 1 2 3 4 5 6 
#
# 1 100.8711 15.5164 42.4747 16.6680 -1.2782 -27.6898
# 2 15.5164 48.5326 29.3952 8.5363 5.6279 -19.3350
# 3 42.4747 29.3952 132.5935 35.6436 -6.2528 -12.5670
# 4 16.6680 8.5363 35.6436 44.9406 -14.1437 -6.6200
# 5 -1.2782 5.6279 -6.2528 -14.1437 15.2389 3.4257
# 6 -27.6898 -19.3350 -12.5670 -6.6200 3.4257 22.1423
#
#
#
# Elastic Compliance Matrix: (Units=1/GPa)
#
#
# Indices 1 2 3 4 5 6 
#
# 1 0.021510 0.016010 -0.005717 -0.007837 -0.022442 0.038762
# 2 0.016010 0.057881 -0.009628 -0.016370 -0.054610 0.068653
# 3 -0.005717 -0.009628 0.012245 -0.005743 0.005274 -0.011141
# 4 -0.007837 -0.016370 -0.005743 0.045387 0.049995 -0.021520
# 5 -0.022442 -0.054610 0.005274 0.049995 0.150711 -0.081128
# 6 0.038762 0.068653 -0.011141 -0.021520 -0.081128 0.153380
#
#
# Mechanical properties :
#
#
# Convention : Reuss Voigt Hill
#
# Bulk Modulus (GPa) = 10.75697 50.75221 30.75459
# Shear Modulus (GPa) = 10.62083 29.43841 20.02962
#
# Velocity S-wave (km/s) = 2.17801 3.62609 2.99101
# Velocity P-wave (km/s) = 3.33609 6.34031 5.06602
#
# Compressibility (1/GPa) = 0.09296294
#
# Stress axis : x y z
#
# Youngs Moduli (GPa) = 46.49090 17.27688 81.66896
#
# Poissons Ratio (x) = -0.27659 0.46692
# Poissons Ratio (y) = -0.74430 0.78633
# Poissons Ratio (z) = 0.26580 0.16635
#
# Static dielectric constant tensor:
#      x y z
#    x 1.687800 0.106590 -0.080030 
#    y 0.106590 1.739840 0.008920 
#    z -0.080030 0.008920 1.848110 
# 
# From -- ./inp_files/371368.got.cif
#   From: 2010.05.17/outbox.cif.g08.bks.cpg/sg2_186_cif.got.tgz:371368.got - 2010.06.03 11:33:40.
