data_PCOD9002843
_publ_section_title
;
Structure prediction by ZEFSAII (Michael W. Deem and Ramdas Pophale) SiO2 
 PCOD9002843
Probable space group: P -1
;
_chemical_formula_sum "Si O2"
_cell_formula_units_Z 16
_cell_length_a 4.983170
_cell_length_b 8.249786
_cell_length_c 20.101407
_cell_angle_alpha 102.604922
_cell_angle_beta 119.497221
_cell_angle_gamma 84.514190
_cell_volume 701.852244
_symmetry_space_group_name_H-M "P -1"
_symmetry_group_IT_number 2
_symmetry_cell_setting 'triclinic'
loop_
_space_group_symop_operation_xyz
x,y,z
-x,-y,-z
loop_
_atom_site_type_symbol
_atom_site_label
_atom_site_fract_x
_atom_site_fract_y
_atom_site_fract_z
Si Si1 0.739653 0.153354 0.533866
Si Si2 0.401024 0.399865 0.773388
Si Si3 0.240588 0.753254 0.317096
Si Si4 0.466279 0.096888 0.217750
Si Si5 0.857997 0.234986 0.900032
Si Si6 0.341036 0.944933 0.619931
Si Si7 0.550907 0.188764 0.996871
Si Si8 0.157118 0.729525 0.825706
O O1 0.694178 0.281432 0.599797
O O2 0.696225 0.193799 0.454446
O O3 0.500000 0.000000 0.500000
O O4 0.074159 0.075778 0.581455
O O5 0.562082 0.355722 0.719449
O O6 0.667189 0.385446 0.859750
O O7 0.228435 0.572302 0.774753
O O8 0.121746 0.269790 0.741884
O O9 0.346903 0.944514 0.337510
O O10 0.665068 0.111240 0.310223
O O11 0.676390 0.121561 0.180959
O O12 0.198427 0.233052 0.202071
O O13 0.279569 0.923529 0.171156
O O14 0.783849 0.201067 0.964987
O O15 0.221493 0.252690 0.938228
O O16 0.684237 0.287227 0.084947
O O17 0.500000 0.000000 0.000000
#
# Coordination Sequence:
#
# PCOD9002843 Si02
#       8
#     2   2   2   2   2   2   2   2
#     4   9  19  35  63 105 132 156 200 279 311 354
#     4  12  26  42  63  96 129 172 216 259 318 379
#     4  11  20  39  65  91 133 165 204 260 316 367
#     4  12  23  41  67  94 127 166 215 264 313 385
#     4  12  23  39  71  92 118 170 219 264 316 380
#     4  10  21  36  66 106 125 160 215 267 311 367
#     4  12  23  42  65  93 126 163 211 274 325 370
#     4  12  28  43  62  92 134 170 209 266 328 377
#
# _framework density 22.796817999999998
#
# number of rings (size 3 to 8) (size 9 to 14) (size 15 to 20)
#    0.000    0.750    5.000    2.625    5.250    1.000 
#    0.000    0.000    0.000    4.500    0.000    0.000 
#    0.000    0.000    0.000    0.000    0.000    0.000 
#
# Total GULP energy -89474.641175 kJ/mol
# GULP energy per Si atom -5592.165073 kJ/mol
# Density = 2.274493 g / cm^3
# Si number density = 22.796818 Si / 1000 Ang^3
#
#
#
# Elastic Constant Matrix: (Units=GPa)
#
#
# Indices 1 2 3 4 5 6 
#
# 1 112.3881 4.1721 37.1265 5.1952 -3.0479 -12.8159
# 2 4.1721 15.4705 4.2807 2.5139 -0.6787 -10.9941
# 3 37.1265 4.2807 136.7387 -7.4801 -22.6644 -7.9756
# 4 5.1952 2.5139 -7.4801 10.0234 -2.5138 -5.5279
# 5 -3.0479 -0.6787 -22.6644 -2.5138 58.3440 5.8715
# 6 -12.8159 -10.9941 -7.9756 -5.5279 5.8715 21.7046
#
#
#
# Elastic Compliance Matrix: (Units=1/GPa)
#
#
# Indices 1 2 3 4 5 6 
#
# 1 0.010729 0.002760 -0.003264 -0.006091 -0.001479 0.005382
# 2 0.002760 0.102788 -0.001539 0.000537 -0.004724 0.054544
# 3 -0.003264 -0.001539 0.009690 0.011827 0.003800 0.002838
# 4 -0.006091 0.000537 0.011827 0.131296 0.006653 0.032661
# 5 -0.001479 -0.004724 0.003800 0.006653 0.019314 -0.005401
# 6 0.005382 0.054544 0.002838 0.032661 -0.005401 0.087702
#
#
# Mechanical properties :
#
#
# Convention : Reuss Voigt Hill
#
# Bulk Modulus (GPa) = 8.39491 39.52845 23.96168
# Shear Modulus (GPa) = 12.33617 32.61559 22.47588
#
# Velocity S-wave (km/s) = 2.32876 3.78657 3.14335
# Velocity P-wave (km/s) = 3.30474 6.04108 4.86908
#
# Compressibility (1/GPa) = 0.11911985
#
# Stress axis : x y z
#
# Youngs Moduli (GPa) = 93.20790 9.72872 103.20004
#
# Poissons Ratio (x) = -0.02685 0.33683
# Poissons Ratio (y) = -0.25722 0.15886
# Poissons Ratio (z) = 0.30422 0.01498
#
# Static dielectric constant tensor:
#      x y z
#    x 1.870260 0.010300 -0.029840 
#    y 0.010300 1.933710 0.014590 
#    z -0.029840 0.014590 1.888480 
# 
# From -- ./inp_files/582451.got.cif
#   From: 2010.05.17/outbox.cif.g08.bks.cpg/sg2_292_cif.got.tgz:582451.got - 2010.06.03 11:33:40.
