data_PCOD9002530
_publ_section_title
;
Structure prediction by ZEFSAII (Michael W. Deem and Ramdas Pophale) SiO2 
 PCOD9002530
Probable space group: P -1
;
_chemical_formula_sum "Si O2"
_cell_formula_units_Z 16
_cell_length_a 8.232178
_cell_length_b 13.238767
_cell_length_c 10.560548
_cell_angle_alpha 57.019722
_cell_angle_beta 70.767963
_cell_angle_gamma 39.163773
_cell_volume 600.330223
_symmetry_space_group_name_H-M "P -1"
_symmetry_group_IT_number 2
_symmetry_cell_setting 'triclinic'
loop_
_space_group_symop_operation_xyz
x,y,z
-x,-y,-z
loop_
_atom_site_type_symbol
_atom_site_label
_atom_site_fract_x
_atom_site_fract_y
_atom_site_fract_z
Si Si1 0.888028 0.020930 0.150949
Si Si2 0.246644 0.711006 0.460909
Si Si3 0.760023 0.424561 0.837359
Si Si4 0.930711 0.726506 0.732779
Si Si5 0.182873 0.346719 0.417042
Si Si6 0.401842 0.392970 0.970409
Si Si7 0.608123 0.738033 0.329290
Si Si8 0.824928 0.903878 0.903163
O O1 0.041764 0.836090 0.311122
O O2 0.953281 0.107575 0.156576
O O3 0.000000 0.000000 0.000000
O O4 0.580189 0.183803 0.093633
O O5 0.500000 0.500000 0.500000
O O6 0.087914 0.743388 0.598588
O O7 0.374381 0.773489 0.409067
O O8 0.732711 0.558066 0.672117
O O9 0.582628 0.405232 0.857452
O O10 0.683314 0.508614 0.940359
O O11 0.061217 0.228091 0.915984
O O12 0.149051 0.514153 0.866644
O O13 0.745249 0.762262 0.652867
O O14 0.824013 0.835719 0.816294
O O15 0.298965 0.233846 0.592962
O O16 0.866958 0.524693 0.377045
O O17 0.458313 0.886452 0.154314
#
# Coordination Sequence:
#
# PCOD9002530 Si02
#       8
#     2   2   2   2   2   2   2   2
#     4  10  21  36  61  94 124 151 203 253 300 357
#     4  11  21  39  66  90 119 164 201 251 303 354
#     4   9  19  39  63  86 118 160 196 245 306 351
#     4  11  22  39  65  91 124 158 203 249 305 357
#     4  11  23  38  61  86 123 167 198 249 300 363
#     4   9  19  37  62  90 117 151 203 248 296 360
#     4  10  23  41  58  87 124 158 208 246 298 363
#     4   9  22  40  60  91 121 156 204 253 298 360
#
# _framework density 26.651997000000001
#
# number of rings (size 3 to 8) (size 9 to 14) (size 15 to 20)
#    0.000    2.000    1.250    2.250    1.750    7.000 
#    0.000    1.250    0.000    0.000    0.000    0.000 
#    0.000    0.000    0.000    0.000    0.000    0.000 
#
# Total GULP energy -89451.578902 kJ/mol
# GULP energy per Si atom -5590.723681 kJ/mol
# Density = 2.659134 g / cm^3
# Si number density = 26.651997 Si / 1000 Ang^3
#
#
#
# Elastic Constant Matrix: (Units=GPa)
#
#
# Indices 1 2 3 4 5 6 
#
# 1 71.7994 3.7119 16.5679 9.7425 2.7933 8.1588
# 2 3.7119 38.5319 22.9749 -7.4354 10.7695 7.4518
# 3 16.5679 22.9749 122.1192 -19.6489 35.1434 -6.1772
# 4 9.7425 -7.4354 -19.6489 47.9906 -10.8056 6.2198
# 5 2.7933 10.7695 35.1434 -10.8056 50.8356 14.6975
# 6 8.1588 7.4518 -6.1772 6.2198 14.6975 32.7809
#
#
#
# Elastic Compliance Matrix: (Units=1/GPa)
#
#
# Indices 1 2 3 4 5 6 
#
# 1 0.015716 0.000342 -0.003685 -0.003460 0.002344 -0.005078
# 2 0.000342 0.031970 -0.006285 0.003854 0.001209 -0.009810
# 3 -0.003685 -0.006285 0.013513 0.001881 -0.010018 0.009027
# 4 -0.003460 0.003854 0.001881 0.024994 0.005352 -0.006803
# 5 0.002344 0.001209 -0.010018 0.005352 0.032672 -0.018410
# 6 -0.005078 -0.009810 0.009027 -0.006803 -0.018410 0.045246
#
#
# Mechanical properties :
#
#
# Convention : Reuss Voigt Hill
#
# Bulk Modulus (GPa) = 23.84126 35.44000 29.64063
# Shear Modulus (GPa) = 25.33598 38.93447 32.13523
#
# Velocity S-wave (km/s) = 3.08656 3.82625 3.47614
# Velocity P-wave (km/s) = 4.65481 5.73118 5.22081
#
# Compressibility (1/GPa) = 0.04194409
#
# Stress axis : x y z
#
# Youngs Moduli (GPa) = 63.63123 31.27912 74.00081
#
# Poissons Ratio (x) = -0.01071 0.27266
# Poissons Ratio (y) = -0.02178 0.46511
# Poissons Ratio (z) = 0.23446 0.19660
#
# Static dielectric constant tensor:
#      x y z
#    x 2.112990 -0.007540 -0.072070 
#    y -0.007540 2.112090 -0.049820 
#    z -0.072070 -0.049820 2.114720 
# 
# From -- ./inp_files/357717.got.cif
#   From: 2010.05.17/outbox.cif.g08.bks.cpg/sg2_179_cif.got.tgz:357717.got - 2010.06.03 11:33:40.
