data_PCOD9002302
_publ_section_title
;
Structure prediction by ZEFSAII (Michael W. Deem and Ramdas Pophale) SiO2 
 PCOD9002302
Probable space group: P -1
;
_chemical_formula_sum "Si O2"
_cell_formula_units_Z 15
_cell_length_a 11.725465
_cell_length_b 9.117851
_cell_length_c 17.492130
_cell_angle_alpha 142.637103
_cell_angle_beta 149.792889
_cell_angle_gamma 51.772900
_cell_volume 556.610515
_symmetry_space_group_name_H-M "P -1"
_symmetry_group_IT_number 2
_symmetry_cell_setting 'triclinic'
loop_
_space_group_symop_operation_xyz
x,y,z
-x,-y,-z
loop_
_atom_site_type_symbol
_atom_site_label
_atom_site_fract_x
_atom_site_fract_y
_atom_site_fract_z
Si Si1 0.088722 0.582990 0.313505
Si Si2 0.000000 0.000000 0.000000
Si Si3 0.477323 0.857828 0.559143
Si Si4 0.438083 0.521995 0.667144
Si Si5 0.218937 0.408057 0.716669
Si Si6 0.102027 0.118657 0.380182
Si Si7 0.718181 0.011393 0.001101
Si Si8 0.679342 0.374857 0.896946
O O1 0.110203 0.299750 0.211416
O O2 0.937990 0.647116 0.322506
O O3 0.325642 0.775885 0.512468
O O4 0.913104 0.563730 0.131959
O O5 0.824364 0.976257 0.966038
O O6 0.493945 0.611381 0.423229
O O7 0.313092 0.982059 0.459448
O O8 0.709600 0.085095 0.795618
O O9 0.186757 0.359413 0.474709
O O10 0.583433 0.459521 0.798337
O O11 0.481390 0.810872 0.797049
O O12 0.077411 0.240900 0.497965
O O13 0.290909 0.705426 0.872698
O O14 0.476872 0.350390 0.833624
O O15 0.892029 0.957020 0.145688
#
# Coordination Sequence:
#
# PCOD9002302 Si02
#       8
#     2   1   2   2   2   2   2   2
#     4  11  21  40  61  83 124 156 187 243 293 342
#     4  10  24  36  56  92 114 150 194 230 292 356
#     4  10  21  36  59  92 117 149 200 237 286 354
#     4  10  21  36  59  92 117 149 200 237 286 354
#     4   9  22  41  57  88 119 154 204 232 279 354
#     4  10  22  37  61  88 115 157 192 244 287 337
#     4  11  21  40  61  83 124 156 187 243 293 342
#     4  10  22  37  61  88 115 157 192 244 287 337
#
# _framework density 26.948824999999999
#
# number of rings (size 3 to 8) (size 9 to 14) (size 15 to 20)
#    0.000    2.133    1.333    3.200    3.733    5.333 
#    0.000   12.000    0.000    0.000    0.000    0.000 
#    0.000    0.000    0.000    0.000    0.000    0.000 
#
# Total GULP energy -83812.709738 kJ/mol
# GULP energy per Si atom -5587.513983 kJ/mol
# Density = 2.688749 g / cm^3
# Si number density = 26.948825 Si / 1000 Ang^3
#
#
#
# Elastic Constant Matrix: (Units=GPa)
#
#
# Indices 1 2 3 4 5 6 
#
# 1 88.3892 13.9356 38.3867 1.1145 -3.9800 -4.4020
# 2 13.9356 59.4602 15.7127 3.7341 -10.8145 3.8843
# 3 38.3867 15.7127 126.2435 4.3819 25.5252 3.7930
# 4 1.1145 3.7341 4.3819 28.3633 8.2189 -5.3628
# 5 -3.9800 -10.8145 25.5252 8.2189 43.7229 9.1000
# 6 -4.4020 3.8843 3.7930 -5.3628 9.1000 25.0757
#
#
#
# Elastic Compliance Matrix: (Units=1/GPa)
#
#
# Indices 1 2 3 4 5 6 
#
# 1 0.013870 -0.001552 -0.004735 -0.000122 0.003208 0.002201
# 2 -0.001552 0.020937 -0.003708 -0.006569 0.010108 -0.008028
# 3 -0.004735 -0.003708 0.011473 0.001706 -0.008684 0.001524
# 4 -0.000122 -0.006569 0.001706 0.042651 -0.013739 0.014846
# 5 0.003208 0.010108 -0.008684 -0.013739 0.036630 -0.015920
# 6 0.002201 -0.008028 0.001524 0.014846 -0.015920 0.050231
#
#
# Mechanical properties :
#
#
# Convention : Reuss Voigt Hill
#
# Bulk Modulus (GPa) = 38.03757 45.57364 41.80561
# Shear Modulus (GPa) = 24.44428 33.16956 28.80692
#
# Velocity S-wave (km/s) = 3.01502 3.51213 3.27303
# Velocity P-wave (km/s) = 5.12502 5.77881 5.46171
#
# Compressibility (1/GPa) = 0.02628979
#
# Stress axis : x y z
#
# Youngs Moduli (GPa) = 72.09714 47.76191 87.15886
#
# Poissons Ratio (x) = 0.07414 0.41267
# Poissons Ratio (y) = 0.11191 0.32322
# Poissons Ratio (z) = 0.34136 0.17712
#
# Static dielectric constant tensor:
#      x y z
#    x 2.055190 -0.060620 0.025780 
#    y -0.060620 2.187560 -0.027220 
#    z 0.025780 -0.027220 2.024160 
# 
# From -- ./inp_files/422869.got.cif
#   From: 2010.05.17/outbox.cif.g08.bks.cpg/sg2_212_cif.got.tgz:422869.got - 2010.06.03 11:33:40.
