data_PCOD9002593
_publ_section_title
;
Structure prediction by ZEFSAII (Michael W. Deem and Ramdas Pophale) SiO2 
 PCOD9002593
Probable space group: P -1
;
_chemical_formula_sum "Si O2"
_cell_formula_units_Z 12
_cell_length_a 15.448172
_cell_length_b 5.383948
_cell_length_c 9.664012
_cell_angle_alpha 125.297404
_cell_angle_beta 44.723033
_cell_angle_gamma 111.260114
_cell_volume 460.012156
_symmetry_space_group_name_H-M "P -1"
_symmetry_group_IT_number 2
_symmetry_cell_setting 'triclinic'
loop_
_space_group_symop_operation_xyz
x,y,z
-x,-y,-z
loop_
_atom_site_type_symbol
_atom_site_label
_atom_site_fract_x
_atom_site_fract_y
_atom_site_fract_z
Si Si1 0.951964 0.696338 0.811813
Si Si2 0.644086 0.667481 0.391171
Si Si3 0.301861 0.931207 0.756195
Si Si4 0.150415 0.829411 0.392997
Si Si5 0.155268 0.485965 0.683276
Si Si6 0.429730 0.818138 0.137877
O O1 0.900848 0.367528 0.734471
O O2 0.059306 0.766791 0.603974
O O3 0.023885 0.667866 0.867300
O O4 0.832508 0.932415 0.996504
O O5 0.381520 0.686168 0.678670
O O6 0.789676 0.628253 0.266986
O O7 0.632651 0.791485 0.290093
O O8 0.588844 0.925547 0.639458
O O9 0.261572 0.713344 0.604695
O O10 0.293651 0.731868 0.221558
O O11 0.152475 0.193788 0.494881
O O12 0.500000 0.500000 0.000000
O O13 0.500000 0.000000 0.000000
#
# Coordination Sequence:
#
# PCOD9002593 Si02
#       6
#     2   2   2   2   2   2
#     4  11  22  37  60  93 138 163 189 253 325 382
#     4   9  21  37  60  93 120 153 217 251 292 362
#     4  10  21  36  62  90 131 163 199 243 311 379
#     4  10  24  39  58  96 128 161 208 256 310 371
#     4   9  19  33  57  85 125 161 196 242 292 370
#     4  11  23  42  69  87 117 164 218 263 296 350
#
# _framework density 26.086268
#
# number of rings (size 3 to 8) (size 9 to 14) (size 15 to 20)
#    1.000    1.000    0.000    4.000    7.000    1.333 
#    0.000    0.000    0.000    6.000    0.000    0.000 
#    0.000    0.000    0.000    0.000    0.000    0.000 
#
# Total GULP energy -66981.886079 kJ/mol
# GULP energy per Si atom -5581.823840 kJ/mol
# Density = 2.602689 g / cm^3
# Si number density = 26.086268 Si / 1000 Ang^3
#
#
#
# Elastic Constant Matrix: (Units=GPa)
#
#
# Indices 1 2 3 4 5 6 
#
# 1 76.7218 30.0367 12.3117 -0.2408 -26.7981 16.5028
# 2 30.0367 159.7588 48.1603 6.5124 -12.3189 -17.8902
# 3 12.3117 48.1603 111.3741 -4.9456 -26.7923 -20.0063
# 4 -0.2408 6.5124 -4.9456 52.4647 -6.0525 -10.8265
# 5 -26.7981 -12.3189 -26.7923 -6.0525 30.4116 4.9593
# 6 16.5028 -17.8902 -20.0063 -10.8265 4.9593 52.7709
#
#
#
# Elastic Compliance Matrix: (Units=1/GPa)
#
#
# Indices 1 2 3 4 5 6 
#
# 1 0.025900 -0.005289 0.003958 0.002024 0.026273 -0.010446
# 2 -0.005289 0.008414 -0.003834 -0.001381 -0.005440 0.003281
# 3 0.003958 -0.003834 0.014429 0.004079 0.015075 0.002353
# 4 0.002024 -0.001381 0.004079 0.021433 0.008423 0.004051
# 5 0.026273 -0.005440 0.015075 0.008423 0.070291 -0.009223
# 6 -0.010446 0.003281 0.002353 0.004051 -0.009223 0.025919
#
#
# Mechanical properties :
#
#
# Convention : Reuss Voigt Hill
#
# Bulk Modulus (GPa) = 26.03359 58.76357 42.39858
# Shear Modulus (GPa) = 26.38229 44.28582 35.33405
#
# Velocity S-wave (km/s) = 3.18362 4.12475 3.68436
# Velocity P-wave (km/s) = 4.84927 6.72757 5.86411
#
# Compressibility (1/GPa) = 0.03841191
#
# Stress axis : x y z
#
# Youngs Moduli (GPa) = 38.61037 118.85091 69.30270
#
# Poissons Ratio (x) = 0.62860 -0.27428
# Poissons Ratio (y) = 0.20421 0.26573
# Poissons Ratio (z) = -0.15281 0.45571
#
# Static dielectric constant tensor:
#      x y z
#    x 2.077680 -0.074660 -0.009130 
#    y -0.074660 2.158200 0.001000 
#    z -0.009130 0.001000 2.081720 
# 
# From -- ./inp_files/441375.got.cif
#   From: 2010.05.17/outbox.cif.g08.bks.cpg/sg2_221_cif.got.tgz:441375.got - 2010.06.03 11:33:40.
