data_PCOD9002058
_publ_section_title
;
Structure prediction by ZEFSAII (Michael W. Deem and Ramdas Pophale) SiO2 
 PCOD9002058
Probable space group: P -1
;
_chemical_formula_sum "Si O2"
_cell_formula_units_Z 16
_cell_length_a 10.941439
_cell_length_b 8.815386
_cell_length_c 17.333366
_cell_angle_alpha 148.958909
_cell_angle_beta 117.133311
_cell_angle_gamma 79.041206
_cell_volume 689.997061
_symmetry_space_group_name_H-M "P -1"
_symmetry_group_IT_number 2
_symmetry_cell_setting 'triclinic'
loop_
_space_group_symop_operation_xyz
x,y,z
-x,-y,-z
loop_
_atom_site_type_symbol
_atom_site_label
_atom_site_fract_x
_atom_site_fract_y
_atom_site_fract_z
Si Si1 0.325314 0.001688 0.211848
Si Si2 0.452096 0.642170 0.362165
Si Si3 0.560378 0.373676 0.155375
Si Si4 0.658396 0.334156 0.488412
Si Si5 0.933647 0.395182 0.145263
Si Si6 0.197096 0.157185 0.688094
Si Si7 0.730091 0.652131 0.029705
Si Si8 0.121058 0.144549 0.988075
O O1 0.506680 0.129005 0.305292
O O2 0.279241 0.285451 0.349710
O O3 0.235533 0.839401 0.037681
O O4 0.275941 0.707376 0.129612
O O5 0.576903 0.548253 0.319104
O O6 0.420796 0.659317 0.449848
O O7 0.294056 0.366120 0.162688
O O8 0.500000 0.000000 0.500000
O O9 0.707385 0.580562 0.236203
O O10 0.428244 0.384274 0.066994
O O11 0.500000 0.000000 0.000000
O O12 0.770185 0.160918 0.454568
O O13 0.948354 0.206878 0.143063
O O14 0.951190 0.762479 0.318050
O O15 0.035228 0.346370 0.086056
O O16 0.253072 0.240261 0.829732
O O17 0.864485 0.875954 0.108278
#
# Coordination Sequence:
#
# PCOD9002058 Si02
#       8
#     2   2   2   2   2   2   2   2
#     4  10  21  36  58  84 116 163 191 240 290 359
#     4  11  20  38  60  86 121 160 191 250 295 358
#     4  11  22  33  58  87 121 151 200 249 298 344
#     4  11  21  35  57  88 124 153 200 234 306 356
#     4  10  22  39  67  85 117 160 205 245 296 348
#     4  11  21  36  57  90 122 155 193 255 298 349
#     4  10  21  36  57  83 117 153 200 248 290 345
#     4  10  21  42  63  89 115 158 211 243 287 366
#
# _framework density 23.188503999999998
#
# number of rings (size 3 to 8) (size 9 to 14) (size 15 to 20)
#    0.000    1.500    3.750    2.625    3.500    3.000 
#    0.000    0.625    0.000    1.500    0.000    0.000 
#    0.000    0.000    0.000    0.000    0.000    0.000 
#
# Total GULP energy -89200.891805 kJ/mol
# GULP energy per Si atom -5575.055738 kJ/mol
# Density = 2.313573 g / cm^3
# Si number density = 23.188504 Si / 1000 Ang^3
#
#
#
# Elastic Constant Matrix: (Units=GPa)
#
#
# Indices 1 2 3 4 5 6 
#
# 1 75.3264 20.6565 6.7994 -4.6573 -23.7665 1.6807
# 2 20.6565 86.1131 1.6567 11.4157 -11.8518 0.0673
# 3 6.7994 1.6567 26.4816 -2.6956 -2.2786 4.7263
# 4 -4.6573 11.4157 -2.6956 28.3702 -1.5234 -17.7053
# 5 -23.7665 -11.8518 -2.2786 -1.5234 28.7263 2.8793
# 6 1.6807 0.0673 4.7263 -17.7053 2.8793 40.1836
#
#
#
# Elastic Compliance Matrix: (Units=1/GPa)
#
#
# Indices 1 2 3 4 5 6 
#
# 1 0.019417 -0.003331 -0.003121 0.005639 0.014642 0.000996
# 2 -0.003331 0.013923 0.000061 -0.008343 0.002929 -0.003777
# 3 -0.003121 0.000061 0.039481 0.000561 0.001040 -0.004340
# 4 0.005639 -0.008343 0.000561 0.054372 0.001792 0.023541
# 5 0.014642 0.002929 0.001040 0.001792 0.048656 -0.003437
# 6 0.000996 -0.003777 -0.004340 0.023541 -0.003437 0.035979
#
#
# Mechanical properties :
#
#
# Convention : Reuss Voigt Hill
#
# Bulk Modulus (GPa) = 16.65582 27.34957 22.00269
# Shear Modulus (GPa) = 20.43977 30.04327 25.24152
#
# Velocity S-wave (km/s) = 2.97216 3.60336 3.30288
# Velocity P-wave (km/s) = 4.35623 5.39744 4.90454
#
# Compressibility (1/GPa) = 0.06003907
#
# Stress axis : x y z
#
# Youngs Moduli (GPa) = 51.50196 71.82565 25.32873
#
# Poissons Ratio (x) = 0.23923 0.07905
# Poissons Ratio (y) = 0.17154 -0.00155
# Poissons Ratio (z) = 0.16074 -0.00439
#
# Static dielectric constant tensor:
#      x y z
#    x 1.979500 -0.025590 0.009240 
#    y -0.025590 1.919290 -0.001130 
#    z 0.009240 -0.001130 1.922300 
# 
# From -- ./inp_files/329266.got.cif
#   From: 2010.05.17/outbox.cif.g08.bks.cpg/sg2_165_cif.got.tgz:329266.got - 2010.06.03 11:33:40.
