data_PCOD9002518
_publ_section_title
;
Structure prediction by ZEFSAII (Michael W. Deem and Ramdas Pophale) SiO2 
 PCOD9002518
Probable space group: P -1
;
_chemical_formula_sum "Si O2"
_cell_formula_units_Z 15
_cell_length_a 4.858286
_cell_length_b 23.353514
_cell_length_c 9.219897
_cell_angle_alpha 132.856569
_cell_angle_beta 60.475055
_cell_angle_gamma 118.225272
_cell_volume 651.506534
_symmetry_space_group_name_H-M "P -1"
_symmetry_group_IT_number 2
_symmetry_cell_setting 'triclinic'
loop_
_space_group_symop_operation_xyz
x,y,z
-x,-y,-z
loop_
_atom_site_type_symbol
_atom_site_label
_atom_site_fract_x
_atom_site_fract_y
_atom_site_fract_z
Si Si1 0.773997 0.589213 0.249385
Si Si2 0.711920 0.744636 0.691773
Si Si3 0.500000 0.000000 0.000000
Si Si4 0.079897 0.895596 0.709771
Si Si5 0.608697 0.741046 0.048568
Si Si6 0.580492 0.112750 0.992508
Si Si7 0.493055 0.588781 0.015417
Si Si8 0.132091 0.845186 0.290843
O O1 0.658658 0.660154 0.482864
O O2 0.741451 0.596606 0.096927
O O3 0.152490 0.595098 0.189661
O O4 0.573085 0.500561 0.186247
O O5 0.429928 0.794622 0.827233
O O6 0.009361 0.806602 0.645345
O O7 0.734898 0.737495 0.845896
O O8 0.403906 0.948914 0.779989
O O9 0.198661 0.930308 0.042457
O O10 0.077640 0.887750 0.525080
O O11 0.747003 0.927462 0.893432
O O12 0.584594 0.658158 0.994394
O O13 0.269420 0.767718 0.167256
O O14 0.826983 0.811105 0.208730
O O15 0.613056 0.102719 0.797357
#
# Coordination Sequence:
#
# PCOD9002518 Si02
#       8
#     2   2   1   2   2   2   2   2
#     4  10  21  39  60  91 128 168 214 263 312 382
#     4   9  21  40  61  88 127 163 215 260 319 369
#     4  12  22  42  70  90 134 156 224 258 330 382
#     4  10  23  41  64  92 121 173 200 269 318 382
#     4  11  22  39  62  96 129 166 217 270 301 387
#     4   9  24  42  61  95 124 165 213 266 314 387
#     4  10  21  36  61  92 128 168 214 262 316 368
#     4  11  24  43  67  95 130 167 218 257 322 377
#
# _framework density 23.023558999999999
#
# number of rings (size 3 to 8) (size 9 to 14) (size 15 to 20)
#    0.800    1.067    0.000    3.600    1.867    4.267 
#    0.000    1.333    0.000    8.800    0.000    0.000 
#    0.000    0.000    0.000    0.000    0.000    0.000 
#
# Total GULP energy -83574.736076 kJ/mol
# GULP energy per Si atom -5571.649072 kJ/mol
# Density = 2.297116 g / cm^3
# Si number density = 23.023559 Si / 1000 Ang^3
#
#
#
# Elastic Constant Matrix: (Units=GPa)
#
#
# Indices 1 2 3 4 5 6 
#
# 1 64.4553 22.9025 16.6002 2.1424 11.9883 -1.7856
# 2 22.9025 142.5596 68.8788 -5.5948 14.2605 -30.0459
# 3 16.6002 68.8788 148.0200 -4.0721 23.8942 0.0390
# 4 2.1424 -5.5948 -4.0721 24.1376 2.1267 2.2367
# 5 11.9883 14.2605 23.8942 2.1267 26.2502 1.3319
# 6 -1.7856 -30.0459 0.0390 2.2367 1.3319 34.1555
#
#
#
# Elastic Compliance Matrix: (Units=1/GPa)
#
#
# Indices 1 2 3 4 5 6 
#
# 1 0.017625 -0.002537 0.000252 -0.001428 -0.006737 -0.000954
# 2 -0.002537 0.012413 -0.005216 0.001357 -0.001493 0.010763
# 3 0.000252 -0.005216 0.010247 0.001481 -0.006504 -0.004431
# 4 -0.001428 0.001357 0.001481 0.042683 -0.004815 -0.001490
# 5 -0.006737 -0.001493 -0.006504 -0.004815 0.048457 -0.003232
# 6 -0.000954 0.010763 -0.004431 -0.001490 -0.003232 0.038924
#
#
# Mechanical properties :
#
#
# Convention : Reuss Voigt Hill
#
# Bulk Modulus (GPa) = 39.55157 63.53309 51.54233
# Shear Modulus (GPa) = 25.80276 33.35221 29.57749
#
# Velocity S-wave (km/s) = 3.35133 3.81019 3.58811
# Velocity P-wave (km/s) = 5.67374 6.85649 6.29296
#
# Compressibility (1/GPa) = 0.02528345
#
# Stress axis : x y z
#
# Youngs Moduli (GPa) = 56.73758 80.55845 97.59267
#
# Poissons Ratio (x) = 0.20434 -0.02461
# Poissons Ratio (y) = 0.14392 0.50908
# Poissons Ratio (z) = -0.01431 0.42023
#
# Static dielectric constant tensor:
#      x y z
#    x 2.063160 -0.052090 -0.068830 
#    y -0.052090 2.015010 0.017640 
#    z -0.068830 0.017640 1.844950 
# 
# From -- ./inp_files/142344.got.cif
#   From: 2010.05.17/outbox.cif.g08.bks.cpg/sg2_72_cif.got.tgz:142344.got - 2010.06.03 11:33:40.
