data_PCOD9002452
_publ_section_title
;
Structure prediction by ZEFSAII (Michael W. Deem and Ramdas Pophale) SiO2 
 PCOD9002452
Probable space group: P -1
;
_chemical_formula_sum "Si O2"
_cell_formula_units_Z 14
_cell_length_a 19.888120
_cell_length_b 4.974357
_cell_length_c 7.866295
_cell_angle_alpha 60.980933
_cell_angle_beta 57.331565
_cell_angle_gamma 63.159791
_cell_volume 553.526356
_symmetry_space_group_name_H-M "P -1"
_symmetry_group_IT_number 2
_symmetry_cell_setting 'triclinic'
loop_
_space_group_symop_operation_xyz
x,y,z
-x,-y,-z
loop_
_atom_site_type_symbol
_atom_site_label
_atom_site_fract_x
_atom_site_fract_y
_atom_site_fract_z
Si Si1 0.626609 0.365191 0.197446
Si Si2 0.920363 0.880377 0.693283
Si Si3 0.715601 0.650259 0.247855
Si Si4 0.814771 0.048410 0.447417
Si Si5 0.652146 0.824916 0.720366
Si Si6 0.544139 0.520034 0.752768
Si Si7 0.874046 0.277183 0.973120
O O1 0.532598 0.348781 0.307342
O O2 0.690121 0.020922 0.202015
O O3 0.646419 0.575513 0.951179
O O4 0.786126 0.540148 0.038336
O O5 0.862262 0.952675 0.585110
O O6 0.881958 0.079536 0.850871
O O7 0.936781 0.502646 0.822964
O O8 0.000000 0.000000 0.500000
O O9 0.762327 0.417459 0.402873
O O10 0.608182 0.728920 0.642453
O O11 0.640779 0.533022 0.301701
O O12 0.744554 0.863570 0.570365
O O13 0.874474 0.044795 0.204671
O O14 0.593902 0.163428 0.752242
O O15 0.500000 0.500000 0.000000
#
# Coordination Sequence:
#
# PCOD9002452 Si02
#       7
#     2   2   2   2   2   2   2
#     4  11  19  39  67  99 142 195 248 308 364 426
#     4  12  26  49  81 114 144 194 238 290 374 447
#     4  10  23  41  65  99 146 188 240 296 368 417
#     4  10  28  48  73 111 151 189 251 302 363 445
#     4  11  22  40  67  99 142 195 248 303 364 435
#     4  10  21  36  61 102 141 187 251 311 364 416
#     4  10  26  47  73 109 153 185 241 298 368 423
#
# _framework density 25.292382
#
# number of rings (size 3 to 8) (size 9 to 14) (size 15 to 20)
#    0.857    0.571    0.000    6.429    0.000    9.143 
#    0.000    4.286    0.000    0.000    0.000    0.000 
#    0.000    0.000    0.000    0.000    0.000    0.000 
#
# Total GULP energy -78437.866633 kJ/mol
# GULP energy per Si atom -5602.704760 kJ/mol
# Density = 2.523482 g / cm^3
# Si number density = 25.292382 Si / 1000 Ang^3
#
#
#
# Elastic Constant Matrix: (Units=GPa)
#
#
# Indices 1 2 3 4 5 6 
#
# 1 106.2576 63.2312 45.5597 -3.2066 -13.4592 28.3260
# 2 63.2312 129.9830 55.0361 -9.0056 7.3813 32.4535
# 3 45.5597 55.0361 156.0185 -16.5519 1.4670 6.4415
# 4 -3.2066 -9.0056 -16.5519 33.1933 3.2635 6.3562
# 5 -13.4592 7.3813 1.4670 3.2635 37.6014 1.2953
# 6 28.3260 32.4535 6.4415 6.3562 1.2953 41.5094
#
#
#
# Elastic Compliance Matrix: (Units=1/GPa)
#
#
# Indices 1 2 3 4 5 6 
#
# 1 0.016718 -0.005838 -0.002710 -0.000809 0.007531 -0.006535
# 2 -0.005838 0.013812 -0.002441 0.003751 -0.004795 -0.006861
# 3 -0.002710 -0.002441 0.008299 0.002932 -0.001140 0.002056
# 4 -0.000809 0.003751 0.002932 0.034437 -0.003854 -0.007989
# 5 0.007531 -0.004795 -0.001140 -0.003854 0.030665 -0.001580
# 6 -0.006535 -0.006861 0.002056 -0.007989 -0.001580 0.034868
#
#
# Mechanical properties :
#
#
# Convention : Reuss Voigt Hill
#
# Bulk Modulus (GPa) = 59.33895 79.99033 69.66464
# Shear Modulus (GPa) = 30.04920 37.68961 33.86941
#
# Velocity S-wave (km/s) = 3.45058 3.86444 3.66336
# Velocity P-wave (km/s) = 6.27595 7.18379 6.74516
#
# Compressibility (1/GPa) = 0.01685234
#
# Stress axis : x y z
#
# Youngs Moduli (GPa) = 59.81456 72.40153 120.49922
#
# Poissons Ratio (x) = 0.42264 0.32651
# Poissons Ratio (y) = 0.34917 0.29417
# Poissons Ratio (z) = 0.16207 0.17675
#
# Static dielectric constant tensor:
#      x y z
#    x 2.005260 0.007350 -0.080550 
#    y 0.007350 1.937680 0.040300 
#    z -0.080550 0.040300 2.191340 
# 
# From -- ./inp_files/339605.got.cif
#   From: 2010.05.17/outbox.cif.g08.bks.cpg/sg2_170_cif.got.tgz:339605.got - 2010.06.03 11:33:40.
