data_PCOD9002173
_publ_section_title
;
Structure prediction by ZEFSAII (Michael W. Deem and Ramdas Pophale) SiO2 
 PCOD9002173
Probable space group: P -1
;
_chemical_formula_sum "Si O2"
_cell_formula_units_Z 16
_cell_length_a 5.446079
_cell_length_b 20.315505
_cell_length_c 9.824804
_cell_angle_alpha 116.147729
_cell_angle_beta 57.999810
_cell_angle_gamma 124.647077
_cell_volume 743.072461
_symmetry_space_group_name_H-M "P -1"
_symmetry_group_IT_number 2
_symmetry_cell_setting 'triclinic'
loop_
_space_group_symop_operation_xyz
x,y,z
-x,-y,-z
loop_
_atom_site_type_symbol
_atom_site_label
_atom_site_fract_x
_atom_site_fract_y
_atom_site_fract_z
Si Si1 0.668413 0.845596 0.003053
Si Si2 0.125049 0.843517 0.328956
Si Si3 0.646471 0.939514 0.847934
Si Si4 0.794936 0.921508 0.319589
Si Si5 0.075953 0.303372 0.545074
Si Si6 0.823842 0.380690 0.331280
Si Si7 0.092396 0.767074 0.753333
Si Si8 0.118173 0.461082 0.608248
O O1 0.792654 0.912817 0.909798
O O2 0.759678 0.774691 0.869127
O O3 0.305647 0.829676 0.130351
O O4 0.829812 0.877524 0.130561
O O5 0.423612 0.905123 0.393472
O O6 0.886550 0.879045 0.377849
O O7 0.969938 0.759129 0.378294
O O8 0.374933 0.854609 0.791729
O O9 0.925284 0.987949 0.701523
O O10 0.500000 0.000000 0.000000
O O11 0.439519 0.338516 0.416284
O O12 0.024921 0.383943 0.665310
O O13 0.861156 0.254047 0.434923
O O14 0.922598 0.307474 0.218366
O O15 0.944568 0.460223 0.271216
O O16 0.948084 0.419458 0.479242
O O17 0.500000 0.500000 0.500000
#
# Coordination Sequence:
#
# PCOD9002173 Si02
#       8
#     2   2   2   2   2   2   2   2
#     4  10  21  36  59  84 111 155 205 251 297 344
#     4  10  22  38  58  85 117 161 200 245 295 363
#     4  12  19  37  59  83 111 158 212 255 293 341
#     4  10  22  36  60  80 113 155 213 245 291 351
#     4  10  21  36  58  87 123 153 195 240 304 355
#     4   9  18  34  56  86 120 146 194 237 300 349
#     4  11  22  33  58  89 120 153 194 261 296 350
#     4   8  16  33  58  85 111 154 188 238 285 363
#
# _framework density 21.532219000000001
#
# number of rings (size 3 to 8) (size 9 to 14) (size 15 to 20)
#    0.750    1.250    2.500    1.125    5.250    0.000 
#    0.000    1.250    0.000    0.750    0.000   36.750 
#    0.000    0.000    0.000    0.000    0.000    0.000 
#
# Total GULP energy -89151.850981 kJ/mol
# GULP energy per Si atom -5571.990686 kJ/mol
# Density = 2.148321 g / cm^3
# Si number density = 21.532219 Si / 1000 Ang^3
#
#
#
# Elastic Constant Matrix: (Units=GPa)
#
#
# Indices 1 2 3 4 5 6 
#
# 1 115.7733 53.3996 14.6390 13.0615 6.0992 -17.6203
# 2 53.3996 128.0514 49.5956 24.0811 16.0390 -20.1295
# 3 14.6390 49.5956 9.6227 6.1456 -10.5082 -17.3859
# 4 13.0615 24.0811 6.1456 22.4242 -9.8295 -1.8523
# 5 6.0992 16.0390 -10.5082 -9.8295 20.9185 2.3834
# 6 -17.6203 -20.1295 -17.3859 -1.8523 2.3834 52.9864
#
#
#
# Elastic Compliance Matrix: (Units=1/GPa)
#
#
# Indices 1 2 3 4 5 6 
#
# 1 0.011069 -0.002529 -0.000393 -0.005277 -0.004262 0.002598
# 2 -0.002529 0.000856 0.020132 -0.000390 0.009367 0.005655
# 3 -0.000393 0.020132 -0.020978 -0.033920 -0.041951 0.001335
# 4 -0.005277 -0.000390 -0.033920 0.063403 0.015905 -0.011532
# 5 -0.004262 0.009367 -0.041951 0.015905 0.029679 -0.012402
# 6 0.002598 0.005655 0.001335 -0.011532 -0.012402 0.022478
#
#
# Mechanical properties :
#
#
# Convention : Reuss Voigt Hill
#
# Bulk Modulus (GPa) = 39.42128 54.30176 46.86152
# Shear Modulus (GPa) = 62.07896 28.32003 45.19949
#
# Velocity S-wave (km/s) = 5.37525 3.63056 4.58663
# Velocity P-wave (km/s) = 7.54137 6.54585 7.06118
#
# Compressibility (1/GPa) = 0.02536701
#
# Stress axis : x y z
#
# Youngs Moduli (GPa) = 90.34115 1168.61434 -47.66940
#
# Poissons Ratio (x) = 2.95557 -0.01874
# Poissons Ratio (y) = 0.22848 0.95969
# Poissons Ratio (z) = 0.03551 -23.52681
#
# Static dielectric constant tensor:
#      x y z
#    x 1.883390 -0.001320 0.001150 
#    y -0.001320 1.828320 0.036150 
#    z 0.001150 0.036150 1.790700 
# 
# From -- ./inp_files/369847.got.cif
#   From: 2010.05.17/outbox.cif.g08.bks.cpg/sg2_185_cif.got.tgz:369847.got - 2010.06.03 11:33:40.
