data_PCOD9002132
_publ_section_title
;
Structure prediction by ZEFSAII (Michael W. Deem and Ramdas Pophale) SiO2 
 PCOD9002132
Probable space group: P -1
;
_chemical_formula_sum "Si O2"
_cell_formula_units_Z 16
_cell_length_a 20.092592
_cell_length_b 10.314087
_cell_length_c 11.559874
_cell_angle_alpha 71.548668
_cell_angle_beta 147.897800
_cell_angle_gamma 128.938085
_cell_volume 844.471323
_symmetry_space_group_name_H-M "P -1"
_symmetry_group_IT_number 2
_symmetry_cell_setting 'triclinic'
loop_
_space_group_symop_operation_xyz
x,y,z
-x,-y,-z
loop_
_atom_site_type_symbol
_atom_site_label
_atom_site_fract_x
_atom_site_fract_y
_atom_site_fract_z
Si Si1 0.441234 0.143670 0.259195
Si Si2 0.043285 0.364177 0.959855
Si Si3 0.142729 0.511937 0.639689
Si Si4 0.413682 0.762209 0.147927
Si Si5 0.791716 0.114351 0.203651
Si Si6 0.575669 0.427729 0.568989
Si Si7 0.242133 0.861477 0.587474
Si Si8 0.772041 0.228452 0.785736
O O1 0.477728 0.306455 0.342152
O O2 0.631718 0.211432 0.509260
O O3 0.329634 0.954038 0.229862
O O4 0.324824 0.077372 0.992196
O O5 0.214619 0.400764 0.202286
O O6 0.118529 0.576723 0.031209
O O7 0.939370 0.262801 0.716348
O O8 0.900843 0.243794 0.887272
O O9 0.250845 0.703100 0.664179
O O10 0.000000 0.500000 0.500000
O O11 0.005223 0.296230 0.443548
O O12 0.286310 0.574357 0.927804
O O13 0.443233 0.709895 0.326546
O O14 0.594372 0.948381 0.296983
O O15 0.302569 0.814617 0.987119
O O16 0.765844 0.079465 0.313256
O O17 0.500000 0.500000 0.500000
#
# Coordination Sequence:
#
# PCOD9002132 Si02
#       8
#     2   2   2   2   2   2   2   2
#     4  10  18  32  50  75 106 130 165 209 259 309
#     4  10  18  32  52  77 106 131 167 210 257 308
#     4   8  15  26  44  73 103 127 151 192 255 313
#     4  10  18  31  49  74 104 134 169 210 251 299
#     4  10  17  28  51  80 106 129 157 203 265 318
#     4  11  23  37  52  68  98 145 183 212 247 295
#     4  10  17  27  49  79 107 130 158 203 262 318
#     4   9  18  30  52  79 103 131 159 212 271 304
#
# _framework density 18.946764999999999
#
# number of rings (size 3 to 8) (size 9 to 14) (size 15 to 20)
#    0.000    2.500    0.000    8.250    0.000    0.000 
#    0.000    3.750    0.000    3.750    0.000    0.000 
#    0.000    0.000    0.000    0.000    0.000    0.000 
#
# Total GULP energy -89163.386910 kJ/mol
# GULP energy per Si atom -5572.711682 kJ/mol
# Density = 1.890364 g / cm^3
# Si number density = 18.946765 Si / 1000 Ang^3
#
#
#
# Elastic Constant Matrix: (Units=GPa)
#
#
# Indices 1 2 3 4 5 6 
#
# 1 106.5462 21.0537 63.2606 10.5441 -9.9750 -3.8072
# 2 21.0537 18.8914 19.8629 12.1971 0.7515 11.4659
# 3 63.2606 19.8629 109.6661 34.6087 -34.1745 -8.4214
# 4 10.5441 12.1971 34.6087 21.3671 -3.6751 2.1946
# 5 -9.9750 0.7515 -34.1745 -3.6751 41.6148 6.8993
# 6 -3.8072 11.4659 -8.4214 2.1946 6.8993 27.1806
#
#
#
# Elastic Compliance Matrix: (Units=1/GPa)
#
#
# Indices 1 2 3 4 5 6 
#
# 1 0.029573 -0.044638 -0.029795 0.055464 -0.013791 0.012764
# 2 -0.044638 0.202998 0.025214 -0.125543 0.007842 -0.075927
# 3 -0.029795 0.025214 0.063872 -0.097408 0.035622 0.003802
# 4 0.055464 -0.125543 -0.097408 0.238349 -0.047243 0.023296
# 5 -0.013791 0.007842 0.035622 -0.047243 0.046006 -0.002066
# 6 0.012764 -0.075927 0.003802 0.023296 -0.002066 0.070430
#
#
# Mechanical properties :
#
#
# Convention : Reuss Voigt Hill
#
# Bulk Modulus (GPa) = 5.05040 49.27312 27.16176
# Shear Modulus (GPa) = 6.12996 26.76093 16.44545
#
# Velocity S-wave (km/s) = 1.80066 3.76230 2.94935
# Velocity P-wave (km/s) = 2.64472 6.70342 5.09560
#
# Compressibility (1/GPa) = 0.19800415
#
# Stress axis : x y z
#
# Youngs Moduli (GPa) = 33.81502 4.92617 15.65643
#
# Poissons Ratio (x) = 0.21990 0.46648
# Poissons Ratio (y) = 1.50945 -0.39477
# Poissons Ratio (z) = 1.00751 -0.12421
#
# Static dielectric constant tensor:
#      x y z
#    x 1.714450 -0.000160 -0.046550 
#    y -0.000160 1.677610 0.058060 
#    z -0.046550 0.058060 1.723340 
# 
# From -- ./inp_files/470742.got.cif
#   From: 2010.05.17/outbox.cif.g08.bks.cpg/sg2_236_cif.got.tgz:470742.got - 2010.06.03 11:33:40.
