data_PCOD9002048
_publ_section_title
;
Structure prediction by ZEFSAII (Michael W. Deem and Ramdas Pophale) SiO2 
 PCOD9002048
Probable space group: P -1
;
_chemical_formula_sum "Si O2"
_cell_formula_units_Z 16
_cell_length_a 17.906291
_cell_length_b 16.290329
_cell_length_c 5.507113
_cell_angle_alpha 120.181696
_cell_angle_beta 119.819444
_cell_angle_gamma 30.453233
_cell_volume 696.293509
_symmetry_space_group_name_H-M "P -1"
_symmetry_group_IT_number 2
_symmetry_cell_setting 'triclinic'
loop_
_space_group_symop_operation_xyz
x,y,z
-x,-y,-z
loop_
_atom_site_type_symbol
_atom_site_label
_atom_site_fract_x
_atom_site_fract_y
_atom_site_fract_z
Si Si1 0.166359 0.240564 0.804152
Si Si2 0.664477 0.529550 0.514362
Si Si3 0.623597 0.456368 0.852635
Si Si4 0.907642 0.364691 0.326019
Si Si5 0.075892 0.024235 0.042754
Si Si6 0.076544 0.503303 0.816149
Si Si7 0.301804 0.783369 0.671883
Si Si8 0.341631 0.902619 0.573584
O O1 0.178100 0.340521 0.899186
O O2 0.061048 0.279806 0.503255
O O3 0.307858 0.044595 0.745694
O O4 0.063868 0.330949 0.012660
O O5 0.662606 0.483286 0.710076
O O6 0.810339 0.455194 0.550145
O O7 0.511032 0.725132 0.515800
O O8 0.667265 0.452005 0.181157
O O9 0.444044 0.620337 0.809598
O O10 0.686301 0.296396 0.658400
O O11 0.953190 0.217716 0.101447
O O12 0.839515 0.490311 0.188367
O O13 0.214016 0.957524 0.299479
O O14 0.000000 0.000000 0.000000
O O15 0.147417 0.919389 0.758230
O O16 0.000000 0.500000 0.500000
O O17 0.325353 0.870696 0.765515
#
# Coordination Sequence:
#
# PCOD9002048 Si02
#       8
#     2   2   2   2   2   2   2   2
#     4   9  19  38  62  91 116 152 201 251 308 362
#     4  11  23  42  59  89 121 168 204 250 302 363
#     4  10  23  37  62  81 120 167 215 246 296 359
#     4  10  22  35  60  88 123 156 202 251 308 360
#     4  11  22  37  54  87 122 159 206 254 300 350
#     4   9  18  37  64  88 116 154 195 250 308 372
#     4  10  21  36  57  81 113 163 209 257 293 354
#     4  10  22  38  60  83 121 158 206 249 301 362
#
# _framework density 22.978812999999999
#
# number of rings (size 3 to 8) (size 9 to 14) (size 15 to 20)
#    0.000    2.000    1.250    1.500    5.250    2.000 
#    0.000    0.625    0.000    6.750    0.000    0.000 
#    0.000    0.000    0.000    0.000    0.000    0.000 
#
# Total GULP energy -89219.887799 kJ/mol
# GULP energy per Si atom -5576.242987 kJ/mol
# Density = 2.292651 g / cm^3
# Si number density = 22.978813 Si / 1000 Ang^3
#
#
#
# Elastic Constant Matrix: (Units=GPa)
#
#
# Indices 1 2 3 4 5 6 
#
# 1 113.4499 59.1258 23.5028 22.9021 -22.6119 21.3857
# 2 59.1258 108.6271 22.8669 33.6175 -8.1728 10.8988
# 3 23.5028 22.8669 74.2539 17.9479 -4.3655 9.6572
# 4 22.9021 33.6175 17.9479 38.4734 -5.7221 3.0205
# 5 -22.6119 -8.1728 -4.3655 -5.7221 39.1303 1.8636
# 6 21.3857 10.8988 9.6572 3.0205 1.8636 30.9100
#
#
#
# Elastic Compliance Matrix: (Units=1/GPa)
#
#
# Indices 1 2 3 4 5 6 
#
# 1 0.015972 -0.006554 -0.001094 -0.001402 0.007950 -0.008740
# 2 -0.006554 0.015796 -0.000527 -0.009972 -0.002016 0.000226
# 3 -0.001094 -0.000527 0.015890 -0.005982 0.000320 -0.003456
# 4 -0.001402 -0.009972 -0.005982 0.038424 0.001941 0.002483
# 5 0.007950 -0.002016 0.000320 0.001941 0.030377 -0.006911
# 6 -0.008740 0.000226 -0.003456 0.002483 -0.006911 0.039573
#
#
# Mechanical properties :
#
#
# Convention : Reuss Voigt Hill
#
# Bulk Modulus (GPa) = 31.94232 56.36912 44.15572
# Shear Modulus (GPa) = 27.34923 34.42510 30.88717
#
# Velocity S-wave (km/s) = 3.45366 3.87476 3.67025
# Velocity P-wave (km/s) = 5.46211 6.67851 6.10070
#
# Compressibility (1/GPa) = 0.03130643
#
# Stress axis : x y z
#
# Youngs Moduli (GPa) = 62.60945 63.30594 62.93181
#
# Poissons Ratio (x) = 0.41494 0.06886
# Poissons Ratio (y) = 0.41037 0.03319
# Poissons Ratio (z) = 0.06850 0.03339
#
# Static dielectric constant tensor:
#      x y z
#    x 1.984040 0.015580 0.038720 
#    y 0.015580 1.907680 -0.091160 
#    z 0.038720 -0.091160 1.921030 
# 
# From -- ./inp_files/119939.got.cif
#   From: 2010.05.17/outbox.cif.g08.bks.cpg/sg2_60_cif.got.tgz:119939.got - 2010.06.03 11:33:40.
