data_PCOD9002519
_publ_section_title
;
Structure prediction by ZEFSAII (Michael W. Deem and Ramdas Pophale) SiO2 
 PCOD9002519
Probable space group: P -1
;
_chemical_formula_sum "Si O2"
_cell_formula_units_Z 16
_cell_length_a 11.630864
_cell_length_b 26.512627
_cell_length_c 5.263743
_cell_angle_alpha 103.223465
_cell_angle_beta 114.573416
_cell_angle_gamma 31.120413
_cell_volume 734.431477
_symmetry_space_group_name_H-M "P -1"
_symmetry_group_IT_number 2
_symmetry_cell_setting 'triclinic'
loop_
_space_group_symop_operation_xyz
x,y,z
-x,-y,-z
loop_
_atom_site_type_symbol
_atom_site_label
_atom_site_fract_x
_atom_site_fract_y
_atom_site_fract_z
Si Si1 0.052162 0.421800 0.884743
Si Si2 0.374766 0.301031 0.524610
Si Si3 0.436720 0.401769 0.641395
Si Si4 0.203626 0.068020 0.039918
Si Si5 0.617842 0.498823 0.906574
Si Si6 0.827200 0.334334 0.699592
Si Si7 0.085356 0.938231 0.255613
Si Si8 0.775128 0.874292 0.391044
O O1 0.221111 0.355200 0.710389
O O2 0.773714 0.503597 0.640206
O O3 0.203365 0.347470 0.179143
O O4 0.000000 0.500000 0.000000
O O5 0.448635 0.335800 0.587254
O O6 0.621318 0.178957 0.615810
O O7 0.705518 0.332261 0.760495
O O8 0.339354 0.461089 0.880607
O O9 0.122466 0.134880 0.270819
O O10 0.490699 0.958196 0.252088
O O11 0.203627 0.094241 0.792662
O O12 0.052387 0.068646 0.889422
O O13 0.849194 0.383076 0.896769
O O14 0.392723 0.582739 0.605457
O O15 0.500000 0.500000 0.000000
O O16 0.067992 0.230290 0.664001
O O17 0.000000 0.000000 0.500000
O O18 0.000000 0.000000 0.000000
#
# Coordination Sequence:
#
# PCOD9002519 Si02
#       8
#     2   2   2   2   2   2   2   2
#     4  10  22  39  61  95 130 157 213 270 309 377
#     4  11  24  41  65  95 123 174 223 266 325 379
#     4  10  21  36  65  89 128 168 212 265 312 386
#     4  10  23  44  68 100 127 166 219 288 325 383
#     4   9  21  37  51  90 127 161 200 250 307 387
#     4  10  21  36  61  92 129 167 206 254 328 391
#     4  12  26  46  68  96 139 175 226 280 338 404
#     4  10  22  41  72  99 129 163 224 273 331 387
#
# _framework density 21.785558000000002
#
# number of rings (size 3 to 8) (size 9 to 14) (size 15 to 20)
#    0.000    1.750    0.000    3.750   10.500    0.000 
#    2.250    3.750    0.000    0.000    0.000    0.000 
#    0.000    0.000    0.000    0.000    0.000    0.000 
#
# Total GULP energy -89309.038766 kJ/mol
# GULP energy per Si atom -5581.814923 kJ/mol
# Density = 2.173597 g / cm^3
# Si number density = 21.785558 Si / 1000 Ang^3
#
#
#
# Elastic Constant Matrix: (Units=GPa)
#
#
# Indices 1 2 3 4 5 6 
#
# 1 46.5224 17.6796 24.6487 -10.4842 -7.4231 -5.2455
# 2 17.6796 168.6631 50.4139 -1.4405 -7.8595 -15.7923
# 3 24.6487 50.4139 125.8940 1.0244 -15.9859 -10.1924
# 4 -10.4842 -1.4405 1.0244 38.3013 -0.2900 -5.1975
# 5 -7.4231 -7.8595 -15.9859 -0.2900 31.8228 7.2253
# 6 -5.2455 -15.7923 -10.1924 -5.1975 7.2253 20.9400
#
#
#
# Elastic Compliance Matrix: (Units=1/GPa)
#
#
# Indices 1 2 3 4 5 6 
#
# 1 0.026930 -0.000887 -0.004209 0.008160 0.002873 0.005062
# 2 -0.000887 0.007129 -0.002415 0.000678 -0.000645 0.004370
# 3 -0.004209 -0.002415 0.010226 -0.001413 0.003416 0.000573
# 4 0.008160 0.000678 -0.001413 0.029678 -0.000505 0.009408
# 5 0.002873 -0.000645 0.003416 -0.000505 0.036070 -0.010675
# 6 0.005062 0.004370 0.000573 0.009408 -0.010675 0.058616
#
#
# Mechanical properties :
#
#
# Convention : Reuss Voigt Hill
#
# Bulk Modulus (GPa) = 34.17301 58.50710 46.34006
# Shear Modulus (GPa) = 25.84973 34.76864 30.30918
#
# Velocity S-wave (km/s) = 3.44838 3.99927 3.73399
# Velocity P-wave (km/s) = 5.61918 6.94548 6.31724
#
# Compressibility (1/GPa) = 0.02926286
#
# Stress axis : x y z
#
# Youngs Moduli (GPa) = 37.13287 140.28077 97.79191
#
# Poissons Ratio (x) = 0.12446 0.41162
# Poissons Ratio (y) = 0.03294 0.23613
# Poissons Ratio (z) = 0.15630 0.33872
#
# Static dielectric constant tensor:
#      x y z
#    x 1.954110 -0.021820 -0.028530 
#    y -0.021820 1.818500 0.037300 
#    z -0.028530 0.037300 1.836550 
# 
# From -- ./inp_files/84466.got.cif
#   From: 2010.05.17/outbox.cif.g08.bks.cpg/sg2_43_cif.got.tgz:84466.got - 2010.06.03 11:33:40.
