data_PCOD9002036
_publ_section_title
;
Structure prediction by ZEFSAII (Michael W. Deem and Ramdas Pophale) SiO2 
 PCOD9002036
Probable space group: P -1
;
_chemical_formula_sum "Si O2"
_cell_formula_units_Z 16
_cell_length_a 19.689670
_cell_length_b 8.719091
_cell_length_c 11.844746
_cell_angle_alpha 42.535153
_cell_angle_beta 140.143967
_cell_angle_gamma 132.087061
_cell_volume 854.931872
_symmetry_space_group_name_H-M "P -1"
_symmetry_group_IT_number 2
_symmetry_cell_setting 'triclinic'
loop_
_space_group_symop_operation_xyz
x,y,z
-x,-y,-z
loop_
_atom_site_type_symbol
_atom_site_label
_atom_site_fract_x
_atom_site_fract_y
_atom_site_fract_z
Si Si1 0.789436 0.341256 0.476339
Si Si2 0.378655 0.371974 0.877722
Si Si3 0.760929 0.875380 0.573072
Si Si4 0.000215 0.124695 0.200938
Si Si5 0.378396 0.006586 0.876329
Si Si6 0.208708 0.287210 0.891810
Si Si7 0.237096 0.503016 0.044793
Si Si8 0.001606 0.476496 0.200860
O O1 0.689806 0.437664 0.347435
O O2 0.806022 0.464157 0.307973
O O3 0.897892 0.442970 0.630266
O O4 0.762603 0.068371 0.567268
O O5 0.379665 0.190652 0.878327
O O6 0.308504 0.248223 0.963393
O O7 0.500000 0.500000 0.000000
O O8 0.681187 0.913373 0.351387
O O9 0.735565 0.621808 0.738374
O O10 0.883068 0.922961 0.652426
O O11 0.001265 0.237189 0.264994
O O12 0.900215 0.904630 0.172578
O O13 0.984560 0.321302 0.985490
O O14 0.500000 0.000000 0.000000
O O15 0.316258 0.749835 0.980193
O O16 0.234705 0.323543 0.035926
O O17 0.114854 0.538618 0.882633
#
# Coordination Sequence:
#
# PCOD9002036 Si02
#       8
#     2   2   2   2   2   2   2   2
#     4  10  21  36  60  90 117 164 199 248 301 357
#     4  10  22  41  62  89 120 158 204 252 306 356
#     4  11  23  40  64  92 125 162 202 250 306 363
#     4  10  21  36  56  89 127 161 202 250 302 364
#     4  12  24  43  68  89 122 156 206 258 300 362
#     4  10  21  36  60  90 117 164 199 248 301 357
#     4  11  23  40  64  92 125 162 202 250 306 363
#     4  10  21  36  56  89 127 161 202 250 302 364
#
# _framework density 18.714941
#
# number of rings (size 3 to 8) (size 9 to 14) (size 15 to 20)
#    0.750    0.750    1.250    4.500    1.750    4.000 
#    0.000    1.250    0.000    5.250    0.000    0.000 
#    0.000    0.000    0.000    0.000    0.000    0.000 
#
# Total GULP energy -89278.750187 kJ/mol
# GULP energy per Si atom -5579.921887 kJ/mol
# Density = 1.867234 g / cm^3
# Si number density = 18.714941 Si / 1000 Ang^3
#
#
#
# Elastic Constant Matrix: (Units=GPa)
#
#
# Indices 1 2 3 4 5 6 
#
# 1 139.1550 62.7959 64.3798 13.1554 13.8190 -8.6836
# 2 62.7959 116.9576 78.7905 22.5121 7.3826 -9.6460
# 3 64.3798 78.7905 97.9313 3.6098 8.5464 22.0640
# 4 13.1554 22.5121 3.6098 17.2394 -4.3688 7.9208
# 5 13.8190 7.3826 8.5464 -4.3688 27.9106 1.5645
# 6 -8.6836 -9.6460 22.0640 7.9208 1.5645 37.3058
#
#
#
# Elastic Compliance Matrix: (Units=1/GPa)
#
#
# Indices 1 2 3 4 5 6 
#
# 1 0.006153 -0.016674 0.011654 0.021807 0.002021 -0.014487
# 2 -0.016674 -0.024927 0.037854 0.062787 0.015704 -0.046704
# 3 0.011654 0.037854 -0.034614 -0.079575 -0.020483 0.050727
# 4 0.021807 0.062787 -0.079575 -0.066856 -0.018174 0.083331
# 5 0.002021 0.015704 -0.020483 -0.018174 0.033030 0.019119
# 6 -0.014487 -0.046704 0.050727 0.083331 0.019119 -0.037139
#
#
# Mechanical properties :
#
#
# Convention : Reuss Voigt Hill
#
# Bulk Modulus (GPa) = 81.43146 85.10847 83.26996
# Shear Modulus (GPa) = -26.89210 26.36299 -0.26455
#
# Velocity S-wave (km/s) = -3.79480 3.75728 -0.37639
# Velocity P-wave (km/s) = 4.94017 8.02483 6.66345
#
# Compressibility (1/GPa) = 0.01228027
#
# Stress axis : x y z
#
# Youngs Moduli (GPa) = 162.53061 -40.11706 -28.89013
#
# Poissons Ratio (x) = -0.66892 0.33669
# Poissons Ratio (y) = 2.71008 1.09362
# Poissons Ratio (z) = -1.89416 1.51861
#
# Static dielectric constant tensor:
#      x y z
#    x 1.646570 -0.008230 -0.018670 
#    y -0.008230 1.624430 -0.028570 
#    z -0.018670 -0.028570 1.665030 
# 
# From -- ./inp_files/469789.got.cif
#   From: 2010.05.17/outbox.cif.g08.bks.cpg/sg2_235_cif.got.tgz:469789.got - 2010.06.03 11:33:40.
