data_PCOD9002612
_publ_section_title
;
Structure prediction by ZEFSAII (Michael W. Deem and Ramdas Pophale) SiO2 
 PCOD9002612
Probable space group: P -1
;
_chemical_formula_sum "Si O2"
_cell_formula_units_Z 14
_cell_length_a 5.594335
_cell_length_b 5.550231
_cell_length_c 20.286018
_cell_angle_alpha 93.325489
_cell_angle_beta 82.966743
_cell_angle_gamma 121.928507
_cell_volume 530.543154
_symmetry_space_group_name_H-M "P -1"
_symmetry_group_IT_number 2
_symmetry_cell_setting 'triclinic'
loop_
_space_group_symop_operation_xyz
x,y,z
-x,-y,-z
loop_
_atom_site_type_symbol
_atom_site_label
_atom_site_fract_x
_atom_site_fract_y
_atom_site_fract_z
Si Si1 0.100134 0.868714 0.549537
Si Si2 0.672416 0.284264 0.580418
Si Si3 0.503688 0.318113 0.254670
Si Si4 0.402686 0.752014 0.947476
Si Si5 0.565789 0.232933 0.803262
Si Si6 0.023227 0.764138 0.308167
Si Si7 0.819700 0.584952 0.923373
O O1 0.258019 0.744414 0.498904
O O2 0.828046 0.617728 0.589303
O O3 0.336232 0.093003 0.594244
O O4 0.000000 0.000000 0.500000
O O5 0.829593 0.195785 0.625451
O O6 0.565881 0.577569 0.208249
O O7 0.698024 0.508598 0.312081
O O8 0.584211 0.094905 0.219598
O O9 0.171340 0.085969 0.279070
O O10 0.678158 0.763236 0.909939
O O11 0.154528 0.727588 0.910687
O O12 0.246179 0.474892 0.997021
O O13 0.500000 0.000000 0.000000
O O14 0.837895 0.358484 0.748383
O O15 0.669126 0.310982 0.876269
#
# Coordination Sequence:
#
# PCOD9002612 Si02
#       7
#     2   2   2   2   2   2   2
#     4  10  21  36  62  93 125 172 210 272 335 398
#     4  10  21  39  60  91 130 163 224 267 334 410
#     4  10  25  43  66  97 134 177 232 277 351 407
#     4  10  22  41  65  98 132 178 229 289 352 424
#     4  10  26  42  68  98 133 184 225 289 347 418
#     4  10  24  42  65  97 133 181 227 284 344 411
#     4  10  23  41  64  99 133 180 232 289 355 427
#
# _framework density 26.388051000000001
#
# number of rings (size 3 to 8) (size 9 to 14) (size 15 to 20)
#    0.857    1.143    0.000    1.714    6.000    2.286 
#    0.000    0.000    0.000    0.000    0.000    0.000 
#    0.000    0.000    0.000    0.000    0.000    0.000 
#
# Total GULP energy -78086.877328 kJ/mol
# GULP energy per Si atom -5577.634095 kJ/mol
# Density = 2.632799 g / cm^3
# Si number density = 26.388051 Si / 1000 Ang^3
#
#
#
# Elastic Constant Matrix: (Units=GPa)
#
#
# Indices 1 2 3 4 5 6 
#
# 1 143.1770 83.6413 23.7881 20.2177 27.1653 15.6005
# 2 83.6413 188.4052 43.7567 27.2459 19.4905 20.4405
# 3 23.7881 43.7567 89.7707 24.2900 2.8014 1.4092
# 4 20.2177 27.2459 24.2900 50.1350 7.7560 1.2041
# 5 27.1653 19.4905 2.8014 7.7560 26.9732 11.4053
# 6 15.6005 20.4405 1.4092 1.2041 11.4053 57.6668
#
#
#
# Elastic Compliance Matrix: (Units=1/GPa)
#
#
# Indices 1 2 3 4 5 6 
#
# 1 0.010909 -0.003761 -0.000581 -0.000842 -0.007961 -0.000012
# 2 -0.003761 0.008004 -0.002452 -0.001510 -0.000629 -0.001604
# 3 -0.000581 -0.002452 0.013910 -0.005547 0.002365 0.000334
# 4 -0.000842 -0.001510 -0.005547 0.024555 -0.005139 0.001402
# 5 -0.007961 -0.000629 0.002365 -0.005139 0.049928 -0.007449
# 6 -0.000012 -0.001604 0.000334 0.001402 -0.007449 0.019348
#
#
# Mechanical properties :
#
#
# Convention : Reuss Voigt Hill
#
# Bulk Modulus (GPa) = 51.98714 80.41389 66.20051
# Shear Modulus (GPa) = 34.09396 44.96611 39.53004
#
# Velocity S-wave (km/s) = 3.59837 4.13247 3.87464
# Velocity P-wave (km/s) = 6.08343 7.30134 6.72003
#
# Compressibility (1/GPa) = 0.01923553
#
# Stress axis : x y z
#
# Youngs Moduli (GPa) = 91.66854 124.93302 71.88996
#
# Poissons Ratio (x) = 0.46993 0.04176
# Poissons Ratio (y) = 0.34481 0.17624
# Poissons Ratio (z) = 0.05325 0.30628
#
# Static dielectric constant tensor:
#      x y z
#    x 2.227700 -0.002610 0.031600 
#    y -0.002610 2.099120 -0.008560 
#    z 0.031600 -0.008560 2.135980 
# 
# From -- ./inp_files/580465.got.cif
#   From: 2010.05.17/outbox.cif.g08.bks.cpg/sg2_291_cif.got.tgz:580465.got - 2010.06.03 11:33:40.
