data_PCOD9002991
_publ_section_title
;
Structure prediction by ZEFSAII (Michael W. Deem and Ramdas Pophale) SiO2 
 PCOD9002991
Probable space group: P -1
;
_chemical_formula_sum "Si O2"
_cell_formula_units_Z 16
_cell_length_a 5.359074
_cell_length_b 5.478183
_cell_length_c 25.821289
_cell_angle_alpha 106.021425
_cell_angle_beta 70.055856
_cell_angle_gamma 119.925760
_cell_volume 612.355454
_symmetry_space_group_name_H-M "P -1"
_symmetry_group_IT_number 2
_symmetry_cell_setting 'triclinic'
loop_
_space_group_symop_operation_xyz
x,y,z
-x,-y,-z
loop_
_atom_site_type_symbol
_atom_site_label
_atom_site_fract_x
_atom_site_fract_y
_atom_site_fract_z
Si Si1 0.280797 0.968003 0.151557
Si Si2 0.814395 0.965600 0.318886
Si Si3 0.637738 0.593078 0.655789
Si Si4 0.510753 0.212849 0.424495
Si Si5 0.339535 0.080109 0.786108
Si Si6 0.957939 0.329221 0.546483
Si Si7 0.742818 0.515454 0.123706
Si Si8 0.190410 0.316553 0.981284
O O1 0.445344 0.973296 0.193617
O O2 0.540028 0.185600 0.109184
O O3 0.011228 0.058526 0.181562
O O4 0.087498 0.648024 0.123970
O O5 0.730077 0.082678 0.383815
O O6 0.650186 0.977407 0.278407
O O7 0.155851 0.189971 0.303504
O O8 0.693798 0.629448 0.316648
O O9 0.641667 0.774788 0.616899
O O10 0.783793 0.399735 0.609845
O O11 0.710923 0.532891 0.446517
O O12 0.260080 0.998515 0.466853
O O13 0.406723 0.405916 0.812143
O O14 0.000000 0.500000 0.500000
O O15 0.736718 0.696062 0.085222
O O16 0.500000 0.500000 0.000000
O O17 0.000000 0.500000 0.000000
O O18 0.000000 0.000000 0.000000
#
# Coordination Sequence:
#
# PCOD9002991 Si02
#       8
#     2   2   2   2   2   2   2   2
#     4  10  25  40  68  94 135 168 223 270 335 386
#     4  10  23  37  59  85 119 154 203 252 308 380
#     4  10  22  39  57  84 117 153 201 247 310 371
#     4  10  21  37  57  83 114 155 191 250 303 371
#     4  10  26  41  67  95 131 172 219 270 331 391
#     4  10  21  37  56  85 114 148 197 247 301 372
#     4  10  26  43  69  97 137 172 229 276 338 403
#     4  12  28  46  76 106 144 191 240 295 363 425
#
# _framework density 26.128615
#
# number of rings (size 3 to 8) (size 9 to 14) (size 15 to 20)
#    0.750    1.000    0.000    2.250    8.750    1.000 
#    0.000    0.000    0.000    0.000    0.000    0.000 
#    0.000    0.000    0.000    0.000    0.000    0.000 
#
# Total GULP energy -89231.251917 kJ/mol
# GULP energy per Si atom -5576.953245 kJ/mol
# Density = 2.606915 g / cm^3
# Si number density = 26.128615 Si / 1000 Ang^3
#
#
#
# Elastic Constant Matrix: (Units=GPa)
#
#
# Indices 1 2 3 4 5 6 
#
# 1 113.8464 50.0519 32.0223 16.4998 19.7072 22.3401
# 2 50.0519 190.8959 30.8336 -8.3301 9.8224 35.9397
# 3 32.0223 30.8336 96.2079 9.3365 17.0886 12.7813
# 4 16.4998 -8.3301 9.3365 27.5656 -1.2336 10.0584
# 5 19.7072 9.8224 17.0886 -1.2336 53.1875 7.7568
# 6 22.3401 35.9397 12.7813 10.0584 7.7568 36.0108
#
#
#
# Elastic Compliance Matrix: (Units=1/GPa)
#
#
# Indices 1 2 3 4 5 6 
#
# 1 0.012488 -0.002865 -0.001704 -0.007386 -0.003508 -0.001464
# 2 -0.002865 0.008037 -0.001542 0.007708 0.001442 -0.008160
# 3 -0.001704 -0.001542 0.012388 -0.003755 -0.003140 -0.000075
# 4 -0.007386 0.007708 -0.003755 0.050905 0.006229 -0.017338
# 5 -0.003508 0.001442 -0.003140 0.006229 0.021652 -0.004552
# 6 -0.001464 -0.008160 -0.000075 -0.017338 -0.004552 0.042672
#
#
# Mechanical properties :
#
#
# Convention : Reuss Voigt Hill
#
# Bulk Modulus (GPa) = 48.33192 69.64065 58.98628
# Shear Modulus (GPa) = 29.89346 42.55559 36.22453
#
# Velocity S-wave (km/s) = 3.38611 4.04009 3.72747
# Velocity P-wave (km/s) = 5.81597 6.96233 6.41481
#
# Compressibility (1/GPa) = 0.02069026
#
# Stress axis : x y z
#
# Youngs Moduli (GPa) = 80.07865 124.42023 80.72543
#
# Poissons Ratio (x) = 0.35649 0.13754
# Poissons Ratio (y) = 0.22944 0.12450
# Poissons Ratio (z) = 0.13644 0.19189
#
# Static dielectric constant tensor:
#      x y z
#    x 2.158730 -0.030360 -0.121080 
#    y -0.030360 2.182540 0.071210 
#    z -0.121080 0.071210 2.112290 
# 
# From -- ./inp_files/614909.got.cif
#   From: 2010.05.17/outbox.cif.g08.bks.cpg/sg2_308_cif.got.tgz:614909.got - 2010.06.03 11:33:40.
