data_PCOD9002225
_publ_section_title
;
Structure prediction by ZEFSAII (Michael W. Deem and Ramdas Pophale) SiO2 
 PCOD9002225
Probable space group: P -1
;
_chemical_formula_sum "Si O2"
_cell_formula_units_Z 16
_cell_length_a 7.004947
_cell_length_b 12.475438
_cell_length_c 13.116707
_cell_angle_alpha 123.230901
_cell_angle_beta 90.853394
_cell_angle_gamma 129.331073
_cell_volume 614.519512
_symmetry_space_group_name_H-M "P -1"
_symmetry_group_IT_number 2
_symmetry_cell_setting 'triclinic'
loop_
_space_group_symop_operation_xyz
x,y,z
-x,-y,-z
loop_
_atom_site_type_symbol
_atom_site_label
_atom_site_fract_x
_atom_site_fract_y
_atom_site_fract_z
Si Si1 0.213959 0.911508 0.129149
Si Si2 0.208172 0.998934 0.953213
Si Si3 0.152213 0.551468 0.817376
Si Si4 0.231261 0.675499 0.673011
Si Si5 0.367954 0.369957 0.330392
Si Si6 0.866102 0.906604 0.286201
Si Si7 0.152895 0.274341 0.605732
Si Si8 0.274827 0.509757 0.012548
O O1 0.038175 0.929066 0.204068
O O2 0.995601 0.678034 0.017684
O O3 0.257458 0.941504 0.023980
O O4 0.561204 0.107203 0.262842
O O5 0.506572 0.223427 0.040585
O O6 0.000000 0.000000 0.000000
O O7 0.986218 0.821164 0.777754
O O8 0.082650 0.609841 0.750199
O O9 0.041359 0.361506 0.661781
O O10 0.110852 0.474655 0.892035
O O11 0.479543 0.691342 0.703218
O O12 0.000000 0.500000 0.500000
O O13 0.500000 0.500000 0.500000
O O14 0.503152 0.519546 0.314363
O O15 0.888571 0.821657 0.338915
O O16 0.513784 0.734587 0.172727
O O17 0.009962 0.112548 0.433070
O O18 0.500000 0.500000 0.000000
#
# Coordination Sequence:
#
# PCOD9002225 Si02
#       8
#     2   2   2   2   2   2   2   2
#     4  10  18  31  54  77 105 145 181 224 271 330
#     4  11  17  30  51  80 105 134 179 233 272 320
#     4  10  19  32  51  74 107 140 180 224 272 319
#     4  10  22  37  54  78 114 152 185 222 267 329
#     4  11  22  33  56  83 111 138 186 232 284 316
#     4  10  19  26  48  78 120 131 170 223 293 322
#     4  10  18  29  41  78 112 143 159 220 281 330
#     4  10  17  27  50  77 106 134 174 229 276 320
#
# _framework density 26.0366
#
# number of rings (size 3 to 8) (size 9 to 14) (size 15 to 20)
#    0.000    1.750    6.250    3.000    1.750    0.000 
#    0.000    0.625    0.000    3.000    0.000    3.500 
#    0.000    0.000    0.000    0.000    0.000    0.000 
#
# Total GULP energy -89150.743914 kJ/mol
# GULP energy per Si atom -5571.921495 kJ/mol
# Density = 2.597734 g / cm^3
# Si number density = 26.036600 Si / 1000 Ang^3
#
#
#
# Elastic Constant Matrix: (Units=GPa)
#
#
# Indices 1 2 3 4 5 6 
#
# 1 88.7351 16.4845 20.7417 13.9801 -4.5023 3.5831
# 2 16.4845 160.6835 23.9512 8.1590 7.9576 11.7669
# 3 20.7417 23.9512 177.5909 18.0992 1.6946 0.0283
# 4 13.9801 8.1590 18.0992 54.5686 4.5911 -3.4005
# 5 -4.5023 7.9576 1.6946 4.5911 32.6374 13.0533
# 6 3.5831 11.7669 0.0283 -3.4005 13.0533 21.6291
#
#
#
# Elastic Compliance Matrix: (Units=1/GPa)
#
#
# Indices 1 2 3 4 5 6 
#
# 1 0.012632 -0.000828 -0.001055 -0.003437 0.004422 -0.004850
# 2 -0.000828 0.006723 -0.000731 -0.000753 -0.000204 -0.003515
# 3 -0.001055 -0.000731 0.006015 -0.001566 -0.000246 0.000467
# 4 -0.003437 -0.000753 -0.001566 0.020882 -0.006396 0.008124
# 5 0.004422 -0.000204 -0.000246 -0.006396 0.043318 -0.027770
# 6 -0.004850 -0.003515 0.000467 0.008124 -0.027770 0.066985
#
#
# Mechanical properties :
#
#
# Convention : Reuss Voigt Hill
#
# Bulk Modulus (GPa) = 49.64785 61.04049 55.34417
# Shear Modulus (GPa) = 29.67429 46.15584 37.91506
#
# Velocity S-wave (km/s) = 3.37963 4.21495 3.82019
# Velocity P-wave (km/s) = 5.85995 6.86897 6.38443
#
# Compressibility (1/GPa) = 0.02014186
#
# Stress axis : x y z
#
# Youngs Moduli (GPa) = 79.16694 148.74358 166.26471
#
# Poissons Ratio (x) = 0.12316 0.17538
# Poissons Ratio (y) = 0.06555 0.12151
# Poissons Ratio (z) = 0.08351 0.10870
#
# Static dielectric constant tensor:
#      x y z
#    x 2.142980 0.075000 -0.194080 
#    y 0.075000 2.021960 0.058970 
#    z -0.194080 0.058970 2.039880 
# 
# From -- ./inp_files/520917.got.cif
#   From: 2010.05.17/outbox.cif.g08.bks.cpg/sg2_261_cif.got.tgz:520917.got - 2010.06.03 11:33:40.
