data_PCOD9002934
_publ_section_title
;
Structure prediction by ZEFSAII (Michael W. Deem and Ramdas Pophale) SiO2 
 PCOD9002934
Probable space group: P -1
;
_chemical_formula_sum "Si O2"
_cell_formula_units_Z 12
_cell_length_a 19.795308
_cell_length_b 4.992843
_cell_length_c 6.332808
_cell_angle_alpha 48.800025
_cell_angle_beta 107.067306
_cell_angle_gamma 115.166540
_cell_volume 426.152418
_symmetry_space_group_name_H-M "P -1"
_symmetry_group_IT_number 2
_symmetry_cell_setting 'triclinic'
loop_
_space_group_symop_operation_xyz
x,y,z
-x,-y,-z
loop_
_atom_site_type_symbol
_atom_site_label
_atom_site_fract_x
_atom_site_fract_y
_atom_site_fract_z
Si Si1 0.442001 0.920004 0.711947
Si Si2 0.792553 0.094851 0.489132
Si Si3 0.937159 0.522352 0.616559
Si Si4 0.594295 0.917090 0.867083
Si Si5 0.909864 0.269778 0.172550
Si Si6 0.701253 0.580123 0.005439
O O1 0.528435 0.101174 0.759326
O O2 0.417228 0.101743 0.393292
O O3 0.436540 0.500039 0.844467
O O4 0.374161 0.794958 0.886105
O O5 0.866460 0.182748 0.654592
O O6 0.829373 0.122477 0.279504
O O7 0.733652 0.733362 0.727575
O O8 0.755311 0.423456 0.274472
O O9 0.022994 0.531315 0.704129
O O10 0.929529 0.900821 0.315836
O O11 0.917740 0.534067 0.843573
O O12 0.680721 0.916944 0.931523
#
# Coordination Sequence:
#
# PCOD9002934 Si02
#       6
#     2   2   2   2   2   2
#     4   8  13  24  40  62 104 141 167 210 249 297
#     4  12  21  32  57  82 108 138 172 222 275 310
#     4  10  22  40  57  76 105 141 181 218 258 319
#     4   8  13  24  40  62 104 141 167 210 249 297
#     4  10  22  40  57  76 105 141 181 218 258 319
#     4  10  17  28  43  80 112 132 170 222 261 308
#
# _framework density 28.158936000000001
#
# number of rings (size 3 to 8) (size 9 to 14) (size 15 to 20)
#    1.000    1.333    1.667    2.500    0.000    0.000 
#    0.000    6.667    0.000    0.000    0.000    0.000 
#    0.000  106.667    0.000    0.000    0.000    0.000 
#
# Total GULP energy -66833.806753 kJ/mol
# GULP energy per Si atom -5569.483896 kJ/mol
# Density = 2.809484 g / cm^3
# Si number density = 28.158936 Si / 1000 Ang^3
#
#
#
# Elastic Constant Matrix: (Units=GPa)
#
#
# Indices 1 2 3 4 5 6 
#
# 1 189.7685 25.3036 41.4588 -12.9865 -12.0443 13.7997
# 2 25.3036 51.0388 -8.2060 -13.6147 17.0241 6.3226
# 3 41.4588 -8.2060 102.9754 -40.8612 7.8266 20.9912
# 4 -12.9865 -13.6147 -40.8612 15.9173 25.5130 12.9963
# 5 -12.0443 17.0241 7.8266 25.5130 54.5424 -14.6070
# 6 13.7997 6.3226 20.9912 12.9963 -14.6070 35.8677
#
#
#
# Elastic Compliance Matrix: (Units=1/GPa)
#
#
# Indices 1 2 3 4 5 6 
#
# 1 0.006136 -0.002052 -0.000895 0.003056 0.000003 -0.002581
# 2 -0.002052 0.014476 -0.004702 -0.012599 0.003462 0.006964
# 3 -0.000895 -0.004702 0.003939 -0.010353 0.007014 0.005476
# 4 0.003056 -0.012599 -0.010353 -0.009175 0.014791 0.016452
# 5 0.000003 0.003462 0.007014 0.014791 0.007443 -0.007044
# 6 -0.002581 0.006964 0.005476 0.016452 -0.007044 0.015611
#
#
# Mechanical properties :
#
#
# Convention : Reuss Voigt Hill
#
# Bulk Modulus (GPa) = 108.08026 51.21061 79.64544
# Shear Modulus (GPa) = 88.00853 40.28058 64.14456
#
# Velocity S-wave (km/s) = 5.59661 3.78626 4.77796
# Velocity P-wave (km/s) = 8.95703 6.11066 7.66709
#
# Compressibility (1/GPa) = 0.00925238
#
# Stress axis : x y z
#
# Youngs Moduli (GPa) = 162.97900 69.08021 253.85286
#
# Poissons Ratio (x) = 0.14174 0.22722
# Poissons Ratio (y) = 0.33440 1.19372
# Poissons Ratio (z) = 0.14588 0.32484
#
# Static dielectric constant tensor:
#      x y z
#    x 2.334870 -0.040900 -0.122350 
#    y -0.040900 2.537870 0.264340 
#    z -0.122350 0.264340 2.163840 
# 
# From -- ./inp_files/12640.got.cif
#   From: 2010.05.17/outbox.cif.g08.bks.cpg/sg2_7_cif.got.tgz:12640.got - 2010.06.03 11:33:40.
