data_PCOD9002158
_publ_section_title
;
Structure prediction by ZEFSAII (Michael W. Deem and Ramdas Pophale) SiO2 
 PCOD9002158
Probable space group: P -1
;
_chemical_formula_sum "Si O2"
_cell_formula_units_Z 14
_cell_length_a 17.440545
_cell_length_b 9.534876
_cell_length_c 11.246117
_cell_angle_alpha 76.804107
_cell_angle_beta 43.549173
_cell_angle_gamma 44.523426
_cell_volume 724.755449
_symmetry_space_group_name_H-M "P -1"
_symmetry_group_IT_number 2
_symmetry_cell_setting 'triclinic'
loop_
_space_group_symop_operation_xyz
x,y,z
-x,-y,-z
loop_
_atom_site_type_symbol
_atom_site_label
_atom_site_fract_x
_atom_site_fract_y
_atom_site_fract_z
Si Si1 0.899886 0.246330 0.748947
Si Si2 0.598624 0.301841 0.075040
Si Si3 0.026490 0.130959 0.891943
Si Si4 0.551293 0.826231 0.072637
Si Si5 0.349224 0.951069 0.707934
Si Si6 0.316176 0.283302 0.790089
Si Si7 0.288246 0.866589 0.271707
O O1 0.769235 0.241044 0.897789
O O2 0.022462 0.120810 0.756715
O O3 0.745641 0.538283 0.868566
O O4 0.060081 0.090886 0.497349
O O5 0.643884 0.164937 0.931587
O O6 0.596444 0.209591 0.212728
O O7 0.399390 0.599594 0.225442
O O8 0.212948 0.007043 0.762220
O O9 0.851378 0.422871 0.064088
O O10 0.000000 0.000000 0.000000
O O11 0.588605 0.838712 0.162882
O O12 0.379511 0.890310 0.250251
O O13 0.500000 0.000000 0.000000
O O14 0.530936 0.812434 0.455233
O O15 0.253235 0.195726 0.825051
#
# Coordination Sequence:
#
# PCOD9002158 Si02
#       7
#     2   2   2   2   2   2   2
#     4  10  21  38  57  88 116 149 199 245 288 352
#     4  10  21  36  58  85 117 156 192 245 293 346
#     4  11  22  38  60  88 119 154 195 244 293 349
#     4  10  21  40  60  83 117 153 197 244 291 347
#     4  11  22  40  61  85 122 159 195 242 300 348
#     4  10  24  40  59  90 120 155 200 242 293 359
#     4  10  21  37  57  86 117 150 201 244 288 350
#
# _framework density 19.316860999999999
#
# number of rings (size 3 to 8) (size 9 to 14) (size 15 to 20)
#    0.000    1.714    1.429    2.571    2.000    1.143 
#    0.000    4.286    0.000    0.000    0.000    0.000 
#    0.000    0.000    0.000    0.000    0.000    0.000 
#
# Total GULP energy -78179.798774 kJ/mol
# GULP energy per Si atom -5584.271341 kJ/mol
# Density = 1.927289 g / cm^3
# Si number density = 19.316861 Si / 1000 Ang^3
#
#
#
# Elastic Constant Matrix: (Units=GPa)
#
#
# Indices 1 2 3 4 5 6 
#
# 1 54.7959 -6.9160 -12.4767 -7.1855 -11.8746 -5.0165
# 2 -6.9160 81.8061 14.7211 -17.0782 -2.2882 -17.8467
# 3 -12.4767 14.7211 64.0217 -5.4306 -4.6870 -3.0988
# 4 -7.1855 -17.0782 -5.4306 14.0826 -0.1788 2.4544
# 5 -11.8746 -2.2882 -4.6870 -0.1788 24.9669 -3.7269
# 6 -5.0165 -17.8467 -3.0988 2.4544 -3.7269 32.1115
#
#
#
# Elastic Compliance Matrix: (Units=1/GPa)
#
#
# Indices 1 2 3 4 5 6 
#
# 1 0.030186 0.010121 0.007917 0.029040 0.018628 0.011047
# 2 0.010121 0.022355 0.000701 0.030428 0.009123 0.012806
# 3 0.007917 0.000701 0.018736 0.011611 0.007948 0.003469
# 4 0.029040 0.030428 0.011611 0.124768 0.022000 0.015585
# 5 0.018628 0.009123 0.007948 0.022000 0.053378 0.013261
# 6 0.011047 0.012806 0.003469 0.015585 0.013261 0.040667
#
#
# Mechanical properties :
#
#
# Convention : Reuss Voigt Hill
#
# Bulk Modulus (GPa) = 9.19506 21.25340 15.22423
# Shear Modulus (GPa) = 17.30919 27.91854 22.61386
#
# Velocity S-wave (km/s) = 2.99668 3.80583 3.42523
# Velocity P-wave (km/s) = 4.09194 5.50807 4.85195
#
# Compressibility (1/GPa) = 0.10875402
#
# Stress axis : x y z
#
# Youngs Moduli (GPa) = 33.12834 44.73320 53.37272
#
# Poissons Ratio (x) = -0.45273 -0.42256
# Poissons Ratio (y) = -0.33528 -0.03741
# Poissons Ratio (z) = -0.26228 -0.03135
#
# Static dielectric constant tensor:
#      x y z
#    x 1.723920 0.000840 0.047150 
#    y 0.000840 1.645700 -0.002070 
#    z 0.047150 -0.002070 1.708710 
# 
# From -- ./inp_files/40265.got.cif
#   From: 2010.05.17/outbox.cif.g08.bks.cpg/sg2_21_cif.got.tgz:40265.got - 2010.06.03 11:33:40.
