data_PCOD9002177
_publ_section_title
;
Structure prediction by ZEFSAII (Michael W. Deem and Ramdas Pophale) SiO2 
 PCOD9002177
Probable space group: P -1
;
_chemical_formula_sum "Si O2"
_cell_formula_units_Z 12
_cell_length_a 9.085710
_cell_length_b 7.090959
_cell_length_c 14.854010
_cell_angle_alpha 80.422695
_cell_angle_beta 34.392880
_cell_angle_gamma 65.666493
_cell_volume 463.670715
_symmetry_space_group_name_H-M "P -1"
_symmetry_group_IT_number 2
_symmetry_cell_setting 'triclinic'
loop_
_space_group_symop_operation_xyz
x,y,z
-x,-y,-z
loop_
_atom_site_type_symbol
_atom_site_label
_atom_site_fract_x
_atom_site_fract_y
_atom_site_fract_z
Si Si1 0.022226 0.353793 0.202686
Si Si2 0.613600 0.445857 0.067315
Si Si3 0.352843 0.739283 0.743852
Si Si4 0.903070 0.298390 0.461257
Si Si5 0.647076 0.999830 0.587336
Si Si6 0.997396 0.269767 0.731146
O O1 0.067006 0.238909 0.286130
O O2 0.844902 0.611115 0.305162
O O3 0.853825 0.275202 0.227198
O O4 0.259991 0.555613 0.220861
O O5 0.709916 0.338294 0.123574
O O6 0.780376 0.266227 0.918805
O O7 0.708297 0.632629 0.985023
O O8 0.360813 0.965373 0.732079
O O9 0.136474 0.171000 0.431977
O O10 0.696422 0.556905 0.561375
O O11 0.656463 0.216858 0.592353
O O12 0.791483 0.931201 0.420514
#
# Coordination Sequence:
#
# PCOD9002177 Si02
#       6
#     2   2   2   2   2   2
#     4  10  21  36  58  89 113 152 185 227 294 335
#     4   9  19  35  63  82 110 156 189 226 283 335
#     4  12  20  38  62  84 120 145 184 241 283 338
#     4  11  23  38  58  87 113 150 196 229 280 340
#     4  11  23  38  60  86 111 152 193 236 278 328
#     4   9  18  37  58  85 108 150 192 224 278 333
#
# _framework density 25.880437000000001
#
# number of rings (size 3 to 8) (size 9 to 14) (size 15 to 20)
#    1.000    0.667    3.333    2.500    0.000    0.667 
#    0.000    2.500    0.000    3.000    0.000    0.000 
#    0.000    0.000    0.000    0.000    0.000    0.000 
#
# Total GULP energy -67047.579491 kJ/mol
# GULP energy per Si atom -5587.298291 kJ/mol
# Density = 2.582153 g / cm^3
# Si number density = 25.880437 Si / 1000 Ang^3
#
#
#
# Elastic Constant Matrix: (Units=GPa)
#
#
# Indices 1 2 3 4 5 6 
#
# 1 146.0829 38.2217 60.2501 -8.1202 2.9199 33.5466
# 2 38.2217 81.7009 17.1861 -29.5642 -13.1946 20.3416
# 3 60.2501 17.1861 115.1658 -21.6318 20.3260 12.8538
# 4 -8.1202 -29.5642 -21.6318 43.3799 10.9023 -13.1792
# 5 2.9199 -13.1946 20.3260 10.9023 53.7744 -0.0209
# 6 33.5466 20.3416 12.8538 -13.1792 -0.0209 38.2432
#
#
#
# Elastic Compliance Matrix: (Units=1/GPa)
#
#
# Indices 1 2 3 4 5 6 
#
# 1 0.012229 -0.004441 -0.006489 -0.007138 0.002143 -0.008642
# 2 -0.004441 0.019249 0.001626 0.011740 0.001969 -0.002843
# 3 -0.006489 0.001626 0.014493 0.009823 -0.006717 0.003338
# 4 -0.007138 0.011740 0.009823 0.039944 -0.008539 0.010476
# 5 0.002143 0.001969 -0.006717 -0.008539 0.023232 -0.003599
# 6 -0.008642 -0.002843 0.003338 0.010476 -0.003599 0.037728
#
#
# Mechanical properties :
#
#
# Convention : Reuss Voigt Hill
#
# Bulk Modulus (GPa) = 36.54609 63.80725 50.17667
# Shear Modulus (GPa) = 28.63614 42.23226 35.43420
#
# Velocity S-wave (km/s) = 3.32999 4.04396 3.70422
# Velocity P-wave (km/s) = 5.37930 6.82004 6.14206
#
# Compressibility (1/GPa) = 0.02736271
#
# Stress axis : x y z
#
# Youngs Moduli (GPa) = 81.77415 51.95035 68.99645
#
# Poissons Ratio (x) = 0.23070 0.44773
# Poissons Ratio (y) = 0.36315 -0.11217
# Poissons Ratio (z) = 0.53065 -0.08445
#
# Static dielectric constant tensor:
#      x y z
#    x 2.013380 -0.050400 0.011330 
#    y -0.050400 2.052930 -0.052140 
#    z 0.011330 -0.052140 2.075090 
# 
# From -- ./inp_files/265765.got.cif
#   From: 2010.05.17/outbox.cif.g08.bks.cpg/sg2_133_cif.got.tgz:265765.got - 2010.06.03 11:33:40.
