data_PCOD9002026
_publ_section_title
;
Structure prediction by ZEFSAII (Michael W. Deem and Ramdas Pophale) SiO2 
 PCOD9002026
Probable space group: P -1
;
_chemical_formula_sum "Si O2"
_cell_formula_units_Z 12
_cell_length_a 11.149425
_cell_length_b 6.337485
_cell_length_c 11.115709
_cell_angle_alpha 101.288596
_cell_angle_beta 39.225671
_cell_angle_gamma 111.690222
_cell_volume 456.005475
_symmetry_space_group_name_H-M "P -1"
_symmetry_group_IT_number 2
_symmetry_cell_setting 'triclinic'
loop_
_space_group_symop_operation_xyz
x,y,z
-x,-y,-z
loop_
_atom_site_type_symbol
_atom_site_label
_atom_site_fract_x
_atom_site_fract_y
_atom_site_fract_z
Si Si1 0.311040 0.681435 0.156074
Si Si2 0.444356 0.118050 0.235234
Si Si3 0.044386 0.257830 0.200885
Si Si4 0.715801 0.525330 0.190781
Si Si5 0.379265 0.733277 0.522893
Si Si6 0.035406 0.131748 0.616451
O O1 0.214949 0.409911 0.181174
O O2 0.112064 0.728073 0.267673
O O3 0.380455 0.844360 0.236643
O O4 0.498855 0.779629 0.930974
O O5 0.643104 0.263027 0.168059
O O6 0.276517 0.204551 0.434057
O O7 0.819637 0.265450 0.392994
O O8 0.111438 0.331549 0.020489
O O9 0.026061 0.005488 0.227097
O O10 0.551941 0.652758 0.321464
O O11 0.722006 0.464706 0.318827
O O12 0.500000 0.000000 0.500000
O O13 0.000000 0.000000 0.500000
#
# Coordination Sequence:
#
# PCOD9002026 Si02
#       6
#     2   2   2   2   2   2
#     4   9  20  38  60  88 122 157 199 249 303 365
#     4   9  18  38  61  84 120 157 194 246 302 358
#     4  11  23  39  63  92 123 162 202 249 306 362
#     4  10  23  42  63  92 123 157 206 254 302 363
#     4  11  24  42  65  90 120 161 207 256 306 357
#     4  10  21  36  56  87 123 161 202 243 293 357
#
# _framework density 26.315477000000001
#
# number of rings (size 3 to 8) (size 9 to 14) (size 15 to 20)
#    0.000    2.000    0.000    2.500    0.000    8.667 
#    0.000   24.167    0.000    0.000    0.000    0.000 
#    0.000    0.000    0.000    0.000    0.000    0.000 
#
# Total GULP energy -66870.878260 kJ/mol
# GULP energy per Si atom -5572.573188 kJ/mol
# Density = 2.625558 g / cm^3
# Si number density = 26.315477 Si / 1000 Ang^3
#
#
#
# Elastic Constant Matrix: (Units=GPa)
#
#
# Indices 1 2 3 4 5 6 
#
# 1 17.6151 11.5093 9.8225 -6.1781 23.2910 -6.1677
# 2 11.5093 80.4919 35.3681 -4.1892 -0.1488 17.4468
# 3 9.8225 35.3681 174.7415 -8.3161 19.3500 -6.9185
# 4 -6.1781 -4.1892 -8.3161 37.9696 -2.8319 -3.1146
# 5 23.2910 -0.1488 19.3500 -2.8319 12.2368 -6.3785
# 6 -6.1677 17.4468 -6.9185 -3.1146 -6.3785 37.3397
#
#
#
# Elastic Compliance Matrix: (Units=1/GPa)
#
#
# Indices 1 2 3 4 5 6 
#
# 1 -0.027241 0.006530 -0.006769 -0.000281 0.063631 0.002041
# 2 0.006530 0.014168 -0.002084 0.000529 -0.013070 -0.008116
# 3 -0.006769 -0.002084 0.006158 0.000469 0.004138 0.001742
# 4 -0.000281 0.000529 0.000469 0.027323 0.007908 0.003423
# 5 0.063631 -0.013070 0.004138 0.007908 -0.038266 0.011507
# 6 0.002041 -0.008116 0.001742 0.003423 0.011507 0.033484
#
#
# Mechanical properties :
#
#
# Convention : Reuss Voigt Hill
#
# Bulk Modulus (GPa) = -86.50360 42.91645 -21.79358
# Shear Modulus (GPa) = 304.53762 31.91914 168.22838
#
# Velocity S-wave (km/s) = 10.76926 3.48651 8.00414
# Velocity P-wave (km/s) = 11.03144 5.70539 8.78192
#
# Compressibility (1/GPa) = -0.01156021
#
# Stress axis : x y z
#
# Youngs Moduli (GPa) = -36.70987 70.58203 162.38906
#
# Poissons Ratio (x) = -0.46090 1.09924
# Poissons Ratio (y) = 0.23971 0.33834
# Poissons Ratio (z) = -0.24850 0.14706
#
# Static dielectric constant tensor:
#      x y z
#    x 2.142410 0.098230 -0.010650 
#    y 0.098230 2.227560 0.009040 
#    z -0.010650 0.009040 2.069760 
# 
# From -- ./inp_files/29117.got.cif
#   From: 2010.05.17/outbox.cif.g08.bks.cpg/sg2_15_cif.got.tgz:29117.got - 2010.06.03 11:33:40.
