data_PCOD9002466
_publ_section_title
;
Structure prediction by ZEFSAII (Michael W. Deem and Ramdas Pophale) SiO2 
 PCOD9002466
Probable space group: P -1
;
_chemical_formula_sum "Si O2"
_cell_formula_units_Z 16
_cell_length_a 5.131193
_cell_length_b 5.303879
_cell_length_c 26.620453
_cell_angle_alpha 95.307843
_cell_angle_beta 92.091161
_cell_angle_gamma 61.400892
_cell_volume 633.335296
_symmetry_space_group_name_H-M "P -1"
_symmetry_group_IT_number 2
_symmetry_cell_setting 'triclinic'
loop_
_space_group_symop_operation_xyz
x,y,z
-x,-y,-z
loop_
_atom_site_type_symbol
_atom_site_label
_atom_site_fract_x
_atom_site_fract_y
_atom_site_fract_z
Si Si1 0.627373 0.913035 0.700225
Si Si2 0.105589 0.419720 0.825657
Si Si3 0.732326 0.243440 0.560014
Si Si4 0.570253 0.220475 0.138145
Si Si5 0.874281 0.353476 0.458613
Si Si6 0.737734 0.372361 0.733733
Si Si7 0.663464 0.182559 0.019769
Si Si8 0.931511 0.656580 0.353960
O O1 0.522223 0.707787 0.726083
O O2 0.935599 0.665463 0.673604
O O3 0.645670 0.134876 0.744091
O O4 0.393012 0.109035 0.660246
O O5 0.786377 0.614138 0.854425
O O6 0.990909 0.372690 0.770165
O O7 0.289769 0.596443 0.830057
O O8 0.287094 0.107712 0.847242
O O9 0.730097 0.231470 0.498484
O O10 0.398324 0.461607 0.576056
O O11 0.954996 0.337636 0.589278
O O12 0.858624 0.915840 0.569747
O O13 0.649605 0.215165 0.080242
O O14 0.000000 0.500000 0.500000
O O15 0.866486 0.250473 0.677178
O O16 0.500000 0.500000 0.000000
O O17 0.500000 0.000000 0.000000
O O18 0.000000 0.000000 0.000000
#
# Coordination Sequence:
#
# PCOD9002466 Si02
#       8
#     2   2   2   2   2   2   2   2
#     4  10  24  39  64  87 126 157 220 254 334 382
#     4  12  26  43  71  96 146 176 242 285 351 419
#     4  10  21  39  57  88 119 152 204 251 307 395
#     4  12  26  45  69 108 136 192 234 292 351 420
#     4  10  21  36  61  86 120 157 195 247 323 372
#     4  10  26  41  66  92 126 175 212 277 330 393
#     4  12  24  44  72 101 145 185 236 295 353 415
#     4  10  24  39  63  90 125 164 216 261 326 388
#
# _framework density 25.263076999999999
#
# number of rings (size 3 to 8) (size 9 to 14) (size 15 to 20)
#    0.750    0.500    0.000    5.250    5.250    2.000 
#    0.000    0.000    0.000    0.000    0.000    0.000 
#    0.000    0.000    0.000    0.000    0.000    0.000 
#
# Total GULP energy -89413.554120 kJ/mol
# GULP energy per Si atom -5588.347132 kJ/mol
# Density = 2.520558 g / cm^3
# Si number density = 25.263077 Si / 1000 Ang^3
#
#
#
# Elastic Constant Matrix: (Units=GPa)
#
#
# Indices 1 2 3 4 5 6 
#
# 1 97.9315 60.1556 -4.8026 -0.9699 21.3810 0.3563
# 2 60.1556 235.1577 35.5710 -25.6553 18.5566 -3.0275
# 3 -4.8026 35.5710 109.4562 -10.9226 5.9681 2.3726
# 4 -0.9699 -25.6553 -10.9226 47.0600 0.7446 6.6679
# 5 21.3810 18.5566 5.9681 0.7446 42.9767 7.3103
# 6 0.3563 -3.0275 2.3726 6.6679 7.3103 48.4987
#
#
#
# Elastic Compliance Matrix: (Units=1/GPa)
#
#
# Indices 1 2 3 4 5 6 
#
# 1 0.013642 -0.003450 0.001899 -0.001155 -0.005643 0.000601
# 2 -0.003450 0.005733 -0.001723 0.002636 -0.000599 0.000195
# 3 0.001899 -0.001723 0.010028 0.001536 -0.001519 -0.000594
# 4 -0.001155 0.002636 0.001536 0.023459 -0.000669 -0.003027
# 5 -0.005643 -0.000599 -0.001519 -0.000669 0.027226 -0.003933
# 6 0.000601 0.000195 -0.000594 -0.003027 -0.003933 0.021665
#
#
# Mechanical properties :
#
#
# Convention : Reuss Voigt Hill
#
# Bulk Modulus (GPa) = 43.75279 69.37705 56.56492
# Shear Modulus (GPa) = 43.13359 51.14852 47.14105
#
# Velocity S-wave (km/s) = 4.13652 4.50448 4.32442
# Velocity P-wave (km/s) = 6.33805 7.38750 6.88281
#
# Compressibility (1/GPa) = 0.02285569
#
# Stress axis : x y z
#
# Youngs Moduli (GPa) = 73.30326 174.42924 99.71786
#
# Poissons Ratio (x) = 0.60177 -0.18938
# Poissons Ratio (y) = 0.25289 0.17181
# Poissons Ratio (z) = -0.13922 0.30054
#
# Static dielectric constant tensor:
#      x y z
#    x 2.138500 0.066090 -0.116810 
#    y 0.066090 2.055250 -0.059560 
#    z -0.116810 -0.059560 2.053690 
# 
# From -- ./inp_files/614912.got.cif
#   From: 2010.05.17/outbox.cif.g08.bks.cpg/sg2_308_cif.got.tgz:614912.got - 2010.06.03 11:33:40.
