data_PCOD9002492
_publ_section_title
;
Structure prediction by ZEFSAII (Michael W. Deem and Ramdas Pophale) SiO2 
 PCOD9002492
Probable space group: P -1
;
_chemical_formula_sum "Si O2"
_cell_formula_units_Z 14
_cell_length_a 25.643400
_cell_length_b 10.786640
_cell_length_c 19.129122
_cell_angle_alpha 145.698032
_cell_angle_beta 163.631178
_cell_angle_gamma 27.703395
_cell_volume 682.090137
_symmetry_space_group_name_H-M "P -1"
_symmetry_group_IT_number 2
_symmetry_cell_setting 'triclinic'
loop_
_space_group_symop_operation_xyz
x,y,z
-x,-y,-z
loop_
_atom_site_type_symbol
_atom_site_label
_atom_site_fract_x
_atom_site_fract_y
_atom_site_fract_z
Si Si1 0.532390 0.831204 0.724940
Si Si2 0.862280 0.214768 0.861900
Si Si3 0.140267 0.725476 0.597940
Si Si4 0.343063 0.972337 0.690733
Si Si5 0.381536 0.793304 0.070241
Si Si6 0.052084 0.971303 0.855389
Si Si7 0.823170 0.600805 0.206004
O O1 0.739686 0.526231 0.870031
O O2 0.338012 0.812005 0.432723
O O3 0.431767 0.009563 0.748920
O O4 0.601425 0.970569 0.825430
O O5 0.016431 0.143964 0.958146
O O6 0.000000 0.000000 0.000000
O O7 0.365950 0.486780 0.736613
O O8 0.978328 0.635208 0.369349
O O9 0.231340 0.767899 0.807386
O O10 0.000000 0.000000 0.500000
O O11 0.206660 0.238667 0.686542
O O12 0.568690 0.748815 0.918117
O O13 0.181270 0.880187 0.420460
O O14 0.259412 0.871997 0.024359
O O15 0.078100 0.705559 0.794182
#
# Coordination Sequence:
#
# PCOD9002492 Si02
#       7
#     2   2   2   2   2   2   2
#     4  10  22  41  62  88 122 158 204 256 305 361
#     4  10  22  43  67  86 112 161 214 254 305 362
#     4  11  24  39  58  89 132 170 200 242 302 367
#     4  10  21  36  61  88 120 162 204 246 294 359
#     4  11  25  38  59  92 128 162 199 251 312 361
#     4  11  23  39  63  91 124 161 204 255 303 359
#     4  11  22  36  61  90 124 163 207 243 294 370
#
# _framework density 20.525144999999998
#
# number of rings (size 3 to 8) (size 9 to 14) (size 15 to 20)
#    0.000    1.429    1.429    3.857    8.000    1.714 
#    0.000    0.714    0.000    0.000    0.000    0.000 
#    0.000    0.000    0.000    0.000    0.000    0.000 
#
# Total GULP energy -78282.833074 kJ/mol
# GULP energy per Si atom -5591.630934 kJ/mol
# Density = 2.047843 g / cm^3
# Si number density = 20.525145 Si / 1000 Ang^3
#
#
#
# Elastic Constant Matrix: (Units=GPa)
#
#
# Indices 1 2 3 4 5 6 
#
# 1 136.0868 33.4190 35.3681 -8.8772 25.2612 -2.7204
# 2 33.4190 71.3251 33.5665 -20.0474 12.9889 17.6014
# 3 35.3681 33.5665 71.0262 -30.7018 5.9035 0.3914
# 4 -8.8772 -20.0474 -30.7018 31.5453 3.3682 0.0592
# 5 25.2612 12.9889 5.9035 3.3682 34.2755 2.5469
# 6 -2.7204 17.6014 0.3914 0.0592 2.5469 29.8393
#
#
#
# Elastic Compliance Matrix: (Units=1/GPa)
#
#
# Indices 1 2 3 4 5 6 
#
# 1 0.010197 -0.003458 -0.004266 -0.002905 -0.005444 0.003496
# 2 -0.003458 0.026165 -0.005078 0.011434 -0.006490 -0.015151
# 3 -0.004266 -0.005078 0.029356 0.024413 -0.002564 0.002392
# 4 -0.002905 0.011434 0.024413 0.063217 -0.012132 -0.006420
# 5 -0.005444 -0.006490 -0.002564 -0.012132 0.037266 0.000209
# 6 0.003496 -0.015151 0.002392 -0.006420 0.000209 0.042732
#
#
# Mechanical properties :
#
#
# Convention : Reuss Voigt Hill
#
# Bulk Modulus (GPa) = 24.92881 53.68280 39.30580
# Shear Modulus (GPa) = 20.16871 30.87101 25.51986
#
# Velocity S-wave (km/s) = 3.13810 3.88243 3.52994
# Velocity P-wave (km/s) = 5.03012 6.80508 5.98378
#
# Compressibility (1/GPa) = 0.04011423
#
# Stress axis : x y z
#
# Youngs Moduli (GPa) = 98.06667 38.21902 34.06440
#
# Poissons Ratio (x) = 0.13216 0.14532
# Poissons Ratio (y) = 0.33911 0.17298
# Poissons Ratio (z) = 0.41837 0.19408
#
# Static dielectric constant tensor:
#      x y z
#    x 1.740760 -0.023760 -0.012900 
#    y -0.023760 1.703750 -0.013850 
#    z -0.012900 -0.013850 1.761860 
# 
# From -- ./inp_files/256058.got.cif
#   From: 2010.05.17/outbox.cif.g08.bks.cpg/sg2_129_cif.got.tgz:256058.got - 2010.06.03 11:33:40.
