data_PCOD9002110
_publ_section_title
;
Structure prediction by ZEFSAII (Michael W. Deem and Ramdas Pophale) SiO2 
 PCOD9002110
Probable space group: P -1
;
_chemical_formula_sum "Si O2"
_cell_formula_units_Z 16
_cell_length_a 15.075794
_cell_length_b 5.548152
_cell_length_c 18.412336
_cell_angle_alpha 96.166455
_cell_angle_beta 30.169316
_cell_angle_gamma 87.455220
_cell_volume 739.881226
_symmetry_space_group_name_H-M "P -1"
_symmetry_group_IT_number 2
_symmetry_cell_setting 'triclinic'
loop_
_space_group_symop_operation_xyz
x,y,z
-x,-y,-z
loop_
_atom_site_type_symbol
_atom_site_label
_atom_site_fract_x
_atom_site_fract_y
_atom_site_fract_z
Si Si1 0.193434 0.616666 0.198557
Si Si2 0.008172 0.937984 0.828802
Si Si3 0.520398 0.662919 0.230709
Si Si4 0.375661 0.899030 0.187495
Si Si5 0.623411 0.213172 0.054481
Si Si6 0.955894 0.697473 0.601175
Si Si7 0.954973 0.498001 0.947223
Si Si8 0.173788 0.928791 0.555235
O O1 0.338280 0.701758 0.150486
O O2 0.161374 0.374080 0.251976
O O3 0.281708 0.613557 0.056847
O O4 0.986212 0.812422 0.344065
O O5 0.041964 0.694533 0.848772
O O6 0.128570 0.881752 0.668659
O O7 0.017997 0.206668 0.864633
O O8 0.796672 0.000507 0.954454
O O9 0.453292 0.800097 0.206871
O O10 0.512337 0.377817 0.204555
O O11 0.392539 0.850092 0.385833
O O12 0.734727 0.604957 0.096483
O O13 0.499878 0.085746 0.088518
O O14 0.167124 0.063815 0.345308
O O15 0.000000 0.500000 0.500000
O O16 0.126993 0.739266 0.523313
O O17 0.000000 0.500000 0.000000
#
# Coordination Sequence:
#
# PCOD9002110 Si02
#       8
#     2   2   2   2   2   2   2   2
#     4  10  22  35  55  81 125 175 221 271 320 372
#     4  10  23  44  71 101 131 173 212 264 336 402
#     4  11  23  39  62  90 126 165 218 267 326 392
#     4  11  20  34  53  83 123 165 226 267 321 366
#     4  10  21  36  57  89 124 170 217 271 319 382
#     4  11  22  35  54  83 130 179 224 268 321 367
#     4  11  24  48  76 102 130 164 210 272 340 410
#     4  10  23  39  60  91 131 178 217 267 320 384
#
# _framework density 21.625094000000001
#
# number of rings (size 3 to 8) (size 9 to 14) (size 15 to 20)
#    0.000    1.500    1.250    3.750    5.250    5.000 
#    0.000    1.250    0.000    0.000    0.000    0.000 
#    0.000    0.000    0.000    0.000    0.000    0.000 
#
# Total GULP energy -89182.228239 kJ/mol
# GULP energy per Si atom -5573.889265 kJ/mol
# Density = 2.157587 g / cm^3
# Si number density = 21.625094 Si / 1000 Ang^3
#
#
#
# Elastic Constant Matrix: (Units=GPa)
#
#
# Indices 1 2 3 4 5 6 
#
# 1 107.6096 29.4517 23.5526 2.5060 13.3724 -13.3382
# 2 29.4517 73.3005 35.2928 -0.8097 5.7295 -10.9716
# 3 23.5526 35.2928 99.8841 22.0072 16.2388 -1.2427
# 4 2.5060 -0.8097 22.0072 26.8338 6.3860 4.8057
# 5 13.3724 5.7295 16.2388 6.3860 19.6952 -2.4864
# 6 -13.3382 -10.9716 -1.2427 4.8057 -2.4864 30.7140
#
#
#
# Elastic Compliance Matrix: (Units=1/GPa)
#
#
# Indices 1 2 3 4 5 6 
#
# 1 0.011485 -0.003416 -0.000503 0.000085 -0.006007 0.003247
# 2 -0.003416 0.019198 -0.007472 0.005899 0.001522 0.004272
# 3 -0.000503 -0.007472 0.016573 -0.011827 -0.007437 -0.000968
# 4 0.000085 0.005899 -0.011827 0.050608 -0.009316 -0.007007
# 5 -0.006007 0.001522 -0.007437 -0.009316 0.064103 0.004281
# 6 0.003247 0.004272 -0.000968 -0.007007 0.004281 0.036899
#
#
# Mechanical properties :
#
#
# Convention : Reuss Voigt Hill
#
# Bulk Modulus (GPa) = 40.85801 50.82094 45.83948
# Shear Modulus (GPa) = 21.75753 28.28176 25.01964
#
# Velocity S-wave (km/s) = 3.17539 3.62030 3.40512
# Velocity P-wave (km/s) = 5.69025 6.40526 6.05831
#
# Compressibility (1/GPa) = 0.02447500
#
# Stress axis : x y z
#
# Youngs Moduli (GPa) = 87.07141 52.08806 60.33842
#
# Poissons Ratio (x) = 0.17793 0.03034
# Poissons Ratio (y) = 0.29743 0.45084
# Poissons Ratio (z) = 0.04378 0.38920
#
# Static dielectric constant tensor:
#      x y z
#    x 1.805650 0.071720 0.058550 
#    y 0.071720 1.964620 0.023220 
#    z 0.058550 0.023220 1.877740 
# 
# From -- ./inp_files/81201.got.cif
#   From: 2010.05.17/outbox.cif.g08.bks.cpg/sg2_41_cif.got.tgz:81201.got - 2010.06.03 11:33:40.
