data_PCOD9002737
_publ_section_title
;
Structure prediction by ZEFSAII (Michael W. Deem and Ramdas Pophale) SiO2 
 PCOD9002737
Probable space group: P -1
;
_chemical_formula_sum "Si O2"
_cell_formula_units_Z 16
_cell_length_a 8.338877
_cell_length_b 12.199641
_cell_length_c 19.528933
_cell_angle_alpha 141.362801
_cell_angle_beta 134.960277
_cell_angle_gamma 45.620944
_cell_volume 827.426480
_symmetry_space_group_name_H-M "P -1"
_symmetry_group_IT_number 2
_symmetry_cell_setting 'triclinic'
loop_
_space_group_symop_operation_xyz
x,y,z
-x,-y,-z
loop_
_atom_site_type_symbol
_atom_site_label
_atom_site_fract_x
_atom_site_fract_y
_atom_site_fract_z
Si Si1 0.324769 0.903770 0.218173
Si Si2 0.452783 0.263026 0.433721
Si Si3 0.214572 0.703521 0.194302
Si Si4 0.395660 0.220331 0.559982
Si Si5 0.219631 0.822972 0.000769
Si Si6 0.883188 0.357497 0.551812
Si Si7 0.804236 0.568657 0.205172
Si Si8 0.255935 0.359323 0.937000
O O1 0.167988 0.895921 0.232513
O O2 0.221751 0.826428 0.085237
O O3 0.578190 0.751882 0.243131
O O4 0.361631 0.093999 0.302333
O O5 0.427802 0.257068 0.506556
O O6 0.713850 0.237145 0.465232
O O7 0.282795 0.459157 0.448286
O O8 0.433857 0.683207 0.301983
O O9 0.966554 0.711348 0.156330
O O10 0.258745 0.527558 0.069951
O O11 0.124920 0.282504 0.540908
O O12 0.500000 0.000000 0.500000
O O13 0.492617 0.806498 0.057660
O O14 0.200169 0.632550 0.872433
O O15 0.000000 0.000000 0.000000
O O16 0.971768 0.406891 0.676424
O O17 0.778097 0.567805 0.115238
#
# Coordination Sequence:
#
# PCOD9002737 Si02
#       8
#     2   2   2   2   2   2   2   2
#     4  11  20  39  62  86 119 155 204 251 297 358
#     4  11  25  42  61  93 126 164 205 258 310 371
#     4  11  20  38  60  89 117 150 206 250 299 349
#     4  12  23  40  65  90 123 164 208 257 302 359
#     4  11  21  36  60  89 121 156 195 244 312 364
#     4  11  24  42  64  90 127 163 205 254 319 366
#     4  11  19  39  62  88 117 157 204 250 297 360
#     4  10  21  36  64  86 118 155 198 253 297 362
#
# _framework density 19.337066
#
# number of rings (size 3 to 8) (size 9 to 14) (size 15 to 20)
#    0.000    1.000    5.000    2.625    0.000    4.000 
#    0.000    0.625    2.750    0.000    0.000    0.000 
#    0.000    0.000    0.000    0.000    0.000    0.000 
#
# Total GULP energy -89076.898513 kJ/mol
# GULP energy per Si atom -5567.306157 kJ/mol
# Density = 1.929305 g / cm^3
# Si number density = 19.337066 Si / 1000 Ang^3
#
#
#
# Elastic Constant Matrix: (Units=GPa)
#
#
# Indices 1 2 3 4 5 6 
#
# 1 103.9470 48.5338 26.9078 2.1428 23.1860 -9.2984
# 2 48.5338 99.0681 14.2087 -4.5109 11.5499 0.3887
# 3 26.9078 14.2087 65.4575 -0.0560 7.0244 4.8929
# 4 2.1428 -4.5109 -0.0560 30.2504 7.3763 3.1067
# 5 23.1860 11.5499 7.0244 7.3763 32.3488 -2.5739
# 6 -9.2984 0.3887 4.8929 3.1067 -2.5739 26.5958
#
#
#
# Elastic Compliance Matrix: (Units=1/GPa)
#
#
# Indices 1 2 3 4 5 6 
#
# 1 0.016086 -0.006369 -0.004871 -0.000879 -0.007521 0.005988
# 2 -0.006369 0.013498 0.000035 0.003052 -0.001189 -0.002902
# 3 -0.004871 0.000035 0.017777 0.001178 -0.001065 -0.005215
# 4 -0.000879 0.003052 0.001178 0.036482 -0.009492 -0.005749
# 5 -0.007521 -0.001189 -0.001065 -0.009492 0.039323 0.002498
# 6 0.005988 -0.002902 -0.005215 -0.005749 0.002498 0.041609
#
#
# Mechanical properties :
#
#
# Convention : Reuss Voigt Hill
#
# Bulk Modulus (GPa) = 40.07790 49.75256 44.91523
# Shear Modulus (GPa) = 25.57519 29.76050 27.66784
#
# Velocity S-wave (km/s) = 3.64070 3.92731 3.78672
# Velocity P-wave (km/s) = 6.20031 6.80809 6.51129
#
# Compressibility (1/GPa) = 0.02495140
#
# Stress axis : x y z
#
# Youngs Moduli (GPa) = 62.16426 74.08461 56.25222
#
# Poissons Ratio (x) = 0.47183 0.27403
# Poissons Ratio (y) = 0.39591 -0.00198
# Poissons Ratio (z) = 0.30283 -0.00260
#
# Static dielectric constant tensor:
#      x y z
#    x 1.762280 -0.024940 -0.005840 
#    y -0.024940 1.656110 0.004550 
#    z -0.005840 0.004550 1.696140 
# 
# From -- ./inp_files/218287.got.cif
#   From: 2010.05.17/outbox.cif.g08.bks.cpg/sg2_110_cif.got.tgz:218287.got - 2010.06.03 11:33:40.
