data_PCOD9002949
_publ_section_title
;
Structure prediction by ZEFSAII (Michael W. Deem and Ramdas Pophale) SiO2 
 PCOD9002949
Probable space group: P -1
;
_chemical_formula_sum "Si O2"
_cell_formula_units_Z 16
_cell_length_a 27.198928
_cell_length_b 15.008676
_cell_length_c 18.006489
_cell_angle_alpha 21.813182
_cell_angle_beta 21.523757
_cell_angle_gamma 18.206844
_cell_volume 775.894864
_symmetry_space_group_name_H-M "P -1"
_symmetry_group_IT_number 2
_symmetry_cell_setting 'triclinic'
loop_
_space_group_symop_operation_xyz
x,y,z
-x,-y,-z
loop_
_atom_site_type_symbol
_atom_site_label
_atom_site_fract_x
_atom_site_fract_y
_atom_site_fract_z
Si Si1 0.421778 0.798423 0.557857
Si Si2 0.849980 0.531915 0.642252
Si Si3 0.417870 0.250876 0.986905
Si Si4 0.811565 0.402994 0.353768
Si Si5 0.943888 0.697952 0.028636
Si Si6 0.764859 0.938651 0.810076
Si Si7 0.914303 0.605568 0.703165
Si Si8 0.810677 0.029962 0.114801
O O1 0.389614 0.558859 0.764123
O O2 0.625552 0.615765 0.409919
O O3 0.350425 0.887209 0.674801
O O4 0.308811 0.111275 0.427401
O O5 0.000000 0.500000 0.500000
O O6 0.948615 0.383858 0.539118
O O7 0.802008 0.326072 0.898621
O O8 0.562010 0.103288 0.963288
O O9 0.235820 0.322834 0.195286
O O10 0.500000 0.000000 0.000000
O O11 0.974692 0.213292 0.214924
O O12 0.799699 0.176369 0.595461
O O13 0.834589 0.618602 0.201477
O O14 0.116164 0.368615 0.071694
O O15 0.839626 0.913790 0.079186
O O16 0.829126 0.833769 0.715893
O O17 0.021715 0.257615 0.853478
#
# Coordination Sequence:
#
# PCOD9002949 Si02
#       8
#     2   2   2   2   2   2   2   2
#     4  10  22  37  54  81 111 140 179 223 264 317
#     4  11  21  33  54  78 108 147 180 214 262 316
#     4   9  17  32  54  79 109 141 172 214 263 311
#     4  10  21  37  56  81 108 135 179 229 270 316
#     4  10  21  37  58  80 104 140 181 223 271 321
#     4   9  18  34  56  78 107 141 175 220 271 317
#     4   9  18  33  52  79 110 142 179 216 259 317
#     4  10  21  37  55  78 110 144 180 219 264 317
#
# _framework density 20.621351000000001
#
# number of rings (size 3 to 8) (size 9 to 14) (size 15 to 20)
#    0.000    2.250    0.000    2.625    0.000    5.500 
#    0.000    0.625    0.000   13.500    0.000    0.000 
#    0.000    0.000    0.000    0.000    0.000    0.000 
#
# Total GULP energy -89239.046008 kJ/mol
# GULP energy per Si atom -5577.440376 kJ/mol
# Density = 2.057442 g / cm^3
# Si number density = 20.621351 Si / 1000 Ang^3
#
#
#
# Elastic Constant Matrix: (Units=GPa)
#
#
# Indices 1 2 3 4 5 6 
#
# 1 39.7531 1.5904 19.0810 2.3680 -3.3769 13.7340
# 2 1.5904 63.2650 17.5656 3.0654 -3.8596 16.8672
# 3 19.0810 17.5656 89.3666 7.3075 -6.6135 5.9138
# 4 2.3680 3.0654 7.3075 29.6890 -1.1221 2.0226
# 5 -3.3769 -3.8596 -6.6135 -1.1221 25.3803 3.9514
# 6 13.7340 16.8672 5.9138 2.0226 3.9514 28.3803
#
#
#
# Elastic Compliance Matrix: (Units=1/GPa)
#
#
# Indices 1 2 3 4 5 6 
#
# 1 0.036368 0.007261 -0.007216 -0.000135 0.007393 -0.021431
# 2 0.007261 0.021471 -0.004251 -0.000438 0.005617 -0.016140
# 3 -0.007216 -0.004251 0.013662 -0.002513 0.001350 0.003163
# 4 -0.000135 -0.000438 -0.002513 0.034517 0.001060 -0.001758
# 5 0.007393 0.005617 0.001350 0.001060 0.043717 -0.013360
# 6 -0.021431 -0.016140 0.003163 -0.001758 -0.013360 0.056525
#
#
# Mechanical properties :
#
#
# Convention : Reuss Voigt Hill
#
# Bulk Modulus (GPa) = 15.85059 29.87320 22.86189
# Shear Modulus (GPa) = 21.21308 26.96641 24.08974
#
# Velocity S-wave (km/s) = 3.21081 3.62013 3.42159
# Velocity P-wave (km/s) = 4.63129 5.65613 5.16917
#
# Compressibility (1/GPa) = 0.06308915
#
# Stress axis : x y z
#
# Youngs Moduli (GPa) = 27.49634 46.57402 73.19460
#
# Poissons Ratio (x) = -0.33816 0.52817
# Poissons Ratio (y) = -0.19964 0.31115
# Poissons Ratio (z) = 0.19841 0.19799
#
# Static dielectric constant tensor:
#      x y z
#    x 1.756250 0.033790 0.037150 
#    y 0.033790 1.752370 0.013000 
#    z 0.037150 0.013000 1.727610 
# 
# From -- ./inp_files/100973.got.cif
#   From: 2010.05.17/outbox.cif.g08.bks.cpg/sg2_51_cif.got.tgz:100973.got - 2010.06.03 11:33:40.
