data_PCOD9002900
_publ_section_title
;
Structure prediction by ZEFSAII (Michael W. Deem and Ramdas Pophale) SiO2 
 PCOD9002900
Probable space group: P -1
;
_chemical_formula_sum "Si O2"
_cell_formula_units_Z 14
_cell_length_a 15.689073
_cell_length_b 9.380197
_cell_length_c 8.607742
_cell_angle_alpha 110.301430
_cell_angle_beta 127.471905
_cell_angle_gamma 40.884035
_cell_volume 642.293190
_symmetry_space_group_name_H-M "P -1"
_symmetry_group_IT_number 2
_symmetry_cell_setting 'triclinic'
loop_
_space_group_symop_operation_xyz
x,y,z
-x,-y,-z
loop_
_atom_site_type_symbol
_atom_site_label
_atom_site_fract_x
_atom_site_fract_y
_atom_site_fract_z
Si Si1 0.909088 0.734276 0.406292
Si Si2 0.396149 0.249278 0.431535
Si Si3 0.957620 0.901348 0.021197
Si Si4 0.622565 0.303208 0.717158
Si Si5 0.861628 0.304165 0.526930
Si Si6 0.674939 0.226127 0.398555
Si Si7 0.880499 0.559081 0.019037
O O1 0.859646 0.709290 0.179612
O O2 0.000000 0.500000 0.500000
O O3 0.031381 0.745088 0.511380
O O4 0.754677 0.978164 0.395262
O O5 0.510852 0.273979 0.551411
O O6 0.269794 0.430698 0.489678
O O7 0.500000 0.000000 0.500000
O O8 0.285687 0.321665 0.190866
O O9 0.023942 0.689379 0.916982
O O10 0.769401 0.099861 0.905243
O O11 0.037591 0.811781 0.245281
O O12 0.000000 0.000000 0.000000
O O13 0.688999 0.275121 0.609417
O O14 0.511214 0.552363 0.754179
O O15 0.769939 0.239429 0.392953
O O16 0.000000 0.500000 0.000000
#
# Coordination Sequence:
#
# PCOD9002900 Si02
#       7
#     2   2   2   2   2   2   2
#     4  12  25  41  68  96 135 172 216 274 324 380
#     4  10  21  36  69  95 128 170 216 268 327 379
#     4  11  20  37  71  96 122 168 224 263 314 392
#     4  10  21  38  68  94 127 172 214 263 329 389
#     4  10  22  41  63  98 126 171 218 266 318 392
#     4  10  22  41  63  93 131 168 213 266 327 389
#     4  11  22  42  66  96 127 169 225 265 316 392
#
# _framework density 21.796900999999998
#
# number of rings (size 3 to 8) (size 9 to 14) (size 15 to 20)
#    0.000    1.429    4.286    2.143    4.000    0.000 
#    0.000    1.429    3.143    0.000    0.000    0.000 
#    0.000    0.000    0.000    0.000    0.000    0.000 
#
# Total GULP energy -78135.957968 kJ/mol
# GULP energy per Si atom -5581.139855 kJ/mol
# Density = 2.174729 g / cm^3
# Si number density = 21.796901 Si / 1000 Ang^3
#
#
#
# Elastic Constant Matrix: (Units=GPa)
#
#
# Indices 1 2 3 4 5 6 
#
# 1 87.2650 30.9099 12.7803 -11.5607 5.3371 7.5554
# 2 30.9099 205.8992 40.2640 -39.1277 -0.0606 2.5823
# 3 12.7803 40.2640 59.1591 -29.9906 18.8382 -11.9421
# 4 -11.5607 -39.1277 -29.9906 39.4444 -3.3536 0.3844
# 5 5.3371 -0.0606 18.8382 -3.3536 24.6133 -6.9204
# 6 7.5554 2.5823 -11.9421 0.3844 -6.9204 31.9301
#
#
#
# Elastic Compliance Matrix: (Units=1/GPa)
#
#
# Indices 1 2 3 4 5 6 
#
# 1 0.012810 -0.001424 -0.000910 0.001433 -0.002992 -0.003922
# 2 -0.001424 0.006444 -0.003399 0.003670 0.003200 -0.000806
# 3 -0.000910 -0.003399 0.044033 0.027463 -0.026724 0.010836
# 4 0.001433 0.003670 0.027463 0.049139 -0.012867 0.006255
# 5 -0.002992 0.003200 -0.026724 -0.012867 0.061066 0.003844
# 6 -0.003922 -0.000806 0.010836 0.006255 0.003844 0.037122
#
#
# Mechanical properties :
#
#
# Convention : Reuss Voigt Hill
#
# Bulk Modulus (GPa) = 19.29783 57.80352 38.55068
# Shear Modulus (GPa) = 20.88948 37.08882 28.98915
#
# Velocity S-wave (km/s) = 3.09911 4.12948 3.65083
# Velocity P-wave (km/s) = 4.65604 7.02236 5.95786
#
# Compressibility (1/GPa) = 0.05181929
#
# Stress axis : x y z
#
# Youngs Moduli (GPa) = 78.06655 155.18954 22.71008
#
# Poissons Ratio (x) = 0.22104 0.02068
# Poissons Ratio (y) = 0.11119 0.07719
# Poissons Ratio (z) = 0.07107 0.52748
#
# Static dielectric constant tensor:
#      x y z
#    x 1.861510 0.010650 0.000650 
#    y 0.010650 1.425430 -0.112720 
#    z 0.000650 -0.112720 1.807320 
# 
# From -- ./inp_files/298911.got.cif
#   From: 2010.05.17/outbox.cif.g08.bks.cpg/sg2_150_cif.got.tgz:298911.got - 2010.06.03 11:33:40.
