data_PCOD9002201
_publ_section_title
;
Structure prediction by ZEFSAII (Michael W. Deem and Ramdas Pophale) SiO2 
 PCOD9002201
Probable space group: P -1
;
_chemical_formula_sum "Si O2"
_cell_formula_units_Z 14
_cell_length_a 9.374697
_cell_length_b 8.198106
_cell_length_c 14.022918
_cell_angle_alpha 40.108142
_cell_angle_beta 123.420237
_cell_angle_gamma 100.428852
_cell_volume 518.453070
_symmetry_space_group_name_H-M "P -1"
_symmetry_group_IT_number 2
_symmetry_cell_setting 'triclinic'
loop_
_space_group_symop_operation_xyz
x,y,z
-x,-y,-z
loop_
_atom_site_type_symbol
_atom_site_label
_atom_site_fract_x
_atom_site_fract_y
_atom_site_fract_z
Si Si1 0.304462 0.617095 0.173323
Si Si2 0.138055 0.037789 0.454881
Si Si3 0.274826 0.114560 0.860911
Si Si4 0.498907 0.777053 0.823112
Si Si5 0.799762 0.774603 0.791003
Si Si6 0.670764 0.618962 0.403664
Si Si7 0.965344 0.330083 0.800066
O O1 0.326967 0.316906 0.284892
O O2 0.486470 0.583221 0.317231
O O3 0.109309 0.783677 0.087342
O O4 0.266438 0.817585 0.977279
O O5 0.148051 0.018595 0.350306
O O6 0.081917 0.362358 0.312882
O O7 0.348988 0.828475 0.660169
O O8 0.000000 0.000000 0.500000
O O9 0.209772 0.363112 0.650961
O O10 0.169206 0.225771 0.871944
O O11 0.500000 0.000000 0.000000
O O12 0.685042 0.801128 0.836059
O O13 0.403095 0.063388 0.723023
O O14 0.500000 0.500000 0.000000
O O15 0.000000 0.500000 0.000000
O O16 0.807590 0.391985 0.630594
#
# Coordination Sequence:
#
# PCOD9002201 Si02
#       7
#     2   2   2   2   2   2   2
#     4  10  22  40  62  91 121 159 207 258 311 372
#     4  10  23  41  63  92 126 168 215 261 316 379
#     4  10  21  36  58  91 124 160 201 249 306 369
#     4  11  23  42  66  95 130 168 210 263 317 378
#     4  11  24  42  64  93 128 169 211 261 321 382
#     4  10  22  40  63  92 123 162 209 255 313 373
#     4  10  21  39  61  90 125 160 205 261 314 367
#
# _framework density 27.003408
#
# number of rings (size 3 to 8) (size 9 to 14) (size 15 to 20)
#    0.000    1.714    0.000    3.429    0.000   11.429 
#    0.000    2.857    0.000    0.000    0.000    0.000 
#    0.000    0.000    0.000    0.000    0.000    0.000 
#
# Total GULP energy -78098.128700 kJ/mol
# GULP energy per Si atom -5578.437764 kJ/mol
# Density = 2.694195 g / cm^3
# Si number density = 27.003408 Si / 1000 Ang^3
#
#
#
# Elastic Constant Matrix: (Units=GPa)
#
#
# Indices 1 2 3 4 5 6 
#
# 1 238.4672 12.9086 58.3581 2.5465 -12.1074 -17.1907
# 2 12.9086 52.3484 -4.9710 10.0121 -2.9016 1.8936
# 3 58.3581 -4.9710 94.9799 24.4544 -3.4408 -3.0724
# 4 2.5465 10.0121 24.4544 22.4438 -2.7949 4.6203
# 5 -12.1074 -2.9016 -3.4408 -2.7949 62.2032 2.4562
# 6 -17.1907 1.8936 -3.0724 4.6203 2.4562 31.5556
#
#
#
# Elastic Compliance Matrix: (Units=1/GPa)
#
#
# Indices 1 2 3 4 5 6 
#
# 1 0.005736 -0.003084 -0.005158 0.006075 0.000887 0.001849
# 2 -0.003084 0.024379 0.008236 -0.019595 0.000092 0.000521
# 3 -0.005158 0.008236 0.021061 -0.026690 -0.000761 0.002714
# 4 0.006075 -0.019595 -0.026690 0.084262 0.003000 -0.010685
# 5 0.000887 0.000092 -0.000761 0.003000 0.016398 -0.001312
# 6 0.001849 0.000521 0.002714 -0.010685 -0.001312 0.034597
#
#
# Mechanical properties :
#
#
# Convention : Reuss Voigt Hill
#
# Bulk Modulus (GPa) = 19.54457 57.59854 38.57155
# Shear Modulus (GPa) = 24.57013 44.54049 34.55531
#
# Velocity S-wave (km/s) = 3.01971 4.06574 3.58112
# Velocity P-wave (km/s) = 4.40587 6.58913 5.60484
#
# Compressibility (1/GPa) = 0.05116511
#
# Stress axis : x y z
#
# Youngs Moduli (GPa) = 174.33403 41.01832 47.48166
#
# Poissons Ratio (x) = 0.12649 0.24490
# Poissons Ratio (y) = 0.53761 -0.39106
# Poissons Ratio (z) = 0.89919 -0.33783
#
# Static dielectric constant tensor:
#      x y z
#    x 2.267780 -0.022700 -0.096160 
#    y -0.022700 2.229580 -0.033220 
#    z -0.096160 -0.033220 2.214260 
# 
# From -- ./inp_files/494348.got.cif
#   From: 2010.05.17/outbox.cif.g08.bks.cpg/sg2_248_cif.got.tgz:494348.got - 2010.06.03 11:33:40.
