data_PCOD9002181
_publ_section_title
;
Structure prediction by ZEFSAII (Michael W. Deem and Ramdas Pophale) SiO2 
 PCOD9002181
Probable space group: P -1
;
_chemical_formula_sum "Si O2"
_cell_formula_units_Z 16
_cell_length_a 11.213890
_cell_length_b 18.646145
_cell_length_c 6.148973
_cell_angle_alpha 79.391515
_cell_angle_beta 98.606255
_cell_angle_gamma 147.943301
_cell_volume 670.694994
_symmetry_space_group_name_H-M "P -1"
_symmetry_group_IT_number 2
_symmetry_cell_setting 'triclinic'
loop_
_space_group_symop_operation_xyz
x,y,z
-x,-y,-z
loop_
_atom_site_type_symbol
_atom_site_label
_atom_site_fract_x
_atom_site_fract_y
_atom_site_fract_z
Si Si1 0.484034 0.214621 0.258676
Si Si2 0.641984 0.411103 0.513064
Si Si3 0.287082 0.236015 0.897473
Si Si4 0.680232 0.098850 0.686651
Si Si5 0.705377 0.666700 0.773228
Si Si6 0.052888 0.945962 0.460063
Si Si7 0.969369 0.678326 0.653002
Si Si8 0.375503 0.836998 0.977578
O O1 0.639361 0.340371 0.393094
O O2 0.599248 0.228728 0.088735
O O3 0.320376 0.078615 0.430275
O O4 0.324633 0.193478 0.112646
O O5 0.474583 0.315357 0.723440
O O6 0.519607 0.414892 0.347657
O O7 0.877233 0.557476 0.589193
O O8 0.055872 0.116247 0.772770
O O9 0.307280 0.322459 0.982018
O O10 0.919272 0.218286 0.569010
O O11 0.500000 0.000000 0.500000
O O12 0.605142 0.997603 0.888789
O O13 0.663535 0.165810 0.779407
O O14 0.765338 0.616557 0.744034
O O15 0.919317 0.822413 0.648841
O O16 0.000000 0.000000 0.500000
O O17 0.162829 0.763388 0.834709
#
# Coordination Sequence:
#
# PCOD9002181 Si02
#       8
#     2   2   2   2   2   2   2   2
#     4  11  22  38  60  88 125 155 198 246 296 353
#     4  10  23  40  58  88 120 160 203 244 292 354
#     4  10  21  36  58  89 119 155 197 245 304 346
#     4   9  21  43  61  85 117 151 197 244 296 347
#     4  10  22  37  61  90 117 158 198 249 301 348
#     4  11  19  37  59  92 118 148 196 244 304 355
#     4  11  23  41  62  84 124 160 199 245 295 351
#     4  10  23  40  63  93 116 154 200 245 297 359
#
# _framework density 23.855854000000001
#
# number of rings (size 3 to 8) (size 9 to 14) (size 15 to 20)
#    0.000    1.750    3.750    1.500    0.000   10.000 
#    0.000    1.250    0.000    0.000    0.000    0.000 
#    0.000    0.000    0.000    0.000    0.000    0.000 
#
# Total GULP energy -89442.145266 kJ/mol
# GULP energy per Si atom -5590.134079 kJ/mol
# Density = 2.380156 g / cm^3
# Si number density = 23.855854 Si / 1000 Ang^3
#
#
#
# Elastic Constant Matrix: (Units=GPa)
#
#
# Indices 1 2 3 4 5 6 
#
# 1 75.7183 3.8750 41.7825 7.0436 -34.6621 -4.1221
# 2 3.8750 85.2350 30.2155 20.7288 -4.9918 -8.1573
# 3 41.7825 30.2155 120.6903 30.5727 -41.3507 -5.2111
# 4 7.0436 20.7288 30.5727 28.8123 -6.0500 -6.9226
# 5 -34.6621 -4.9918 -41.3507 -6.0500 49.2370 6.5257
# 6 -4.1221 -8.1573 -5.2111 -6.9226 6.5257 18.1284
#
#
#
# Elastic Compliance Matrix: (Units=1/GPa)
#
#
# Indices 1 2 3 4 5 6 
#
# 1 0.020291 0.000846 -0.003384 0.000460 0.011581 0.000029
# 2 0.000846 0.014654 -0.002284 -0.007719 -0.001267 0.003639
# 3 -0.003384 -0.002284 0.017358 -0.015225 0.010964 -0.006568
# 4 0.000460 -0.007719 -0.015225 0.058804 -0.008368 0.017722
# 5 0.011581 -0.001267 0.010964 -0.008368 0.038063 -0.011682
# 6 0.000029 0.003639 -0.006568 0.017722 -0.011682 0.065890
#
#
# Mechanical properties :
#
#
# Convention : Reuss Voigt Hill
#
# Bulk Modulus (GPa) = 23.44025 48.15438 35.79731
# Shear Modulus (GPa) = 20.92717 32.95359 26.94038
#
# Velocity S-wave (km/s) = 2.96503 3.72070 3.36415
# Velocity P-wave (km/s) = 4.64424 6.21993 5.48892
#
# Compressibility (1/GPa) = 0.04266166
#
# Stress axis : x y z
#
# Youngs Moduli (GPa) = 49.28221 68.23849 57.60897
#
# Poissons Ratio (x) = -0.05774 0.19495
# Poissons Ratio (y) = -0.04170 0.13155
# Poissons Ratio (z) = 0.16677 0.15582
#
# Static dielectric constant tensor:
#      x y z
#    x 1.938190 -0.038180 -0.002390 
#    y -0.038180 1.921220 -0.025770 
#    z -0.002390 -0.025770 1.908090 
# 
# From -- ./inp_files/69870.got.cif
#   From: 2010.05.17/outbox.cif.g08.bks.cpg/sg2_35_cif.got.tgz:69870.got - 2010.06.03 11:33:40.
