data_PCOD9002072
_publ_section_title
;
Structure prediction by ZEFSAII (Michael W. Deem and Ramdas Pophale) SiO2 
 PCOD9002072
Probable space group: P -1
;
_chemical_formula_sum "Si O2"
_cell_formula_units_Z 16
_cell_length_a 24.590722
_cell_length_b 5.072201
_cell_length_c 9.228591
_cell_angle_alpha 59.475007
_cell_angle_beta 132.214455
_cell_angle_gamma 106.636598
_cell_volume 731.641027
_symmetry_space_group_name_H-M "P -1"
_symmetry_group_IT_number 2
_symmetry_cell_setting 'triclinic'
loop_
_space_group_symop_operation_xyz
x,y,z
-x,-y,-z
loop_
_atom_site_type_symbol
_atom_site_label
_atom_site_fract_x
_atom_site_fract_y
_atom_site_fract_z
Si Si1 0.128249 0.949157 0.785836
Si Si2 0.158831 0.780956 0.202394
Si Si3 0.932063 0.809280 0.853518
Si Si4 0.437972 0.737168 0.250429
Si Si5 0.733704 0.238111 0.112254
Si Si6 0.278829 0.464757 0.684518
Si Si7 0.554530 0.558233 0.954247
Si Si8 0.981849 0.661620 0.681535
O O1 0.091567 0.269921 0.563489
O O2 0.196903 0.782723 0.867424
O O3 0.055573 0.755802 0.708893
O O4 0.152362 0.972444 0.989348
O O5 0.115698 0.481452 0.179725
O O6 0.238945 0.670305 0.432477
O O7 0.122099 0.956478 0.223719
O O8 0.964803 0.869505 0.737480
O O9 0.995262 0.671983 0.116543
O O10 0.500000 0.500000 0.500000
O O11 0.451063 0.677761 0.120299
O O12 0.450981 0.089292 0.211609
O O13 0.349578 0.689104 0.124828
O O14 0.743114 0.446774 0.212583
O O15 0.734953 0.887586 0.267133
O O16 0.364367 0.495792 0.821981
O O17 0.500000 0.500000 0.000000
#
# Coordination Sequence:
#
# PCOD9002072 Si02
#       8
#     2   2   2   2   2   2   2   2
#     4  10  21  36  57  85 113 144 190 242 286 331
#     4  11  22  37  58  84 109 144 193 239 284 336
#     4  10  22  39  58  78 108 150 190 231 287 346
#     4  10  21  39  63  91 122 157 195 239 298 356
#     4  10  22  40  60  83 116 155 189 230 287 348
#     4  10  21  39  60  81 114 155 190 228 286 351
#     4  10  21  38  61  90 120 156 199 241 289 351
#     4   9  20  38  57  80 111 148 190 237 287 340
#
# _framework density 21.868649000000001
#
# number of rings (size 3 to 8) (size 9 to 14) (size 15 to 20)
#    0.000    2.000    0.000    3.000    0.000    8.000 
#    0.000    7.500    0.000    0.000    0.000    0.000 
#    0.000    0.000    0.000    0.000    0.000    0.000 
#
# Total GULP energy -89349.458436 kJ/mol
# GULP energy per Si atom -5584.341152 kJ/mol
# Density = 2.181888 g / cm^3
# Si number density = 21.868649 Si / 1000 Ang^3
#
#
#
# Elastic Constant Matrix: (Units=GPa)
#
#
# Indices 1 2 3 4 5 6 
#
# 1 142.1123 -5.9239 44.0433 4.1073 17.6254 -6.4836
# 2 -5.9239 47.3953 -1.6216 1.8370 4.5898 -16.3914
# 3 44.0433 -1.6216 164.2827 -15.5938 23.3559 4.1010
# 4 4.1073 1.8370 -15.5938 13.9984 -7.0923 2.6938
# 5 17.6254 4.5898 23.3559 -7.0923 22.9408 -5.5465
# 6 -6.4836 -16.3914 4.1010 2.6938 -5.5465 18.3838
#
#
#
# Elastic Compliance Matrix: (Units=1/GPa)
#
#
# Indices 1 2 3 4 5 6 
#
# 1 0.009778 0.005149 -0.002875 -0.012057 -0.007354 0.008229
# 2 0.005149 0.034891 -0.002918 -0.018738 -0.005369 0.034702
# 3 -0.002875 -0.002918 0.008711 0.010019 -0.005045 -0.008549
# 4 -0.012057 -0.018738 0.010019 0.109257 0.029244 -0.030381
# 5 -0.007354 -0.005369 -0.005045 0.029244 0.066817 0.009618
# 6 0.008229 0.034702 -0.008549 -0.030381 0.009618 0.097500
#
#
# Mechanical properties :
#
#
# Convention : Reuss Voigt Hill
#
# Bulk Modulus (GPa) = 19.19648 47.42066 33.30857
# Shear Modulus (GPa) = 14.46740 32.21743 23.34241
#
# Velocity S-wave (km/s) = 2.57487 3.84242 3.27064
# Velocity P-wave (km/s) = 4.19965 6.43561 5.43388
#
# Compressibility (1/GPa) = 0.05209289
#
# Stress axis : x y z
#
# Youngs Moduli (GPa) = 102.26695 28.66098 114.80082
#
# Poissons Ratio (x) = -0.14758 0.33006
# Poissons Ratio (y) = -0.52661 0.33495
# Poissons Ratio (z) = 0.29403 0.08362
#
# Static dielectric constant tensor:
#      x y z
#    x 1.816940 0.048320 -0.010010 
#    y 0.048320 1.882250 -0.007680 
#    z -0.010010 -0.007680 1.840210 
# 
# From -- ./inp_files/350964.got.cif
#   From: 2010.05.17/outbox.cif.g08.bks.cpg/sg2_176_cif.got.tgz:350964.got - 2010.06.03 11:33:40.
