data_PCOD9002279
_publ_section_title
;
Structure prediction by ZEFSAII (Michael W. Deem and Ramdas Pophale) SiO2 
 PCOD9002279
Probable space group: P -1
;
_chemical_formula_sum "Si O2"
_cell_formula_units_Z 14
_cell_length_a 4.973584
_cell_length_b 21.531062
_cell_length_c 12.275509
_cell_angle_alpha 36.740089
_cell_angle_beta 82.088291
_cell_angle_gamma 64.996463
_cell_volume 661.819220
_symmetry_space_group_name_H-M "P -1"
_symmetry_group_IT_number 2
_symmetry_cell_setting 'triclinic'
loop_
_space_group_symop_operation_xyz
x,y,z
-x,-y,-z
loop_
_atom_site_type_symbol
_atom_site_label
_atom_site_fract_x
_atom_site_fract_y
_atom_site_fract_z
Si Si1 0.863331 0.598933 0.180872
Si Si2 0.781564 0.330792 0.406862
Si Si3 0.495742 0.225724 0.428457
Si Si4 0.866023 0.257943 0.947211
Si Si5 0.265129 0.007002 0.407652
Si Si6 0.687121 0.560016 0.007048
Si Si7 0.195634 0.602348 0.443198
O O1 0.504182 0.702242 0.095895
O O2 0.977074 0.471681 0.414805
O O3 0.104222 0.644238 0.118674
O O4 0.801551 0.580035 0.088021
O O5 0.691748 0.234800 0.505412
O O6 0.740971 0.358241 0.498963
O O7 0.141168 0.282558 0.416131
O O8 0.580965 0.462775 0.170678
O O9 0.538304 0.308803 0.218906
O O10 0.583619 0.103314 0.532633
O O11 0.969201 0.281389 0.790501
O O12 0.092673 0.130383 0.172353
O O13 0.500000 0.000000 0.500000
O O14 0.000000 0.000000 0.500000
O O15 0.000000 0.500000 0.000000
O O16 0.500000 0.500000 0.500000
#
# Coordination Sequence:
#
# PCOD9002279 Si02
#       7
#     2   2   2   2   2   2   2
#     4  10  21  36  59  89 118 148 190 246 298 347
#     4  10  22  37  57  85 117 150 191 242 296 349
#     4  11  22  38  56  83 119 155 192 240 291 345
#     4  11  22  39  60  85 115 153 197 245 293 342
#     4  12  25  42  63  88 118 158 204 246 288 349
#     4   9  19  33  54  81 113 150 186 230 294 356
#     4   9  21  39  63  91 120 154 197 245 296 354
#
# _framework density 21.153814000000001
#
# number of rings (size 3 to 8) (size 9 to 14) (size 15 to 20)
#    0.000    1.714    0.000    4.286    0.000   16.000 
#    0.000    1.429    0.000    0.000    0.000    0.000 
#    0.000    0.000    0.000    0.000    0.000    0.000 
#
# Total GULP energy -78162.059478 kJ/mol
# GULP energy per Si atom -5583.004248 kJ/mol
# Density = 2.110567 g / cm^3
# Si number density = 21.153814 Si / 1000 Ang^3
#
#
#
# Elastic Constant Matrix: (Units=GPa)
#
#
# Indices 1 2 3 4 5 6 
#
# 1 103.7510 40.6894 20.9439 -3.7304 -0.5250 16.7048
# 2 40.6894 158.0054 62.2727 1.9921 -4.2894 12.1911
# 3 20.9439 62.2727 158.0742 16.9517 0.1264 5.5292
# 4 -3.7304 1.9921 16.9517 28.2176 5.4234 -2.5224
# 5 -0.5250 -4.2894 0.1264 5.4234 17.5283 -2.7875
# 6 16.7048 12.1911 5.5292 -2.5224 -2.7875 31.7076
#
#
#
# Elastic Compliance Matrix: (Units=1/GPa)
#
#
# Indices 1 2 3 4 5 6 
#
# 1 0.011587 -0.002422 -0.000610 0.001933 -0.001644 -0.005058
# 2 -0.002422 0.008240 -0.002931 0.000437 0.001639 -0.001202
# 3 -0.000610 -0.002931 0.008096 -0.004893 0.000673 -0.000293
# 4 0.001933 0.000437 -0.004893 0.041120 -0.012226 0.001863
# 5 -0.001644 0.001639 0.000673 -0.012226 0.061910 0.004589
# 6 -0.005058 -0.001202 -0.000293 0.001863 0.004589 0.035268
#
#
# Mechanical properties :
#
#
# Convention : Reuss Voigt Hill
#
# Bulk Modulus (GPa) = 62.51575 74.18251 68.34913
# Shear Modulus (GPa) = 27.25109 35.21902 31.23505
#
# Velocity S-wave (km/s) = 3.59309 4.08475 3.84678
# Velocity P-wave (km/s) = 6.84331 7.57570 7.21880
#
# Compressibility (1/GPa) = 0.01599597
#
# Stress axis : x y z
#
# Youngs Moduli (GPa) = 86.30319 121.36538 123.51587
#
# Poissons Ratio (x) = 0.29397 0.07535
# Poissons Ratio (y) = 0.20905 0.36204
# Poissons Ratio (z) = 0.05265 0.35573
#
# Static dielectric constant tensor:
#      x y z
#    x 1.760160 -0.013470 0.009360 
#    y -0.013470 1.777370 -0.019060 
#    z 0.009360 -0.019060 1.834360 
# 
# From -- ./inp_files/84056.got.cif
#   From: 2010.05.17/outbox.cif.g08.bks.cpg/sg2_43_cif.got.tgz:84056.got - 2010.06.03 11:33:40.
