data_PCOD9002973
_publ_section_title
;
Structure prediction by ZEFSAII (Michael W. Deem and Ramdas Pophale) SiO2 
 PCOD9002973
Probable space group: P -1
;
_chemical_formula_sum "Si O2"
_cell_formula_units_Z 14
_cell_length_a 20.389982
_cell_length_b 5.288735
_cell_length_c 9.363659
_cell_angle_alpha 73.671047
_cell_angle_beta 40.997813
_cell_angle_gamma 60.243560
_cell_volume 567.289829
_symmetry_space_group_name_H-M "P -1"
_symmetry_group_IT_number 2
_symmetry_cell_setting 'triclinic'
loop_
_space_group_symop_operation_xyz
x,y,z
-x,-y,-z
loop_
_atom_site_type_symbol
_atom_site_label
_atom_site_fract_x
_atom_site_fract_y
_atom_site_fract_z
Si Si1 0.970799 0.083804 0.872410
Si Si2 0.844622 0.840488 0.578148
Si Si3 0.706468 0.064818 0.506490
Si Si4 0.225359 0.406845 0.765770
Si Si5 0.396708 0.874295 0.758660
Si Si6 0.948217 0.803998 0.694437
Si Si7 0.467709 0.255768 0.725232
O O1 0.090558 0.983274 0.619199
O O2 0.913415 0.940023 0.887220
O O3 0.883875 0.424199 0.982840
O O4 0.000000 0.000000 0.000000
O O5 0.848107 0.844615 0.742781
O O6 0.942193 0.512056 0.435767
O O7 0.735985 0.960802 0.638698
O O8 0.734935 0.338483 0.377391
O O9 0.578634 0.164997 0.652110
O O10 0.780186 0.766319 0.340078
O O11 0.309224 0.143348 0.768411
O O12 0.378200 0.586275 0.860243
O O13 0.501104 0.743609 0.494813
O O14 0.426431 0.004793 0.829370
O O15 0.000000 0.000000 0.500000
#
# Coordination Sequence:
#
# PCOD9002973 Si02
#       7
#     2   2   2   2   2   2   2
#     4  11  21  35  54  82 115 146 178 227 277 328
#     4  10  21  37  56  76 111 147 189 228 265 329
#     4  11  21  32  52  83 109 144 182 227 272 327
#     4  11  22  31  51  82 114 145 180 218 282 327
#     4   9  16  30  45  70 108 144 173 218 265 331
#     4   9  21  39  55  73 106 150 192 226 269 319
#     4   9  16  29  48  69 105 144 177 215 272 317
#
# _framework density 24.678742
#
# number of rings (size 3 to 8) (size 9 to 14) (size 15 to 20)
#    0.000    2.000    1.429    5.143    4.000    1.143 
#    0.000    0.000    0.000    0.000    0.000    2.000 
#    0.000    0.000    0.000    0.000    0.000    0.000 
#
# Total GULP energy -78057.667142 kJ/mol
# GULP energy per Si atom -5575.547653 kJ/mol
# Density = 2.462257 g / cm^3
# Si number density = 24.678742 Si / 1000 Ang^3
#
#
#
# Elastic Constant Matrix: (Units=GPa)
#
#
# Indices 1 2 3 4 5 6 
#
# 1 162.3835 80.9730 41.1740 -2.0268 49.3207 -13.8942
# 2 80.9730 139.8161 20.6190 28.8527 24.1890 15.2868
# 3 41.1740 20.6190 65.3384 0.3184 34.5506 1.0714
# 4 -2.0268 28.8527 0.3184 28.3804 -0.4661 6.8482
# 5 49.3207 24.1890 34.5506 -0.4661 38.2870 -0.8195
# 6 -13.8942 15.2868 1.0714 6.8482 -0.8195 49.5996
#
#
#
# Elastic Compliance Matrix: (Units=1/GPa)
#
#
# Indices 1 2 3 4 5 6 
#
# 1 0.015482 -0.008902 0.000712 0.008544 -0.014738 0.005642
# 2 -0.008902 0.015890 0.000307 -0.015515 0.000850 -0.005241
# 3 0.000712 0.000307 0.029419 -0.000836 -0.027688 -0.000873
# 4 0.008544 -0.015515 -0.000836 0.051614 0.000180 0.000070
# 5 -0.014738 0.000850 -0.027688 0.000180 0.069498 -0.002669
# 6 0.005642 -0.005241 -0.000873 0.000070 -0.002669 0.023322
#
#
# Mechanical properties :
#
#
# Convention : Reuss Voigt Hill
#
# Bulk Modulus (GPa) = 22.20923 72.56334 47.38628
# Shear Modulus (GPa) = 21.18643 38.23819 29.71231
#
# Velocity S-wave (km/s) = 2.93318 3.94056 3.47358
# Velocity P-wave (km/s) = 4.52661 7.08315 5.94396
#
# Compressibility (1/GPa) = 0.04502633
#
# Stress axis : x y z
#
# Youngs Moduli (GPa) = 64.58963 62.93233 33.99159
#
# Poissons Ratio (x) = 0.56021 -0.02419
# Poissons Ratio (y) = 0.57496 -0.01045
# Poissons Ratio (z) = -0.04597 -0.01935
#
# Static dielectric constant tensor:
#      x y z
#    x 2.198160 0.460170 -0.108720 
#    y 0.460170 3.327710 -0.099760 
#    z -0.108720 -0.099760 2.059110 
# 
# From -- ./inp_files/339705.got.cif
#   From: 2010.05.17/outbox.cif.g08.bks.cpg/sg2_170_cif.got.tgz:339705.got - 2010.06.03 11:33:40.
