data_PCOD9002562
_publ_section_title
;
Structure prediction by ZEFSAII (Michael W. Deem and Ramdas Pophale) SiO2 
 PCOD9002562
Probable space group: P -1
;
_chemical_formula_sum "Si O2"
_cell_formula_units_Z 16
_cell_length_a 5.244573
_cell_length_b 14.244952
_cell_length_c 12.868519
_cell_angle_alpha 95.280015
_cell_angle_beta 116.959274
_cell_angle_gamma 99.475826
_cell_volume 829.896911
_symmetry_space_group_name_H-M "P -1"
_symmetry_group_IT_number 2
_symmetry_cell_setting 'triclinic'
loop_
_space_group_symop_operation_xyz
x,y,z
-x,-y,-z
loop_
_atom_site_type_symbol
_atom_site_label
_atom_site_fract_x
_atom_site_fract_y
_atom_site_fract_z
Si Si1 0.232606 0.877125 0.013459
Si Si2 0.585305 0.911576 0.868869
Si Si3 0.165596 0.665173 0.063783
Si Si4 0.370778 0.416242 0.181857
Si Si5 0.284147 0.732160 0.693950
Si Si6 0.173498 0.609414 0.450781
Si Si7 0.228296 0.397795 0.813944
Si Si8 0.229862 0.414397 0.380675
O O1 0.189000 0.778327 0.058852
O O2 0.389691 0.973558 0.115983
O O3 0.424720 0.874431 0.944764
O O4 0.913773 0.894598 0.926224
O O5 0.398913 0.845846 0.738174
O O6 0.493112 0.649069 0.123738
O O7 0.991856 0.625879 0.132754
O O8 0.949873 0.606861 0.929862
O O9 0.479986 0.318647 0.212988
O O10 0.606835 0.489561 0.163010
O O11 0.357905 0.459162 0.299221
O O12 0.200643 0.682524 0.560902
O O13 0.986961 0.687244 0.696920
O O14 0.069949 0.490354 0.413020
O O15 0.519641 0.609217 0.502014
O O16 0.972405 0.638496 0.327827
#
# Coordination Sequence:
#
# PCOD9002562 Si02
#       8
#     2   2   2   2   2   2   2   2
#     4  10  21  41  62  92 121 148 193 246 310 364
#     4  10  21  38  67  93 118 145 188 259 315 349
#     4  12  25  40  61  84 125 166 198 239 288 363
#     4  11  23  37  56  91 120 156 206 242 298 350
#     4  11  21  35  64  88 119 152 193 268 296 347
#     4  10  23  37  54  87 117 164 208 240 292 346
#     4  12  26  39  57  83 126 175 199 230 280 364
#     4  10  21  36  62  80 124 157 198 264 293 337
#
# _framework density 19.279502999999998
#
# number of rings (size 3 to 8) (size 9 to 14) (size 15 to 20)
#    0.000    1.250    2.500    3.375    8.750    0.000 
#    0.000    0.000    0.000    1.500    0.000    0.000 
#    0.000    0.000    0.000    0.000    0.000    0.000 
#
# Total GULP energy -89218.152873 kJ/mol
# GULP energy per Si atom -5576.134555 kJ/mol
# Density = 1.923562 g / cm^3
# Si number density = 19.279503 Si / 1000 Ang^3
#
#
#
# Elastic Constant Matrix: (Units=GPa)
#
#
# Indices 1 2 3 4 5 6 
#
# 1 59.0669 4.3184 26.1719 -3.6340 5.1378 2.1250
# 2 4.3184 75.2717 34.0686 21.7826 -2.3777 9.5312
# 3 26.1719 34.0686 103.4947 15.4575 23.8461 -1.9584
# 4 -3.6340 21.7826 15.4575 31.1230 -5.4352 7.3582
# 5 5.1378 -2.3777 23.8461 -5.4352 30.3945 -6.8407
# 6 2.1250 9.5312 -1.9584 7.3582 -6.8407 23.1765
#
#
#
# Elastic Compliance Matrix: (Units=1/GPa)
#
#
# Indices 1 2 3 4 5 6 
#
# 1 0.020347 0.000633 -0.006998 0.006811 0.002378 -0.004178
# 2 0.000633 0.019214 -0.006121 -0.008597 0.003607 -0.004683
# 3 -0.006998 -0.006121 0.018137 -0.008819 -0.014371 0.003250
# 4 0.006811 -0.008597 -0.008819 0.047583 0.011452 -0.009561
# 5 0.002378 0.003607 -0.014371 0.011452 0.047804 0.007558
# 6 -0.004178 -0.004683 0.003250 -0.009561 0.007558 0.050997
#
#
# Mechanical properties :
#
#
# Convention : Reuss Voigt Hill
#
# Bulk Modulus (GPa) = 30.55670 40.77235 35.66452
# Shear Modulus (GPa) = 20.83661 28.49040 24.66351
#
# Velocity S-wave (km/s) = 3.29107 3.84833 3.58056
# Velocity P-wave (km/s) = 5.50683 6.39845 5.96931
#
# Compressibility (1/GPa) = 0.03272605
#
# Stress axis : x y z
#
# Youngs Moduli (GPa) = 49.14739 52.04597 55.13700
#
# Poissons Ratio (x) = -0.03295 0.38586
# Poissons Ratio (y) = -0.03111 0.33747
# Poissons Ratio (z) = 0.34394 0.31855
#
# Static dielectric constant tensor:
#      x y z
#    x 1.750920 0.013830 -0.014590 
#    y 0.013830 1.678690 0.018340 
#    z -0.014590 0.018340 1.722770 
# 
# From -- ./inp_files/367828.got.cif
#   From: 2010.05.17/outbox.cif.g08.bks.cpg/sg2_184_cif.got.tgz:367828.got - 2010.06.03 11:33:40.
