data_PCOD9002788
_publ_section_title
;
Structure prediction by ZEFSAII (Michael W. Deem and Ramdas Pophale) SiO2 
 PCOD9002788
Probable space group: P -1
;
_chemical_formula_sum "Si O2"
_cell_formula_units_Z 16
_cell_length_a 11.972952
_cell_length_b 16.352726
_cell_length_c 16.020488
_cell_angle_alpha 153.137633
_cell_angle_beta 53.627660
_cell_angle_gamma 143.338150
_cell_volume 753.858545
_symmetry_space_group_name_H-M "P -1"
_symmetry_group_IT_number 2
_symmetry_cell_setting 'triclinic'
loop_
_space_group_symop_operation_xyz
x,y,z
-x,-y,-z
loop_
_atom_site_type_symbol
_atom_site_label
_atom_site_fract_x
_atom_site_fract_y
_atom_site_fract_z
Si Si1 0.157386 0.683479 0.340660
Si Si2 0.388344 0.245338 0.699625
Si Si3 0.135505 0.056346 0.068274
Si Si4 0.720212 0.406053 0.211595
Si Si5 0.507909 0.182482 0.274313
Si Si6 0.186757 0.288971 0.968688
Si Si7 0.071596 0.572490 0.628449
Si Si8 0.614413 0.651537 0.394334
O O1 0.169582 0.484132 0.130835
O O2 0.945522 0.560470 0.283939
O O3 0.117390 0.658482 0.435032
O O4 0.347047 0.994653 0.510321
O O5 0.623471 0.529915 0.882644
O O6 0.340498 0.236069 0.616207
O O7 0.242976 0.221491 0.803728
O O8 0.369024 0.356982 0.235065
O O9 0.138468 0.841951 0.866516
O O10 0.018387 0.981921 0.139297
O O11 0.000000 0.000000 0.000000
O O12 0.574359 0.315096 0.273373
O O13 0.736907 0.591759 0.312202
O O14 0.608046 0.122456 0.962835
O O15 0.728662 0.358931 0.383086
O O16 0.368224 0.180076 0.388500
O O17 0.000000 0.500000 0.500000
#
# Coordination Sequence:
#
# PCOD9002788 Si02
#       8
#     2   2   2   2   2   2   2   2
#     4  10  24  43  66  90 130 175 217 255 324 392
#     4  11  25  43  64  95 135 173 214 262 330 388
#     4  11  21  38  64  99 130 161 218 268 321 379
#     4  10  23  44  64  97 131 170 219 268 317 390
#     4  10  22  40  63  95 133 166 207 272 331 363
#     4  10  24  43  64  93 133 175 207 269 327 385
#     4  10  21  36  64  99 126 164 213 271 319 380
#     4  12  24  40  67 101 127 168 221 268 319 386
#
# _framework density 21.224142000000001
#
# number of rings (size 3 to 8) (size 9 to 14) (size 15 to 20)
#    0.000    1.500    2.500    1.500    8.750    2.500 
#    0.000    1.250    0.000    0.000    0.000    0.000 
#    0.000    0.000    0.000    0.000    0.000    0.000 
#
# Total GULP energy -89523.703813 kJ/mol
# GULP energy per Si atom -5595.231488 kJ/mol
# Density = 2.117584 g / cm^3
# Si number density = 21.224142 Si / 1000 Ang^3
#
#
#
# Elastic Constant Matrix: (Units=GPa)
#
#
# Indices 1 2 3 4 5 6 
#
# 1 77.3158 19.9808 11.6338 -8.9678 -15.1209 -19.0033
# 2 19.9808 70.5910 27.5811 -3.3015 -8.3821 -17.9035
# 3 11.6338 27.5811 54.6509 -11.6850 -4.4397 -15.9771
# 4 -8.9678 -3.3015 -11.6850 23.5017 -0.1894 -2.8729
# 5 -15.1209 -8.3821 -4.4397 -0.1894 31.5633 2.9047
# 6 -19.0033 -17.9035 -15.9771 -2.8729 2.9047 34.4934
#
#
#
# Elastic Compliance Matrix: (Units=1/GPa)
#
#
# Indices 1 2 3 4 5 6 
#
# 1 0.018219 -0.002347 0.002960 0.009418 0.007627 0.010332
# 2 -0.002347 0.019384 -0.008047 -0.001578 0.002449 0.004703
# 3 0.002960 -0.008047 0.028769 0.015776 0.002327 0.011898
# 4 0.009418 -0.001578 0.015776 0.055750 0.005185 0.015884
# 5 0.007627 0.002449 0.002327 0.005185 0.035981 0.003953
# 6 0.010332 0.004703 0.011898 0.015884 0.003953 0.043626
#
#
# Mechanical properties :
#
#
# Convention : Reuss Voigt Hill
#
# Bulk Modulus (GPa) = 19.41540 35.66101 27.53820
# Shear Modulus (GPa) = 21.38908 27.46915 24.42911
#
# Velocity S-wave (km/s) = 3.17798 3.60146 3.39633
# Velocity P-wave (km/s) = 4.75750 5.84231 5.32759
#
# Compressibility (1/GPa) = 0.05150551
#
# Stress axis : x y z
#
# Youngs Moduli (GPa) = 54.88899 51.58825 34.75906
#
# Poissons Ratio (x) = 0.12106 -0.10289
# Poissons Ratio (y) = 0.12881 0.27970
# Poissons Ratio (z) = -0.16247 0.41512
#
# Static dielectric constant tensor:
#      x y z
#    x 1.770360 0.012680 0.003180 
#    y 0.012680 1.753940 0.008390 
#    z 0.003180 0.008390 1.773660 
# 
# From -- ./inp_files/271708.got.cif
#   From: 2010.05.17/outbox.cif.g08.bks.cpg/sg2_136_cif.got.tgz:271708.got - 2010.06.03 11:33:40.
