data_PCOD9002944
_publ_section_title
;
Structure prediction by ZEFSAII (Michael W. Deem and Ramdas Pophale) SiO2 
 PCOD9002944
Probable space group: P -1
;
_chemical_formula_sum "Si O2"
_cell_formula_units_Z 16
_cell_length_a 8.057197
_cell_length_b 7.772032
_cell_length_c 15.801045
_cell_angle_alpha 142.878711
_cell_angle_beta 104.971337
_cell_angle_gamma 77.357050
_cell_volume 576.740614
_symmetry_space_group_name_H-M "P -1"
_symmetry_group_IT_number 2
_symmetry_cell_setting 'triclinic'
loop_
_space_group_symop_operation_xyz
x,y,z
-x,-y,-z
loop_
_atom_site_type_symbol
_atom_site_label
_atom_site_fract_x
_atom_site_fract_y
_atom_site_fract_z
Si Si1 0.816535 0.988327 0.567628
Si Si2 0.632585 0.416463 0.296587
Si Si3 0.705463 0.493961 0.147821
Si Si4 0.846016 0.867163 0.080669
Si Si5 0.753913 0.272528 0.891941
Si Si6 0.888689 0.608883 0.816337
Si Si7 0.204701 0.902721 0.595672
Si Si8 0.323047 0.311746 0.338438
O O1 0.692241 0.725122 0.456736
O O2 0.004360 0.892670 0.589970
O O3 0.795474 0.319166 0.721324
O O4 0.810498 0.034915 0.482841
O O5 0.606453 0.438542 0.199858
O O6 0.469103 0.335028 0.296526
O O7 0.774285 0.162008 0.223437
O O8 0.910090 0.467245 0.183407
O O9 0.695539 0.827074 0.250380
O O10 0.677945 0.294489 0.985835
O O11 0.040369 0.789479 0.103369
O O12 0.734092 0.593881 0.982969
O O13 0.846416 0.857238 0.974518
O O14 0.678224 0.987023 0.730297
O O15 0.843578 0.681002 0.742756
O O16 0.303820 0.602959 0.502459
#
# Coordination Sequence:
#
# PCOD9002944 Si02
#       8
#     2   2   2   2   2   2   2   2
#     4   8  15  30  52  76 101 129 165 210 252 291
#     4  11  21  32  51  79 107 135 166 203 252 306
#     4   9  18  34  56  79 101 129 169 213 252 294
#     4  10  21  37  55  74  99 134 174 213 252 295
#     4  10  21  37  55  74  99 134 174 213 252 295
#     4   9  18  34  56  79 101 129 169 213 252 294
#     4   8  15  30  52  76 101 129 165 210 252 291
#     4  11  21  32  51  79 107 135 166 203 252 306
#
# _framework density 27.742104000000001
#
# number of rings (size 3 to 8) (size 9 to 14) (size 15 to 20)
#    0.000    2.500    0.000    4.500    0.000    9.000 
#    0.000    1.250    0.000    7.500    0.000    0.000 
#    0.000    0.000    0.000    0.000    0.000    0.000 
#
# Total GULP energy -89668.958697 kJ/mol
# GULP energy per Si atom -5604.309919 kJ/mol
# Density = 2.767896 g / cm^3
# Si number density = 27.742104 Si / 1000 Ang^3
#
#
#
# Elastic Constant Matrix: (Units=GPa)
#
#
# Indices 1 2 3 4 5 6 
#
# 1 79.1648 19.6122 31.1899 20.1602 -8.4708 0.1182
# 2 19.6122 82.5909 25.9841 13.0699 11.9134 12.1701
# 3 31.1899 25.9841 185.9960 19.6206 -1.7324 11.4432
# 4 20.1602 13.0699 19.6206 50.6336 28.5458 7.5962
# 5 -8.4708 11.9134 -1.7324 28.5458 19.1454 12.8082
# 6 0.1182 12.1701 11.4432 7.5962 12.8082 36.0791
#
#
#
# Elastic Compliance Matrix: (Units=1/GPa)
#
#
# Indices 1 2 3 4 5 6 
#
# 1 0.001330 0.002275 -0.004765 0.027807 -0.051537 0.013181
# 2 0.002275 0.012190 -0.000061 -0.013055 0.018078 -0.007769
# 3 -0.004765 -0.000061 0.005410 0.005817 -0.010899 0.000965
# 4 0.027807 -0.013055 0.005817 -0.054292 0.121448 -0.029216
# 5 -0.051537 0.018078 -0.010899 0.121448 -0.190325 0.039524
# 6 0.013181 -0.007769 0.000965 -0.029216 0.039524 0.022108
#
#
# Mechanical properties :
#
#
# Convention : Reuss Voigt Hill
#
# Bulk Modulus (GPa) = 72.32388 55.70270 64.01329
# Shear Modulus (GPa) = -25.79086 39.23599 6.72257
#
# Velocity S-wave (km/s) = -3.05235 3.76481 1.55836
# Velocity P-wave (km/s) = 3.70192 6.24666 5.13444
#
# Compressibility (1/GPa) = 0.01382669
#
# Stress axis : x y z
#
# Youngs Moduli (GPa) = 751.79829 82.03444 184.85788
#
# Poissons Ratio (x) = -0.18659 0.88088
# Poissons Ratio (y) = -1.70999 0.01126
# Poissons Ratio (z) = 3.58243 0.00500
#
# Static dielectric constant tensor:
#      x y z
#    x 2.118420 0.007830 0.021920 
#    y 0.007830 2.220590 -0.001070 
#    z 0.021920 -0.001070 2.144220 
# 
# From -- ./inp_files/179135.got.cif
#   From: 2010.05.17/outbox.cif.g08.bks.cpg/sg2_90_cif.got.tgz:179135.got - 2010.06.03 11:33:40.
