data_PCOD9002060
_publ_section_title
;
Structure prediction by ZEFSAII (Michael W. Deem and Ramdas Pophale) SiO2 
 PCOD9002060
Probable space group: P -1
;
_chemical_formula_sum "Si O2"
_cell_formula_units_Z 16
_cell_length_a 9.711744
_cell_length_b 16.066760
_cell_length_c 12.074439
_cell_angle_alpha 150.499629
_cell_angle_beta 71.300494
_cell_angle_gamma 126.786206
_cell_volume 639.732268
_symmetry_space_group_name_H-M "P -1"
_symmetry_group_IT_number 2
_symmetry_cell_setting 'triclinic'
loop_
_space_group_symop_operation_xyz
x,y,z
-x,-y,-z
loop_
_atom_site_type_symbol
_atom_site_label
_atom_site_fract_x
_atom_site_fract_y
_atom_site_fract_z
Si Si1 0.977598 0.765457 0.086256
Si Si2 0.477084 0.649264 0.599749
Si Si3 0.777113 0.101193 0.629076
Si Si4 0.599391 0.412020 0.918749
Si Si5 0.158255 0.919070 0.884611
Si Si6 0.210928 0.224606 0.052610
Si Si7 0.156577 0.463883 0.805178
Si Si8 0.887889 0.457786 0.329938
O O1 0.796391 0.536259 0.937468
O O2 0.884915 0.835425 0.112776
O O3 0.073728 0.698318 0.906049
O O4 0.135588 0.945139 0.347130
O O5 0.500000 0.500000 0.500000
O O6 0.397231 0.500499 0.335851
O O7 0.313350 0.657129 0.687305
O O8 0.684255 0.909485 0.863190
O O9 0.942315 0.247192 0.660122
O O10 0.565352 0.865140 0.370740
O O11 0.781871 0.293102 0.901384
O O12 0.500000 0.500000 0.000000
O O13 0.677297 0.500344 0.125682
O O14 0.242959 0.069639 0.923002
O O15 0.950124 0.827916 0.879005
O O16 0.089810 0.676662 0.592975
O O17 0.140238 0.440124 0.651143
#
# Coordination Sequence:
#
# PCOD9002060 Si02
#       8
#     2   2   2   2   2   2   2   2
#     4  10  23  39  55  83 117 147 185 234 287 337
#     4   9  19  35  54  81 111 139 182 228 272 330
#     4   9  20  40  60  82 115 151 190 235 284 339
#     4  11  24  38  57  87 117 150 190 235 286 339
#     4   9  19  35  58  82 107 147 189 229 279 333
#     4   9  19  37  56  79 115 148 182 232 281 333
#     4   9  20  38  60  83 113 152 190 235 284 336
#     4  10  21  36  57  84 110 144 188 230 278 335
#
# _framework density 25.010463000000001
#
# number of rings (size 3 to 8) (size 9 to 14) (size 15 to 20)
#    0.000    2.500    0.000    1.875    0.000   12.000 
#    0.000    1.250    0.000    0.000    0.000    0.000 
#    0.000    0.000    0.000    0.000    0.000    0.000 
#
# Total GULP energy -89417.191767 kJ/mol
# GULP energy per Si atom -5588.574485 kJ/mol
# Density = 2.495354 g / cm^3
# Si number density = 25.010463 Si / 1000 Ang^3
#
#
#
# Elastic Constant Matrix: (Units=GPa)
#
#
# Indices 1 2 3 4 5 6 
#
# 1 97.2597 23.6338 25.3702 2.2202 8.1587 -9.1651
# 2 23.6338 58.2695 27.5591 7.8240 -4.4280 -8.9263
# 3 25.3702 27.5591 101.5742 30.4344 14.9772 11.0213
# 4 2.2202 7.8240 30.4344 17.8066 3.3308 -0.1602
# 5 8.1587 -4.4280 14.9772 3.3308 32.9454 -5.8053
# 6 -9.1651 -8.9263 11.0213 -0.1602 -5.8053 46.8635
#
#
#
# Elastic Compliance Matrix: (Units=1/GPa)
#
#
# Indices 1 2 3 4 5 6 
#
# 1 0.012635 -0.003796 -0.004657 0.008433 -0.001910 0.002635
# 2 -0.003796 0.024106 -0.008525 0.002831 0.008999 0.006978
# 3 -0.004657 -0.008525 0.029138 -0.043562 -0.010749 -0.010868
# 4 0.008433 0.002831 -0.043562 0.127003 0.007691 0.013820
# 5 -0.001910 0.008999 -0.010749 0.007691 0.037653 0.008559
# 6 0.002635 0.006978 -0.010868 0.013820 0.008559 0.026847
#
#
# Mechanical properties :
#
#
# Convention : Reuss Voigt Hill
#
# Bulk Modulus (GPa) = 31.32505 45.58107 38.45306
# Shear Modulus (GPa) = 16.55754 31.55913 24.05833
#
# Velocity S-wave (km/s) = 2.57577 3.55609 3.10487
# Velocity P-wave (km/s) = 4.62581 5.92667 5.31618
#
# Compressibility (1/GPa) = 0.03192333
#
# Stress axis : x y z
#
# Youngs Moduli (GPa) = 79.14521 41.48391 34.31999
#
# Poissons Ratio (x) = 0.15747 0.15983
# Poissons Ratio (y) = 0.30043 0.29256
# Poissons Ratio (z) = 0.36858 0.35363
#
# Static dielectric constant tensor:
#      x y z
#    x 2.079490 -0.062750 -0.017240 
#    y -0.062750 1.983470 0.010180 
#    z -0.017240 0.010180 1.958360 
# 
# From -- ./inp_files/507336.got.cif
#   From: 2010.05.17/outbox.cif.g08.bks.cpg/sg2_254_cif.got.tgz:507336.got - 2010.06.03 11:33:40.
