data_PCOD9002272
_publ_section_title
;
Structure prediction by ZEFSAII (Michael W. Deem and Ramdas Pophale) SiO2 
 PCOD9002272
Probable space group: P -1
;
_chemical_formula_sum "Si O2"
_cell_formula_units_Z 16
_cell_length_a 7.917922
_cell_length_b 8.446260
_cell_length_c 14.252528
_cell_angle_alpha 137.809063
_cell_angle_beta 65.098854
_cell_angle_gamma 112.874729
_cell_volume 576.009689
_symmetry_space_group_name_H-M "P -1"
_symmetry_group_IT_number 2
_symmetry_cell_setting 'triclinic'
loop_
_space_group_symop_operation_xyz
x,y,z
-x,-y,-z
loop_
_atom_site_type_symbol
_atom_site_label
_atom_site_fract_x
_atom_site_fract_y
_atom_site_fract_z
Si Si1 0.152308 0.125109 0.446651
Si Si2 0.112086 0.551646 0.766709
Si Si3 0.618142 0.161820 0.619182
Si Si4 0.796620 0.356477 0.492807
Si Si5 0.557503 0.366495 0.119653
Si Si6 0.745924 0.026031 0.185407
Si Si7 0.630589 0.819012 0.748582
Si Si8 0.831802 0.489330 0.958648
O O1 0.173863 0.394811 0.597807
O O2 0.175941 0.087509 0.312264
O O3 0.334158 0.009323 0.386863
O O4 0.000000 0.000000 0.500000
O O5 0.275490 0.579176 0.819277
O O6 0.096327 0.809448 0.840143
O O7 0.926582 0.432594 0.812665
O O8 0.793903 0.263947 0.559080
O O9 0.525093 0.388073 0.772041
O O10 0.500000 0.000000 0.500000
O O11 0.762096 0.141032 0.335024
O O12 0.639123 0.535807 0.602928
O O13 0.000000 0.500000 0.500000
O O14 0.397483 0.188436 0.134013
O O15 0.662633 0.324123 0.978459
O O16 0.555156 0.089598 0.209310
O O17 0.771573 0.750830 0.067486
O O18 0.000000 0.500000 0.000000
#
# Coordination Sequence:
#
# PCOD9002272 Si02
#       8
#     2   2   2   2   2   2   2   2
#     4  12  23  36  57  92 126 155 188 250 321 362
#     4  10  21  36  59  88 123 152 202 250 298 357
#     4  11  20  33  58  86 118 155 202 243 295 357
#     4  11  22  35  56  96 132 155 188 248 323 370
#     4   9  19  35  59  84 114 151 198 254 285 345
#     4  11  21  37  65  88 121 161 203 253 298 357
#     4  10  21  38  60  90 124 155 201 250 300 366
#     4  10  21  38  58  94 115 156 209 260 292 344
#
# _framework density 27.77731
#
# number of rings (size 3 to 8) (size 9 to 14) (size 15 to 20)
#    0.000    1.500    2.500    3.750    3.500    0.000 
#    0.000    0.000    0.000    3.750    6.500    0.000 
#    0.000    0.000    0.000    0.000    0.000    0.000 
#
# Total GULP energy -89480.540855 kJ/mol
# GULP energy per Si atom -5592.533803 kJ/mol
# Density = 2.771409 g / cm^3
# Si number density = 27.777310 Si / 1000 Ang^3
#
#
#
# Elastic Constant Matrix: (Units=GPa)
#
#
# Indices 1 2 3 4 5 6 
#
# 1 79.6708 27.7654 24.1981 18.8986 -7.8630 -12.0660
# 2 27.7654 168.4098 66.0806 -51.9951 -19.0726 3.7557
# 3 24.1981 66.0806 178.0519 -25.1876 1.8466 -6.3138
# 4 18.8986 -51.9951 -25.1876 66.8491 -0.0318 -26.2334
# 5 -7.8630 -19.0726 1.8466 -0.0318 26.2036 6.5505
# 6 -12.0660 3.7557 -6.3138 -26.2334 6.5505 47.0317
#
#
#
# Elastic Compliance Matrix: (Units=1/GPa)
#
#
# Indices 1 2 3 4 5 6 
#
# 1 0.017202 -0.004832 -0.002008 -0.009876 0.002092 -0.001270
# 2 -0.004832 0.011464 -0.002092 0.010486 0.006425 0.002518
# 3 -0.002008 -0.002092 0.007162 0.002633 -0.003261 0.002536
# 4 -0.009876 0.010486 0.002633 0.032871 0.000719 0.015217
# 5 0.002092 0.006425 -0.003261 0.000719 0.045278 -0.006319
# 6 -0.001270 0.002518 0.002536 0.015217 -0.006319 0.030444
#
#
# Mechanical properties :
#
#
# Convention : Reuss Voigt Hill
#
# Bulk Modulus (GPa) = 55.66733 73.58009 64.62371
# Shear Modulus (GPa) = 29.71366 48.55609 39.13488
#
# Velocity S-wave (km/s) = 3.27419 4.18550 3.75758
# Velocity P-wave (km/s) = 5.86326 7.06433 6.49163
#
# Compressibility (1/GPa) = 0.01796386
#
# Stress axis : x y z
#
# Youngs Moduli (GPa) = 58.13212 87.22700 139.62776
#
# Poissons Ratio (x) = 0.42146 0.28043
# Poissons Ratio (y) = 0.28088 0.29212
# Poissons Ratio (z) = 0.11675 0.18249
#
# Static dielectric constant tensor:
#      x y z
#    x 2.178000 0.078820 -0.129320 
#    y 0.078820 2.327710 -0.049000 
#    z -0.129320 -0.049000 2.193470 
# 
# From -- ./inp_files/557540.got.cif
#   From: 2010.05.17/outbox.cif.g08.bks.cpg/sg2_279_cif.got.tgz:557540.got - 2010.06.03 11:33:40.
