data_PCOD9002605
_publ_section_title
;
Structure prediction by ZEFSAII (Michael W. Deem and Ramdas Pophale) SiO2 
 PCOD9002605
Probable space group: P -1
;
_chemical_formula_sum "Si O2"
_cell_formula_units_Z 14
_cell_length_a 13.774269
_cell_length_b 10.826565
_cell_length_c 12.643817
_cell_angle_alpha 62.737575
_cell_angle_beta 73.149101
_cell_angle_gamma 21.023344
_cell_volume 542.357622
_symmetry_space_group_name_H-M "P -1"
_symmetry_group_IT_number 2
_symmetry_cell_setting 'triclinic'
loop_
_space_group_symop_operation_xyz
x,y,z
-x,-y,-z
loop_
_atom_site_type_symbol
_atom_site_label
_atom_site_fract_x
_atom_site_fract_y
_atom_site_fract_z
Si Si1 0.859625 0.676857 0.669444
Si Si2 0.758090 0.265963 0.059658
Si Si3 0.650317 0.830233 0.404382
Si Si4 0.132322 0.222052 0.151006
Si Si5 0.577573 0.505188 0.567709
Si Si6 0.648619 0.654275 0.095670
Si Si7 0.091841 0.023744 0.649194
O O1 0.978249 0.589511 0.773760
O O2 0.147494 0.299759 0.647513
O O3 0.646887 0.819265 0.707875
O O4 0.611299 0.108843 0.540184
O O5 0.621722 0.580612 0.036339
O O6 0.920524 0.977261 0.220072
O O7 0.500000 0.500000 0.000000
O O8 0.000000 0.000000 0.000000
O O9 0.907599 0.382841 0.507828
O O10 0.500000 0.000000 0.500000
O O11 0.993153 0.253470 0.157392
O O12 0.485322 0.790055 0.192636
O O13 0.000000 0.500000 0.000000
O O14 0.500000 0.500000 0.500000
O O15 0.919305 0.112772 0.622046
O O16 0.430418 0.623904 0.669796
O O17 0.500000 0.000000 0.000000
#
# Coordination Sequence:
#
# PCOD9002605 Si02
#       7
#     2   2   2   2   2   2   2
#     4  10  21  36  62  92 121 163 213 264 336 381
#     4  12  26  46  70  99 139 183 225 274 343 411
#     4  10  21  42  60  88 127 170 220 269 321 393
#     4  10  21  40  62  95 132 163 216 278 332 393
#     4  10  21  36  63  92 123 159 211 266 334 390
#     4  10  23  43  66  92 136 172 225 275 330 389
#     4  10  23  41  61  93 128 168 218 273 330 396
#
# _framework density 25.813227000000001
#
# number of rings (size 3 to 8) (size 9 to 14) (size 15 to 20)
#    0.000    1.714    0.000    3.429    4.000    0.000 
#   15.429    0.000    0.000    0.000    0.000    0.000 
#    0.000    0.000    0.000    0.000    0.000    0.000 
#
# Total GULP energy -78116.993606 kJ/mol
# GULP energy per Si atom -5579.785258 kJ/mol
# Density = 2.575447 g / cm^3
# Si number density = 25.813227 Si / 1000 Ang^3
#
#
#
# Elastic Constant Matrix: (Units=GPa)
#
#
# Indices 1 2 3 4 5 6 
#
# 1 105.7404 34.1841 12.9869 -8.6185 28.5254 -12.4056
# 2 34.1841 149.0136 3.6178 5.3626 12.2259 -37.1301
# 3 12.9869 3.6178 56.2086 10.2676 14.0519 -14.8175
# 4 -8.6185 5.3626 10.2676 47.1601 2.4485 5.1410
# 5 28.5254 12.2259 14.0519 2.4485 53.9760 -6.5439
# 6 -12.4056 -37.1301 -14.8175 5.1410 -6.5439 56.1335
#
#
#
# Elastic Compliance Matrix: (Units=1/GPa)
#
#
# Indices 1 2 3 4 5 6 
#
# 1 0.012242 -0.002532 -0.001990 0.003297 -0.005582 -0.000448
# 2 -0.002532 0.008879 0.002188 -0.002592 -0.000387 0.006083
# 3 -0.001990 0.002188 0.022032 -0.005949 -0.004074 0.006893
# 4 0.003297 -0.002592 -0.005949 0.023998 -0.001290 -0.004904
# 5 -0.005582 -0.000387 -0.004074 -0.001290 0.022708 0.000200
# 6 -0.000448 0.006083 0.006893 -0.004904 0.000200 0.024032
#
#
# Mechanical properties :
#
#
# Convention : Reuss Voigt Hill
#
# Bulk Modulus (GPa) = 25.98508 45.83781 35.91144
# Shear Modulus (GPa) = 38.05464 48.79885 43.42675
#
# Velocity S-wave (km/s) = 3.84374 4.35266 4.10609
# Velocity P-wave (km/s) = 5.45779 6.56177 6.03508
#
# Compressibility (1/GPa) = 0.03848363
#
# Stress axis : x y z
#
# Youngs Moduli (GPa) = 81.68417 112.61920 45.38819
#
# Poissons Ratio (x) = 0.28518 0.09034
# Poissons Ratio (y) = 0.20685 -0.09929
# Poissons Ratio (z) = 0.16258 -0.24636
#
# Static dielectric constant tensor:
#      x y z
#    x 2.480530 -0.009260 0.160940 
#    y -0.009260 2.156070 -0.078580 
#    z 0.160940 -0.078580 2.193910 
# 
# From -- ./inp_files/441095.got.cif
#   From: 2010.05.17/outbox.cif.g08.bks.cpg/sg2_221_cif.got.tgz:441095.got - 2010.06.03 11:33:40.
