data_PCOD9002172
_publ_section_title
;
Structure prediction by ZEFSAII (Michael W. Deem and Ramdas Pophale) SiO2 
 PCOD9002172
Probable space group: P -1
;
_chemical_formula_sum "Si O2"
_cell_formula_units_Z 16
_cell_length_a 9.527904
_cell_length_b 14.841099
_cell_length_c 12.446423
_cell_angle_alpha 61.918211
_cell_angle_beta 31.019273
_cell_angle_gamma 75.737584
_cell_volume 750.939007
_symmetry_space_group_name_H-M "P -1"
_symmetry_group_IT_number 2
_symmetry_cell_setting 'triclinic'
loop_
_space_group_symop_operation_xyz
x,y,z
-x,-y,-z
loop_
_atom_site_type_symbol
_atom_site_label
_atom_site_fract_x
_atom_site_fract_y
_atom_site_fract_z
Si Si1 0.720967 0.199465 0.397000
Si Si2 0.821916 0.076499 0.210860
Si Si3 0.278003 0.839405 0.178943
Si Si4 0.648464 0.369155 0.765809
Si Si5 0.192145 0.516494 0.194763
Si Si6 0.901891 0.558433 0.933730
Si Si7 0.246520 0.949603 0.347018
Si Si8 0.938705 0.865079 0.205775
O O1 0.894653 0.171823 0.197774
O O2 0.691691 0.106572 0.555952
O O3 0.397565 0.187308 0.577697
O O4 0.879638 0.316891 0.278748
O O5 0.500000 0.000000 0.500000
O O6 0.983469 0.988060 0.149618
O O7 0.866103 0.124333 0.034719
O O8 0.455734 0.758117 0.118811
O O9 0.164501 0.861327 0.355485
O O10 0.017497 0.799798 0.286877
O O11 0.483880 0.951038 0.929341
O O12 0.737903 0.383153 0.825204
O O13 0.937025 0.423620 0.476036
O O14 0.414288 0.426890 0.861217
O O15 0.096289 0.508973 0.138309
O O16 0.500000 0.500000 0.000000
O O17 0.000000 0.500000 0.000000
O O18 0.000000 0.000000 0.500000
#
# Coordination Sequence:
#
# PCOD9002172 Si02
#       8
#     2   2   2   2   2   2   2   2
#     4  11  23  39  61  88 122 163 204 252 308 367
#     4   9  18  35  56  83 119 158 199 242 292 355
#     4  11  23  38  62  95 125 164 209 248 307 376
#     4  10  22  42  67  91 124 165 208 263 314 372
#     4   9  21  43  66  89 120 160 209 261 316 370
#     4  11  25  43  64  92 123 161 211 266 323 375
#     4  11  23  39  61  92 131 167 202 249 306 373
#     4  10  21  36  58  87 122 159 202 249 297 364
#
# _framework density 21.306656
#
# number of rings (size 3 to 8) (size 9 to 14) (size 15 to 20)
#    0.000    1.750    0.000    4.500    0.000   10.500 
#    0.000    0.000    0.000    0.000    0.000    0.000 
#    0.000    0.000    0.000    0.000    0.000    0.000 
#
# Total GULP energy -89282.041961 kJ/mol
# GULP energy per Si atom -5580.127623 kJ/mol
# Density = 2.125816 g / cm^3
# Si number density = 21.306656 Si / 1000 Ang^3
#
#
#
# Elastic Constant Matrix: (Units=GPa)
#
#
# Indices 1 2 3 4 5 6 
#
# 1 142.6833 50.7036 41.6599 31.9399 4.9728 10.9466
# 2 50.7036 82.0490 20.8899 17.6427 8.9103 3.6513
# 3 41.6599 20.8899 77.0574 20.3081 -0.9923 11.1056
# 4 31.9399 17.6427 20.3081 26.9041 13.7591 4.9088
# 5 4.9728 8.9103 -0.9923 13.7591 32.0103 7.4279
# 6 10.9466 3.6513 11.1056 4.9088 7.4279 26.9430
#
#
#
# Elastic Compliance Matrix: (Units=1/GPa)
#
#
# Indices 1 2 3 4 5 6 
#
# 1 0.011873 -0.004829 -0.001474 -0.011993 0.005265 -0.002829
# 2 -0.004829 0.016363 -0.001403 -0.002661 -0.003089 0.001659
# 3 -0.001474 -0.001403 0.019387 -0.015564 0.009533 -0.006995
# 4 -0.011993 -0.002661 -0.015564 0.081282 -0.034275 0.006289
# 5 0.005265 -0.003089 0.009533 -0.034275 0.049328 -0.013005
# 6 -0.002829 0.001659 -0.006995 0.006289 -0.013005 0.043362
#
#
# Mechanical properties :
#
#
# Convention : Reuss Voigt Hill
#
# Bulk Modulus (GPa) = 31.04411 58.69962 44.87187
# Shear Modulus (GPa) = 20.18220 29.74058 24.96139
#
# Velocity S-wave (km/s) = 3.08104 3.74014 3.42648
# Velocity P-wave (km/s) = 5.22100 6.80156 6.06301
#
# Compressibility (1/GPa) = 0.03221223
#
# Stress axis : x y z
#
# Youngs Moduli (GPa) = 84.22470 61.11322 51.58107
#
# Poissons Ratio (x) = 0.29512 0.07601
# Poissons Ratio (y) = 0.40673 0.07235
# Poissons Ratio (z) = 0.12412 0.08572
#
# Static dielectric constant tensor:
#      x y z
#    x 3.114950 2.682430 -0.806820 
#    y 2.682430 7.135540 -1.561330 
#    z -0.806820 -1.561330 2.224820 
# 
# From -- ./inp_files/398870.got.cif
#   From: 2010.05.17/outbox.cif.g08.bks.cpg/sg2_200_cif.got.tgz:398870.got - 2010.06.03 11:33:40.
