data_PCOD9002575
_publ_section_title
;
Structure prediction by ZEFSAII (Michael W. Deem and Ramdas Pophale) SiO2 
 PCOD9002575
Probable space group: P -1
;
_chemical_formula_sum "Si O2"
_cell_formula_units_Z 16
_cell_length_a 6.226966
_cell_length_b 24.806080
_cell_length_c 17.737528
_cell_angle_alpha 19.217161
_cell_angle_beta 115.163032
_cell_angle_gamma 104.358129
_cell_volume 699.517007
_symmetry_space_group_name_H-M "P -1"
_symmetry_group_IT_number 2
_symmetry_cell_setting 'triclinic'
loop_
_space_group_symop_operation_xyz
x,y,z
-x,-y,-z
loop_
_atom_site_type_symbol
_atom_site_label
_atom_site_fract_x
_atom_site_fract_y
_atom_site_fract_z
Si Si1 0.543528 0.791792 0.274345
Si Si2 0.290693 0.315440 0.192796
Si Si3 0.600357 0.648995 0.310031
Si Si4 0.195983 0.317960 0.852098
Si Si5 0.621598 0.260436 0.525054
Si Si6 0.084291 0.266153 0.372362
Si Si7 0.887216 0.028261 0.730547
Si Si8 0.814281 0.555043 0.155907
O O1 0.478471 0.773849 0.201791
O O2 0.365086 0.773407 0.338781
O O3 0.860859 0.615769 0.566884
O O4 0.500000 0.000000 0.000000
O O5 0.114950 0.261431 0.293410
O O6 0.600715 0.173680 0.452344
O O7 0.237008 0.319361 0.091623
O O8 0.186774 0.535400 0.907490
O O9 0.500000 0.500000 0.500000
O O10 0.574685 0.723422 0.122457
O O11 0.934688 0.533741 0.520970
O O12 0.278298 0.316245 0.952966
O O13 0.084580 0.174647 0.009511
O O14 0.335445 0.281745 0.425372
O O15 0.845941 0.090064 0.730506
O O16 0.647980 0.443521 0.272296
O O17 0.089257 0.085308 0.646211
#
# Coordination Sequence:
#
# PCOD9002575 Si02
#       8
#     2   2   2   2   2   2   2   2
#     4  11  23  38  60  90 117 148 201 254 297 352
#     4  10  21  36  62  86 125 159 197 245 298 353
#     4  10  22  43  64  83 119 162 196 244 304 358
#     4  10  24  42  61  88 122 159 200 242 300 364
#     4  11  21  37  64  88 118 157 197 251 295 350
#     4  10  21  37  60  92 122 157 201 243 300 350
#     4  11  22  37  62  92 123 160 200 245 292 357
#     4  11  23  41  60  88 121 159 198 244 304 354
#
# _framework density 22.872927000000001
#
# number of rings (size 3 to 8) (size 9 to 14) (size 15 to 20)
#    0.000    1.500    2.500    1.875    3.500    5.000 
#    0.000    0.625    0.000    0.000    0.000    0.000 
#    0.000    0.000    0.000    0.000    0.000    0.000 
#
# Total GULP energy -89432.279210 kJ/mol
# GULP energy per Si atom -5589.517451 kJ/mol
# Density = 2.282087 g / cm^3
# Si number density = 22.872927 Si / 1000 Ang^3
#
#
#
# Elastic Constant Matrix: (Units=GPa)
#
#
# Indices 1 2 3 4 5 6 
#
# 1 103.9299 72.4713 30.8470 -4.6228 -24.7525 -33.8407
# 2 72.4713 187.2067 44.2780 -13.2398 -17.4781 -58.5986
# 3 30.8470 44.2780 69.8724 0.8326 -7.2932 -19.0978
# 4 -4.6228 -13.2398 0.8326 46.3048 4.6213 -6.3958
# 5 -24.7525 -17.4781 -7.2932 4.6213 35.4702 5.0362
# 6 -33.8407 -58.5986 -19.0978 -6.3958 5.0362 50.0910
#
#
#
# Elastic Compliance Matrix: (Units=1/GPa)
#
#
# Indices 1 2 3 4 5 6 
#
# 1 0.016562 -0.003085 -0.002915 0.000761 0.008528 0.005708
# 2 -0.003085 0.010535 -0.002653 0.004030 0.000593 0.009683
# 3 -0.002915 -0.002653 0.017733 -0.001184 0.000244 0.001512
# 4 0.000761 0.004030 -0.001184 0.024161 -0.002020 0.008066
# 5 0.008528 0.000593 0.000244 -0.002020 0.034347 0.002837
# 6 0.005708 0.009683 0.001512 0.008066 0.002837 0.036469
#
#
# Mechanical properties :
#
#
# Convention : Reuss Voigt Hill
#
# Bulk Modulus (GPa) = 36.33436 72.91127 54.62281
# Shear Modulus (GPa) = 30.06807 40.60070 35.33438
#
# Velocity S-wave (km/s) = 3.62963 4.21771 3.93467
# Velocity P-wave (km/s) = 5.78666 7.46087 6.67645
#
# Compressibility (1/GPa) = 0.02752216
#
# Stress axis : x y z
#
# Youngs Moduli (GPa) = 60.37851 94.92140 56.39181
#
# Poissons Ratio (x) = 0.29285 0.16441
# Poissons Ratio (y) = 0.18628 0.14963
# Poissons Ratio (z) = 0.17603 0.25187
#
# Static dielectric constant tensor:
#      x y z
#    x 1.899350 -0.018060 0.064910 
#    y -0.018060 1.893210 0.050690 
#    z 0.064910 0.050690 1.900360 
# 
# From -- ./inp_files/551235.got.cif
#   From: 2010.05.17/outbox.cif.g08.bks.cpg/sg2_276_cif.got.tgz:551235.got - 2010.06.03 11:33:40.
