data_PCOD9002599
_publ_section_title
;
Structure prediction by ZEFSAII (Michael W. Deem and Ramdas Pophale) SiO2 
 PCOD9002599
Probable space group: P -1
;
_chemical_formula_sum "Si O2"
_cell_formula_units_Z 14
_cell_length_a 14.014177
_cell_length_b 22.776770
_cell_length_c 5.137305
_cell_angle_alpha 88.254187
_cell_angle_beta 92.876435
_cell_angle_gamma 158.575124
_cell_volume 597.645191
_symmetry_space_group_name_H-M "P -1"
_symmetry_group_IT_number 2
_symmetry_cell_setting 'triclinic'
loop_
_space_group_symop_operation_xyz
x,y,z
-x,-y,-z
loop_
_atom_site_type_symbol
_atom_site_label
_atom_site_fract_x
_atom_site_fract_y
_atom_site_fract_z
Si Si1 0.065071 0.836234 0.010277
Si Si2 0.110790 0.652449 0.516905
Si Si3 0.581110 0.210696 0.954443
Si Si4 0.578143 0.316869 0.232418
Si Si5 0.062308 0.974370 0.380464
Si Si6 0.776581 0.774258 0.853252
Si Si7 0.811185 0.168627 0.474881
O O1 0.124219 0.824616 0.790408
O O2 0.792968 0.716385 0.959795
O O3 0.084988 0.813661 0.285802
O O4 0.303955 0.020655 0.006246
O O5 0.214746 0.692631 0.806856
O O6 0.066699 0.696975 0.514557
O O7 0.847863 0.472441 0.399720
O O8 0.323754 0.760222 0.309681
O O9 0.587368 0.285526 0.967291
O O10 0.465238 0.318887 0.199558
O O11 0.371125 0.156042 0.371366
O O12 0.929561 0.856060 0.587202
O O13 0.000000 0.000000 0.500000
O O14 0.935320 0.897169 0.090997
O O15 0.500000 0.000000 0.500000
#
# Coordination Sequence:
#
# PCOD9002599 Si02
#       7
#     2   2   2   2   2   2   2
#     4  12  23  41  71  96 122 163 231 272 304 374
#     4  12  27  43  63  98 132 175 210 268 326 380
#     4  12  24  40  68  96 131 168 213 266 326 387
#     4  11  25  43  65  97 142 166 206 261 335 399
#     4  10  21  36  62  91 127 165 209 246 310 385
#     4  11  24  42  65 100 127 172 211 265 319 380
#     4  12  23  44  67  93 126 170 225 267 312 369
#
# _framework density 23.425270000000001
#
# number of rings (size 3 to 8) (size 9 to 14) (size 15 to 20)
#    0.000    0.571    4.286    4.714    2.000    4.571 
#    0.000    1.429    0.000    0.000    0.000    0.000 
#    0.000    0.000    0.000    0.000    0.000    0.000 
#
# Total GULP energy -78257.940462 kJ/mol
# GULP energy per Si atom -5589.852890 kJ/mol
# Density = 2.337195 g / cm^3
# Si number density = 23.425270 Si / 1000 Ang^3
#
#
#
# Elastic Constant Matrix: (Units=GPa)
#
#
# Indices 1 2 3 4 5 6 
#
# 1 131.3244 9.2610 13.6555 10.6859 -3.0867 5.0610
# 2 9.2610 37.0171 3.0536 13.5018 -3.0665 -3.0080
# 3 13.6555 3.0536 97.2609 13.8593 -0.4495 4.2525
# 4 10.6859 13.5018 13.8593 20.5132 -3.8241 -0.4299
# 5 -3.0867 -3.0665 -0.4495 -3.8241 51.5225 17.6750
# 6 5.0610 -3.0080 4.2525 -0.4299 17.6750 20.9452
#
#
#
# Elastic Compliance Matrix: (Units=1/GPa)
#
#
# Indices 1 2 3 4 5 6 
#
# 1 0.008141 -0.001040 -0.000536 -0.003022 0.001276 -0.003147
# 2 -0.001040 0.036688 0.002340 -0.025400 -0.001823 0.006062
# 3 -0.000536 0.002340 0.011693 -0.009146 0.000351 -0.002392
# 4 -0.003022 -0.025400 -0.009146 0.074078 0.005022 -0.003778
# 5 0.001276 -0.001823 0.000351 0.005022 0.028061 -0.024218
# 6 -0.003147 0.006062 -0.002392 -0.003778 -0.024218 0.070220
#
#
# Mechanical properties :
#
#
# Convention : Reuss Voigt Hill
#
# Bulk Modulus (GPa) = 17.22687 35.28254 26.25470
# Shear Modulus (GPa) = 20.26734 34.57167 27.41951
#
# Velocity S-wave (km/s) = 2.94460 3.84582 3.42498
# Velocity P-wave (km/s) = 4.35096 5.90041 5.18390
#
# Compressibility (1/GPa) = 0.05804886
#
# Stress axis : x y z
#
# Youngs Moduli (GPa) = 122.83489 27.25703 85.52207
#
# Poissons Ratio (x) = 0.02835 0.04586
# Poissons Ratio (y) = 0.12778 -0.20013
# Poissons Ratio (z) = 0.06587 -0.06378
#
# Static dielectric constant tensor:
#      x y z
#    x 1.969640 -0.000740 -0.002530 
#    y -0.000740 1.938290 -0.106250 
#    z -0.002530 -0.106250 1.975180 
# 
# From -- ./inp_files/101155.got.cif
#   From: 2010.05.17/outbox.cif.g08.bks.cpg/sg2_51_cif.got.tgz:101155.got - 2010.06.03 11:33:40.
