data_PCOD9002649
_publ_section_title
;
Structure prediction by ZEFSAII (Michael W. Deem and Ramdas Pophale) SiO2 
 PCOD9002649
Probable space group: P -1
;
_chemical_formula_sum "Si O2"
_cell_formula_units_Z 14
_cell_length_a 8.808476
_cell_length_b 8.522001
_cell_length_c 13.023802
_cell_angle_alpha 82.524522
_cell_angle_beta 46.793564
_cell_angle_gamma 100.081971
_cell_volume 657.661140
_symmetry_space_group_name_H-M "P -1"
_symmetry_group_IT_number 2
_symmetry_cell_setting 'triclinic'
loop_
_space_group_symop_operation_xyz
x,y,z
-x,-y,-z
loop_
_atom_site_type_symbol
_atom_site_label
_atom_site_fract_x
_atom_site_fract_y
_atom_site_fract_z
Si Si1 0.241116 0.529337 0.335837
Si Si2 0.003185 0.979996 0.879207
Si Si3 0.182791 0.178095 0.434569
Si Si4 0.477233 0.128277 0.912902
Si Si5 0.631132 0.345813 0.516492
Si Si6 0.847230 0.696881 0.342788
Si Si7 0.522179 0.009378 0.307987
O O1 0.226899 0.341706 0.327835
O O2 0.331761 0.683900 0.200858
O O3 0.399368 0.591176 0.359054
O O4 0.000000 0.500000 0.500000
O O5 0.017295 0.160942 0.811160
O O6 0.233225 0.947337 0.758054
O O7 0.000000 0.000000 0.000000
O O8 0.763364 0.851870 0.964713
O O9 0.094631 0.225880 0.577995
O O10 0.412927 0.149673 0.350873
O O11 0.000000 0.000000 0.500000
O O12 0.473769 0.042331 0.809424
O O13 0.500000 0.000000 0.000000
O O14 0.833124 0.503028 0.361762
O O15 0.408501 0.320151 0.558850
O O16 0.642149 0.162149 0.544759
#
# Coordination Sequence:
#
# PCOD9002649 Si02
#       7
#     2   2   2   2   2   2   2
#     4  10  21  38  60  87 119 153 203 254 293 352
#     4   9  19  35  56  83 116 154 200 244 296 352
#     4  11  22  35  59  89 125 156 194 254 309 351
#     4  10  21  36  63  86 113 160 206 244 292 358
#     4   8  16  32  55  83 109 143 201 246 276 340
#     4   9  18  32  58  85 114 153 201 246 293 347
#     4   9  19  37  55  84 122 154 194 248 303 349
#
# _framework density 21.287558000000001
#
# number of rings (size 3 to 8) (size 9 to 14) (size 15 to 20)
#    0.000    2.571    0.000    2.571    6.000    2.286 
#    0.000    1.429    0.000    0.000    0.000    0.000 
#    0.000    0.000    0.000    0.000    0.000    0.000 
#
# Total GULP energy -78003.668643 kJ/mol
# GULP energy per Si atom -5571.690617 kJ/mol
# Density = 2.123911 g / cm^3
# Si number density = 21.287558 Si / 1000 Ang^3
#
#
#
# Elastic Constant Matrix: (Units=GPa)
#
#
# Indices 1 2 3 4 5 6 
#
# 1 94.2642 35.7141 38.9149 -16.6929 -8.7149 -9.8345
# 2 35.7141 102.8885 51.2155 -29.8601 -10.1372 -26.5148
# 3 38.9149 51.2155 107.2594 -43.9731 -2.5910 -16.9931
# 4 -16.6929 -29.8601 -43.9731 34.7578 -5.7962 4.2768
# 5 -8.7149 -10.1372 -2.5910 -5.7962 42.8296 -1.5937
# 6 -9.8345 -26.5148 -16.9931 4.2768 -1.5937 40.2516
#
#
#
# Elastic Compliance Matrix: (Units=1/GPa)
#
#
# Indices 1 2 3 4 5 6 
#
# 1 0.013230 -0.002669 -0.003494 -0.000061 0.001844 0.000079
# 2 -0.002669 0.017757 -0.000415 0.013219 0.005784 0.009694
# 3 -0.003494 -0.000415 0.022842 0.026884 0.004428 0.005835
# 4 -0.000061 0.013219 0.026884 0.075115 0.015380 0.012670
# 5 0.001844 0.005784 0.004428 0.015380 0.027650 0.005591
# 6 0.000079 0.009694 0.005835 0.012670 0.005591 0.032587
#
#
# Mechanical properties :
#
#
# Convention : Reuss Voigt Hill
#
# Bulk Modulus (GPa) = 24.58644 61.78902 43.18773
# Shear Modulus (GPa) = 23.15945 35.47229 29.31587
#
# Velocity S-wave (km/s) = 3.30196 4.08651 3.71500
# Velocity P-wave (km/s) = 5.10999 7.16624 6.22362
#
# Compressibility (1/GPa) = 0.04067282
#
# Stress axis : x y z
#
# Youngs Moduli (GPa) = 75.58720 56.31548 43.77897
#
# Poissons Ratio (x) = 0.15031 0.15294
# Poissons Ratio (y) = 0.20175 0.01819
# Poissons Ratio (z) = 0.26407 0.02340
#
# Static dielectric constant tensor:
#      x y z
#    x 1.878030 -0.022160 -0.024840 
#    y -0.022160 1.799780 -0.034880 
#    z -0.024840 -0.034880 1.821170 
# 
# From -- ./inp_files/418193.got.cif
#   From: 2010.05.17/outbox.cif.g08.bks.cpg/sg2_210_cif.got.tgz:418193.got - 2010.06.03 11:33:40.
