data_PCOD9002848
_publ_section_title
;
Structure prediction by ZEFSAII (Michael W. Deem and Ramdas Pophale) SiO2 
 PCOD9002848
Probable space group: P -1
;
_chemical_formula_sum "Si O2"
_cell_formula_units_Z 14
_cell_length_a 9.383831
_cell_length_b 5.246619
_cell_length_c 25.869939
_cell_angle_alpha 110.160853
_cell_angle_beta 147.750677
_cell_angle_gamma 72.168495
_cell_volume 637.715312
_symmetry_space_group_name_H-M "P -1"
_symmetry_group_IT_number 2
_symmetry_cell_setting 'triclinic'
loop_
_space_group_symop_operation_xyz
x,y,z
-x,-y,-z
loop_
_atom_site_type_symbol
_atom_site_label
_atom_site_fract_x
_atom_site_fract_y
_atom_site_fract_z
Si Si1 0.420563 0.297938 0.634181
Si Si2 0.721987 0.073499 0.274510
Si Si3 0.331574 0.731696 0.934932
Si Si4 0.163686 0.557341 0.756695
Si Si5 0.737271 0.772190 0.780461
Si Si6 0.066526 0.545644 0.458485
Si Si7 0.588132 0.790706 0.614124
O O1 0.662797 0.455971 0.743509
O O2 0.236309 0.515469 0.561142
O O3 0.184493 0.235849 0.598355
O O4 0.526312 0.106725 0.607168
O O5 0.680144 0.248350 0.221162
O O6 0.454886 0.075633 0.227472
O O7 0.942129 0.263421 0.382732
O O8 0.807614 0.762321 0.268747
O O9 0.254676 0.617551 0.847010
O O10 0.051203 0.803260 0.882395
O O11 0.500000 0.500000 0.000000
O O12 0.500000 0.000000 0.000000
O O13 0.853462 0.655076 0.664460
O O14 0.650822 0.835870 0.698789
O O15 0.311301 0.650928 0.506817
#
# Coordination Sequence:
#
# PCOD9002848 Si02
#       7
#     2   2   2   2   2   2   2
#     4   9  18  35  60  91 127 169 235 264 295 362
#     4  11  25  43  62  95 141 173 207 257 331 379
#     4  11  25  47  76  99 120 159 217 265 322 400
#     4  11  27  43  64  97 135 165 206 274 330 379
#     4   9  23  40  67  95 126 175 214 263 318 381
#     4   9  20  34  57  93 126 180 223 263 299 365
#     4  10  21  36  66  86 132 176 234 262 297 363
#
# _framework density 21.953368999999999
#
# number of rings (size 3 to 8) (size 9 to 14) (size 15 to 20)
#    0.000    2.000    0.000    2.143   16.000    1.143 
#    0.000    4.286    0.000    0.000    0.000    0.000 
#    0.000    0.000    0.000    0.000    0.000    0.000 
#
# Total GULP energy -78006.207841 kJ/mol
# GULP energy per Si atom -5571.871989 kJ/mol
# Density = 2.190340 g / cm^3
# Si number density = 21.953369 Si / 1000 Ang^3
#
#
#
# Elastic Constant Matrix: (Units=GPa)
#
#
# Indices 1 2 3 4 5 6 
#
# 1 94.4258 40.8286 36.2393 1.0265 12.9079 -18.0314
# 2 40.8286 150.5751 43.2877 18.3323 22.1784 -24.7551
# 3 36.2393 43.2877 104.5447 10.1203 33.5025 -13.6875
# 4 1.0265 18.3323 10.1203 18.6671 7.3252 -5.4988
# 5 12.9079 22.1784 33.5025 7.3252 45.7396 -2.3799
# 6 -18.0314 -24.7551 -13.6875 -5.4988 -2.3799 31.8665
#
#
#
# Elastic Compliance Matrix: (Units=1/GPa)
#
#
# Indices 1 2 3 4 5 6 
#
# 1 0.014061 -0.002478 -0.003379 0.005444 -0.000880 0.005454
# 2 -0.002478 0.009405 -0.001353 -0.006534 -0.001612 0.004075
# 3 -0.003379 -0.001353 0.014563 -0.002360 -0.008563 0.002246
# 4 0.005444 -0.006534 -0.002360 0.065948 -0.006792 0.007864
# 5 -0.000880 -0.001612 -0.008563 -0.006792 0.030026 -0.004357
# 6 0.005454 0.004075 0.002246 0.007864 -0.004357 0.039629
#
#
# Mechanical properties :
#
#
# Convention : Reuss Voigt Hill
#
# Bulk Modulus (GPa) = 42.35590 65.58410 53.97000
# Shear Modulus (GPa) = 25.52048 34.53397 30.02723
#
# Velocity S-wave (km/s) = 3.41322 3.97049 3.70235
# Velocity P-wave (km/s) = 5.90499 7.13854 6.55087
#
# Compressibility (1/GPa) = 0.02360946
#
# Stress axis : x y z
#
# Youngs Moduli (GPa) = 71.11818 106.32910 68.66613
#
# Poissons Ratio (x) = 0.26347 0.23204
# Poissons Ratio (y) = 0.17622 0.09288
# Poissons Ratio (z) = 0.24033 0.14383
#
# Static dielectric constant tensor:
#      x y z
#    x 2.187510 0.284490 -0.015080 
#    y 0.284490 2.857440 -0.128260 
#    z -0.015080 -0.128260 1.775550 
# 
# From -- ./inp_files/37602.got.cif
#   From: 2010.05.17/outbox.cif.g08.bks.cpg/sg2_19_cif.got.tgz:37602.got - 2010.06.03 11:33:40.
