data_PCOD9002101
_publ_section_title
;
Structure prediction by ZEFSAII (Michael W. Deem and Ramdas Pophale) SiO2 
 PCOD9002101
Probable space group: P -1
;
_chemical_formula_sum "Si O2"
_cell_formula_units_Z 16
_cell_length_a 5.462791
_cell_length_b 18.098333
_cell_length_c 14.683102
_cell_angle_alpha 27.109632
_cell_angle_beta 77.207689
_cell_angle_gamma 80.107263
_cell_volume 644.057866
_symmetry_space_group_name_H-M "P -1"
_symmetry_group_IT_number 2
_symmetry_cell_setting 'triclinic'
loop_
_space_group_symop_operation_xyz
x,y,z
-x,-y,-z
loop_
_atom_site_type_symbol
_atom_site_label
_atom_site_fract_x
_atom_site_fract_y
_atom_site_fract_z
Si Si1 0.647089 0.785507 0.987036
Si Si2 0.501798 0.805881 0.705284
Si Si3 0.167769 0.606630 0.127726
Si Si4 0.328519 0.288835 0.406301
Si Si5 0.997590 0.194630 0.294227
Si Si6 0.474155 0.188971 0.815808
Si Si7 0.185062 0.838332 0.452857
Si Si8 0.021963 0.365087 0.569316
O O1 0.393686 0.726947 0.017378
O O2 0.584083 0.780706 0.105464
O O3 0.896192 0.686066 0.056794
O O4 0.727109 0.973373 0.751569
O O5 0.573667 0.774139 0.630341
O O6 0.219220 0.749746 0.813311
O O7 0.723650 0.737501 0.819539
O O8 0.500000 0.000000 0.500000
O O9 0.272404 0.474857 0.193393
O O10 0.116178 0.468415 0.362154
O O11 0.566624 0.256158 0.486908
O O12 0.064957 0.186932 0.560010
O O13 0.917470 0.226817 0.368840
O O14 0.000000 0.000000 0.500000
O O15 0.745281 0.278760 0.673621
O O16 0.238075 0.249942 0.711670
O O17 0.500000 0.000000 0.000000
O O18 0.000000 0.500000 0.500000
#
# Coordination Sequence:
#
# PCOD9002101 Si02
#       8
#     2   2   2   2   2   2   2   2
#     4  12  24  41  56  85 119 155 188 236 307 341
#     4   8  14  27  49  79 108 133 175 232 273 315
#     4  12  25  39  61  82 118 158 192 238 287 357
#     4  10  21  36  57  88 110 149 195 235 281 335
#     4   8  14  27  49  80 106 137 178 226 275 324
#     4  12  26  41  62  87 112 149 197 251 290 337
#     4  10  21  36  58  85 117 146 189 243 284 335
#     4  12  23  44  62  82 112 156 203 229 292 354
#
# _framework density 24.842490000000002
#
# number of rings (size 3 to 8) (size 9 to 14) (size 15 to 20)
#    0.000    1.500    2.500    3.000    3.500    0.000 
#    0.000    0.000    0.000    0.000    0.000   84.000 
#    0.000    0.000    0.000    0.000    0.000    0.000 
#
# Total GULP energy -89433.848002 kJ/mol
# GULP energy per Si atom -5589.615500 kJ/mol
# Density = 2.478595 g / cm^3
# Si number density = 24.842490 Si / 1000 Ang^3
#
#
#
# Elastic Constant Matrix: (Units=GPa)
#
#
# Indices 1 2 3 4 5 6 
#
# 1 280.2327 14.8624 47.1622 -6.9523 4.0563 -33.4871
# 2 14.8624 78.6081 2.2419 -16.2649 -0.9414 -16.9676
# 3 47.1622 2.2419 99.0979 -26.6352 4.2407 -18.9772
# 4 -6.9523 -16.2649 -26.6352 30.6134 -9.8631 1.9734
# 5 4.0563 -0.9414 4.2407 -9.8631 54.6447 -5.8348
# 6 -33.4871 -16.9676 -18.9772 1.9734 -5.8348 35.0942
#
#
#
# Elastic Compliance Matrix: (Units=1/GPa)
#
#
# Indices 1 2 3 4 5 6 
#
# 1 0.004200 -0.000252 -0.001620 -0.000789 -0.000007 0.003053
# 2 -0.000252 0.018302 0.005856 0.015263 0.003869 0.011560
# 3 -0.001620 0.005856 0.017485 0.018349 0.003271 0.010252
# 4 -0.000789 0.015263 0.018349 0.059194 0.011192 0.015081
# 5 -0.000007 0.003869 0.003271 0.011192 0.020824 0.006466
# 6 0.003053 0.011560 0.010252 0.015081 0.006466 0.042768
#
#
# Mechanical properties :
#
#
# Convention : Reuss Voigt Hill
#
# Bulk Modulus (GPa) = 20.85318 65.16352 43.00835
# Shear Modulus (GPa) = 29.27604 50.31529 39.79567
#
# Velocity S-wave (km/s) = 3.43660 4.50530 4.00674
# Velocity P-wave (km/s) = 4.91522 7.30419 6.22537
#
# Compressibility (1/GPa) = 0.04795433
#
# Stress axis : x y z
#
# Youngs Moduli (GPa) = 238.10509 54.63996 57.19250
#
# Poissons Ratio (x) = 0.01378 0.09266
# Poissons Ratio (y) = 0.06006 -0.33495
# Poissons Ratio (z) = 0.38578 -0.32000
#
# Static dielectric constant tensor:
#      x y z
#    x 2.082040 -0.074800 -0.014210 
#    y -0.074800 3.077150 -0.022890 
#    z -0.014210 -0.022890 1.848810 
# 
# From -- ./inp_files/116489.got.cif
#   From: 2010.05.17/outbox.cif.g08.bks.cpg/sg2_59_cif.got.tgz:116489.got - 2010.06.03 11:33:40.
