data_PCOD9002780
_publ_section_title
;
Structure prediction by ZEFSAII (Michael W. Deem and Ramdas Pophale) SiO2 
 PCOD9002780
Probable space group: P -1
;
_chemical_formula_sum "Si O2"
_cell_formula_units_Z 16
_cell_length_a 11.636673
_cell_length_b 5.284535
_cell_length_c 15.094498
_cell_angle_alpha 120.955439
_cell_angle_beta 49.894398
_cell_angle_gamma 110.235691
_cell_volume 608.691423
_symmetry_space_group_name_H-M "P -1"
_symmetry_group_IT_number 2
_symmetry_cell_setting 'triclinic'
loop_
_space_group_symop_operation_xyz
x,y,z
-x,-y,-z
loop_
_atom_site_type_symbol
_atom_site_label
_atom_site_fract_x
_atom_site_fract_y
_atom_site_fract_z
Si Si1 0.416896 0.413344 0.668228
Si Si2 0.446055 0.391631 0.853756
Si Si3 0.978686 0.618572 0.402225
Si Si4 0.816284 0.445428 0.873520
Si Si5 0.757781 0.152229 0.612509
Si Si6 0.218072 0.878942 0.825878
Si Si7 0.291620 0.801404 0.557127
Si Si8 0.064885 0.891499 0.080119
O O1 0.432877 0.520746 0.782626
O O2 0.301143 0.595440 0.700384
O O3 0.356696 0.075967 0.630947
O O4 0.580469 0.442356 0.550152
O O5 0.616271 0.279146 0.760518
O O6 0.342812 0.101232 0.841114
O O7 0.358915 0.571760 0.006902
O O8 0.876170 0.334783 0.376669
O O9 0.090621 0.707817 0.279746
O O10 0.111500 0.593336 0.403711
O O11 0.855891 0.863476 0.531859
O O12 0.850263 0.789428 0.895857
O O13 0.900757 0.320004 0.894815
O O14 0.700179 0.100254 0.532549
O O15 0.104642 0.039439 0.847808
O O16 0.125531 0.761234 0.935130
#
# Coordination Sequence:
#
# PCOD9002780 Si02
#       8
#     2   2   2   2   2   2   2   2
#     4  10  21  39  66 102 143 181 222 283 350 434
#     4  10  22  41  67  98 143 181 228 277 359 418
#     4  11  25  43  70  96 135 180 246 294 352 401
#     4  11  25  43  69 106 144 184 233 291 354 422
#     4  10  24  46  68  95 131 187 241 299 342 410
#     4  10  21  36  64  95 143 184 224 267 349 422
#     4  10  23  41  67 100 137 184 236 283 354 417
#     4  10  24  39  64 102 147 186 225 280 349 428
#
# _framework density 26.285893999999999
#
# number of rings (size 3 to 8) (size 9 to 14) (size 15 to 20)
#    0.000    1.750    1.250    1.125    7.000    2.000 
#    0.000    3.750    0.000    4.500    0.000    0.000 
#    0.000    0.000    0.000    0.000    0.000    0.000 
#
# Total GULP energy -89318.795160 kJ/mol
# GULP energy per Si atom -5582.424697 kJ/mol
# Density = 2.622607 g / cm^3
# Si number density = 26.285894 Si / 1000 Ang^3
#
#
#
# Elastic Constant Matrix: (Units=GPa)
#
#
# Indices 1 2 3 4 5 6 
#
# 1 78.5511 -14.9537 15.0009 8.4533 -25.8175 13.7320
# 2 -14.9537 17.5990 -1.6874 4.8076 6.8243 -4.2770
# 3 15.0009 -1.6874 143.5736 -1.5582 -15.3307 6.5754
# 4 8.4533 4.8076 -1.5582 35.1827 -7.1789 -12.2858
# 5 -25.8175 6.8243 -15.3307 -7.1789 51.6705 -1.3679
# 6 13.7320 -4.2770 6.5754 -12.2858 -1.3679 31.4992
#
#
#
# Elastic Compliance Matrix: (Units=1/GPa)
#
#
# Indices 1 2 3 4 5 6 
#
# 1 0.020673 0.015023 -0.000925 -0.009261 0.006516 -0.010108
# 2 0.015023 0.075152 -0.001286 -0.015833 -0.005066 -0.002472
# 3 -0.000925 -0.001286 0.007306 0.000810 0.001964 -0.000895
# 4 -0.009261 -0.015833 0.000810 0.039654 0.003673 0.017344
# 5 0.006516 -0.005066 0.001964 0.003673 0.024333 -0.001449
# 6 -0.010108 -0.002472 -0.000895 0.017344 -0.001449 0.042707
#
#
# Mechanical properties :
#
#
# Convention : Reuss Voigt Hill
#
# Bulk Modulus (GPa) = 7.76673 26.27150 17.01911
# Shear Modulus (GPa) = 22.01501 39.76141 30.88821
#
# Velocity S-wave (km/s) = 2.89714 3.89350 3.43167
# Velocity P-wave (km/s) = 3.76196 5.49806 4.71068
#
# Compressibility (1/GPa) = 0.12875428
#
# Stress axis : x y z
#
# Youngs Moduli (GPa) = 48.37324 13.30643 136.87118
#
# Poissons Ratio (x) = -0.19990 0.12662
# Poissons Ratio (y) = -0.72671 0.17601
# Poissons Ratio (z) = 0.04475 0.01711
#
# Static dielectric constant tensor:
#      x y z
#    x 2.077090 -0.016530 0.074880 
#    y -0.016530 2.051090 -0.047500 
#    z 0.074880 -0.047500 2.286220 
# 
# From -- ./inp_files/81248.got.cif
#   From: 2010.05.17/outbox.cif.g08.bks.cpg/sg2_41_cif.got.tgz:81248.got - 2010.06.03 11:33:40.
