data_PCOD9002952
_publ_section_title
;
Structure prediction by ZEFSAII (Michael W. Deem and Ramdas Pophale) SiO2 
 PCOD9002952
Probable space group: P -1
;
_chemical_formula_sum "Si O2"
_cell_formula_units_Z 16
_cell_length_a 9.786450
_cell_length_b 12.228616
_cell_length_c 31.007402
_cell_angle_alpha 151.654479
_cell_angle_beta 149.204127
_cell_angle_gamma 49.303213
_cell_volume 815.396677
_symmetry_space_group_name_H-M "P -1"
_symmetry_group_IT_number 2
_symmetry_cell_setting 'triclinic'
loop_
_space_group_symop_operation_xyz
x,y,z
-x,-y,-z
loop_
_atom_site_type_symbol
_atom_site_label
_atom_site_fract_x
_atom_site_fract_y
_atom_site_fract_z
Si Si1 0.662717 0.022970 0.597154
Si Si2 0.923132 0.279329 0.616126
Si Si3 0.638699 0.036765 0.811871
Si Si4 0.789114 0.451307 0.837008
Si Si5 0.072587 0.267581 0.169465
Si Si6 0.561106 0.742935 0.817093
Si Si7 0.617709 0.960923 0.348772
Si Si8 0.120059 0.782988 0.649210
O O1 0.855975 0.306870 0.764866
O O2 0.500000 0.000000 0.500000
O O3 0.379972 0.918280 0.514356
O O4 0.854774 0.866714 0.602993
O O5 0.998823 0.527464 0.752380
O O6 0.168707 0.175365 0.650437
O O7 0.816671 0.230259 0.520175
O O8 0.508552 0.995673 0.714947
O O9 0.383413 0.977699 0.757929
O O10 0.773018 0.838823 0.790683
O O11 0.909079 0.313878 0.986215
O O12 0.566359 0.563263 0.795613
O O13 0.642633 0.250657 0.766174
O O14 0.299693 0.344365 0.216869
O O15 0.787804 0.028925 0.991156
O O16 0.266761 0.761085 0.726897
O O17 0.000000 0.500000 0.500000
#
# Coordination Sequence:
#
# PCOD9002952 Si02
#       8
#     2   2   2   2   2   2   2   2
#     4  11  21  34  56  85 114 147 187 233 287 338
#     4  10  21  37  55  80 112 150 192 231 276 328
#     4  10  21  38  58  82 114 148 185 234 283 334
#     4  10  21  38  58  81 115 153 187 230 281 334
#     4   9  18  36  60  82 109 146 183 233 291 332
#     4   9  19  36  58  84 113 142 181 233 288 339
#     4  10  22  38  57  82 114 155 195 229 272 329
#     4  11  22  35  58  88 113 144 185 234 291 340
#
# _framework density 19.622350999999998
#
# number of rings (size 3 to 8) (size 9 to 14) (size 15 to 20)
#    0.000    2.000    0.000    4.875    0.000    4.000 
#    0.000    5.000    0.000    0.000    0.000    0.000 
#    0.000    0.000    0.000    0.000    0.000    0.000 
#
# Total GULP energy -89108.290107 kJ/mol
# GULP energy per Si atom -5569.268132 kJ/mol
# Density = 1.957769 g / cm^3
# Si number density = 19.622351 Si / 1000 Ang^3
#
#
#
# Elastic Constant Matrix: (Units=GPa)
#
#
# Indices 1 2 3 4 5 6 
#
# 1 62.5040 55.5122 29.4334 -13.3364 -16.5287 -23.2995
# 2 55.5122 185.8240 36.3983 -50.6589 -8.4293 -47.3416
# 3 29.4334 36.3983 61.9547 -15.7338 -18.8691 -7.2602
# 4 -13.3364 -50.6589 -15.7338 43.2235 -0.8793 0.1994
# 5 -16.5287 -8.4293 -18.8691 -0.8793 42.1938 -5.0679
# 6 -23.2995 -47.3416 -7.2602 0.1994 -5.0679 57.2530
#
#
#
# Elastic Compliance Matrix: (Units=1/GPa)
#
#
# Indices 1 2 3 4 5 6 
#
# 1 0.028690 -0.004539 -0.007388 0.000970 0.007972 0.007688
# 2 -0.004539 0.012830 -0.000301 0.013527 0.001996 0.008853
# 3 -0.007388 -0.000301 0.023864 0.006214 0.007901 0.000449
# 4 0.000970 0.013527 0.006214 0.041659 0.008285 0.012956
# 5 0.007972 0.001996 0.007901 0.008285 0.031972 0.008698
# 6 0.007688 0.008853 0.000449 0.012956 0.008698 0.028697
#
#
# Mechanical properties :
#
#
# Convention : Reuss Voigt Hill
#
# Bulk Modulus (GPa) = 24.43297 61.44116 42.93706
# Shear Modulus (GPa) = 24.29403 41.13000 32.71201
#
# Velocity S-wave (km/s) = 3.52245 4.58326 4.08742
# Velocity P-wave (km/s) = 5.38722 7.70637 6.64870
#
# Compressibility (1/GPa) = 0.04092831
#
# Stress axis : x y z
#
# Youngs Moduli (GPa) = 34.85519 77.94266 41.90326
#
# Poissons Ratio (x) = 0.35379 0.30960
# Poissons Ratio (y) = 0.15821 0.01260
# Poissons Ratio (z) = 0.25753 0.02343
#
# Static dielectric constant tensor:
#      x y z
#    x 1.736880 -0.029760 -0.048760 
#    y -0.029760 1.622800 0.013330 
#    z -0.048760 0.013330 1.735810 
# 
# From -- ./inp_files/319529.got.cif
#   From: 2010.05.17/outbox.cif.g08.bks.cpg/sg2_160_cif.got.tgz:319529.got - 2010.06.03 11:33:40.
