data_PCOD9002678
_publ_section_title
;
Structure prediction by ZEFSAII (Michael W. Deem and Ramdas Pophale) SiO2 
 PCOD9002678
Probable space group: P -1
;
_chemical_formula_sum "Si O2"
_cell_formula_units_Z 16
_cell_length_a 11.654869
_cell_length_b 10.061103
_cell_length_c 14.754146
_cell_angle_alpha 76.876209
_cell_angle_beta 151.154607
_cell_angle_gamma 94.836837
_cell_volume 788.339488
_symmetry_space_group_name_H-M "P -1"
_symmetry_group_IT_number 2
_symmetry_cell_setting 'triclinic'
loop_
_space_group_symop_operation_xyz
x,y,z
-x,-y,-z
loop_
_atom_site_type_symbol
_atom_site_label
_atom_site_fract_x
_atom_site_fract_y
_atom_site_fract_z
Si Si1 0.501780 0.345795 0.986257
Si Si2 0.521611 0.181037 0.483866
Si Si3 0.737219 0.728360 0.536845
Si Si4 0.211423 0.684566 0.992225
Si Si5 0.914399 0.945377 0.853762
Si Si6 0.533109 0.470342 0.365601
Si Si7 0.978973 0.160094 0.438564
Si Si8 0.991016 0.363796 0.575127
O O1 0.572758 0.327404 0.931075
O O2 0.713488 0.234187 0.201398
O O3 0.500000 0.500000 0.000000
O O4 0.225536 0.332469 0.807573
O O5 0.449307 0.171238 0.540752
O O6 0.313989 0.131940 0.288894
O O7 0.504781 0.343978 0.429019
O O8 0.792362 0.077788 0.683020
O O9 0.635413 0.595867 0.459365
O O10 0.820256 0.807991 0.497390
O O11 0.980093 0.675476 0.773264
O O12 0.131242 0.829828 0.971518
O O13 0.288623 0.553443 0.133199
O O14 0.000000 0.000000 0.000000
O O15 0.736598 0.396696 0.445679
O O16 0.008899 0.236960 0.539696
O O17 0.000000 0.000000 0.500000
O O18 0.000000 0.500000 0.500000
#
# Coordination Sequence:
#
# PCOD9002678 Si02
#       8
#     2   2   2   2   2   2   2   2
#     4  11  20  40  65  91 124 165 211 264 323 380
#     4  10  24  40  62  92 125 164 209 257 311 378
#     4  10  21  40  62  89 126 161 206 263 320 369
#     4  10  21  36  63  91 118 163 208 257 314 375
#     4  10  22  42  61  85 127 169 203 257 316 372
#     4  12  22  38  65  93 123 163 212 257 312 379
#     4  11  24  40  65  96 126 165 215 269 322 379
#     4  12  21  39  64  91 125 169 210 258 321 376
#
# _framework density 20.295825000000001
#
# number of rings (size 3 to 8) (size 9 to 14) (size 15 to 20)
#    0.000    1.250    3.750    1.875    0.000    7.500 
#    0.000    2.500    0.000    0.000    0.000    0.000 
#    0.000    0.000    0.000    0.000    0.000    0.000 
#
# Total GULP energy -89329.003151 kJ/mol
# GULP energy per Si atom -5583.062697 kJ/mol
# Density = 2.024963 g / cm^3
# Si number density = 20.295825 Si / 1000 Ang^3
#
#
#
# Elastic Constant Matrix: (Units=GPa)
#
#
# Indices 1 2 3 4 5 6 
#
# 1 75.3219 50.6014 22.6281 -3.7355 4.1399 -23.2434
# 2 50.6014 163.2195 48.0750 -6.4069 -12.8988 -8.2665
# 3 22.6281 48.0750 84.4047 -12.7380 -6.4993 -1.3241
# 4 -3.7355 -6.4069 -12.7380 41.7921 -8.6597 -2.4577
# 5 4.1399 -12.8988 -6.4993 -8.6597 23.0083 -2.1929
# 6 -23.2434 -8.2665 -1.3241 -2.4577 -2.1929 29.5485
#
#
#
# Elastic Compliance Matrix: (Units=1/GPa)
#
#
# Indices 1 2 3 4 5 6 
#
# 1 0.023810 -0.006198 -0.003207 -0.000342 -0.007241 0.016286
# 2 -0.006198 0.009356 -0.003109 0.000998 0.005677 -0.001893
# 3 -0.003207 -0.003109 0.015560 0.004877 0.004881 -0.001927
# 4 -0.000342 0.000998 0.004877 0.028450 0.013046 0.003563
# 5 -0.007241 0.005677 0.004881 0.013046 0.054355 0.001230
# 6 0.016286 -0.001893 -0.001927 0.003563 0.001230 0.046425
#
#
# Mechanical properties :
#
#
# Convention : Reuss Voigt Hill
#
# Bulk Modulus (GPa) = 42.19739 62.83945 52.51842
# Shear Modulus (GPa) = 23.70975 32.31254 28.01115
#
# Velocity S-wave (km/s) = 3.42161 3.99441 3.71906
# Velocity P-wave (km/s) = 6.03707 7.23207 6.66142
#
# Compressibility (1/GPa) = 0.02369815
#
# Stress axis : x y z
#
# Youngs Moduli (GPa) = 41.99857 106.88349 64.26687
#
# Poissons Ratio (x) = 0.66246 0.20609
# Poissons Ratio (y) = 0.26031 0.19983
# Poissons Ratio (z) = 0.13468 0.33233
#
# Static dielectric constant tensor:
#      x y z
#    x 1.736300 -0.030280 -0.003400 
#    y -0.030280 1.700390 -0.029090 
#    z -0.003400 -0.029090 1.725460 
# 
# From -- ./inp_files/515568.got.cif
#   From: 2010.05.17/outbox.cif.g08.bks.cpg/sg2_258_cif.got.tgz:515568.got - 2010.06.03 11:33:40.
