data_PCOD9002431
_publ_section_title
;
Structure prediction by ZEFSAII (Michael W. Deem and Ramdas Pophale) SiO2 
 PCOD9002431
Probable space group: P -1
;
_chemical_formula_sum "Si O2"
_cell_formula_units_Z 16
_cell_length_a 5.170603
_cell_length_b 8.492206
_cell_length_c 22.246658
_cell_angle_alpha 51.652341
_cell_angle_beta 66.235970
_cell_angle_gamma 78.999848
_cell_volume 698.757581
_symmetry_space_group_name_H-M "P -1"
_symmetry_group_IT_number 2
_symmetry_cell_setting 'triclinic'
loop_
_space_group_symop_operation_xyz
x,y,z
-x,-y,-z
loop_
_atom_site_type_symbol
_atom_site_label
_atom_site_fract_x
_atom_site_fract_y
_atom_site_fract_z
Si Si1 0.750442 0.394026 0.470999
Si Si2 0.718884 0.938185 0.623406
Si Si3 0.811794 0.286422 0.683236
Si Si4 0.729530 0.291143 0.358340
Si Si5 0.360841 0.183749 0.937788
Si Si6 0.089998 0.962589 0.901038
Si Si7 0.846103 0.373848 0.793110
Si Si8 0.297567 0.013251 0.746258
O O1 0.500000 0.500000 0.500000
O O2 0.031396 0.545614 0.413238
O O3 0.694235 0.367395 0.411207
O O4 0.764876 0.173373 0.548728
O O5 0.562322 0.817508 0.611943
O O6 0.021495 0.860983 0.627710
O O7 0.487164 0.906277 0.705892
O O8 0.031200 0.112257 0.716295
O O9 0.764099 0.390256 0.727310
O O10 0.516434 0.194524 0.707029
O O11 0.879321 0.472480 0.260787
O O12 0.279649 0.089663 0.902499
O O13 0.578801 0.377981 0.861320
O O14 0.500000 0.000000 0.000000
O O15 0.090842 0.201226 0.002230
O O16 0.220095 0.889141 0.844200
O O17 0.918918 0.144026 0.848389
#
# Coordination Sequence:
#
# PCOD9002431 Si02
#       8
#     2   2   2   2   2   2   2   2
#     4  11  24  45  70  96 126 166 223 277 317 371
#     4  12  26  45  63  91 133 176 215 261 324 383
#     4  10  21  36  60  94 116 159 209 271 309 362
#     4  11  27  45  64  93 132 177 212 260 322 387
#     4   9  16  31  55  97 126 153 196 272 325 358
#     4   9  18  31  59  95 125 155 206 270 313 368
#     4   9  19  34  60  85 128 164 208 253 320 376
#     4  11  21  38  61  88 129 161 212 253 319 372
#
# _framework density 22.897786
#
# number of rings (size 3 to 8) (size 9 to 14) (size 15 to 20)
#    0.000    1.750    2.500    1.500    1.750    4.500 
#    0.000    0.000    0.000    1.500    0.000    0.000 
#    0.000    0.000    0.000    0.000    0.000    0.000 
#
# Total GULP energy -89381.536008 kJ/mol
# GULP energy per Si atom -5586.346000 kJ/mol
# Density = 2.284567 g / cm^3
# Si number density = 22.897786 Si / 1000 Ang^3
#
#
#
# Elastic Constant Matrix: (Units=GPa)
#
#
# Indices 1 2 3 4 5 6 
#
# 1 58.5797 5.8401 8.6947 1.3336 1.2892 -9.8778
# 2 5.8401 45.9705 21.3260 11.3475 9.0941 -8.7229
# 3 8.6947 21.3260 127.7283 20.3197 -11.0678 -11.8393
# 4 1.3336 11.3475 20.3197 30.1178 6.2643 -0.5412
# 5 1.2892 9.0941 -11.0678 6.2643 23.2799 0.6371
# 6 -9.8778 -8.7229 -11.8393 -0.5412 0.6371 26.3638
#
#
#
# Elastic Compliance Matrix: (Units=1/GPa)
#
#
# Indices 1 2 3 4 5 6 
#
# 1 0.018338 -0.000578 -0.000728 0.000301 -0.001392 0.006393
# 2 -0.000578 0.028976 -0.004290 -0.005344 -0.012097 0.007627
# 3 -0.000728 -0.004290 0.010791 -0.007404 0.008762 0.002790
# 4 0.000301 -0.005344 -0.007404 0.042806 -0.012864 -0.003791
# 5 -0.001392 -0.012097 0.008762 -0.012864 0.055446 -0.002193
# 6 0.006393 0.007627 0.002790 -0.003791 -0.002193 0.044078
#
#
# Mechanical properties :
#
#
# Convention : Reuss Voigt Hill
#
# Bulk Modulus (GPa) = 21.31573 33.77780 27.54677
# Shear Modulus (GPa) = 22.00093 29.04680 25.52387
#
# Velocity S-wave (km/s) = 3.10309 3.56552 3.34231
# Velocity P-wave (km/s) = 4.70831 5.63331 5.19145
#
# Compressibility (1/GPa) = 0.04691371
#
# Stress axis : x y z
#
# Youngs Moduli (GPa) = 54.53129 34.51119 92.67309
#
# Poissons Ratio (x) = 0.01995 0.06744
# Poissons Ratio (y) = 0.03153 0.39754
# Poissons Ratio (z) = 0.03968 0.14804
#
# Static dielectric constant tensor:
#      x y z
#    x 1.950390 -0.032920 -0.027780 
#    y -0.032920 1.883680 0.070630 
#    z -0.027780 0.070630 1.977220 
# 
# From -- ./inp_files/44877.got.cif
#   From: 2010.05.17/outbox.cif.g08.bks.cpg/sg2_23_cif.got.tgz:44877.got - 2010.06.03 11:33:40.
