data_PCOD9002047
_publ_section_title
;
Structure prediction by ZEFSAII (Michael W. Deem and Ramdas Pophale) SiO2 
 PCOD9002047
Probable space group: P -1
;
_chemical_formula_sum "Si O2"
_cell_formula_units_Z 12
_cell_length_a 19.585913
_cell_length_b 19.417002
_cell_length_c 9.636827
_cell_angle_alpha 28.151811
_cell_angle_beta 152.613015
_cell_angle_gamma 164.563409
_cell_volume 438.638162
_symmetry_space_group_name_H-M "P -1"
_symmetry_group_IT_number 2
_symmetry_cell_setting 'triclinic'
loop_
_space_group_symop_operation_xyz
x,y,z
-x,-y,-z
loop_
_atom_site_type_symbol
_atom_site_label
_atom_site_fract_x
_atom_site_fract_y
_atom_site_fract_z
Si Si1 0.651566 0.842554 0.712990
Si Si2 0.500219 0.311762 0.603068
Si Si3 0.806321 0.114358 0.879116
Si Si4 0.907580 0.891634 0.342838
Si Si5 0.231362 0.748958 0.876107
Si Si6 0.750602 0.363045 0.430365
O O1 0.550254 0.706304 0.621923
O O2 0.386529 0.669966 0.629170
O O3 0.827392 0.882929 0.057524
O O4 0.818903 0.130482 0.485153
O O5 0.669440 0.582560 0.492442
O O6 0.670989 0.305136 0.945844
O O7 0.198953 0.057060 0.568373
O O8 0.805502 0.236595 0.780129
O O9 0.989350 0.349270 0.677222
O O10 0.494972 0.837295 0.766945
O O11 0.918592 0.043798 0.188241
O O12 0.000000 0.500000 0.000000
O O13 0.500000 0.000000 0.000000
#
# Coordination Sequence:
#
# PCOD9002047 Si02
#       6
#     2   2   2   2   2   2
#     4  10  21  36  57  81 105 140 186 219 256 312
#     4  11  22  35  52  80 114 140 167 216 276 318
#     4   9  18  33  50  77 107 136 170 217 271 302
#     4  11  21  34  55  81 110 137 172 220 267 318
#     4  10  22  38  53  73 109 148 178 210 258 320
#     4   9  18  32  53  76 103 135 178 222 253 304
#
# _framework density 27.357400999999999
#
# number of rings (size 3 to 8) (size 9 to 14) (size 15 to 20)
#    0.000    2.000    0.000    5.000    0.000   10.667 
#    0.000    0.000    0.000    2.000    0.000    0.000 
#    0.000    0.000    0.000    0.000    0.000    0.000 
#
# Total GULP energy -67210.952971 kJ/mol
# GULP energy per Si atom -5600.912748 kJ/mol
# Density = 2.729513 g / cm^3
# Si number density = 27.357401 Si / 1000 Ang^3
#
#
#
# Elastic Constant Matrix: (Units=GPa)
#
#
# Indices 1 2 3 4 5 6 
#
# 1 94.8901 27.0478 -6.4367 12.6822 15.3052 8.3554
# 2 27.0478 188.6275 52.6547 2.7857 -3.2663 13.2818
# 3 -6.4367 52.6547 142.4798 -20.3195 23.9405 -7.2458
# 4 12.6822 2.7857 -20.3195 43.0707 6.8815 -4.7012
# 5 15.3052 -3.2663 23.9405 6.8815 38.9804 0.9809
# 6 8.3554 13.2818 -7.2458 -4.7012 0.9809 42.5875
#
#
#
# Elastic Compliance Matrix: (Units=1/GPa)
#
#
# Indices 1 2 3 4 5 6 
#
# 1 0.012734 -0.002422 0.002197 -0.001718 -0.006214 -0.001416
# 2 -0.002422 0.007088 -0.004020 -0.002678 0.004557 -0.002820
# 3 0.002197 -0.004020 0.011374 0.006905 -0.009498 0.003739
# 4 -0.001718 -0.002678 0.006905 0.029239 -0.009098 0.005784
# 5 -0.006214 0.004557 -0.009498 -0.009098 0.036007 -0.003652
# 6 -0.001416 -0.002820 0.003739 0.005784 -0.003652 0.025997
#
#
# Mechanical properties :
#
#
# Convention : Reuss Voigt Hill
#
# Bulk Modulus (GPa) = 44.03804 63.61434 53.82619
# Shear Modulus (GPa) = 36.10172 48.44316 42.27244
#
# Velocity S-wave (km/s) = 3.63662 4.21259 3.93516
# Velocity P-wave (km/s) = 5.81081 6.85309 6.35336
#
# Compressibility (1/GPa) = 0.02270764
#
# Stress axis : x y z
#
# Youngs Moduli (GPa) = 78.52727 141.08590 87.91856
#
# Poissons Ratio (x) = 0.34170 -0.19319
# Poissons Ratio (y) = 0.19019 0.35342
# Poissons Ratio (z) = -0.17255 0.56714
#
# Static dielectric constant tensor:
#      x y z
#    x 2.114790 0.270650 0.055410 
#    y 0.270650 1.023220 -0.481840 
#    z 0.055410 -0.481840 1.984560 
# 
# From -- ./inp_files/78898.got.cif
#   From: 2010.05.17/outbox.cif.g08.bks.cpg/sg2_40_cif.got.tgz:78898.got - 2010.06.03 11:33:40.
