data_PCOD9002428
_publ_section_title
;
Structure prediction by ZEFSAII (Michael W. Deem and Ramdas Pophale) SiO2 
 PCOD9002428
Probable space group: P -1
;
_chemical_formula_sum "Si O2"
_cell_formula_units_Z 16
_cell_length_a 27.744491
_cell_length_b 12.334073
_cell_length_c 27.283674
_cell_angle_alpha 152.808097
_cell_angle_beta 10.543451
_cell_angle_gamma 150.972459
_cell_volume 780.696220
_symmetry_space_group_name_H-M "P -1"
_symmetry_group_IT_number 2
_symmetry_cell_setting 'triclinic'
loop_
_space_group_symop_operation_xyz
x,y,z
-x,-y,-z
loop_
_atom_site_type_symbol
_atom_site_label
_atom_site_fract_x
_atom_site_fract_y
_atom_site_fract_z
Si Si1 0.221003 0.162946 0.033779
Si Si2 0.763973 0.293481 0.800614
Si Si3 0.913713 0.026206 0.446563
Si Si4 0.262362 0.393287 0.401982
Si Si5 0.880029 0.516495 0.309696
Si Si6 0.616818 0.787384 0.331383
Si Si7 0.718984 0.064915 0.437237
Si Si8 0.585063 0.776234 0.026459
O O1 0.230231 0.441880 0.122212
O O2 0.293589 0.153301 0.014175
O O3 0.945311 0.058692 0.249368
O O4 0.443107 0.037404 0.729016
O O5 0.800811 0.118591 0.648332
O O6 0.005212 0.278565 0.590211
O O7 0.505936 0.272227 0.082822
O O8 0.180891 0.167644 0.223349
O O9 0.966558 0.747137 0.285739
O O10 0.680662 0.082474 0.663962
O O11 0.241770 0.397241 0.482263
O O12 0.270362 0.670105 0.489505
O O13 0.637698 0.377106 0.471249
O O14 0.137997 0.352293 0.994558
O O15 0.500000 0.000000 0.500000
O O16 0.733020 0.889900 0.306965
O O17 0.500000 0.500000 0.000000
#
# Coordination Sequence:
#
# PCOD9002428 Si02
#       8
#     2   2   2   2   2   2   2   2
#     4  10  21  37  63  97 125 159 213 279 322 370
#     4  10  21  36  60  93 132 172 210 254 316 393
#     4  12  26  42  64  97 138 177 215 268 329 386
#     4  10  21  36  60  93 132 172 210 254 316 393
#     4  12  26  42  64  97 138 177 215 268 329 386
#     4  12  24  42  70  96 127 175 225 272 318 384
#     4  10  21  37  63  97 125 159 213 279 322 370
#     4  12  24  42  70  96 127 175 225 272 318 384
#
# _framework density 20.494527000000001
#
# number of rings (size 3 to 8) (size 9 to 14) (size 15 to 20)
#    0.000    1.000    2.500    4.500    7.000    1.000 
#    0.000    0.000    0.000   15.000    0.000    0.000 
#    0.000    0.000    0.000    0.000    0.000    0.000 
#
# Total GULP energy -89465.429401 kJ/mol
# GULP energy per Si atom -5591.589338 kJ/mol
# Density = 2.044788 g / cm^3
# Si number density = 20.494527 Si / 1000 Ang^3
#
#
#
# Elastic Constant Matrix: (Units=GPa)
#
#
# Indices 1 2 3 4 5 6 
#
# 1 68.6026 34.5954 -1.4335 2.2539 -4.4991 13.4148
# 2 34.5954 82.9654 45.0556 -8.5100 -1.2092 -4.3338
# 3 -1.4335 45.0556 111.7432 -16.9373 0.9549 -8.1900
# 4 2.2539 -8.5100 -16.9373 19.5143 5.7137 -4.3594
# 5 -4.4991 -1.2092 0.9549 5.7137 36.3449 -4.7406
# 6 13.4148 -4.3338 -8.1900 -4.3594 -4.7406 15.8699
#
#
#
# Elastic Compliance Matrix: (Units=1/GPa)
#
#
# Indices 1 2 3 4 5 6 
#
# 1 0.030846 -0.017694 0.002426 -0.017177 0.001439 -0.033943
# 2 -0.017694 0.025680 -0.007216 0.011829 -0.000211 0.021432
# 3 0.002426 -0.007216 0.013852 0.010186 -0.001178 0.005573
# 4 -0.017177 0.011829 0.010186 0.079259 -0.008969 0.042100
# 5 0.001439 -0.000211 -0.001178 -0.008969 0.029717 0.004531
# 6 -0.033943 0.021432 0.005573 0.042100 0.004531 0.113352
#
#
# Mechanical properties :
#
#
# Convention : Reuss Voigt Hill
#
# Bulk Modulus (GPa) = 39.35212 46.63846 42.99529
# Shear Modulus (GPa) = 14.44488 26.68539 20.56513
#
# Velocity S-wave (km/s) = 2.65772 3.61234 3.17116
# Velocity P-wave (km/s) = 5.35359 6.34071 5.86794
#
# Compressibility (1/GPa) = 0.02541159
#
# Stress axis : x y z
#
# Youngs Moduli (GPa) = 32.41864 38.94107 72.19128
#
# Poissons Ratio (x) = 0.68903 -0.17517
# Poissons Ratio (y) = 0.57362 0.52091
# Poissons Ratio (z) = -0.07866 0.28098
#
# Static dielectric constant tensor:
#      x y z
#    x 1.711400 -0.027190 -0.009990 
#    y -0.027190 1.735290 0.002900 
#    z -0.009990 0.002900 1.703910 
# 
# From -- ./inp_files/364758.got.cif
#   From: 2010.05.17/outbox.cif.g08.bks.cpg/sg2_183_cif.got.tgz:364758.got - 2010.06.03 11:33:40.
