data_PCOD9002006
_publ_section_title
;
Structure prediction by ZEFSAII (Michael W. Deem and Ramdas Pophale) SiO2 
 PCOD9002006
Probable space group: P -1
;
_chemical_formula_sum "Si O2"
_cell_formula_units_Z 16
_cell_length_a 24.072055
_cell_length_b 5.609338
_cell_length_c 26.490010
_cell_angle_alpha 106.771119
_cell_angle_beta 10.814006
_cell_angle_gamma 105.808364
_cell_volume 641.351209
_symmetry_space_group_name_H-M "P -1"
_symmetry_group_IT_number 2
_symmetry_cell_setting 'triclinic'
loop_
_space_group_symop_operation_xyz
x,y,z
-x,-y,-z
loop_
_atom_site_type_symbol
_atom_site_label
_atom_site_fract_x
_atom_site_fract_y
_atom_site_fract_z
Si Si1 0.678258 0.054840 0.154191
Si Si2 0.704631 0.121965 0.981739
Si Si3 0.332849 0.260224 0.160508
Si Si4 0.368196 0.677098 0.212433
Si Si5 0.124001 0.855120 0.671434
Si Si6 0.616541 0.275074 0.420807
Si Si7 0.250302 0.330957 0.470322
Si Si8 0.159403 0.458960 0.909221
O O1 0.461030 0.166910 0.310528
O O2 0.848142 0.284767 0.038054
O O3 0.447112 0.960317 0.395344
O O4 0.910878 0.850266 0.909745
O O5 0.930773 0.214048 0.743394
O O6 0.448133 0.322806 0.242427
O O7 0.933862 0.052389 0.818151
O O8 0.551220 0.864820 0.092078
O O9 0.358910 0.378083 0.201788
O O10 0.978891 0.243739 0.469213
O O11 0.476731 0.331450 0.981860
O O12 0.500000 0.000000 0.000000
O O13 0.181331 0.599382 0.573752
O O14 0.500000 0.500000 0.500000
O O15 0.493060 0.372252 0.590774
O O16 0.500000 0.000000 0.500000
O O17 0.967154 0.264356 0.097977
O O18 0.000000 0.500000 0.000000
#
# Coordination Sequence:
#
# PCOD9002006 Si02
#       8
#     2   2   2   2   2   2   2   2
#     4  10  21  40  60  85 119 154 196 244 303 368
#     4  10  21  36  59  84 117 144 197 249 288 358
#     4  10  21  38  56  80 122 155 194 237 287 350
#     4  10  21  36  56  85 112 156 195 239 292 344
#     4  10  21  39  61  84 116 152 193 247 307 359
#     4  10  21  40  61  86 125 161 201 257 307 364
#     4  10  21  39  58  86 114 150 192 247 304 356
#     4  10  21  40  61  88 123 158 205 253 306 374
#
# _framework density 24.947330000000001
#
# number of rings (size 3 to 8) (size 9 to 14) (size 15 to 20)
#    0.000    2.000    0.000    3.000    0.000    2.000 
#   13.500    0.000    0.000    0.000    0.000    0.000 
#    0.000    0.000    0.000    0.000    0.000    0.000 
#
# Total GULP energy -89217.530902 kJ/mol
# GULP energy per Si atom -5576.095681 kJ/mol
# Density = 2.489055 g / cm^3
# Si number density = 24.947330 Si / 1000 Ang^3
#
#
#
# Elastic Constant Matrix: (Units=GPa)
#
#
# Indices 1 2 3 4 5 6 
#
# 1 39.8025 -10.9154 37.4958 -2.5945 13.9767 11.1296
# 2 -10.9154 97.8103 57.5900 5.4728 9.0041 28.5439
# 3 37.4958 57.5900 228.7622 -0.3215 27.5422 20.5676
# 4 -2.5945 5.4728 -0.3215 59.2492 12.6053 0.9803
# 5 13.9767 9.0041 27.5422 12.6053 40.4756 3.3311
# 6 11.1296 28.5439 20.5676 0.9803 3.3311 29.4062
#
#
#
# Elastic Compliance Matrix: (Units=1/GPa)
#
#
# Indices 1 2 3 4 5 6 
#
# 1 0.058305 0.024761 -0.010421 0.004413 -0.016876 -0.037049
# 2 0.024761 0.026358 -0.007193 0.000651 -0.007325 -0.029117
# 3 -0.010421 -0.007193 0.007420 0.000238 -0.000399 0.005774
# 4 0.004413 0.000651 0.000238 0.018634 -0.007449 -0.002246
# 5 -0.016876 -0.007325 -0.000399 -0.007449 0.033917 0.010183
# 6 -0.037049 -0.029117 0.005774 -0.002246 0.010183 0.071175
#
#
# Mechanical properties :
#
#
# Convention : Reuss Voigt Hill
#
# Bulk Modulus (GPa) = 9.40063 59.41286 34.40675
# Shear Modulus (GPa) = 21.09948 44.63982 32.86965
#
# Velocity S-wave (km/s) = 2.91135 4.23467 3.63376
# Velocity P-wave (km/s) = 3.88300 6.91209 5.60601
#
# Compressibility (1/GPa) = 0.10637587
#
# Stress axis : x y z
#
# Youngs Moduli (GPa) = 17.15118 37.93962 134.77849
#
# Poissons Ratio (x) = -0.93943 1.40455
# Poissons Ratio (y) = -0.42468 0.96950
# Poissons Ratio (z) = 0.17874 0.27291
#
# Static dielectric constant tensor:
#      x y z
#    x 1.788580 0.289120 0.222870 
#    y 0.289120 1.367790 -0.254080 
#    z 0.222870 -0.254080 1.645480 
# 
# From -- ./inp_files/624249.got.cif
#   From: 2010.05.17/outbox.cif.g08.bks.cpg/sg2_313_cif.got.tgz:624249.got - 2010.06.03 11:33:40.
