data_PCOD9002528
_publ_section_title
;
Structure prediction by ZEFSAII (Michael W. Deem and Ramdas Pophale) SiO2 
 PCOD9002528
Probable space group: P -1
;
_chemical_formula_sum "Si O2"
_cell_formula_units_Z 14
_cell_length_a 16.749111
_cell_length_b 14.005583
_cell_length_c 17.738584
_cell_angle_alpha 149.289266
_cell_angle_beta 16.220921
_cell_angle_gamma 144.053713
_cell_volume 589.903337
_symmetry_space_group_name_H-M "P -1"
_symmetry_group_IT_number 2
_symmetry_cell_setting 'triclinic'
loop_
_space_group_symop_operation_xyz
x,y,z
-x,-y,-z
loop_
_atom_site_type_symbol
_atom_site_label
_atom_site_fract_x
_atom_site_fract_y
_atom_site_fract_z
Si Si1 0.945077 0.206382 0.948413
Si Si2 0.342839 0.309037 0.521642
Si Si3 0.305598 0.378761 0.145497
Si Si4 0.348748 0.413420 0.303212
Si Si5 0.006360 0.417393 0.755564
Si Si6 0.410252 0.944515 0.419498
Si Si7 0.234587 0.822864 0.655936
O O1 0.133757 0.295519 0.773086
O O2 0.125258 0.013168 0.679183
O O3 0.630610 0.168240 0.179093
O O4 0.920584 0.367926 0.145712
O O5 0.500000 0.500000 0.500000
O O6 0.146843 0.299733 0.619420
O O7 0.387417 0.345826 0.136403
O O8 0.000000 0.500000 0.500000
O O9 0.500000 0.500000 0.000000
O O10 0.348931 0.177125 0.929006
O O11 0.162420 0.328886 0.479049
O O12 0.161826 0.617705 0.599702
O O13 0.665123 0.423550 0.058170
O O14 0.351803 0.831405 0.471081
O O15 0.519690 0.134665 0.479788
O O16 0.000000 0.000000 0.000000
#
# Coordination Sequence:
#
# PCOD9002528 Si02
#       7
#     2   2   2   2   2   2   2
#     4  11  21  37  62  95 125 159 202 260 325 361
#     4  10  21  36  61  93 129 155 200 262 322 369
#     4  12  26  45  61  88 128 177 213 252 302 375
#     4  12  23  39  65  87 128 164 212 247 310 372
#     4  11  21  39  62  94 123 162 207 259 310 376
#     4  11  25  39  62  91 130 162 209 258 311 373
#     4  11  23  38  61  94 124 164 199 265 314 362
#
# _framework density 23.732703000000001
#
# number of rings (size 3 to 8) (size 9 to 14) (size 15 to 20)
#    0.000    0.857    2.857    6.857    4.000    0.000 
#    0.000    0.000    0.000    5.143    0.000    0.000 
#    0.000    0.000    0.000    0.000    0.000    0.000 
#
# Total GULP energy -78278.957163 kJ/mol
# GULP energy per Si atom -5591.354083 kJ/mol
# Density = 2.367869 g / cm^3
# Si number density = 23.732703 Si / 1000 Ang^3
#
#
#
# Elastic Constant Matrix: (Units=GPa)
#
#
# Indices 1 2 3 4 5 6 
#
# 1 146.6928 15.9822 76.0123 4.5915 5.5298 -6.3808
# 2 15.9822 23.9269 13.5125 -10.7796 12.5856 -7.5325
# 3 76.0123 13.5125 158.2944 -13.3869 -6.8817 -4.1855
# 4 4.5915 -10.7796 -13.3869 35.8084 -7.5512 1.8353
# 5 5.5298 12.5856 -6.8817 -7.5512 60.3861 -11.7438
# 6 -6.3808 -7.5325 -4.1855 1.8353 -11.7438 14.5623
#
#
#
# Elastic Compliance Matrix: (Units=1/GPa)
#
#
# Indices 1 2 3 4 5 6 
#
# 1 0.010159 -0.005881 -0.004846 -0.005072 -0.000906 -0.000075
# 2 -0.005881 0.064741 -0.000891 0.017376 -0.006342 0.023350
# 3 -0.004846 -0.000891 0.009231 0.004255 0.002518 0.001563
# 4 -0.005072 0.017376 0.004255 0.035717 0.002932 0.005852
# 5 -0.000906 -0.006342 0.002518 0.002932 0.021315 0.013866
# 6 -0.000075 0.023350 0.001563 0.005852 0.013866 0.091610
#
#
# Mechanical properties :
#
#
# Convention : Reuss Voigt Hill
#
# Bulk Modulus (GPa) = 16.42214 59.99200 38.20707
# Shear Modulus (GPa) = 18.09584 37.04518 27.57051
#
# Velocity S-wave (km/s) = 2.76431 3.95515 3.41208
# Velocity P-wave (km/s) = 4.13802 6.79637 5.62645
#
# Compressibility (1/GPa) = 0.06089342
#
# Stress axis : x y z
#
# Youngs Moduli (GPa) = 98.43905 15.44627 108.32758
#
# Poissons Ratio (x) = 0.09083 0.52500
# Poissons Ratio (y) = 0.57888 0.09657
# Poissons Ratio (z) = 0.47707 0.01377
#
# Static dielectric constant tensor:
#      x y z
#    x 1.942080 0.021520 -0.045330 
#    y 0.021520 1.932260 0.019080 
#    z -0.045330 0.019080 1.897060 
# 
# From -- ./inp_files/45481.got.cif
#   From: 2010.05.17/outbox.cif.g08.bks.cpg/sg2_23_cif.got.tgz:45481.got - 2010.06.03 11:33:40.
