data_PCOD9002645
_publ_section_title
;
Structure prediction by ZEFSAII (Michael W. Deem and Ramdas Pophale) SiO2 
 PCOD9002645
Probable space group: P -1
;
_chemical_formula_sum "Si O2"
_cell_formula_units_Z 14
_cell_length_a 17.786024
_cell_length_b 13.661871
_cell_length_c 13.079228
_cell_angle_alpha 24.945546
_cell_angle_beta 148.659235
_cell_angle_gamma 143.486702
_cell_volume 690.925668
_symmetry_space_group_name_H-M "P -1"
_symmetry_group_IT_number 2
_symmetry_cell_setting 'triclinic'
loop_
_space_group_symop_operation_xyz
x,y,z
-x,-y,-z
loop_
_atom_site_type_symbol
_atom_site_label
_atom_site_fract_x
_atom_site_fract_y
_atom_site_fract_z
Si Si1 0.209499 0.821147 0.747395
Si Si2 0.080506 0.201694 0.330491
Si Si3 0.558274 0.024455 0.289380
Si Si4 0.591064 0.811039 0.733766
Si Si5 0.643741 0.634589 0.166225
Si Si6 0.904666 0.528205 0.707298
Si Si7 0.444096 0.745661 0.232142
O O1 0.320485 0.815751 0.788312
O O2 0.046672 0.689992 0.672445
O O3 0.198674 0.091970 0.505049
O O4 0.279139 0.716241 0.026982
O O5 0.137959 0.378391 0.319587
O O6 0.000000 0.000000 0.500000
O O7 0.966591 0.291304 0.035208
O O8 0.640376 0.925232 0.574776
O O9 0.480819 0.814494 0.326581
O O10 0.432784 0.172751 0.042298
O O11 0.482076 0.579698 0.798002
O O12 0.500000 0.000000 0.500000
O O13 0.691901 0.741179 0.009332
O O14 0.772047 0.539122 0.467374
O O15 0.500000 0.500000 0.500000
O O16 0.500000 0.000000 0.000000
#
# Coordination Sequence:
#
# PCOD9002645 Si02
#       7
#     2   2   2   2   2   2   2
#     4  10  22  37  58  91 128 162 206 251 314 381
#     4   9  20  37  52  86 124 168 200 237 306 382
#     4  10  22  38  64  91 125 166 207 267 314 372
#     4   9  21  39  63  86 119 155 215 267 318 380
#     4  10  21  40  63  93 114 162 214 264 323 376
#     4  10  21  36  63  83 127 163 204 258 310 380
#     4  10  23  37  58  94 134 171 206 249 315 387
#
# _framework density 20.262671999999998
#
# number of rings (size 3 to 8) (size 9 to 14) (size 15 to 20)
#    0.000    2.286    0.000    0.857    8.000    8.000 
#    0.000    0.714    0.000    8.571    0.000    0.000 
#    0.000    0.000    0.000    0.000    0.000    0.000 
#
# Total GULP energy -77998.791680 kJ/mol
# GULP energy per Si atom -5571.342263 kJ/mol
# Density = 2.021655 g / cm^3
# Si number density = 20.262672 Si / 1000 Ang^3
#
#
#
# Elastic Constant Matrix: (Units=GPa)
#
#
# Indices 1 2 3 4 5 6 
#
# 1 82.9186 33.5042 34.6453 16.3945 -25.8473 -11.0233
# 2 33.5042 69.2697 43.9399 -0.9711 2.0396 -16.2501
# 3 34.6453 43.9399 162.2796 18.9584 -11.2369 -24.3559
# 4 16.3945 -0.9711 18.9584 39.0950 -5.4244 3.0732
# 5 -25.8473 2.0396 -11.2369 -5.4244 36.9133 -6.5457
# 6 -11.0233 -16.2501 -24.3559 3.0732 -6.5457 23.5617
#
#
#
# Elastic Compliance Matrix: (Units=1/GPa)
#
#
# Indices 1 2 3 4 5 6 
#
# 1 0.026069 -0.011608 0.002265 -0.010550 0.020444 0.013588
# 2 -0.011608 0.024266 -0.005141 0.006430 -0.009651 0.002471
# 3 0.002265 -0.005141 0.009595 -0.005709 0.005682 0.009756
# 4 -0.010550 0.006430 -0.005709 0.032969 -0.006872 -0.012612
# 5 0.020444 -0.009651 0.005682 -0.006872 0.046674 0.022645
# 6 0.013588 0.002471 0.009756 -0.012612 0.022645 0.068524
#
#
# Mechanical properties :
#
#
# Convention : Reuss Voigt Hill
#
# Bulk Modulus (GPa) = 32.29717 59.84965 46.07341
# Shear Modulus (GPa) = 20.21129 33.40591 26.80860
#
# Velocity S-wave (km/s) = 3.16169 4.06475 3.64133
# Velocity P-wave (km/s) = 5.41316 7.18545 6.36132
#
# Compressibility (1/GPa) = 0.03096246
#
# Stress axis : x y z
#
# Youngs Moduli (GPa) = 38.35948 41.21009 104.21827
#
# Poissons Ratio (x) = 0.47838 -0.23606
# Poissons Ratio (y) = 0.44528 0.53576
# Poissons Ratio (z) = -0.08689 0.21185
#
# Static dielectric constant tensor:
#      x y z
#    x 1.768560 0.015470 -0.014170 
#    y 0.015470 1.787980 -0.039370 
#    z -0.014170 -0.039370 1.773080 
# 
# From -- ./inp_files/101521.got.cif
#   From: 2010.05.17/outbox.cif.g08.bks.cpg/sg2_51_cif.got.tgz:101521.got - 2010.06.03 11:33:40.
