data_PCOD9002403
_publ_section_title
;
Structure prediction by ZEFSAII (Michael W. Deem and Ramdas Pophale) SiO2 
 PCOD9002403
Probable space group: P -1
;
_chemical_formula_sum "Si O2"
_cell_formula_units_Z 16
_cell_length_a 12.512249
_cell_length_b 15.797383
_cell_length_c 11.206437
_cell_angle_alpha 89.720180
_cell_angle_beta 70.836442
_cell_angle_gamma 28.981323
_cell_volume 797.999756
_symmetry_space_group_name_H-M "P -1"
_symmetry_group_IT_number 2
_symmetry_cell_setting 'triclinic'
loop_
_space_group_symop_operation_xyz
x,y,z
-x,-y,-z
loop_
_atom_site_type_symbol
_atom_site_label
_atom_site_fract_x
_atom_site_fract_y
_atom_site_fract_z
Si Si1 0.721787 0.469043 0.427436
Si Si2 0.808544 0.131470 0.759677
Si Si3 0.717770 0.394878 0.013439
Si Si4 0.330551 0.048191 0.727780
Si Si5 0.797890 0.258101 0.240412
Si Si6 0.675454 0.765887 0.357581
Si Si7 0.093653 0.374310 0.355500
Si Si8 0.741292 0.090272 0.542825
O O1 0.860553 0.299391 0.295755
O O2 0.512028 0.567109 0.599556
O O3 0.498601 0.676774 0.422469
O O4 0.935620 0.391137 0.410305
O O5 0.467156 0.392023 0.891187
O O6 0.856995 0.036863 0.629495
O O7 0.954686 0.984062 0.819460
O O8 0.993928 0.086069 0.649237
O O9 0.764475 0.308111 0.116124
O O10 0.500000 0.500000 0.000000
O O11 0.037834 0.195846 0.846321
O O12 0.250796 0.201388 0.741040
O O13 0.515102 0.898778 0.541439
O O14 0.556082 0.878570 0.755784
O O15 0.428863 0.879522 0.384103
O O16 0.965277 0.511315 0.286609
O O17 0.000000 0.500000 0.500000
#
# Coordination Sequence:
#
# PCOD9002403 Si02
#       8
#     2   2   2   2   2   2   2   2
#     4   9  18  37  64  94 120 151 201 257 296 351
#     4  10  21  36  60  91 118 156 198 245 297 356
#     4  12  26  42  58  85 129 161 194 249 304 366
#     4  10  22  38  57  88 116 157 204 235 302 362
#     4  10  22  38  61  93 120 157 201 245 306 358
#     4   9  19  37  61  86 113 152 201 251 285 346
#     4   9  19  35  61  89 118 149 197 252 294 345
#     4   9  17  35  63  90 118 149 202 250 293 340
#
# _framework density 20.050131
#
# number of rings (size 3 to 8) (size 9 to 14) (size 15 to 20)
#    0.000    2.250    1.250    0.750    3.500    5.500 
#    0.000    1.250    0.000    0.000    0.000    0.000 
#    0.000    0.000    0.000    0.000    0.000    0.000 
#
# Total GULP energy -89233.687872 kJ/mol
# GULP energy per Si atom -5577.105492 kJ/mol
# Density = 2.000450 g / cm^3
# Si number density = 20.050131 Si / 1000 Ang^3
#
#
#
# Elastic Constant Matrix: (Units=GPa)
#
#
# Indices 1 2 3 4 5 6 
#
# 1 111.5692 30.9978 25.9092 -9.4635 -26.1195 -16.5114
# 2 30.9978 114.4302 52.2836 -6.7629 -16.4835 -12.0355
# 3 25.9092 52.2836 48.8681 -5.7988 -16.5519 -4.4282
# 4 -9.4635 -6.7629 -5.7988 27.7760 -2.4650 -6.3539
# 5 -26.1195 -16.4835 -16.5519 -2.4650 23.1887 5.4845
# 6 -16.5114 -12.0355 -4.4282 -6.3539 5.4845 24.6199
#
#
#
# Elastic Compliance Matrix: (Units=1/GPa)
#
#
# Indices 1 2 3 4 5 6 
#
# 1 0.014499 0.000004 -0.001121 0.007896 0.014398 0.008355
# 2 0.000004 0.017936 -0.019204 0.001583 -0.002259 0.006228
# 3 -0.001121 -0.019204 0.049402 0.006168 0.022089 -0.004583
# 4 0.007896 0.001583 0.006168 0.045270 0.015595 0.015388
# 5 0.014398 -0.002259 0.022089 0.015595 0.075210 -0.000205
# 6 0.008355 0.006228 -0.004583 0.015388 -0.000205 0.052458
#
#
# Mechanical properties :
#
#
# Convention : Reuss Voigt Hill
#
# Bulk Modulus (GPa) = 24.27490 54.80540 39.54015
# Shear Modulus (GPa) = 16.17355 26.16203 21.16779
#
# Velocity S-wave (km/s) = 2.84325 3.61616 3.25274
# Velocity P-wave (km/s) = 4.78666 6.69545 5.81984
#
# Compressibility (1/GPa) = 0.04119481
#
# Stress axis : x y z
#
# Youngs Moduli (GPa) = 68.97008 55.75527 20.24216
#
# Poissons Ratio (x) = -0.00021 0.02268
# Poissons Ratio (y) = -0.00026 0.38873
# Poissons Ratio (z) = 0.07729 1.07072
#
# Static dielectric constant tensor:
#      x y z
#    x 1.793530 0.003290 0.043330 
#    y 0.003290 1.736420 0.032070 
#    z 0.043330 0.032070 1.727240 
# 
# From -- ./inp_files/433933.got.cif
#   From: 2010.05.17/outbox.cif.g08.bks.cpg/sg2_217_cif.got.tgz:433933.got - 2010.06.03 11:33:40.
