data_PCOD9002408
_publ_section_title
;
Structure prediction by ZEFSAII (Michael W. Deem and Ramdas Pophale) SiO2 
 PCOD9002408
Probable space group: P -1
;
_chemical_formula_sum "Si O2"
_cell_formula_units_Z 16
_cell_length_a 19.062466
_cell_length_b 12.487442
_cell_length_c 13.708907
_cell_angle_alpha 145.079659
_cell_angle_beta 158.903244
_cell_angle_gamma 37.660854
_cell_volume 666.736955
_symmetry_space_group_name_H-M "P -1"
_symmetry_group_IT_number 2
_symmetry_cell_setting 'triclinic'
loop_
_space_group_symop_operation_xyz
x,y,z
-x,-y,-z
loop_
_atom_site_type_symbol
_atom_site_label
_atom_site_fract_x
_atom_site_fract_y
_atom_site_fract_z
Si Si1 0.311878 0.295822 0.370137
Si Si2 0.936872 0.556039 0.303988
Si Si3 0.187307 0.152315 0.294799
Si Si4 0.886433 0.296682 0.536899
Si Si5 0.897068 0.881965 0.637317
Si Si6 0.616632 0.116243 0.310783
Si Si7 0.512357 0.522410 0.650097
Si Si8 0.728683 0.926750 0.030871
O O1 0.330945 0.217797 0.447198
O O2 0.161056 0.489428 0.325654
O O3 0.480655 0.375811 0.584859
O O4 0.253616 0.131515 0.102672
O O5 0.924508 0.669067 0.473900
O O6 0.024130 0.335631 0.242111
O O7 0.073340 0.667945 0.497991
O O8 0.723599 0.579713 0.994141
O O9 0.253271 0.101291 0.452594
O O10 0.083278 0.978799 0.988391
O O11 0.081674 0.190598 0.760186
O O12 0.730647 0.146718 0.220113
O O13 0.808229 0.007551 0.525595
O O14 0.654916 0.296082 0.431000
O O15 0.462022 0.143199 0.219989
O O16 0.500000 0.000000 0.000000
O O17 0.500000 0.500000 0.500000
#
# Coordination Sequence:
#
# PCOD9002408 Si02
#       8
#     2   2   2   2   2   2   2   2
#     4  11  23  39  61  91 129 165 214 262 319 376
#     4  11  21  41  67  92 127 169 215 266 320 379
#     4  10  25  44  68  94 124 174 224 265 308 380
#     4  10  21  36  60  91 126 164 210 259 315 387
#     4  11  23  44  69  93 129 170 222 263 318 383
#     4  12  22  38  63  97 130 164 207 265 328 386
#     4  12  22  38  62  98 133 167 206 263 332 385
#     4  11  21  36  58  89 129 166 203 258 324 376
#
# _framework density 23.99747
#
# number of rings (size 3 to 8) (size 9 to 14) (size 15 to 20)
#    0.000    1.000    3.750    3.000    0.000    5.000 
#    0.000    1.250    2.750    0.000    0.000    0.000 
#    0.000    0.000    0.000    0.000    0.000    0.000 
#
# Total GULP energy -89196.018935 kJ/mol
# GULP energy per Si atom -5574.751183 kJ/mol
# Density = 2.394285 g / cm^3
# Si number density = 23.997470 Si / 1000 Ang^3
#
#
#
# Elastic Constant Matrix: (Units=GPa)
#
#
# Indices 1 2 3 4 5 6 
#
# 1 130.7069 14.9744 41.8862 22.8028 -20.8813 18.4831
# 2 14.9744 62.1383 23.0092 12.9188 -3.6893 9.1352
# 3 41.8862 23.0092 64.0861 20.2642 -19.6493 -1.5187
# 4 22.8028 12.9188 20.2642 22.9510 -0.2294 0.6427
# 5 -20.8813 -3.6893 -19.6493 -0.2294 45.5125 12.4137
# 6 18.4831 9.1352 -1.5187 0.6427 12.4137 39.8078
#
#
#
# Elastic Compliance Matrix: (Units=1/GPa)
#
#
# Indices 1 2 3 4 5 6 
#
# 1 0.012662 0.002145 -0.004180 -0.009799 0.006413 -0.008373
# 2 0.002145 0.020477 -0.005640 -0.008481 0.001903 -0.006367
# 3 -0.004180 -0.005640 0.029185 -0.018390 0.009690 0.001624
# 4 -0.009799 -0.008481 -0.018390 0.073902 -0.015307 0.009375
# 5 0.006413 0.001903 0.009690 -0.015307 0.032721 -0.013001
# 6 -0.008373 -0.006367 0.001624 0.009375 -0.013001 0.034434
#
#
# Mechanical properties :
#
#
# Convention : Reuss Voigt Hill
#
# Bulk Modulus (GPa) = 21.28774 46.29675 33.79225
# Shear Modulus (GPa) = 21.33208 33.45836 27.39522
#
# Velocity S-wave (km/s) = 2.98473 3.73801 3.38240
# Velocity P-wave (km/s) = 4.55722 6.16154 5.41907
#
# Compressibility (1/GPa) = 0.04697540
#
# Stress axis : x y z
#
# Youngs Moduli (GPa) = 78.97350 48.83605 34.26399
#
# Poissons Ratio (x) = -0.10477 0.14322
# Poissons Ratio (y) = -0.16942 0.19324
# Poissons Ratio (z) = 0.33010 0.27543
#
# Static dielectric constant tensor:
#      x y z
#    x 2.049290 -0.037330 -0.004470 
#    y -0.037330 1.980940 0.025330 
#    z -0.004470 0.025330 1.815580 
# 
# From -- ./inp_files/464932.got.cif
#   From: 2010.05.17/outbox.cif.g08.bks.cpg/sg2_233_cif.got.tgz:464932.got - 2010.06.03 11:33:40.
