data_PCOD9002890
_publ_section_title
;
Structure prediction by ZEFSAII (Michael W. Deem and Ramdas Pophale) SiO2 
 PCOD9002890
Probable space group: P -1
;
_chemical_formula_sum "Si O2"
_cell_formula_units_Z 12
_cell_length_a 10.553761
_cell_length_b 4.983051
_cell_length_c 16.454360
_cell_angle_alpha 107.160476
_cell_angle_beta 40.466237
_cell_angle_gamma 116.173722
_cell_volume 502.793463
_symmetry_space_group_name_H-M "P -1"
_symmetry_group_IT_number 2
_symmetry_cell_setting 'triclinic'
loop_
_space_group_symop_operation_xyz
x,y,z
-x,-y,-z
loop_
_atom_site_type_symbol
_atom_site_label
_atom_site_fract_x
_atom_site_fract_y
_atom_site_fract_z
Si Si1 0.561276 0.351545 0.754956
Si Si2 0.138848 0.303575 0.237682
Si Si3 0.258632 0.794320 0.093642
Si Si4 0.581918 0.287267 0.264448
Si Si5 0.005720 0.314797 0.059896
Si Si6 0.855918 0.082595 0.509464
O O1 0.649221 0.592264 0.802901
O O2 0.631890 0.810261 0.588899
O O3 0.453836 0.006735 0.802280
O O4 0.771990 0.337954 0.607935
O O5 0.163050 0.610141 0.206569
O O6 0.142617 0.031595 0.154416
O O7 0.958151 0.172796 0.380047
O O8 0.200500 0.520301 0.034597
O O9 0.500000 0.000000 0.000000
O O10 0.793147 0.309986 0.208838
O O11 0.576575 0.558562 0.235864
O O12 0.000000 0.500000 0.000000
O O13 0.000000 0.000000 0.000000
O O14 0.000000 0.000000 0.500000
#
# Coordination Sequence:
#
# PCOD9002890 Si02
#       6
#     2   2   2   2   2   2
#     4  10  21  36  68 105 142 177 232 275 351 410
#     4  12  23  42  69 102 149 180 228 296 362 408
#     4  12  30  46  70 104 142 184 243 301 365 412
#     4  10  23  38  68 104 138 175 250 276 341 414
#     4  12  28  51  75  97 138 194 247 293 354 432
#     4  10  21  37  70 111 145 185 233 285 346 432
#
# _framework density 23.866658999999999
#
# number of rings (size 3 to 8) (size 9 to 14) (size 15 to 20)
#    1.000    0.000    1.667    5.000    9.333    0.000 
#    0.000    1.667    0.000    0.000    0.000    0.000 
#    0.000    0.000    0.000    0.000    0.000    0.000 
#
# Total GULP energy -66942.174878 kJ/mol
# GULP energy per Si atom -5578.514573 kJ/mol
# Density = 2.381234 g / cm^3
# Si number density = 23.866659 Si / 1000 Ang^3
#
#
#
# Elastic Constant Matrix: (Units=GPa)
#
#
# Indices 1 2 3 4 5 6 
#
# 1 74.5679 37.6181 43.7225 -11.5739 -24.6975 -3.4814
# 2 37.6181 147.2897 35.9280 -2.8703 -0.7010 -17.0097
# 3 43.7225 35.9280 98.7570 -21.2370 -16.7468 1.1536
# 4 -11.5739 -2.8703 -21.2370 45.5011 -2.9776 1.9689
# 5 -24.6975 -0.7010 -16.7468 -2.9776 42.1722 -4.1979
# 6 -3.4814 -17.0097 1.1536 1.9689 -4.1979 51.0894
#
#
#
# Elastic Compliance Matrix: (Units=1/GPa)
#
#
# Indices 1 2 3 4 5 6 
#
# 1 0.023687 -0.004282 -0.006186 0.003585 0.011712 0.001152
# 2 -0.004282 0.008656 -0.002220 -0.001891 -0.003135 0.002456
# 3 -0.006186 -0.002220 0.015374 0.005704 0.002698 -0.001506
# 4 0.003585 -0.001891 0.005704 0.025873 0.006059 -0.001013
# 5 0.011712 -0.003135 0.002698 0.006059 0.032229 0.002108
# 6 0.001152 0.002456 -0.001506 -0.001013 0.002108 0.020716
#
#
# Mechanical properties :
#
#
# Convention : Reuss Voigt Hill
#
# Bulk Modulus (GPa) = 44.75990 61.68352 53.22171
# Shear Modulus (GPa) = 31.37594 41.30895 36.34245
#
# Velocity S-wave (km/s) = 3.62972 4.16483 3.90645
# Velocity P-wave (km/s) = 6.03004 7.00206 6.53415
#
# Compressibility (1/GPa) = 0.02234142
#
# Stress axis : x y z
#
# Youngs Moduli (GPa) = 42.21686 115.52089 65.04550
#
# Poissons Ratio (x) = 0.49469 0.40234
# Poissons Ratio (y) = 0.18078 0.14441
# Poissons Ratio (z) = 0.26114 0.25648
#
# Static dielectric constant tensor:
#      x y z
#    x 2.003160 0.105950 -0.060620 
#    y 0.105950 1.984600 -0.040250 
#    z -0.060620 -0.040250 2.056390 
# 
# From -- ./inp_files/571778.got.cif
#   From: 2010.05.17/outbox.cif.g08.bks.cpg/sg2_286_cif.got.tgz:571778.got - 2010.06.03 11:33:40.
