data_PCOD9002283
_publ_section_title
;
Structure prediction by ZEFSAII (Michael W. Deem and Ramdas Pophale) SiO2 
 PCOD9002283
Probable space group: P -1
;
_chemical_formula_sum "Si O2"
_cell_formula_units_Z 16
_cell_length_a 26.923547
_cell_length_b 18.448141
_cell_length_c 15.240826
_cell_angle_alpha 159.453377
_cell_angle_beta 161.243430
_cell_angle_gamma 18.143156
_cell_volume 705.592889
_symmetry_space_group_name_H-M "P -1"
_symmetry_group_IT_number 2
_symmetry_cell_setting 'triclinic'
loop_
_space_group_symop_operation_xyz
x,y,z
-x,-y,-z
loop_
_atom_site_type_symbol
_atom_site_label
_atom_site_fract_x
_atom_site_fract_y
_atom_site_fract_z
Si Si1 0.727166 0.980906 0.408544
Si Si2 0.319191 0.190087 0.209208
Si Si3 0.029254 0.602584 0.867911
Si Si4 0.073685 0.101183 0.811294
Si Si5 0.682480 0.679452 0.308929
Si Si6 0.783480 0.385041 0.980224
Si Si7 0.577356 0.425853 0.144195
Si Si8 0.557599 0.112486 0.088794
O O1 0.869268 0.693862 0.294745
O O2 0.579207 0.977006 0.218560
O O3 0.802290 0.131636 0.747917
O O4 0.636548 0.120001 0.322688
O O5 0.353450 0.407065 0.513222
O O6 0.513017 0.945525 0.291967
O O7 0.294941 0.092911 0.965350
O O8 0.154106 0.240709 0.053676
O O9 0.092007 0.660016 0.947261
O O10 0.809960 0.715466 0.627506
O O11 0.071105 0.714819 0.148418
O O12 0.245074 0.858271 0.871390
O O13 0.000000 0.000000 0.500000
O O14 0.815047 0.504950 0.253210
O O15 0.587937 0.551816 0.049921
O O16 0.570474 0.611851 0.854613
O O17 0.500000 0.500000 0.000000
#
# Coordination Sequence:
#
# PCOD9002283 Si02
#       8
#     2   2   2   2   2   2   2   2
#     4  10  21  36  59  89 122 160 201 251 306 372
#     4  10  22  41  66  87 120 165 208 255 308 367
#     4  11  24  39  59  91 130 163 203 256 312 368
#     4  11  27  44  61  94 131 164 212 264 309 371
#     4  10  22  42  63  95 127 156 211 260 306 372
#     4  10  21  38  63  89 122 166 198 255 314 368
#     4  11  23  42  70  91 120 172 213 256 314 370
#     4   9  20  38  58  88 119 157 205 252 301 369
#
# _framework density 22.675965000000001
#
# number of rings (size 3 to 8) (size 9 to 14) (size 15 to 20)
#    0.000    1.750    0.000    3.000    3.500    6.000 
#    4.500    0.000    0.000    0.000    0.000    0.000 
#    0.000    0.000    0.000    0.000    0.000    0.000 
#
# Total GULP energy -89472.983121 kJ/mol
# GULP energy per Si atom -5592.061445 kJ/mol
# Density = 2.262435 g / cm^3
# Si number density = 22.675965 Si / 1000 Ang^3
#
#
#
# Elastic Constant Matrix: (Units=GPa)
#
#
# Indices 1 2 3 4 5 6 
#
# 1 95.3223 19.0438 18.1328 17.7066 -11.6593 -14.3514
# 2 19.0438 29.8369 11.1551 7.7302 -1.3346 1.7230
# 3 18.1328 11.1551 88.2744 24.0891 -6.3907 -8.9597
# 4 17.7066 7.7302 24.0891 30.8170 0.1722 -5.4974
# 5 -11.6593 -1.3346 -6.3907 0.1722 30.3553 0.0376
# 6 -14.3514 1.7230 -8.9597 -5.4974 0.0376 25.0096
#
#
#
# Elastic Compliance Matrix: (Units=1/GPa)
#
#
# Indices 1 2 3 4 5 6 
#
# 1 0.015048 -0.008664 0.000788 -0.005646 0.005587 0.008265
# 2 -0.008664 0.042029 -0.003442 -0.004668 -0.002165 -0.010123
# 3 0.000788 -0.003442 0.015176 -0.010803 0.003403 0.003746
# 4 -0.005646 -0.004668 -0.010803 0.045927 -0.004913 0.003315
# 5 0.005587 -0.002165 0.003403 -0.004913 0.035734 0.003440
# 6 0.008265 -0.010123 0.003746 0.003315 0.003440 0.047490
#
#
# Mechanical properties :
#
#
# Convention : Reuss Voigt Hill
#
# Bulk Modulus (GPa) = 20.15434 34.45524 27.30479
# Shear Modulus (GPa) = 20.78312 28.24317 24.51315
#
# Velocity S-wave (km/s) = 3.03070 3.53301 3.29145
# Velocity P-wave (km/s) = 4.59936 5.64539 5.14901
#
# Compressibility (1/GPa) = 0.04961711
#
# Stress axis : x y z
#
# Youngs Moduli (GPa) = 66.45351 23.79299 65.89344
#
# Poissons Ratio (x) = 0.20614 -0.05190
# Poissons Ratio (y) = 0.57574 0.22680
# Poissons Ratio (z) = -0.05234 0.08189
#
# Static dielectric constant tensor:
#      x y z
#    x 1.845220 -0.002440 -0.011360 
#    y -0.002440 1.836830 -0.015420 
#    z -0.011360 -0.015420 1.812850 
# 
# From -- ./inp_files/71007.got.cif
#   From: 2010.05.17/outbox.cif.g08.bks.cpg/sg2_36_cif.got.tgz:71007.got - 2010.06.03 11:33:40.
