data_PCOD9002355
_publ_section_title
;
Structure prediction by ZEFSAII (Michael W. Deem and Ramdas Pophale) SiO2 
 PCOD9002355
Probable space group: P -1
;
_chemical_formula_sum "Si O2"
_cell_formula_units_Z 16
_cell_length_a 18.121414
_cell_length_b 5.590642
_cell_length_c 11.263672
_cell_angle_alpha 54.500200
_cell_angle_beta 73.001334
_cell_angle_gamma 106.584217
_cell_volume 720.755384
_symmetry_space_group_name_H-M "P -1"
_symmetry_group_IT_number 2
_symmetry_cell_setting 'triclinic'
loop_
_space_group_symop_operation_xyz
x,y,z
-x,-y,-z
loop_
_atom_site_type_symbol
_atom_site_label
_atom_site_fract_x
_atom_site_fract_y
_atom_site_fract_z
Si Si1 0.995621 0.347107 0.413423
Si Si2 0.507463 0.608363 0.229618
Si Si3 0.659457 0.457538 0.538296
Si Si4 0.373532 0.274654 0.180357
Si Si5 0.675296 0.332420 0.056738
Si Si6 0.194254 0.727692 0.125201
Si Si7 0.795200 0.804190 0.566443
Si Si8 0.647486 0.445651 0.268728
O O1 0.000000 0.500000 0.500000
O O2 0.090984 0.641588 0.212222
O O3 0.893946 0.176311 0.449145
O O4 0.000000 0.000000 0.500000
O O5 0.422413 0.509643 0.385442
O O6 0.468614 0.555064 0.129881
O O7 0.546502 0.374602 0.310503
O O8 0.598587 0.009779 0.100004
O O9 0.762100 0.758194 0.459470
O O10 0.659091 0.417328 0.409473
O O11 0.632591 0.085498 0.715923
O O12 0.288247 0.218632 0.315957
O O13 0.353187 0.393668 0.033009
O O14 0.657397 0.209370 0.236131
O O15 0.779962 0.467473 0.928445
O O16 0.204444 0.539999 0.291959
O O17 0.266900 0.144328 0.931489
#
# Coordination Sequence:
#
# PCOD9002355 Si02
#       8
#     2   2   2   2   2   2   2   2
#     4  10  22  38  71 102 127 158 209 264 323 375
#     4  10  22  38  56  82 116 161 215 256 304 364
#     4  11  23  38  57  85 122 165 207 249 310 370
#     4  10  21  36  60  85 119 156 201 262 311 368
#     4  10  21  37  59  88 120 155 207 258 316 360
#     4   9  21  39  63  90 120 153 203 258 309 368
#     4   9  21  39  62  91 119 155 202 258 309 370
#     4  11  23  37  59  83 122 167 204 254 304 377
#
# _framework density 22.198931999999999
#
# number of rings (size 3 to 8) (size 9 to 14) (size 15 to 20)
#    0.000    2.000    0.000    2.250    8.750   10.000 
#    0.000    0.625    0.000    1.500    0.000    0.000 
#    0.000    0.000    0.000    0.000    0.000    0.000 
#
# Total GULP energy -89259.193863 kJ/mol
# GULP energy per Si atom -5578.699616 kJ/mol
# Density = 2.214841 g / cm^3
# Si number density = 22.198932 Si / 1000 Ang^3
#
#
#
# Elastic Constant Matrix: (Units=GPa)
#
#
# Indices 1 2 3 4 5 6 
#
# 1 83.3292 36.3782 47.8992 10.6881 -26.9628 18.8783
# 2 36.3782 98.5409 37.2225 19.3422 -8.9667 26.2012
# 3 47.8992 37.2225 90.2478 5.7713 -10.6974 12.2756
# 4 10.6881 19.3422 5.7713 37.3204 4.5476 9.4266
# 5 -26.9628 -8.9667 -10.6974 4.5476 33.9312 -3.0117
# 6 18.8783 26.2012 12.2756 9.4266 -3.0117 36.9425
#
#
#
# Elastic Compliance Matrix: (Units=1/GPa)
#
#
# Indices 1 2 3 4 5 6 
#
# 1 0.026196 -0.001565 -0.009994 -0.005744 0.017484 -0.006065
# 2 -0.001565 0.015344 -0.003980 -0.005243 0.001612 -0.007291
# 3 -0.009994 -0.003980 0.017253 0.002392 -0.003760 0.001280
# 4 -0.005744 -0.005243 0.002392 0.032833 -0.009892 -0.003325
# 5 0.017484 0.001612 -0.003760 -0.009892 0.043688 -0.002743
# 6 -0.006065 -0.007291 0.001280 -0.003325 -0.002743 0.035539
#
#
# Mechanical properties :
#
#
# Convention : Reuss Voigt Hill
#
# Bulk Modulus (GPa) = 36.07890 57.23528 46.65709
# Shear Modulus (GPa) = 23.67781 31.68001 27.67891
#
# Velocity S-wave (km/s) = 3.26946 3.78179 3.53492
# Velocity P-wave (km/s) = 5.52633 6.70135 6.14200
#
# Compressibility (1/GPa) = 0.02771703
#
# Stress axis : x y z
#
# Youngs Moduli (GPa) = 38.17323 65.17399 57.95941
#
# Poissons Ratio (x) = 0.10198 0.57922
# Poissons Ratio (y) = 0.05973 0.23067
# Poissons Ratio (z) = 0.38149 0.25938
#
# Static dielectric constant tensor:
#      x y z
#    x 1.854340 -0.045120 0.006190 
#    y -0.045120 1.949720 -0.051490 
#    z 0.006190 -0.051490 1.862130 
# 
# From -- ./inp_files/99887.got.cif
#   From: 2010.05.17/outbox.cif.g08.bks.cpg/sg2_50_cif.got.tgz:99887.got - 2010.06.03 11:33:40.
