data_PCOD9002298
_publ_section_title
;
Structure prediction by ZEFSAII (Michael W. Deem and Ramdas Pophale) SiO2 
 PCOD9002298
Probable space group: P -1
;
_chemical_formula_sum "Si O2"
_cell_formula_units_Z 16
_cell_length_a 15.179727
_cell_length_b 5.777259
_cell_length_c 11.050858
_cell_angle_alpha 107.004529
_cell_angle_beta 121.182495
_cell_angle_gamma 108.553164
_cell_volume 649.239718
_symmetry_space_group_name_H-M "P -1"
_symmetry_group_IT_number 2
_symmetry_cell_setting 'triclinic'
loop_
_space_group_symop_operation_xyz
x,y,z
-x,-y,-z
loop_
_atom_site_type_symbol
_atom_site_label
_atom_site_fract_x
_atom_site_fract_y
_atom_site_fract_z
Si Si1 0.016818 0.936958 0.639348
Si Si2 0.479120 0.131690 0.885913
Si Si3 0.708422 0.707026 0.026911
Si Si4 0.788216 0.298997 0.442149
Si Si5 0.315912 0.423430 0.440202
Si Si6 0.428502 0.168338 0.249217
Si Si7 0.109064 0.808963 0.262298
Si Si8 0.253557 0.645838 0.203652
O O1 0.989560 0.133629 0.738888
O O2 0.160115 0.050742 0.780181
O O3 0.922416 0.581161 0.534672
O O4 0.000000 0.000000 0.500000
O O5 0.329940 0.984928 0.752334
O O6 0.509221 0.997495 0.773665
O O7 0.592167 0.474998 0.996495
O O8 0.500000 0.000000 0.000000
O O9 0.654271 0.836418 0.918071
O O10 0.747869 0.539163 0.938550
O O11 0.728443 0.476296 0.462753
O O12 0.816943 0.181691 0.563863
O O13 0.451541 0.503946 0.585686
O O14 0.323607 0.601443 0.355077
O O15 0.193441 0.097567 0.285628
O O16 0.340889 0.980328 0.268858
O O17 0.121066 0.575750 0.152485
#
# Coordination Sequence:
#
# PCOD9002298 Si02
#       8
#     2   2   2   2   2   2   2   2
#     4  11  25  43  62  87 120 161 208 250 298 362
#     4  10  21  38  61  90 121 156 204 254 301 357
#     4  11  24  39  60  93 125 158 202 251 303 356
#     4   9  20  38  61  88 116 157 205 244 297 362
#     4   9  18  36  60  90 123 159 197 240 301 367
#     4  10  21  36  59  91 129 161 195 251 306 355
#     4  10  21  39  62  85 118 161 201 248 298 355
#     4  10  21  37  59  91 124 158 200 247 302 364
#
# _framework density 24.644209
#
# number of rings (size 3 to 8) (size 9 to 14) (size 15 to 20)
#    0.000    2.000    0.000    2.625    0.000    8.500 
#    0.000    8.750    0.000    0.000    0.000    0.000 
#    0.000    0.000    0.000    0.000    0.000    0.000 
#
# Total GULP energy -89130.722171 kJ/mol
# GULP energy per Si atom -5570.670136 kJ/mol
# Density = 2.458812 g / cm^3
# Si number density = 24.644209 Si / 1000 Ang^3
#
#
#
# Elastic Constant Matrix: (Units=GPa)
#
#
# Indices 1 2 3 4 5 6 
#
# 1 166.5083 2.1782 40.8136 14.9476 17.6177 8.6921
# 2 2.1782 103.4103 44.9518 -4.8798 13.8170 31.4436
# 3 40.8136 44.9518 113.2455 15.5770 40.1610 25.6344
# 4 14.9476 -4.8798 15.5770 36.3417 -6.4403 -8.8106
# 5 17.6177 13.8170 40.1610 -6.4403 43.6624 3.2545
# 6 8.6921 31.4436 25.6344 -8.8106 3.2545 35.6302
#
#
#
# Elastic Compliance Matrix: (Units=1/GPa)
#
#
# Indices 1 2 3 4 5 6 
#
# 1 0.006956 0.001313 -0.001066 -0.003327 -0.002533 -0.002681
# 2 0.001313 0.014496 -0.003497 0.000177 -0.001095 -0.010453
# 3 -0.001066 -0.003497 0.025748 -0.019598 -0.023706 -0.017860
# 4 -0.003327 0.000177 -0.019598 0.047538 0.024516 0.024272
# 5 -0.002533 -0.001095 -0.023706 0.024516 0.048180 0.020302
# 6 -0.002681 -0.010453 -0.017860 0.024272 0.020302 0.054942
#
#
# Mechanical properties :
#
#
# Convention : Reuss Voigt Hill
#
# Bulk Modulus (GPa) = 24.56895 62.11683 43.34289
# Shear Modulus (GPa) = 22.94362 42.80823 32.87592
#
# Velocity S-wave (km/s) = 3.05453 4.17231 3.65639
# Velocity P-wave (km/s) = 4.73617 6.96212 5.95409
#
# Compressibility (1/GPa) = 0.04070178
#
# Stress axis : x y z
#
# Youngs Moduli (GPa) = 143.75373 68.98537 38.83791
#
# Poissons Ratio (x) = -0.09059 0.04138
# Poissons Ratio (y) = -0.18878 0.13581
# Poissons Ratio (z) = 0.15317 0.24124
#
# Static dielectric constant tensor:
#      x y z
#    x 2.084580 -0.089400 -0.060810 
#    y -0.089400 2.022650 0.125960 
#    z -0.060810 0.125960 1.975870 
# 
# From -- ./inp_files/459533.got.cif
#   From: 2010.05.17/outbox.cif.g08.bks.cpg/sg2_230_cif.got.tgz:459533.got - 2010.06.03 11:33:40.
