data_PCOD9002840
_publ_section_title
;
Structure prediction by ZEFSAII (Michael W. Deem and Ramdas Pophale) SiO2 
 PCOD9002840
Probable space group: P -1
;
_chemical_formula_sum "Si O2"
_cell_formula_units_Z 16
_cell_length_a 12.066469
_cell_length_b 10.419695
_cell_length_c 9.570563
_cell_angle_alpha 120.990880
_cell_angle_beta 127.812813
_cell_angle_gamma 54.404404
_cell_volume 749.236872
_symmetry_space_group_name_H-M "P -1"
_symmetry_group_IT_number 2
_symmetry_cell_setting 'triclinic'
loop_
_space_group_symop_operation_xyz
x,y,z
-x,-y,-z
loop_
_atom_site_type_symbol
_atom_site_label
_atom_site_fract_x
_atom_site_fract_y
_atom_site_fract_z
Si Si1 0.898349 0.536370 0.144276
Si Si2 0.058825 0.304858 0.483670
Si Si3 0.591357 0.006960 0.935520
Si Si4 0.644923 0.418763 0.961833
Si Si5 0.402378 0.155643 0.604462
Si Si6 0.595383 0.533486 0.384378
Si Si7 0.772841 0.641016 0.796560
Si Si8 0.215631 0.795126 0.820195
O O1 0.922935 0.679254 0.326840
O O2 0.068940 0.397037 0.186373
O O3 0.772611 0.493479 0.106912
O O4 0.830195 0.583876 0.964760
O O5 0.224103 0.194401 0.492560
O O6 0.000000 0.500000 0.500000
O O7 0.948891 0.212320 0.315413
O O8 0.474072 0.125758 0.798572
O O9 0.665554 0.829590 0.825482
O O10 0.729123 0.065092 0.104989
O O11 0.500000 0.000000 0.000000
O O12 0.579639 0.438651 0.765656
O O13 0.500000 0.500000 0.000000
O O14 0.728670 0.242579 0.996532
O O15 0.401696 0.318278 0.624387
O O16 0.500000 0.000000 0.500000
O O17 0.673370 0.551566 0.597813
O O18 0.692099 0.359285 0.294394
#
# Coordination Sequence:
#
# PCOD9002840 Si02
#       8
#     2   2   2   2   2   2   2   2
#     4  11  23  44  71 100 138 184 235 289 348 428
#     4  12  21  41  76 102 133 184 235 285 350 416
#     4  12  28  47  67  98 149 191 224 292 372 419
#     4  10  21  36  66 104 130 165 231 291 338 403
#     4  12  24  43  70 105 143 181 233 291 351 418
#     4  11  21  42  69 103 133 176 236 289 338 412
#     4  11  25  45  68  99 141 188 228 286 362 420
#     4  11  23  41  71 102 132 179 241 284 342 427
#
# _framework density 21.355062
#
# number of rings (size 3 to 8) (size 9 to 14) (size 15 to 20)
#    0.000    0.750    6.250    1.500    5.250    0.500 
#    2.250    3.750    0.000    0.000    0.000    0.000 
#    0.000    0.000    0.000    0.000    0.000    0.000 
#
# Total GULP energy -89231.749653 kJ/mol
# GULP energy per Si atom -5576.984353 kJ/mol
# Density = 2.130646 g / cm^3
# Si number density = 21.355062 Si / 1000 Ang^3
#
#
#
# Elastic Constant Matrix: (Units=GPa)
#
#
# Indices 1 2 3 4 5 6 
#
# 1 108.0505 17.1736 32.0685 -6.1350 20.6385 -16.0699
# 2 17.1736 43.2042 15.0286 6.7402 -2.5651 -19.1989
# 3 32.0685 15.0286 139.1902 -19.1015 12.2957 -10.8933
# 4 -6.1350 6.7402 -19.1015 31.1791 0.4715 -3.4886
# 5 20.6385 -2.5651 12.2957 0.4715 45.7107 -5.1733
# 6 -16.0699 -19.1989 -10.8933 -3.4886 -5.1733 24.6477
#
#
#
# Elastic Compliance Matrix: (Units=1/GPa)
#
#
# Indices 1 2 3 4 5 6 
#
# 1 0.011797 -0.003149 -0.001263 0.002756 -0.004730 0.004078
# 2 -0.003149 0.039614 -0.003168 -0.008122 0.007736 0.027878
# 3 -0.001263 -0.003168 0.008904 0.006043 -0.001941 0.001092
# 4 0.002756 -0.008122 0.006043 0.038445 -0.003397 0.002870
# 5 -0.004730 0.007736 -0.001941 -0.003397 0.025798 0.007017
# 6 0.004078 0.027878 0.001092 0.002870 0.007017 0.067307
#
#
# Mechanical properties :
#
#
# Convention : Reuss Voigt Hill
#
# Bulk Modulus (GPa) = 22.14565 46.55404 34.34984
# Shear Modulus (GPa) = 22.51500 35.38577 28.95039
#
# Velocity S-wave (km/s) = 3.25055 4.07507 3.68593
# Velocity P-wave (km/s) = 4.94781 6.63241 5.85106
#
# Compressibility (1/GPa) = 0.04515560
#
# Stress axis : x y z
#
# Youngs Moduli (GPa) = 84.77017 25.24368 112.31456
#
# Poissons Ratio (x) = 0.07948 0.14182
# Poissons Ratio (y) = 0.26691 0.35580
# Poissons Ratio (z) = 0.10704 0.07997
#
# Static dielectric constant tensor:
#      x y z
#    x 1.832250 0.002570 0.002640 
#    y 0.002570 1.776060 -0.042110 
#    z 0.002640 -0.042110 1.888430 
# 
# From -- ./inp_files/263156.got.cif
#   From: 2010.05.17/outbox.cif.g08.bks.cpg/sg2_132_cif.got.tgz:263156.got - 2010.06.03 11:33:40.
