data_PCOD9002835
_publ_section_title
;
Structure prediction by ZEFSAII (Michael W. Deem and Ramdas Pophale) SiO2 
 PCOD9002835
Probable space group: P -1
;
_chemical_formula_sum "Si O2"
_cell_formula_units_Z 16
_cell_length_a 14.994871
_cell_length_b 25.174315
_cell_length_c 9.841086
_cell_angle_alpha 27.843021
_cell_angle_beta 49.677311
_cell_angle_gamma 29.591469
_cell_volume 727.542478
_symmetry_space_group_name_H-M "P -1"
_symmetry_group_IT_number 2
_symmetry_cell_setting 'triclinic'
loop_
_space_group_symop_operation_xyz
x,y,z
-x,-y,-z
loop_
_atom_site_type_symbol
_atom_site_label
_atom_site_fract_x
_atom_site_fract_y
_atom_site_fract_z
Si Si1 0.114412 0.196652 0.745245
Si Si2 0.875977 0.473915 0.828742
Si Si3 0.594620 0.110899 0.601554
Si Si4 0.066458 0.898422 0.873714
Si Si5 0.200113 0.416832 0.650337
Si Si6 0.322304 0.700754 0.814902
Si Si7 0.833206 0.957867 0.428480
Si Si8 0.383191 0.994805 0.704625
O O1 0.899996 0.425750 0.490962
O O2 0.203935 0.186494 0.548614
O O3 0.062007 0.110470 0.944370
O O4 0.275166 0.065577 0.013631
O O5 0.657597 0.705314 0.577980
O O6 0.839414 0.495439 0.654829
O O7 0.071988 0.401779 0.816937
O O8 0.947944 0.293215 0.222726
O O9 0.607374 0.228626 0.379892
O O10 0.713216 0.014570 0.557533
O O11 0.252334 0.710794 0.009073
O O12 0.145306 0.923223 0.852155
O O13 0.898160 0.113766 0.470089
O O14 0.446870 0.199438 0.922880
O O15 0.500000 0.500000 0.000000
O O16 0.703300 0.022908 0.279531
O O17 0.500000 0.000000 0.500000
#
# Coordination Sequence:
#
# PCOD9002835 Si02
#       8
#     2   2   2   2   2   2   2   2
#     4  11  24  42  67  94 135 170 215 268 320 388
#     4  11  22  39  68  98 124 170 220 264 316 379
#     4  10  21  36  65  98 124 168 208 265 319 370
#     4   9  21  37  60  97 127 172 206 258 323 378
#     4  11  25  41  65  95 129 169 222 265 317 389
#     4   9  17  31  59  93 132 159 206 260 313 371
#     4  11  23  43  66  97 136 161 218 269 311 393
#     4  12  27  46  64  94 132 175 213 270 337 371
#
# _framework density 21.991842999999999
#
# number of rings (size 3 to 8) (size 9 to 14) (size 15 to 20)
#    0.000    1.500    3.750    1.500    3.500    2.500 
#    0.000    0.625    0.000    0.000    0.000    0.000 
#    0.000    0.000    0.000    0.000    0.000    0.000 
#
# Total GULP energy -89394.935066 kJ/mol
# GULP energy per Si atom -5587.183442 kJ/mol
# Density = 2.194179 g / cm^3
# Si number density = 21.991843 Si / 1000 Ang^3
#
#
#
# Elastic Constant Matrix: (Units=GPa)
#
#
# Indices 1 2 3 4 5 6 
#
# 1 95.1561 -3.3993 9.8438 -0.8424 9.9473 1.3726
# 2 -3.3993 70.3759 1.4626 -7.6452 -5.6309 -0.2501
# 3 9.8438 1.4626 15.4075 -1.0424 -8.1095 -2.4744
# 4 -0.8424 -7.6452 -1.0424 29.7924 0.2337 0.1921
# 5 9.9473 -5.6309 -8.1095 0.2337 18.9295 -5.1412
# 6 1.3726 -0.2501 -2.4744 0.1921 -5.1412 20.7641
#
#
#
# Elastic Compliance Matrix: (Units=1/GPa)
#
#
# Indices 1 2 3 4 5 6 
#
# 1 0.014719 -0.000425 -0.020628 -0.000214 -0.018899 -0.008114
# 2 -0.000425 0.015076 0.002835 0.003892 0.006447 0.002108
# 3 -0.020628 0.002835 0.122026 0.003621 0.073154 0.034019
# 4 -0.000214 0.003892 0.003621 0.034659 0.002616 0.000819
# 5 -0.018899 0.006447 0.073154 0.002616 0.105821 0.036222
# 6 -0.008114 0.002108 0.034019 0.000819 0.036222 0.061737
#
#
# Mechanical properties :
#
#
# Convention : Reuss Voigt Hill
#
# Bulk Modulus (GPa) = 8.66664 21.86151 15.26407
# Shear Modulus (GPa) = 11.65679 25.43269 18.54474
#
# Velocity S-wave (km/s) = 2.30478 3.40437 2.90704
# Velocity P-wave (km/s) = 3.32146 5.04136 4.26892
#
# Compressibility (1/GPa) = 0.11538501
#
# Stress axis : x y z
#
# Youngs Moduli (GPa) = 67.94118 66.33033 8.19500
#
# Poissons Ratio (x) = 0.02816 0.16905
# Poissons Ratio (y) = 0.02885 -0.02323
# Poissons Ratio (z) = 1.40150 -0.18805
#
# Static dielectric constant tensor:
#      x y z
#    x 1.832470 -0.039720 -0.005890 
#    y -0.039720 1.826690 0.007230 
#    z -0.005890 0.007230 1.812780 
# 
# From -- ./inp_files/314655.got.cif
#   From: 2010.05.17/outbox.cif.g08.bks.cpg/sg2_158_cif.got.tgz:314655.got - 2010.06.03 11:33:40.
