data_PCOD9002542
_publ_section_title
;
Structure prediction by ZEFSAII (Michael W. Deem and Ramdas Pophale) SiO2 
 PCOD9002542
Probable space group: P -1
;
_chemical_formula_sum "Si O2"
_cell_formula_units_Z 16
_cell_length_a 18.317233
_cell_length_b 18.086779
_cell_length_c 8.605417
_cell_angle_alpha 29.197788
_cell_angle_beta 39.079784
_cell_angle_gamma 30.554506
_cell_volume 703.543105
_symmetry_space_group_name_H-M "P -1"
_symmetry_group_IT_number 2
_symmetry_cell_setting 'triclinic'
loop_
_space_group_symop_operation_xyz
x,y,z
-x,-y,-z
loop_
_atom_site_type_symbol
_atom_site_label
_atom_site_fract_x
_atom_site_fract_y
_atom_site_fract_z
Si Si1 0.871648 0.527555 0.771124
Si Si2 0.963287 0.645313 0.654661
Si Si3 0.600682 0.044258 0.850802
Si Si4 0.852624 0.025869 0.293352
Si Si5 0.348094 0.573571 0.052119
Si Si6 0.256689 0.350038 0.540002
Si Si7 0.911598 0.150915 0.501922
Si Si8 0.385435 0.685559 0.448947
O O1 0.739175 0.626806 0.691719
O O2 0.000000 0.500000 0.500000
O O3 0.844884 0.657051 0.722093
O O4 0.905066 0.335352 0.133898
O O5 0.106819 0.527705 0.530766
O O6 0.913739 0.851553 0.397308
O O7 0.000000 0.500000 0.000000
O O8 0.555265 0.204194 0.767387
O O9 0.708626 0.055381 0.543288
O O10 0.500000 0.000000 0.000000
O O11 0.712228 0.845357 0.118097
O O12 0.986402 0.945110 0.339295
O O13 0.781604 0.244540 0.972942
O O14 0.332745 0.634679 0.784378
O O15 0.500000 0.500000 0.000000
O O16 0.360518 0.383528 0.392524
O O17 0.752695 0.200409 0.649919
O O18 0.000000 0.000000 0.500000
O O19 0.500000 0.500000 0.500000
#
# Coordination Sequence:
#
# PCOD9002542 Si02
#       8
#     2   2   2   2   2   2   2   2
#     4  10  21  36  61  96 134 164 207 281 341 384
#     4  11  21  37  65  99 132 158 226 278 324 406
#     4  11  23  42  69  93 134 188 232 270 348 416
#     4  11  22  41  67 100 127 182 229 278 338 410
#     4  11  24  45  64  91 139 175 219 278 352 400
#     4  11  21  41  64  94 129 174 214 274 341 391
#     4  12  20  40  72  94 131 175 227 275 330 416
#     4  11  26  46  69 102 136 184 234 277 340 413
#
# _framework density 22.742031999999998
#
# number of rings (size 3 to 8) (size 9 to 14) (size 15 to 20)
#    0.000    1.000    6.250    2.250    0.000    3.500 
#    2.250    0.625    0.000    0.000    0.000    0.000 
#    0.000    0.000    0.000    0.000    0.000    0.000 
#
# Total GULP energy -89073.385816 kJ/mol
# GULP energy per Si atom -5567.086613 kJ/mol
# Density = 2.269027 g / cm^3
# Si number density = 22.742032 Si / 1000 Ang^3
#
#
#
# Elastic Constant Matrix: (Units=GPa)
#
#
# Indices 1 2 3 4 5 6 
#
# 1 151.4647 53.2610 11.4993 -11.0482 -37.7726 7.8381
# 2 53.2610 114.9620 6.6371 -26.0806 -14.3618 16.9375
# 3 11.4993 6.6371 60.6165 -23.7950 -23.5184 11.6647
# 4 -11.0482 -26.0806 -23.7950 37.0798 -0.0718 -13.3877
# 5 -37.7726 -14.3618 -23.5184 -0.0718 32.8053 -9.3329
# 6 7.8381 16.9375 11.6647 -13.3877 -9.3329 46.6265
#
#
#
# Elastic Compliance Matrix: (Units=1/GPa)
#
#
# Indices 1 2 3 4 5 6 
#
# 1 0.012227 -0.002059 0.008707 0.008962 0.020337 0.003158
# 2 -0.002059 0.013583 0.008024 0.013818 0.009131 -0.000800
# 3 0.008707 0.008024 0.048618 0.041476 0.050014 0.005378
# 4 0.008962 0.013818 0.041476 0.070944 0.050098 0.013495
# 5 0.020337 0.009131 0.050014 0.050098 0.098063 0.014765
# 6 0.003158 -0.000800 0.005378 0.013495 0.014765 0.026691
#
#
# Mechanical properties :
#
#
# Convention : Reuss Voigt Hill
#
# Bulk Modulus (GPa) = 9.63648 52.20422 30.92035
# Shear Modulus (GPa) = 18.15723 40.34539 29.25131
#
# Velocity S-wave (km/s) = 2.82866 4.21651 3.59029
# Velocity P-wave (km/s) = 3.86199 6.83448 5.55090
#
# Compressibility (1/GPa) = 0.10377234
#
# Stress axis : x y z
#
# Youngs Moduli (GPa) = 81.78454 73.62380 20.56854
#
# Poissons Ratio (x) = 0.15159 -0.17909
# Poissons Ratio (y) = 0.16839 -0.16505
# Poissons Ratio (z) = -0.71208 -0.59079
#
# Static dielectric constant tensor:
#      x y z
#    x 2.067480 -0.093250 -0.146500 
#    y -0.093250 1.961000 0.206370 
#    z -0.146500 0.206370 2.148880 
# 
# From -- ./inp_files/336634.got.cif
#   From: 2010.05.17/outbox.cif.g08.bks.cpg/sg2_169_cif.got.tgz:336634.got - 2010.06.03 11:33:40.
