data_PCOD9002114
_publ_section_title
;
Structure prediction by ZEFSAII (Michael W. Deem and Ramdas Pophale) SiO2 
 PCOD9002114
Probable space group: P -1
;
_chemical_formula_sum "Si O2"
_cell_formula_units_Z 16
_cell_length_a 17.275757
_cell_length_b 28.646034
_cell_length_c 6.172844
_cell_angle_alpha 51.705290
_cell_angle_beta 48.290030
_cell_angle_gamma 21.655277
_cell_volume 841.543183
_symmetry_space_group_name_H-M "P -1"
_symmetry_group_IT_number 2
_symmetry_cell_setting 'triclinic'
loop_
_space_group_symop_operation_xyz
x,y,z
-x,-y,-z
loop_
_atom_site_type_symbol
_atom_site_label
_atom_site_fract_x
_atom_site_fract_y
_atom_site_fract_z
Si Si1 0.432874 0.309410 0.802182
Si Si2 0.080529 0.581713 0.584818
Si Si3 0.152557 0.187655 0.681079
Si Si4 0.937955 0.057131 0.701660
Si Si5 0.574207 0.006747 0.652161
Si Si6 0.638740 0.762291 0.136017
Si Si7 0.135763 0.381656 0.461901
Si Si8 0.211428 0.038476 0.248049
O O1 0.673513 0.192144 0.791127
O O2 0.431234 0.269916 0.700313
O O3 0.305230 0.436424 0.656044
O O4 0.278021 0.345726 0.129233
O O5 0.056969 0.664334 0.389227
O O6 0.029804 0.580409 0.447626
O O7 0.869082 0.665321 0.876985
O O8 0.344771 0.131447 0.593293
O O9 0.258450 0.110796 0.482757
O O10 0.119137 0.146648 0.010466
O O11 0.045881 0.067682 0.467480
O O12 0.000000 0.000000 0.500000
O O13 0.000000 0.000000 0.000000
O O14 0.703170 0.993063 0.575975
O O15 0.500000 0.000000 0.000000
O O16 0.697596 0.735254 0.354979
O O17 0.426558 0.911239 0.069870
O O18 0.000000 0.500000 0.500000
#
# Coordination Sequence:
#
# PCOD9002114 Si02
#       8
#     2   2   2   2   2   2   2   2
#     4  11  23  39  60  94 129 168 219 274 338 396
#     4  11  21  34  58  93 131 166 209 266 341 406
#     4  10  21  36  57  91 131 169 212 272 333 404
#     4  12  28  48  72  98 132 180 232 284 333 396
#     4   9  18  35  57  88 124 169 214 265 327 387
#     4  11  19  35  59  91 127 164 209 272 335 394
#     4  11  19  35  59  92 131 168 209 274 343 403
#     4  11  23  39  64  90 130 172 225 273 327 395
#
# _framework density 19.012689999999999
#
# number of rings (size 3 to 8) (size 9 to 14) (size 15 to 20)
#    0.000    1.250    3.750    4.500    1.750    3.000 
#    0.000    0.625    0.000    0.750    0.000    0.000 
#    0.000    0.000    0.000    0.000    0.000    0.000 
#
# Total GULP energy -89112.346584 kJ/mol
# GULP energy per Si atom -5569.521662 kJ/mol
# Density = 1.896942 g / cm^3
# Si number density = 19.012690 Si / 1000 Ang^3
#
#
#
# Elastic Constant Matrix: (Units=GPa)
#
#
# Indices 1 2 3 4 5 6 
#
# 1 107.4744 30.6120 28.9334 -1.3718 0.3603 -4.4457
# 2 30.6120 116.5152 28.2641 -26.0212 -2.2914 0.7834
# 3 28.9334 28.2641 70.5542 -17.1273 0.2855 -0.8146
# 4 -1.3718 -26.0212 -17.1273 28.1152 3.1301 -0.7720
# 5 0.3603 -2.2914 0.2855 3.1301 29.3197 0.9785
# 6 -4.4457 0.7834 -0.8146 -0.7720 0.9785 28.1264
#
#
#
# Elastic Compliance Matrix: (Units=1/GPa)
#
#
# Indices 1 2 3 4 5 6 
#
# 1 0.011423 -0.002999 -0.004691 -0.005049 0.000156 0.001609
# 2 -0.002999 0.011915 -0.001067 0.010227 -0.000095 -0.000553
# 3 -0.004691 -0.001067 0.019099 0.010573 -0.001346 0.000178
# 4 -0.005049 0.010227 0.010573 0.051784 -0.004797 0.000812
# 5 0.000156 -0.000095 -0.001346 -0.004797 0.034668 -0.001349
# 6 0.001609 -0.000553 0.000178 0.000812 -0.001349 0.035898
#
#
# Mechanical properties :
#
#
# Convention : Reuss Voigt Hill
#
# Bulk Modulus (GPa) = 40.12182 52.24032 46.18107
# Shear Modulus (GPa) = 26.23200 30.89455 28.56328
#
# Velocity S-wave (km/s) = 3.71847 4.03543 3.88019
# Velocity P-wave (km/s) = 6.29162 7.01777 6.66460
#
# Compressibility (1/GPa) = 0.02492409
#
# Stress axis : x y z
#
# Youngs Moduli (GPa) = 87.54224 83.92817 52.35953
#
# Poissons Ratio (x) = 0.25166 0.24561
# Poissons Ratio (y) = 0.26250 0.05586
# Poissons Ratio (z) = 0.41065 0.08954
#
# Static dielectric constant tensor:
#      x y z
#    x 2.311220 0.239600 0.187410 
#    y 0.239600 1.758750 0.013980 
#    z 0.187410 0.013980 1.743730 
# 
# From -- ./inp_files/70363.got.cif
#   From: 2010.05.17/outbox.cif.g08.bks.cpg/sg2_36_cif.got.tgz:70363.got - 2010.06.03 11:33:40.
