data_PCOD9002159
_publ_section_title
;
Structure prediction by ZEFSAII (Michael W. Deem and Ramdas Pophale) SiO2 
 PCOD9002159
Probable space group: P -1
;
_chemical_formula_sum "Si O2"
_cell_formula_units_Z 12
_cell_length_a 7.280999
_cell_length_b 8.016618
_cell_length_c 10.159918
_cell_angle_alpha 126.315099
_cell_angle_beta 81.253089
_cell_angle_gamma 97.516637
_cell_volume 471.666149
_symmetry_space_group_name_H-M "P -1"
_symmetry_group_IT_number 2
_symmetry_cell_setting 'triclinic'
loop_
_space_group_symop_operation_xyz
x,y,z
-x,-y,-z
loop_
_atom_site_type_symbol
_atom_site_label
_atom_site_fract_x
_atom_site_fract_y
_atom_site_fract_z
Si Si1 0.636778 0.678515 0.170115
Si Si2 0.862790 0.047762 0.420629
Si Si3 0.725182 0.463943 0.300373
Si Si4 0.571684 0.025234 0.151560
Si Si5 0.322716 0.536956 0.294871
Si Si6 0.192489 0.207702 0.332147
O O1 0.759257 0.513236 0.161795
O O2 0.422327 0.591777 0.170412
O O3 0.695473 0.877238 0.349225
O O4 0.646364 0.811368 0.097217
O O5 0.778985 0.265623 0.556263
O O6 0.009997 0.057495 0.289939
O O7 0.000000 0.000000 0.500000
O O8 0.718111 0.222770 0.226275
O O9 0.506600 0.512307 0.350896
O O10 0.820494 0.617103 0.468899
O O11 0.382282 0.087805 0.276185
O O12 0.500000 0.000000 0.000000
O O13 0.201992 0.332524 0.251699
#
# Coordination Sequence:
#
# PCOD9002159 Si02
#       6
#     2   2   2   2   2   2
#     4  10  21  36  58  85 120 150 191 233 293 342
#     4  12  19  30  57  92 123 144 186 240 299 338
#     4   9  20  37  60  86 116 142 195 241 289 333
#     4  11  23  40  61  83 114 160 200 234 280 349
#     4   9  19  32  52  84 118 153 178 233 290 343
#     4  11  20  36  58  92 119 144 193 244 291 338
#
# _framework density 25.441727
#
# number of rings (size 3 to 8) (size 9 to 14) (size 15 to 20)
#    1.000    0.667    1.667    6.000    0.000    0.667 
#    0.000    0.833    0.000    1.000    0.000    0.000 
#    0.000    0.000    0.000    0.000    0.000    0.000 
#
# Total GULP energy -66853.051284 kJ/mol
# GULP energy per Si atom -5571.087607 kJ/mol
# Density = 2.538382 g / cm^3
# Si number density = 25.441727 Si / 1000 Ang^3
#
#
#
# Elastic Constant Matrix: (Units=GPa)
#
#
# Indices 1 2 3 4 5 6 
#
# 1 46.7477 28.7782 4.9698 10.8436 8.5200 -2.3129
# 2 28.7782 200.1382 26.5821 -1.9822 1.8333 1.6508
# 3 4.9698 26.5821 42.5735 1.8115 14.2690 -4.4078
# 4 10.8436 -1.9822 1.8115 44.1050 -5.6086 10.7506
# 5 8.5200 1.8333 14.2690 -5.6086 13.8053 -9.4336
# 6 -2.3129 1.6508 -4.4078 10.7506 -9.4336 39.1234
#
#
#
# Elastic Compliance Matrix: (Units=1/GPa)
#
#
# Indices 1 2 3 4 5 6 
#
# 1 0.035393 -0.006861 0.015486 -0.014692 -0.044692 -0.002613
# 2 -0.006861 0.007000 -0.008365 0.003969 0.014001 0.000642
# 3 0.015486 -0.008365 0.050440 -0.013682 -0.070424 -0.006270
# 4 -0.014692 0.003969 -0.013682 0.032091 0.033443 -0.003332
# 5 -0.044692 0.014001 -0.070424 0.033443 0.204283 0.028901
# 6 -0.002613 0.000642 -0.006270 -0.003332 0.028901 0.032556
#
#
# Mechanical properties :
#
#
# Convention : Reuss Voigt Hill
#
# Bulk Modulus (GPa) = 10.71200 45.56886 28.14043
# Shear Modulus (GPa) = 12.74340 34.68203 23.71272
#
# Velocity S-wave (km/s) = 2.24048 3.69615 3.05625
# Velocity P-wave (km/s) = 3.30341 6.01376 4.85169
#
# Compressibility (1/GPa) = 0.09335325
#
# Stress axis : x y z
#
# Youngs Moduli (GPa) = 28.25443 142.86134 19.82548
#
# Poissons Ratio (x) = 0.98011 -0.30701
# Poissons Ratio (y) = 0.19384 0.16584
# Poissons Ratio (z) = -0.43754 1.19501
#
# Static dielectric constant tensor:
#      x y z
#    x 1.956030 0.024920 0.008340 
#    y 0.024920 2.181700 -0.137630 
#    z 0.008340 -0.137630 2.084480 
# 
# From -- ./inp_files/380594.got.cif
#   From: 2010.05.17/outbox.cif.g08.bks.cpg/sg2_191_cif.got.tgz:380594.got - 2010.06.03 11:33:40.
