data_PCOD9002926
_publ_section_title
;
Structure prediction by ZEFSAII (Michael W. Deem and Ramdas Pophale) SiO2 
 PCOD9002926
Probable space group: P -1
;
_chemical_formula_sum "Si O2"
_cell_formula_units_Z 12
_cell_length_a 11.391497
_cell_length_b 11.611850
_cell_length_c 6.780899
_cell_angle_alpha 56.684637
_cell_angle_beta 68.508216
_cell_angle_gamma 42.341724
_cell_volume 503.607221
_symmetry_space_group_name_H-M "P -1"
_symmetry_group_IT_number 2
_symmetry_cell_setting 'triclinic'
loop_
_space_group_symop_operation_xyz
x,y,z
-x,-y,-z
loop_
_atom_site_type_symbol
_atom_site_label
_atom_site_fract_x
_atom_site_fract_y
_atom_site_fract_z
Si Si1 0.426091 0.711548 0.198492
Si Si2 0.277590 0.120668 0.947525
Si Si3 0.939169 0.275393 0.818092
Si Si4 0.548653 0.583931 0.678815
Si Si5 0.974589 0.056272 0.688013
Si Si6 0.450191 0.942612 0.401159
O O1 0.539563 0.609854 0.420948
O O2 0.494817 0.547223 0.152909
O O3 0.231768 0.804580 0.278547
O O4 0.384554 0.903403 0.008686
O O5 0.379438 0.168867 0.740750
O O6 0.080809 0.258012 0.862718
O O7 0.298830 0.100494 0.190739
O O8 0.742135 0.474090 0.737280
O O9 0.014263 0.173616 0.652358
O O10 0.930425 0.136479 0.069818
O O11 0.423741 0.803859 0.612886
O O12 0.000000 0.000000 0.500000
O O13 0.500000 0.000000 0.500000
#
# Coordination Sequence:
#
# PCOD9002926 Si02
#       6
#     2   2   2   2   2   2
#     4   8  16  33  55  76 103 137 169 208 255 303
#     4   9  19  36  55  73 103 138 171 209 257 311
#     4   9  18  32  51  76 104 135 171 212 254 299
#     4   9  17  33  53  77 105 131 171 216 252 299
#     4   9  17  31  51  78 109 137 166 205 258 309
#     4  10  21  37  54  74 102 139 175 209 258 312
#
# _framework density 23.828092999999999
#
# number of rings (size 3 to 8) (size 9 to 14) (size 15 to 20)
#    0.000    3.000    0.000    1.000    0.000    4.667 
#    0.000   14.167    0.000    0.000    0.000    0.000 
#    0.000    0.000    0.000    0.000    0.000    0.000 
#
# Total GULP energy -66904.833419 kJ/mol
# GULP energy per Si atom -5575.402785 kJ/mol
# Density = 2.377386 g / cm^3
# Si number density = 23.828093 Si / 1000 Ang^3
#
#
#
# Elastic Constant Matrix: (Units=GPa)
#
#
# Indices 1 2 3 4 5 6 
#
# 1 110.8802 12.0918 30.7859 -3.8766 37.7275 5.1088
# 2 12.0918 55.5912 30.7506 2.8440 10.6061 12.5723
# 3 30.7859 30.7506 93.7329 -1.0776 33.0253 -3.0334
# 4 -3.8766 2.8440 -1.0776 45.8904 8.2224 16.2353
# 5 37.7275 10.6061 33.0253 8.2224 55.1637 -10.2174
# 6 5.1088 12.5723 -3.0334 16.2353 -10.2174 48.6976
#
#
#
# Elastic Compliance Matrix: (Units=1/GPa)
#
#
# Indices 1 2 3 4 5 6 
#
# 1 0.013104 0.000626 -0.001053 0.004739 -0.010142 -0.005310
# 2 0.000626 0.024137 -0.007588 0.001504 -0.002181 -0.007729
# 3 -0.001053 -0.007588 0.016253 0.001831 -0.007664 0.000864
# 4 0.004739 0.001504 0.001831 0.028642 -0.011244 -0.012679
# 5 -0.010142 -0.002181 -0.007664 -0.011244 0.033975 0.012027
# 6 -0.005310 -0.007729 0.000864 -0.012679 0.012027 0.029892
#
#
# Mechanical properties :
#
#
# Convention : Reuss Voigt Hill
#
# Bulk Modulus (GPa) = 26.69334 45.27342 35.98338
# Shear Modulus (GPa) = 28.64961 42.38874 35.51918
#
# Velocity S-wave (km/s) = 3.47125 4.22232 3.86507
# Velocity P-wave (km/s) = 5.22426 6.54308 5.92051
#
# Compressibility (1/GPa) = 0.03746253
#
# Stress axis : x y z
#
# Youngs Moduli (GPa) = 76.31233 41.43000 61.52580
#
# Poissons Ratio (x) = -0.02592 0.06480
# Poissons Ratio (y) = -0.04774 0.46688
# Poissons Ratio (z) = 0.08038 0.31438
#
# Static dielectric constant tensor:
#      x y z
#    x 1.949680 0.093660 0.018950 
#    y 0.093660 1.994260 0.029670 
#    z 0.018950 0.029670 2.014790 
# 
# From -- ./inp_files/57674.got.cif
#   From: 2010.05.17/outbox.cif.g08.bks.cpg/sg2_29_cif.got.tgz:57674.got - 2010.06.03 11:33:40.
