data_PCOD9002222
_publ_section_title
;
Structure prediction by ZEFSAII (Michael W. Deem and Ramdas Pophale) SiO2 
 PCOD9002222
Probable space group: P -1
;
_chemical_formula_sum "Si O2"
_cell_formula_units_Z 16
_cell_length_a 9.958998
_cell_length_b 14.893700
_cell_length_c 5.630770
_cell_angle_alpha 103.074419
_cell_angle_beta 115.545800
_cell_angle_gamma 110.748415
_cell_volume 629.582816
_symmetry_space_group_name_H-M "P -1"
_symmetry_group_IT_number 2
_symmetry_cell_setting 'triclinic'
loop_
_space_group_symop_operation_xyz
x,y,z
-x,-y,-z
loop_
_atom_site_type_symbol
_atom_site_label
_atom_site_fract_x
_atom_site_fract_y
_atom_site_fract_z
Si Si1 0.832473 0.456520 0.185584
Si Si2 0.194528 0.337253 0.717131
Si Si3 0.206982 0.731844 0.247499
Si Si4 0.578449 0.282592 0.232742
Si Si5 0.150372 0.919322 0.306233
Si Si6 0.386588 0.372259 0.377178
Si Si7 0.875996 0.107825 0.230375
Si Si8 0.526962 0.100461 0.814364
O O1 0.819156 0.558753 0.169888
O O2 0.658712 0.375406 0.152601
O O3 0.000000 0.500000 0.500000
O O4 0.863753 0.385829 0.977165
O O5 0.305132 0.356943 0.568854
O O6 0.013364 0.234295 0.437528
O O7 0.272881 0.322787 0.016393
O O8 0.260949 0.725048 0.548927
O O9 0.104589 0.794866 0.191839
O O10 0.373574 0.811883 0.263369
O O11 0.505233 0.319177 0.414137
O O12 0.461349 0.163039 0.971806
O O13 0.095449 0.936968 0.530670
O O14 0.359289 0.995501 0.526925
O O15 0.091121 0.934451 0.015158
O O16 0.500000 0.500000 0.500000
O O17 0.676916 0.083630 0.037998
#
# Coordination Sequence:
#
# PCOD9002222 Si02
#       8
#     2   2   2   2   2   2   2   2
#     4  11  24  39  61  97 133 165 203 263 338 387
#     4  12  26  45  68  92 133 178 210 273 315 378
#     4  10  21  36  58  94 132 159 210 255 324 385
#     4  11  23  39  63  94 124 166 221 269 305 386
#     4  11  22  39  67  99 135 166 206 262 333 400
#     4  12  26  46  68  89 127 179 234 255 311 374
#     4  11  22  41  64 100 130 166 212 259 331 391
#     4  10  22  38  66 101 128 165 209 267 332 387
#
# _framework density 25.413656
#
# number of rings (size 3 to 8) (size 9 to 14) (size 15 to 20)
#    0.000    1.000    2.500    6.000    5.250    0.500 
#    0.000    0.000    0.000    4.500    0.000    0.000 
#    0.000    0.000    0.000    0.000    0.000    0.000 
#
# Total GULP energy -89363.569321 kJ/mol
# GULP energy per Si atom -5585.223083 kJ/mol
# Density = 2.535581 g / cm^3
# Si number density = 25.413656 Si / 1000 Ang^3
#
#
#
# Elastic Constant Matrix: (Units=GPa)
#
#
# Indices 1 2 3 4 5 6 
#
# 1 104.0201 44.2788 35.1518 3.4091 -23.0984 -3.2839
# 2 44.2788 43.1671 37.6000 0.3916 -13.1802 0.0793
# 3 35.1518 37.6000 172.9400 3.5985 -26.6552 6.1910
# 4 3.4091 0.3916 3.5985 49.3482 6.3199 -8.4295
# 5 -23.0984 -13.1802 -26.6552 6.3199 30.7494 -4.0695
# 6 -3.2839 0.0793 6.1910 -8.4295 -4.0695 38.8183
#
#
#
# Elastic Compliance Matrix: (Units=1/GPa)
#
#
# Indices 1 2 3 4 5 6 
#
# 1 0.018688 -0.017792 0.001308 -0.001981 0.008197 0.001838
# 2 -0.017792 0.047425 -0.006556 0.001167 0.001015 -0.000197
# 3 0.001308 -0.006556 0.007788 -0.001411 0.005097 -0.000890
# 4 -0.001981 0.001167 -0.001411 0.022001 -0.006179 0.004185
# 5 0.008197 0.001015 0.005097 -0.006179 0.045235 0.003279
# 6 0.001838 -0.000197 -0.000890 0.004185 0.003279 0.027311
#
#
# Mechanical properties :
#
#
# Convention : Reuss Voigt Hill
#
# Bulk Modulus (GPa) = 35.93995 61.57648 48.75822
# Shear Modulus (GPa) = 22.34130 37.32294 29.83212
#
# Velocity S-wave (km/s) = 2.96819 3.83641 3.42988
# Velocity P-wave (km/s) = 5.09112 6.62619 5.90872
#
# Compressibility (1/GPa) = 0.02782419
#
# Stress axis : x y z
#
# Youngs Moduli (GPa) = 53.51079 21.08580 128.39520
#
# Poissons Ratio (x) = 0.37515 -0.16800
# Poissons Ratio (y) = 0.95204 0.84170
# Poissons Ratio (z) = -0.07002 0.13823
#
# Static dielectric constant tensor:
#      x y z
#    x 2.170910 0.015990 -0.086500 
#    y 0.015990 2.033950 0.011260 
#    z -0.086500 0.011260 2.072200 
# 
# From -- ./inp_files/80320.got.cif
#   From: 2010.05.17/outbox.cif.g08.bks.cpg/sg2_41_cif.got.tgz:80320.got - 2010.06.03 11:33:40.
