data_PCOD9002787
_publ_section_title
;
Structure prediction by ZEFSAII (Michael W. Deem and Ramdas Pophale) SiO2 
 PCOD9002787
Probable space group: P -1
;
_chemical_formula_sum "Si O2"
_cell_formula_units_Z 12
_cell_length_a 12.094614
_cell_length_b 8.744214
_cell_length_c 11.698169
_cell_angle_alpha 101.472253
_cell_angle_beta 120.214394
_cell_angle_gamma 129.566812
_cell_volume 515.981024
_symmetry_space_group_name_H-M "P -1"
_symmetry_group_IT_number 2
_symmetry_cell_setting 'triclinic'
loop_
_space_group_symop_operation_xyz
x,y,z
-x,-y,-z
loop_
_atom_site_type_symbol
_atom_site_label
_atom_site_fract_x
_atom_site_fract_y
_atom_site_fract_z
Si Si1 0.653348 0.446000 0.181015
Si Si2 0.186057 0.153129 0.848247
Si Si3 0.565178 0.380728 0.756201
Si Si4 0.319958 0.670354 0.397389
Si Si5 0.385013 0.510494 0.575098
Si Si6 0.056374 0.619882 0.418446
O O1 0.809823 0.762598 0.261344
O O2 0.646278 0.436810 0.312490
O O3 0.806212 0.455150 0.223864
O O4 0.366603 0.191778 0.952565
O O5 0.302939 0.407510 0.031501
O O6 0.894887 0.808365 0.676349
O O7 0.755584 0.490687 0.785490
O O8 0.490959 0.455645 0.655508
O O9 0.310733 0.005898 0.599969
O O10 0.506573 0.754532 0.582574
O O11 0.113564 0.535736 0.352133
O O12 0.500000 0.000000 0.500000
O O13 0.000000 0.500000 0.500000
#
# Coordination Sequence:
#
# PCOD9002787 Si02
#       6
#     2   2   2   2   2   2
#     4  10  21  36  64  99 123 160 204 266 306 361
#     4  10  22  36  65 101 123 153 219 263 304 361
#     4  10  23  41  65  93 126 167 210 255 307 373
#     4  10  23  41  65  90 126 170 207 251 321 376
#     4  11  20  40  70  88 123 167 213 259 306 365
#     4  11  21  40  68  90 128 170 204 253 320 368
#
# _framework density 23.256668000000001
#
# number of rings (size 3 to 8) (size 9 to 14) (size 15 to 20)
#    0.000    1.667    3.333    1.000    4.667    0.667 
#    0.000    4.167    0.000    0.000    0.000    0.000 
#    0.000    0.000    0.000    0.000    0.000    0.000 
#
# Total GULP energy -66972.154392 kJ/mol
# GULP energy per Si atom -5581.012866 kJ/mol
# Density = 2.320373 g / cm^3
# Si number density = 23.256668 Si / 1000 Ang^3
#
#
#
# Elastic Constant Matrix: (Units=GPa)
#
#
# Indices 1 2 3 4 5 6 
#
# 1 118.4511 9.2874 14.4322 -15.2680 -2.4571 17.2850
# 2 9.2874 142.2929 12.9785 -21.2798 -3.2722 -2.8457
# 3 14.4322 12.9785 49.3354 -18.0490 -1.1688 -5.0710
# 4 -15.2680 -21.2798 -18.0490 23.9475 0.1589 -3.8212
# 5 -2.4571 -3.2722 -1.1688 0.1589 20.7106 -8.3752
# 6 17.2850 -2.8457 -5.0710 -3.8212 -8.3752 36.9275
#
#
#
# Elastic Compliance Matrix: (Units=1/GPa)
#
#
# Indices 1 2 3 4 5 6 
#
# 1 0.009863 0.000041 -0.001857 0.004193 -0.000830 -0.004623
# 2 0.000041 0.008305 0.001261 0.008691 0.002209 0.002194
# 3 -0.001857 0.001261 0.030349 0.024178 0.005058 0.008783
# 4 0.004193 0.008691 0.024178 0.072104 0.007177 0.011116
# 5 -0.000830 0.002209 0.005058 0.007177 0.054578 0.014374
# 6 -0.004623 0.002194 0.008783 0.011116 0.014374 0.035030
#
#
# Mechanical properties :
#
#
# Convention : Reuss Voigt Hill
#
# Bulk Modulus (GPa) = 21.09389 42.60841 31.85115
# Shear Modulus (GPa) = 22.01281 34.54253 28.27767
#
# Velocity S-wave (km/s) = 3.07989 3.85811 3.49075
# Velocity P-wave (km/s) = 4.66233 6.18121 5.47470
#
# Compressibility (1/GPa) = 0.04740710
#
# Stress axis : x y z
#
# Youngs Moduli (GPa) = 101.38690 120.41598 32.95007
#
# Poissons Ratio (x) = -0.00496 0.06118
# Poissons Ratio (y) = -0.00417 -0.04155
# Poissons Ratio (z) = 0.18826 -0.15183
#
# Static dielectric constant tensor:
#      x y z
#    x 1.942130 0.034260 0.010280 
#    y 0.034260 2.022340 0.016680 
#    z 0.010280 0.016680 1.855950 
# 
# From -- ./inp_files/111091.got.cif
#   From: 2010.05.17/outbox.cif.g08.bks.cpg/sg2_56_cif.got.tgz:111091.got - 2010.06.03 11:33:40.
