data_PCOD9002354
_publ_section_title
;
Structure prediction by ZEFSAII (Michael W. Deem and Ramdas Pophale) SiO2 
 PCOD9002354
Probable space group: P -1
;
_chemical_formula_sum "Si O2"
_cell_formula_units_Z 14
_cell_length_a 12.507635
_cell_length_b 14.804992
_cell_length_c 5.971510
_cell_angle_alpha 111.992333
_cell_angle_beta 98.981493
_cell_angle_gamma 43.584445
_cell_volume 695.313449
_symmetry_space_group_name_H-M "P -1"
_symmetry_group_IT_number 2
_symmetry_cell_setting 'triclinic'
loop_
_space_group_symop_operation_xyz
x,y,z
-x,-y,-z
loop_
_atom_site_type_symbol
_atom_site_label
_atom_site_fract_x
_atom_site_fract_y
_atom_site_fract_z
Si Si1 0.178820 0.854745 0.159479
Si Si2 0.871142 0.564479 0.829157
Si Si3 0.662782 0.606177 0.128326
Si Si4 0.534646 0.390302 0.241426
Si Si5 0.385744 0.816575 0.560144
Si Si6 0.120767 0.062210 0.973806
Si Si7 0.976363 0.364674 0.299830
O O1 0.267192 0.825508 0.387349
O O2 0.015308 0.906102 0.177457
O O3 0.297100 0.710496 0.918337
O O4 0.155745 0.968288 0.109466
O O5 0.917520 0.437084 0.590730
O O6 0.893066 0.640721 0.739991
O O7 0.711744 0.648820 0.988114
O O8 0.000000 0.500000 0.000000
O O9 0.530513 0.740444 0.369418
O O10 0.820606 0.476335 0.196483
O O11 0.589805 0.557423 0.942847
O O12 0.500000 0.500000 0.500000
O O13 0.545966 0.289480 0.311417
O O14 0.274719 0.969949 0.780722
O O15 0.051862 0.209700 0.165489
#
# Coordination Sequence:
#
# PCOD9002354 Si02
#       7
#     2   2   2   2   2   2   2
#     4   9  21  36  54  80 121 158 193 232 279 341
#     4   9  20  39  58  90 113 144 191 249 290 342
#     4  10  21  36  60  85 117 152 187 244 289 337
#     4  10  22  34  55  87 118 151 198 234 280 343
#     4  10  21  38  54  80 120 158 187 234 286 340
#     4  10  21  37  56  84 114 158 194 233 282 346
#     4  10  21  37  65  86 114 148 197 240 293 337
#
# _framework density 20.134803000000002
#
# number of rings (size 3 to 8) (size 9 to 14) (size 15 to 20)
#    0.000    2.286    0.000    1.286    6.000    3.429 
#    0.000    0.714    0.000   22.286    0.000    0.000 
#    0.000    0.000    0.000    0.000    0.000    0.000 
#
# Total GULP energy -78106.472206 kJ/mol
# GULP energy per Si atom -5579.033729 kJ/mol
# Density = 2.008898 g / cm^3
# Si number density = 20.134803 Si / 1000 Ang^3
#
#
#
# Elastic Constant Matrix: (Units=GPa)
#
#
# Indices 1 2 3 4 5 6 
#
# 1 78.7315 31.8573 39.8291 25.6710 -22.6718 -11.1682
# 2 31.8573 69.5763 51.8976 18.8160 8.9421 -11.3280
# 3 39.8291 51.8976 122.8676 23.7352 -8.3429 -8.4026
# 4 25.6710 18.8160 23.7352 35.0509 -7.9758 4.6463
# 5 -22.6718 8.9421 -8.3429 -7.9758 39.2605 1.1439
# 6 -11.1682 -11.3280 -8.4026 4.6463 1.1439 19.5896
#
#
#
# Elastic Compliance Matrix: (Units=1/GPa)
#
#
# Indices 1 2 3 4 5 6 
#
# 1 0.026139 -0.007332 -0.001081 -0.013058 0.013518 0.012507
# 2 -0.007332 0.031804 -0.009060 -0.011061 -0.016055 0.013886
# 3 -0.001081 -0.009060 0.013023 -0.002322 0.003733 0.000063
# 4 -0.013058 -0.011061 -0.002322 0.050457 0.005526 -0.027127
# 5 0.013518 -0.016055 0.003733 0.005526 0.038954 -0.003561
# 6 0.012507 0.013886 0.000063 -0.027127 -0.003561 0.072877
#
#
# Mechanical properties :
#
#
# Convention : Reuss Voigt Hill
#
# Bulk Modulus (GPa) = 27.76286 57.59372 42.67829
# Shear Modulus (GPa) = 17.84398 28.61964 23.23181
#
# Velocity S-wave (km/s) = 2.98018 3.77424 3.40047
# Velocity P-wave (km/s) = 5.06561 6.90357 6.05474
#
# Compressibility (1/GPa) = 0.03601934
#
# Stress axis : x y z
#
# Youngs Moduli (GPa) = 38.25631 31.44271 76.79012
#
# Poissons Ratio (x) = 0.23054 0.08298
# Poissons Ratio (y) = 0.28050 0.69575
# Poissons Ratio (z) = 0.04134 0.28488
#
# Static dielectric constant tensor:
#      x y z
#    x 1.745410 -0.009360 -0.034140 
#    y -0.009360 1.709920 -0.007370 
#    z -0.034140 -0.007370 1.731000 
# 
# From -- ./inp_files/34400.got.cif
#   From: 2010.05.17/outbox.cif.g08.bks.cpg/sg2_18_cif.got.tgz:34400.got - 2010.06.03 11:33:40.
