data_PCOD9002052
_publ_section_title
;
Structure prediction by ZEFSAII (Michael W. Deem and Ramdas Pophale) SiO2 
 PCOD9002052
Probable space group: P -1
;
_chemical_formula_sum "Si O2"
_cell_formula_units_Z 14
_cell_length_a 15.254062
_cell_length_b 7.706460
_cell_length_c 16.654226
_cell_angle_alpha 64.618387
_cell_angle_beta 154.103721
_cell_angle_gamma 125.460989
_cell_volume 672.093793
_symmetry_space_group_name_H-M "P -1"
_symmetry_group_IT_number 2
_symmetry_cell_setting 'triclinic'
loop_
_space_group_symop_operation_xyz
x,y,z
-x,-y,-z
loop_
_atom_site_type_symbol
_atom_site_label
_atom_site_fract_x
_atom_site_fract_y
_atom_site_fract_z
Si Si1 0.165805 0.531132 0.508832
Si Si2 0.935586 0.565268 0.161550
Si Si3 0.163974 0.122413 0.535165
Si Si4 0.268553 0.947412 0.274077
Si Si5 0.850350 0.940721 0.009315
Si Si6 0.195448 0.927304 0.879204
Si Si7 0.324711 0.791298 0.747267
O O1 0.262984 0.379281 0.582741
O O2 0.311001 0.677889 0.673504
O O3 0.108188 0.642064 0.365160
O O4 0.909540 0.367764 0.367153
O O5 0.094979 0.683759 0.191811
O O6 0.783917 0.685742 0.021092
O O7 0.819210 0.303503 0.111366
O O8 0.330315 0.020837 0.686877
O O9 0.000000 0.000000 0.500000
O O10 0.001457 0.059984 0.336113
O O11 0.500000 0.000000 0.500000
O O12 0.290955 0.030717 0.185328
O O13 0.114899 0.037223 0.175926
O O14 0.840757 0.055516 0.059805
O O15 0.446294 0.136992 0.027232
#
# Coordination Sequence:
#
# PCOD9002052 Si02
#       7
#     2   2   2   2   2   2   2
#     4   9  19  37  57  81 117 154 193 235 270 343
#     4   9  20  38  58  84 117 145 191 234 281 339
#     4   9  20  37  52  80 119 148 192 234 269 329
#     4   9  20  41  63  79 115 150 178 240 297 335
#     4   9  21  39  59  86 115 140 193 238 280 346
#     4  11  22  36  60  88 115 153 190 236 277 337
#     4  10  21  36  57  82 117 157 191 230 285 321
#
# _framework density 20.830427
#
# number of rings (size 3 to 8) (size 9 to 14) (size 15 to 20)
#    0.857    1.714    0.000    0.857    2.000    6.857 
#    2.571   10.714    0.000    0.000    0.000    0.000 
#    0.000    0.000    0.000    0.000    0.000    0.000 
#
# Total GULP energy -78023.935718 kJ/mol
# GULP energy per Si atom -5573.138266 kJ/mol
# Density = 2.078302 g / cm^3
# Si number density = 20.830427 Si / 1000 Ang^3
#
#
#
# Elastic Constant Matrix: (Units=GPa)
#
#
# Indices 1 2 3 4 5 6 
#
# 1 63.6995 12.3267 17.9658 -1.3279 -15.8132 -13.9915
# 2 12.3267 16.8011 11.4236 -7.8521 -7.1821 6.5106
# 3 17.9658 11.4236 90.0081 -6.2135 -10.7259 -8.6499
# 4 -1.3279 -7.8521 -6.2135 33.3922 7.6884 -5.1926
# 5 -15.8132 -7.1821 -10.7259 7.6884 28.1982 -1.1926
# 6 -13.9915 6.5106 -8.6499 -5.1926 -1.1926 21.0453
#
#
#
# Elastic Compliance Matrix: (Units=1/GPa)
#
#
# Indices 1 2 3 4 5 6 
#
# 1 0.031690 -0.033845 0.002263 -0.004157 0.012505 0.032152
# 2 -0.033845 0.126271 -0.014193 0.015641 0.000833 -0.063492
# 3 0.002263 -0.014193 0.014044 0.000449 0.003380 0.011970
# 4 -0.004157 0.015641 0.000449 0.035481 -0.007813 0.000894
# 5 0.012505 0.000833 0.003380 -0.007813 0.046533 0.010154
# 6 0.032152 -0.063492 0.011970 0.000894 0.010154 0.094249
#
#
# Mechanical properties :
#
#
# Convention : Reuss Voigt Hill
#
# Bulk Modulus (GPa) = 12.42939 28.21566 20.32253
# Shear Modulus (GPa) = 10.71498 25.11332 17.91415
#
# Velocity S-wave (km/s) = 2.27048 3.47595 2.93576
# Velocity P-wave (km/s) = 3.58515 5.44835 4.61182
#
# Compressibility (1/GPa) = 0.08045445
#
# Stress axis : x y z
#
# Youngs Moduli (GPa) = 31.55612 7.91947 71.20584
#
# Poissons Ratio (x) = 0.26804 -0.16115
# Poissons Ratio (y) = 1.06802 1.01063
# Poissons Ratio (z) = -0.07142 0.11240
#
# Static dielectric constant tensor:
#      x y z
#    x 1.768930 0.049880 0.038480 
#    y 0.049880 1.808300 0.010420 
#    z 0.038480 0.010420 1.756360 
# 
# From -- ./inp_files/340268.got.cif
#   From: 2010.05.17/outbox.cif.g08.bks.cpg/sg2_171_cif.got.tgz:340268.got - 2010.06.03 11:33:40.
