data_PCOD9002056
_publ_section_title
;
Structure prediction by ZEFSAII (Michael W. Deem and Ramdas Pophale) SiO2 
 PCOD9002056
Probable space group: P -1
;
_chemical_formula_sum "Si O2"
_cell_formula_units_Z 16
_cell_length_a 6.793829
_cell_length_b 22.810099
_cell_length_c 5.477454
_cell_angle_alpha 99.373019
_cell_angle_beta 48.577509
_cell_angle_gamma 94.823255
_cell_volume 627.676780
_symmetry_space_group_name_H-M "P -1"
_symmetry_group_IT_number 2
_symmetry_cell_setting 'triclinic'
loop_
_space_group_symop_operation_xyz
x,y,z
-x,-y,-z
loop_
_atom_site_type_symbol
_atom_site_label
_atom_site_fract_x
_atom_site_fract_y
_atom_site_fract_z
Si Si1 0.378641 0.570551 0.860942
Si Si2 0.237386 0.927429 0.846863
Si Si3 0.905841 0.279270 0.133600
Si Si4 0.241474 0.208601 0.204582
Si Si5 0.224675 0.538614 0.458860
Si Si6 0.637099 0.678856 0.473602
Si Si7 0.237447 0.008774 0.494719
Si Si8 0.786336 0.174176 0.824198
O O1 0.184057 0.561923 0.784204
O O2 0.528031 0.507189 0.736073
O O3 0.570966 0.621271 0.645464
O O4 0.272279 0.584792 0.229799
O O5 0.484333 0.963865 0.779823
O O6 0.260915 0.865789 0.927249
O O7 0.287566 0.944613 0.536705
O O8 0.930204 0.948165 0.151688
O O9 0.623298 0.305037 0.460403
O O10 0.835962 0.239823 0.930020
O O11 0.061980 0.235987 0.158466
O O12 0.112517 0.326884 0.909677
O O13 0.307528 0.264548 0.361448
O O14 0.522472 0.179359 0.885142
O O15 0.059678 0.160534 0.453595
O O16 0.000000 0.500000 0.500000
O O17 0.000000 0.000000 0.500000
#
# Coordination Sequence:
#
# PCOD9002056 Si02
#       8
#     2   2   2   2   2   2   2   2
#     4  10  23  39  61  94 121 166 211 261 317 386
#     4  10  21  36  57  83 116 149 193 242 290 351
#     4  10  22  40  59  86 120 151 199 248 299 366
#     4  10  21  39  59  83 121 148 197 246 298 358
#     4  10  22  41  62  88 130 160 213 262 317 379
#     4  10  23  38  61  90 117 157 202 247 306 365
#     4  10  21  38  56  83 116 151 193 241 289 354
#     4  10  21  37  57  86 114 152 193 242 296 358
#
# _framework density 25.490822999999999
#
# number of rings (size 3 to 8) (size 9 to 14) (size 15 to 20)
#    0.000    2.000    0.000    2.250    3.500    3.000 
#    0.000    0.000    0.000    0.000    0.000    0.000 
#    0.000    0.000    0.000    0.000    0.000    0.000 
#
# Total GULP energy -89259.707876 kJ/mol
# GULP energy per Si atom -5578.731742 kJ/mol
# Density = 2.543280 g / cm^3
# Si number density = 25.490823 Si / 1000 Ang^3
#
#
#
# Elastic Constant Matrix: (Units=GPa)
#
#
# Indices 1 2 3 4 5 6 
#
# 1 171.7974 24.2308 67.3844 -11.3870 -12.7089 -10.3732
# 2 24.2308 72.0868 41.8766 -27.3699 -8.6991 -6.0376
# 3 67.3844 41.8766 94.1949 -36.6590 -24.7331 0.3184
# 4 -11.3870 -27.3699 -36.6590 51.4703 -4.0606 -1.0740
# 5 -12.7089 -8.6991 -24.7331 -4.0606 33.8577 -6.9131
# 6 -10.3732 -6.0376 0.3184 -1.0740 -6.9131 33.0067
#
#
#
# Elastic Compliance Matrix: (Units=1/GPa)
#
#
# Indices 1 2 3 4 5 6 
#
# 1 0.008995 0.000382 -0.009364 -0.004709 -0.003501 0.002101
# 2 0.000382 0.020669 -0.005871 0.007232 0.003017 0.004825
# 3 -0.009364 -0.005871 0.033870 0.020720 0.022413 0.001025
# 4 -0.004709 0.007232 0.020720 0.038754 0.020955 0.005293
# 5 -0.003501 0.003017 0.022413 0.020955 0.050004 0.010390
# 6 0.002101 0.004825 0.001025 0.005293 0.010390 0.034178
#
#
# Mechanical properties :
#
#
# Convention : Reuss Voigt Hill
#
# Bulk Modulus (GPa) = 29.56109 67.22918 48.39514
# Shear Modulus (GPa) = 21.98253 37.30609 29.64431
#
# Velocity S-wave (km/s) = 2.93980 3.82974 3.41389
# Velocity P-wave (km/s) = 4.81094 6.78137 5.87929
#
# Compressibility (1/GPa) = 0.03382825
#
# Stress axis : x y z
#
# Youngs Moduli (GPa) = 111.16728 48.38236 29.52428
#
# Poissons Ratio (x) = -0.01846 0.27646
# Poissons Ratio (y) = -0.04241 0.17334
# Poissons Ratio (z) = 1.04094 0.28405
#
# Static dielectric constant tensor:
#      x y z
#    x 2.033640 0.033920 0.055340 
#    y 0.033920 2.025850 0.052110 
#    z 0.055340 0.052110 2.114880 
# 
# From -- ./inp_files/13013.got.cif
#   From: 2010.05.17/outbox.cif.g08.bks.cpg/sg2_7_cif.got.tgz:13013.got - 2010.06.03 11:33:40.
