data_PCOD9002185
_publ_section_title
;
Structure prediction by ZEFSAII (Michael W. Deem and Ramdas Pophale) SiO2 
 PCOD9002185
Probable space group: P -1
;
_chemical_formula_sum "Si O2"
_cell_formula_units_Z 16
_cell_length_a 21.728603
_cell_length_b 9.124155
_cell_length_c 11.644732
_cell_angle_alpha 127.277598
_cell_angle_beta 36.545812
_cell_angle_gamma 96.304243
_cell_volume 663.259429
_symmetry_space_group_name_H-M "P -1"
_symmetry_group_IT_number 2
_symmetry_cell_setting 'triclinic'
loop_
_space_group_symop_operation_xyz
x,y,z
-x,-y,-z
loop_
_atom_site_type_symbol
_atom_site_label
_atom_site_fract_x
_atom_site_fract_y
_atom_site_fract_z
Si Si1 0.998327 0.871145 0.550783
Si Si2 0.843329 0.744927 0.763841
Si Si3 0.324335 0.366010 0.438981
Si Si4 0.590778 0.692154 0.468939
Si Si5 0.436625 0.588527 0.266283
Si Si6 0.786050 0.785808 0.621943
Si Si7 0.254931 0.763276 0.187768
Si Si8 0.294836 0.166025 0.775762
O O1 0.831672 0.984170 0.880004
O O2 0.098326 0.843936 0.486161
O O3 0.132748 0.517982 0.151266
O O4 0.000000 0.000000 0.500000
O O5 0.871849 0.623847 0.538346
O O6 0.000000 0.500000 0.500000
O O7 0.695427 0.851981 0.108314
O O8 0.288986 0.457041 0.669142
O O9 0.361418 0.502344 0.381669
O O10 0.200695 0.402251 0.574312
O O11 0.500000 0.000000 0.000000
O O12 0.652954 0.460861 0.168711
O O13 0.569565 0.920551 0.546798
O O14 0.409300 0.899651 0.893736
O O15 0.597080 0.417663 0.026296
O O16 0.297093 0.947730 0.646604
O O17 0.500000 0.500000 0.000000
O O18 0.828987 0.920808 0.565592
#
# Coordination Sequence:
#
# PCOD9002185 Si02
#       8
#     2   2   2   2   2   2   2   2
#     4  10  21  41  65  94 120 170 225 265 304 378
#     4  10  22  39  63  92 126 161 219 272 315 353
#     4  10  21  36  58  89 130 168 202 245 321 401
#     4  10  21  37  60  96 126 156 212 257 324 406
#     4  12  24  39  62  98 138 166 202 270 342 388
#     4  11  20  36  64  92 126 168 208 261 322 389
#     4  11  22  36  68  94 122 167 219 262 322 380
#     4  10  24  37  61  95 133 163 204 273 329 366
#
# _framework density 24.123289
#
# number of rings (size 3 to 8) (size 9 to 14) (size 15 to 20)
#    0.000    1.500    3.750    2.625    1.750    8.500 
#    0.000    0.000    0.000   20.250    0.000    0.000 
#    0.000    0.000    0.000    0.000    0.000    0.000 
#
# Total GULP energy -89253.651822 kJ/mol
# GULP energy per Si atom -5578.353239 kJ/mol
# Density = 2.406838 g / cm^3
# Si number density = 24.123289 Si / 1000 Ang^3
#
#
#
# Elastic Constant Matrix: (Units=GPa)
#
#
# Indices 1 2 3 4 5 6 
#
# 1 196.8138 60.6603 21.1640 -0.8249 18.5156 -9.5116
# 2 60.6603 203.4739 22.5710 11.3248 22.1071 0.8745
# 3 21.1640 22.5710 26.0630 8.1368 10.1131 -6.5081
# 4 -0.8249 11.3248 8.1368 42.8663 1.7685 2.2145
# 5 18.5156 22.1071 10.1131 1.7685 30.5440 -3.9464
# 6 -9.5116 0.8745 -6.5081 2.2145 -3.9464 37.1358
#
#
#
# Elastic Compliance Matrix: (Units=1/GPa)
#
#
# Indices 1 2 3 4 5 6 
#
# 1 0.006034 -0.001328 -0.003299 0.001118 -0.001571 0.000765
# 2 -0.001328 0.005996 -0.003157 -0.000838 -0.002604 -0.001261
# 3 -0.003299 -0.003157 0.053200 -0.009247 -0.011780 0.007853
# 4 0.001118 -0.000838 -0.009247 0.025418 0.001169 -0.002706
# 5 -0.001571 -0.002604 -0.011780 0.001169 0.039633 0.001737
# 6 0.000765 -0.001261 0.007853 -0.002706 0.001737 0.028876
#
#
# Mechanical properties :
#
#
# Convention : Reuss Voigt Hill
#
# Bulk Modulus (GPa) = 20.13592 70.57125 45.35358
# Shear Modulus (GPa) = 26.13975 43.57290 34.85633
#
# Velocity S-wave (km/s) = 3.29536 4.25462 3.80534
# Velocity P-wave (km/s) = 4.77959 7.31120 6.17649
#
# Compressibility (1/GPa) = 0.04966249
#
# Stress axis : x y z
#
# Youngs Moduli (GPa) = 165.71713 166.78666 18.79691
#
# Poissons Ratio (x) = 0.22149 0.06201
# Poissons Ratio (y) = 0.22007 0.05935
# Poissons Ratio (z) = 0.54666 0.52658
#
# Static dielectric constant tensor:
#      x y z
#    x 2.019750 0.023990 -0.083500 
#    y 0.023990 2.003530 -0.091540 
#    z -0.083500 -0.091540 2.194560 
# 
# From -- ./inp_files/445153.got.cif
#   From: 2010.05.17/outbox.cif.g08.bks.cpg/sg2_223_cif.got.tgz:445153.got - 2010.06.03 11:33:40.
