data_PCOD9002866
_publ_section_title
;
Structure prediction by ZEFSAII (Michael W. Deem and Ramdas Pophale) SiO2 
 PCOD9002866
Probable space group: P -1
;
_chemical_formula_sum "Si O2"
_cell_formula_units_Z 16
_cell_length_a 10.551622
_cell_length_b 9.155838
_cell_length_c 16.571980
_cell_angle_alpha 119.910520
_cell_angle_beta 31.421642
_cell_angle_gamma 111.077591
_cell_volume 715.749724
_symmetry_space_group_name_H-M "P -1"
_symmetry_group_IT_number 2
_symmetry_cell_setting 'triclinic'
loop_
_space_group_symop_operation_xyz
x,y,z
-x,-y,-z
loop_
_atom_site_type_symbol
_atom_site_label
_atom_site_fract_x
_atom_site_fract_y
_atom_site_fract_z
Si Si1 0.440258 0.917531 0.093753
Si Si2 0.334310 0.832263 0.514558
Si Si3 0.309713 0.004899 0.733894
Si Si4 0.282155 0.484716 0.492992
Si Si5 0.828812 0.457011 0.241304
Si Si6 0.932510 0.818569 0.307788
Si Si7 0.194211 0.133969 0.429819
Si Si8 0.179031 0.130604 0.002350
O O1 0.673361 0.817143 0.986546
O O2 0.218371 0.809791 0.172698
O O3 0.353397 0.065718 0.246713
O O4 0.500000 0.000000 0.000000
O O5 0.567917 0.846442 0.334972
O O6 0.238102 0.655103 0.511200
O O7 0.402287 0.853357 0.577862
O O8 0.142517 0.001371 0.647273
O O9 0.352716 0.026611 0.811899
O O10 0.020866 0.984449 0.889724
O O11 0.579262 0.427940 0.323133
O O12 0.212329 0.530643 0.636211
O O13 0.140113 0.336403 0.497763
O O14 0.897684 0.642996 0.234611
O O15 0.036875 0.293635 0.077151
O O16 0.773583 0.845919 0.484537
O O17 0.000000 0.000000 0.500000
#
# Coordination Sequence:
#
# PCOD9002866 Si02
#       8
#     2   2   2   2   2   2   2   2
#     4  11  24  41  63  89 125 173 210 258 322 375
#     4  11  20  40  64  99 128 166 209 271 313 370
#     4  10  22  35  63  94 132 168 207 258 324 374
#     4  10  21  36  66  97 126 160 214 267 314 373
#     4  10  21  38  62  98 125 166 211 261 315 383
#     4  10  22  41  68  89 129 172 216 253 312 381
#     4   9  21  43  66  92 121 174 220 253 304 390
#     4  11  23  39  62  93 130 174 211 258 319 388
#
# _framework density 22.354182999999999
#
# number of rings (size 3 to 8) (size 9 to 14) (size 15 to 20)
#    0.000    1.750    1.250    3.000    7.000    0.500 
#    2.250    3.750    2.750    0.000    0.000    0.000 
#    0.000    0.000    0.000    0.000    0.000    0.000 
#
# Total GULP energy -89076.748223 kJ/mol
# GULP energy per Si atom -5567.296764 kJ/mol
# Density = 2.230330 g / cm^3
# Si number density = 22.354183 Si / 1000 Ang^3
#
#
#
# Elastic Constant Matrix: (Units=GPa)
#
#
# Indices 1 2 3 4 5 6 
#
# 1 87.3987 29.9094 27.1742 -6.9413 1.9278 -3.6512
# 2 29.9094 173.0329 28.1982 5.7005 -1.0303 4.4728
# 3 27.1742 28.1982 77.2023 -17.7586 19.3368 -6.3651
# 4 -6.9413 5.7005 -17.7586 28.8533 -10.4549 3.9657
# 5 1.9278 -1.0303 19.3368 -10.4549 35.4759 -3.2479
# 6 -3.6512 4.4728 -6.3651 3.9657 -3.2479 26.0922
#
#
#
# Elastic Compliance Matrix: (Units=1/GPa)
#
#
# Indices 1 2 3 4 5 6 
#
# 1 0.013454 -0.001719 -0.004160 0.001603 0.002066 0.001176
# 2 -0.001719 0.006684 -0.002855 -0.002983 0.000825 -0.001527
# 3 -0.004160 -0.002855 0.019556 0.008438 -0.007808 0.002424
# 4 0.001603 -0.002983 0.008438 0.044112 0.007960 -0.002920
# 5 0.002066 0.000825 -0.007808 0.007960 0.034827 0.001368
# 6 0.001176 -0.001527 0.002424 -0.002920 0.001368 0.039957
#
#
# Mechanical properties :
#
#
# Convention : Reuss Voigt Hill
#
# Bulk Modulus (GPa) = 44.98884 56.46640 50.72762
# Shear Modulus (GPa) = 27.25289 34.90775 31.08032
#
# Velocity S-wave (km/s) = 3.49541 3.95596 3.73280
# Velocity P-wave (km/s) = 6.03818 6.79565 6.42809
#
# Compressibility (1/GPa) = 0.02222774
#
# Stress axis : x y z
#
# Youngs Moduli (GPa) = 74.32617 149.60590 51.13430
#
# Poissons Ratio (x) = 0.25711 0.21271
# Poissons Ratio (y) = 0.12774 0.14599
# Poissons Ratio (z) = 0.30919 0.42713
#
# Static dielectric constant tensor:
#      x y z
#    x 1.902170 -0.047300 -0.092360 
#    y -0.047300 1.863100 0.023800 
#    z -0.092360 0.023800 1.908380 
# 
# From -- ./inp_files/566115.got.cif
#   From: 2010.05.17/outbox.cif.g08.bks.cpg/sg2_284_cif.got.tgz:566115.got - 2010.06.03 11:33:40.
