data_PCOD9002092
_publ_section_title
;
Structure prediction by ZEFSAII (Michael W. Deem and Ramdas Pophale) SiO2 
 PCOD9002092
Probable space group: P -1
;
_chemical_formula_sum "Si O2"
_cell_formula_units_Z 14
_cell_length_a 7.940457
_cell_length_b 16.095868
_cell_length_c 10.652525
_cell_angle_alpha 33.278992
_cell_angle_beta 47.387741
_cell_angle_gamma 62.586277
_cell_volume 530.678194
_symmetry_space_group_name_H-M "P -1"
_symmetry_group_IT_number 2
_symmetry_cell_setting 'triclinic'
loop_
_space_group_symop_operation_xyz
x,y,z
-x,-y,-z
loop_
_atom_site_type_symbol
_atom_site_label
_atom_site_fract_x
_atom_site_fract_y
_atom_site_fract_z
Si Si1 0.669617 0.016580 0.017060
Si Si2 0.874374 0.542488 0.356823
Si Si3 0.575696 0.274539 0.328357
Si Si4 0.654032 0.866950 0.804105
Si Si5 0.620012 0.440980 0.860547
Si Si6 0.004532 0.913760 0.809619
Si Si7 0.094326 0.383825 0.013737
O O1 0.593205 0.860190 0.336578
O O2 0.599211 0.138587 0.996268
O O3 0.923162 0.018787 0.825806
O O4 0.500000 0.000000 0.000000
O O5 0.702351 0.449650 0.664994
O O6 0.115884 0.488356 0.300275
O O7 0.950481 0.731306 0.111196
O O8 0.774912 0.526565 0.287080
O O9 0.534704 0.438217 0.191686
O O10 0.844388 0.274277 0.227606
O O11 0.537825 0.287027 0.182901
O O12 0.824335 0.905846 0.792480
O O13 0.740781 0.720998 0.886978
O O14 0.740148 0.000689 0.486160
O O15 0.000000 0.500000 0.000000
#
# Coordination Sequence:
#
# PCOD9002092 Si02
#       7
#     2   2   2   2   2   2   2
#     4  10  17  27  49  74 103 125 155 210 259 304
#     4   9  16  30  49  75  98 126 161 199 259 292
#     4  10  18  30  48  77 101 125 162 201 256 294
#     4   9  17  28  44  68  97 131 158 197 253 292
#     4   9  17  28  49  74 103 122 156 211 247 298
#     4   9  15  27  47  72 100 120 155 207 254 299
#     4  10  20  33  47  66 103 140 165 197 240 300
#
# _framework density 26.381336000000001
#
# number of rings (size 3 to 8) (size 9 to 14) (size 15 to 20)
#    0.000    2.571    1.429    4.286    0.000    0.000 
#    0.000    0.714    0.000    0.000    0.000   32.000 
#    0.000    0.000    0.000    0.000    0.000    0.000 
#
# Total GULP energy -78146.006163 kJ/mol
# GULP energy per Si atom -5581.857583 kJ/mol
# Density = 2.632129 g / cm^3
# Si number density = 26.381336 Si / 1000 Ang^3
#
#
#
# Elastic Constant Matrix: (Units=GPa)
#
#
# Indices 1 2 3 4 5 6 
#
# 1 49.1153 15.7835 31.7976 -0.4415 6.8823 -13.5313
# 2 15.7835 219.2784 66.9953 9.3876 4.4799 -12.4853
# 3 31.7976 66.9953 133.1550 24.8131 41.0005 7.6077
# 4 -0.4415 9.3876 24.8131 56.3785 -5.1299 0.6465
# 5 6.8823 4.4799 41.0005 -5.1299 33.6821 4.5389
# 6 -13.5313 -12.4853 7.6077 0.6465 4.5389 37.5934
#
#
#
# Elastic Compliance Matrix: (Units=1/GPa)
#
#
# Indices 1 2 3 4 5 6 
#
# 1 0.030418 0.001984 -0.012603 0.006034 0.008018 0.013086
# 2 0.001984 0.006237 -0.006053 0.002152 0.006023 0.003246
# 3 -0.012603 -0.006053 0.024888 -0.012476 -0.027735 -0.008020
# 4 0.006034 0.002152 -0.012476 0.024430 0.016992 0.002940
# 5 0.008018 0.006023 -0.027735 0.016992 0.063253 0.002570
# 6 0.013086 0.003246 -0.008020 0.002940 0.002570 0.033651
#
#
# Mechanical properties :
#
#
# Convention : Reuss Voigt Hill
#
# Bulk Modulus (GPa) = 35.46184 70.07794 52.76989
# Shear Modulus (GPa) = 22.16129 44.66228 33.41179
#
# Velocity S-wave (km/s) = 2.90148 4.11901 3.56264
# Velocity P-wave (km/s) = 4.96951 7.01732 6.08025
#
# Compressibility (1/GPa) = 0.02819933
#
# Stress axis : x y z
#
# Youngs Moduli (GPa) = 32.87543 160.34611 40.17978
#
# Poissons Ratio (x) = -0.31813 0.50638
# Poissons Ratio (y) = -0.06523 0.24320
# Poissons Ratio (z) = 0.41433 0.97053
#
# Static dielectric constant tensor:
#      x y z
#    x 2.217960 0.159060 -0.069690 
#    y 0.159060 2.231310 -0.044800 
#    z -0.069690 -0.044800 2.067170 
# 
# From -- ./inp_files/280778.got.cif
#   From: 2010.05.17/outbox.cif.g08.bks.cpg/sg2_141_cif.got.tgz:280778.got - 2010.06.03 11:33:40.
