data_PCOD9002624
_publ_section_title
;
Structure prediction by ZEFSAII (Michael W. Deem and Ramdas Pophale) SiO2 
 PCOD9002624
Probable space group: P -1
;
_chemical_formula_sum "Si O2"
_cell_formula_units_Z 14
_cell_length_a 19.923190
_cell_length_b 11.026816
_cell_length_c 12.075076
_cell_angle_alpha 135.168150
_cell_angle_beta 156.082535
_cell_angle_gamma 34.017129
_cell_volume 587.743390
_symmetry_space_group_name_H-M "P -1"
_symmetry_group_IT_number 2
_symmetry_cell_setting 'triclinic'
loop_
_space_group_symop_operation_xyz
x,y,z
-x,-y,-z
loop_
_atom_site_type_symbol
_atom_site_label
_atom_site_fract_x
_atom_site_fract_y
_atom_site_fract_z
Si Si1 0.534692 0.937993 0.248868
Si Si2 0.251632 0.538395 0.450045
Si Si3 0.779245 0.841337 0.871835
Si Si4 0.748864 0.433579 0.288369
Si Si5 0.965674 0.771145 0.718919
Si Si6 0.181613 0.278822 0.773749
Si Si7 0.698188 0.220634 0.866557
O O1 0.622820 0.684891 0.218686
O O2 0.751508 0.910065 0.559369
O O3 0.365533 0.061283 0.173622
O O4 0.402629 0.078717 0.031726
O O5 0.219374 0.353926 0.297501
O O6 0.312042 0.576671 0.685525
O O7 0.453606 0.432230 0.604853
O O8 0.021189 0.747404 0.196964
O O9 0.689303 0.031127 0.769697
O O10 0.743115 0.292689 0.096087
O O11 0.994952 0.329188 0.603159
O O12 0.871873 0.766253 0.455952
O O13 0.132405 0.514071 0.842856
O O14 0.110651 0.842663 0.963902
#
# Coordination Sequence:
#
# PCOD9002624 Si02
#       7
#     2   2   2   2   2   2   2
#     4  11  20  36  63  91 117 163 197 242 296 360
#     4  11  23  42  59  87 124 160 202 243 293 370
#     4  11  25  39  65  87 117 166 203 238 304 352
#     4  10  21  36  62  95 119 153 199 247 301 347
#     4   9  21  36  58  89 121 159 195 241 304 349
#     4   9  18  37  58  86 126 158 195 240 293 365
#     4  11  23  40  61  94 124 151 194 258 301 347
#
# _framework density 23.819918000000001
#
# number of rings (size 3 to 8) (size 9 to 14) (size 15 to 20)
#    0.000    1.714    2.857    2.143    0.000    4.000 
#    0.000    0.714    0.000    2.571    0.000    0.000 
#    0.000    0.000    0.000    0.000    0.000    0.000 
#
# Total GULP energy -78261.867770 kJ/mol
# GULP energy per Si atom -5590.133412 kJ/mol
# Density = 2.376570 g / cm^3
# Si number density = 23.819918 Si / 1000 Ang^3
#
#
#
# Elastic Constant Matrix: (Units=GPa)
#
#
# Indices 1 2 3 4 5 6 
#
# 1 104.9629 6.8838 39.6326 -12.9003 24.9720 -14.6236
# 2 6.8838 39.4492 41.1622 -18.7007 -4.9450 -7.0165
# 3 39.6326 41.1622 126.3354 -30.9784 17.7968 6.3002
# 4 -12.9003 -18.7007 -30.9784 46.8983 -2.4046 2.0887
# 5 24.9720 -4.9450 17.7968 -2.4046 45.7706 -2.0767
# 6 -14.6236 -7.0165 6.3002 2.0887 -2.0767 24.4620
#
#
#
# Elastic Compliance Matrix: (Units=1/GPa)
#
#
# Indices 1 2 3 4 5 6 
#
# 1 0.014137 0.006009 -0.005968 0.001630 -0.004149 0.011221
# 2 0.006009 0.057396 -0.021223 0.010034 0.012870 0.025757
# 3 -0.005968 -0.021223 0.019172 0.002886 -0.007040 -0.015437
# 4 0.001630 0.010034 0.002886 0.027672 0.000562 0.000794
# 5 -0.004149 0.012870 -0.007040 0.000562 0.028514 0.005397
# 6 0.011221 0.025757 -0.015437 0.000794 0.005397 0.059342
#
#
# Mechanical properties :
#
#
# Convention : Reuss Voigt Hill
#
# Bulk Modulus (GPa) = 20.68661 49.56719 35.12690
# Shear Modulus (GPa) = 18.88864 35.63079 27.25971
#
# Velocity S-wave (km/s) = 2.81904 3.87180 3.38658
# Velocity P-wave (km/s) = 4.39311 6.39079 5.48368
#
# Compressibility (1/GPa) = 0.04834046
#
# Stress axis : x y z
#
# Youngs Moduli (GPa) = 70.73515 17.42291 52.16031
#
# Poissons Ratio (x) = -0.10469 0.31131
# Poissons Ratio (y) = -0.42504 1.10698
# Poissons Ratio (z) = 0.42216 0.36976
#
# Static dielectric constant tensor:
#      x y z
#    x 1.932210 -0.060620 0.035560 
#    y -0.060620 1.891590 -0.002620 
#    z 0.035560 -0.002620 1.952530 
# 
# From -- ./inp_files/308875.got.cif
#   From: 2010.05.17/outbox.cif.g08.bks.cpg/sg2_155_cif.got.tgz:308875.got - 2010.06.03 11:33:40.
