data_PCOD9002396
_publ_section_title
;
Structure prediction by ZEFSAII (Michael W. Deem and Ramdas Pophale) SiO2 
 PCOD9002396
Probable space group: P -1
;
_chemical_formula_sum "Si O2"
_cell_formula_units_Z 14
_cell_length_a 9.819067
_cell_length_b 16.098692
_cell_length_c 9.250866
_cell_angle_alpha 109.016312
_cell_angle_beta 135.856430
_cell_angle_gamma 42.148771
_cell_volume 613.328673
_symmetry_space_group_name_H-M "P -1"
_symmetry_group_IT_number 2
_symmetry_cell_setting 'triclinic'
loop_
_space_group_symop_operation_xyz
x,y,z
-x,-y,-z
loop_
_atom_site_type_symbol
_atom_site_label
_atom_site_fract_x
_atom_site_fract_y
_atom_site_fract_z
Si Si1 0.796623 0.617013 0.077056
Si Si2 0.497202 0.370528 0.576686
Si Si3 0.263621 0.653911 0.964832
Si Si4 0.453410 0.858224 0.162910
Si Si5 0.779566 0.098423 0.670722
Si Si6 0.770046 0.907852 0.532861
Si Si7 0.905588 0.389132 0.936823
O O1 0.583399 0.732368 0.100087
O O2 0.145502 0.495385 0.334952
O O3 0.820616 0.673826 0.990846
O O4 0.730778 0.540583 0.931134
O O5 0.645915 0.227921 0.559267
O O6 0.692347 0.390103 0.697435
O O7 0.545588 0.356001 0.779325
O O8 0.078423 0.772386 0.774122
O O9 0.500000 0.500000 0.000000
O O10 0.018836 0.685176 0.896771
O O11 0.406667 0.851548 0.292292
O O12 0.682588 0.861522 0.329681
O O13 0.123903 0.999784 0.930199
O O14 0.788314 0.000965 0.544575
O O15 0.500000 0.000000 0.500000
#
# Coordination Sequence:
#
# PCOD9002396 Si02
#       7
#     2   2   2   2   2   2   2
#     4  11  22  41  62  85 112 164 196 236 293 348
#     4  10  22  37  62  84 119 152 195 240 290 345
#     4  10  21  36  60  90 116 146 190 249 290 335
#     4  10  22  36  62  86 120 155 193 232 297 348
#     4  10  22  37  57  93 120 154 186 245 295 338
#     4  10  21  38  57  88 124 149 186 242 293 344
#     4   9  25  39  59  86 123 146 199 250 284 341
#
# _framework density 22.826260000000001
#
# number of rings (size 3 to 8) (size 9 to 14) (size 15 to 20)
#    0.857    1.143    0.000    3.857    8.000    0.571 
#    0.000    0.714    0.000    4.286    0.000    0.000 
#    0.000    0.000    0.000    0.000    0.000    0.000 
#
# Total GULP energy -78165.374748 kJ/mol
# GULP energy per Si atom -5583.241053 kJ/mol
# Density = 2.277431 g / cm^3
# Si number density = 22.826260 Si / 1000 Ang^3
#
#
#
# Elastic Constant Matrix: (Units=GPa)
#
#
# Indices 1 2 3 4 5 6 
#
# 1 67.4438 39.1496 28.4527 6.5754 10.9832 22.7246
# 2 39.1496 110.6623 41.4074 2.8683 2.2542 35.0889
# 3 28.4527 41.4074 85.0184 3.8241 9.1728 20.5248
# 4 6.5754 2.8683 3.8241 28.4452 2.7036 9.5424
# 5 10.9832 2.2542 9.1728 2.7036 6.7930 7.0425
# 6 22.7246 35.0889 20.5248 9.5424 7.0425 31.7583
#
#
#
# Elastic Compliance Matrix: (Units=1/GPa)
#
#
# Indices 1 2 3 4 5 6 
#
# 1 0.026255 -0.008019 -0.000562 -0.001333 -0.037658 -0.000813
# 2 -0.008019 0.020189 -0.005839 0.004638 0.035078 -0.021966
# 3 -0.000562 -0.005839 0.016897 0.000261 -0.020486 0.000398
# 4 -0.001333 0.004638 0.000261 0.040461 0.001641 -0.016860
# 5 -0.037658 0.035078 -0.020486 0.001641 0.288916 -0.063132
# 6 -0.000813 -0.021966 0.000398 -0.016860 -0.063132 0.075147
#
#
# Mechanical properties :
#
#
# Convention : Reuss Voigt Hill
#
# Bulk Modulus (GPa) = 28.98539 53.46044 41.22291
# Shear Modulus (GPa) = 9.83854 23.67363 16.75609
#
# Velocity S-wave (km/s) = 2.07835 3.22393 2.71231
# Velocity P-wave (km/s) = 4.29944 6.10981 5.28275
#
# Compressibility (1/GPa) = 0.03450015
#
# Stress axis : x y z
#
# Youngs Moduli (GPa) = 38.08733 49.53261 59.18324
#
# Poissons Ratio (x) = 0.39720 0.03327
# Poissons Ratio (y) = 0.30542 0.34559
# Poissons Ratio (z) = 0.02141 0.28924
#
# Static dielectric constant tensor:
#      x y z
#    x 1.919150 0.042720 0.023530 
#    y 0.042720 1.888380 0.056060 
#    z 0.023530 0.056060 1.860740 
# 
# From -- ./inp_files/436811.got.cif
#   From: 2010.05.17/outbox.cif.g08.bks.cpg/sg2_219_cif.got.tgz:436811.got - 2010.06.03 11:33:40.
