data_PCOD9002689
_publ_section_title
;
Structure prediction by ZEFSAII (Michael W. Deem and Ramdas Pophale) SiO2 
 PCOD9002689
Probable space group: P -1
;
_chemical_formula_sum "Si O2"
_cell_formula_units_Z 16
_cell_length_a 17.956148
_cell_length_b 5.290496
_cell_length_c 15.172514
_cell_angle_alpha 79.921344
_cell_angle_beta 29.492967
_cell_angle_gamma 81.665318
_cell_volume 698.565987
_symmetry_space_group_name_H-M "P -1"
_symmetry_group_IT_number 2
_symmetry_cell_setting 'triclinic'
loop_
_space_group_symop_operation_xyz
x,y,z
-x,-y,-z
loop_
_atom_site_type_symbol
_atom_site_label
_atom_site_fract_x
_atom_site_fract_y
_atom_site_fract_z
Si Si1 0.278745 0.954348 0.427059
Si Si2 0.210431 0.669728 0.029237
Si Si3 0.131645 0.801455 0.759867
Si Si4 0.817609 0.997369 0.677263
Si Si5 0.201230 0.228026 0.923129
Si Si6 0.546326 0.569154 0.698868
Si Si7 0.146814 0.540395 0.283850
Si Si8 0.691276 0.722876 0.367870
O O1 0.146155 0.885686 0.637377
O O2 0.223503 0.965546 0.383718
O O3 0.394364 0.718923 0.334627
O O4 0.350993 0.225927 0.366114
O O5 0.099902 0.610011 0.228595
O O6 0.183515 0.478132 0.986956
O O7 0.374367 0.595961 0.901285
O O8 0.216603 0.966337 0.977643
O O9 0.198782 0.519576 0.717527
O O10 0.232124 0.009631 0.696095
O O11 0.956848 0.803913 0.964351
O O12 0.761184 0.225547 0.782258
O O13 0.765622 0.723540 0.783798
O O14 0.000000 0.000000 0.500000
O O15 0.333380 0.257542 0.712532
O O16 0.559009 0.657969 0.577487
O O17 0.000000 0.500000 0.500000
#
# Coordination Sequence:
#
# PCOD9002689 Si02
#       8
#     2   2   2   2   2   2   2   2
#     4  10  21  39  66  90 119 169 200 243 312 359
#     4  12  26  41  60  93 123 166 206 255 297 357
#     4  10  21  36  63  92 128 155 205 252 307 369
#     4  10  21  38  63  94 119 150 199 257 305 367
#     4  12  24  37  65  93 126 159 210 253 306 356
#     4  10  23  43  61  86 131 165 208 240 291 373
#     4  10  23  39  60  85 127 150 193 262 310 355
#     4  10  21  41  61  91 125 168 197 255 302 356
#
# _framework density 22.904064000000002
#
# number of rings (size 3 to 8) (size 9 to 14) (size 15 to 20)
#    0.000    1.500    0.000    4.500    7.000    1.000 
#    0.000    3.750    0.000    0.000    0.000    0.000 
#    0.000    0.000    0.000    0.000    0.000    0.000 
#
# Total GULP energy -89455.507597 kJ/mol
# GULP energy per Si atom -5590.969225 kJ/mol
# Density = 2.285193 g / cm^3
# Si number density = 22.904064 Si / 1000 Ang^3
#
#
#
# Elastic Constant Matrix: (Units=GPa)
#
#
# Indices 1 2 3 4 5 6 
#
# 1 63.6954 4.4755 13.6465 -13.7617 31.2013 11.4095
# 2 4.4755 109.8485 0.6723 -9.0598 14.0600 13.8152
# 3 13.6465 0.6723 53.0006 -3.7203 14.3727 -8.5027
# 4 -13.7617 -9.0598 -3.7203 20.9861 -6.7393 6.9839
# 5 31.2013 14.0600 14.3727 -6.7393 36.3848 -0.4514
# 6 11.4095 13.8152 -8.5027 6.9839 -0.4514 36.3519
#
#
#
# Elastic Compliance Matrix: (Units=1/GPa)
#
#
# Indices 1 2 3 4 5 6 
#
# 1 0.041742 0.007529 -0.003730 0.026983 -0.032512 -0.022423
# 2 0.007529 0.011942 -0.000342 0.010091 -0.009179 -0.009034
# 3 -0.003730 -0.000342 0.022369 -0.002872 -0.005951 0.007011
# 4 0.026983 0.010091 -0.002872 0.074304 -0.012481 -0.027406
# 5 -0.032512 -0.009179 -0.005951 -0.012481 0.059142 0.015433
# 6 -0.022423 -0.009034 0.007011 -0.027406 0.015433 0.045077
#
#
# Mechanical properties :
#
#
# Convention : Reuss Voigt Hill
#
# Bulk Modulus (GPa) = 12.05284 29.34811 20.70048
# Shear Modulus (GPa) = 18.16088 32.59458 25.37773
#
# Velocity S-wave (km/s) = 2.81892 3.77648 3.33228
# Velocity P-wave (km/s) = 3.98357 5.64421 4.88497
#
# Compressibility (1/GPa) = 0.08296801
#
# Stress axis : x y z
#
# Youngs Moduli (GPa) = 23.95658 83.73750 44.70432
#
# Poissons Ratio (x) = -0.63045 0.16674
# Poissons Ratio (y) = -0.18037 0.01528
# Poissons Ratio (z) = 0.08935 0.02863
#
# Static dielectric constant tensor:
#      x y z
#    x 1.849310 0.013280 0.053900 
#    y 0.013280 1.813540 -0.007500 
#    z 0.053900 -0.007500 1.866400 
# 
# From -- ./inp_files/459332.got.cif
#   From: 2010.05.17/outbox.cif.g08.bks.cpg/sg2_230_cif.got.tgz:459332.got - 2010.06.03 11:33:40.
