data_PCOD9002985
_publ_section_title
;
Structure prediction by ZEFSAII (Michael W. Deem and Ramdas Pophale) SiO2 
 PCOD9002985
Probable space group: P -1
;
_chemical_formula_sum "Si O2"
_cell_formula_units_Z 16
_cell_length_a 7.859040
_cell_length_b 19.389942
_cell_length_c 5.314962
_cell_angle_alpha 80.132772
_cell_angle_beta 121.077664
_cell_angle_gamma 95.179098
_cell_volume 683.414549
_symmetry_space_group_name_H-M "P -1"
_symmetry_group_IT_number 2
_symmetry_cell_setting 'triclinic'
loop_
_space_group_symop_operation_xyz
x,y,z
-x,-y,-z
loop_
_atom_site_type_symbol
_atom_site_label
_atom_site_fract_x
_atom_site_fract_y
_atom_site_fract_z
Si Si1 0.806278 0.179189 0.050537
Si Si2 0.103192 0.665752 0.015497
Si Si3 0.493172 0.066438 0.770471
Si Si4 0.702262 0.544377 0.152958
Si Si5 0.784049 0.968130 0.819287
Si Si6 0.265211 0.514471 0.283915
Si Si7 0.925877 0.838318 0.240410
Si Si8 0.153726 0.316634 0.689977
O O1 0.929459 0.158975 0.408809
O O2 0.773280 0.262670 0.975353
O O3 0.603524 0.135069 0.909552
O O4 0.941850 0.164890 0.913626
O O5 0.226708 0.594786 0.143110
O O6 0.006061 0.670801 0.215731
O O7 0.941339 0.667974 0.664941
O O8 0.284069 0.069035 0.466461
O O9 0.647625 0.036525 0.696452
O O10 0.500000 0.000000 0.000000
O O11 0.814698 0.510150 0.493840
O O12 0.679352 0.625886 0.152995
O O13 0.500000 0.500000 0.000000
O O14 0.805382 0.533796 0.969403
O O15 0.782280 0.904996 0.059735
O O16 0.000000 0.000000 0.000000
O O17 0.500000 0.500000 0.500000
O O18 0.803632 0.765773 0.212746
#
# Coordination Sequence:
#
# PCOD9002985 Si02
#       8
#     2   2   2   2   2   2   2   2
#     4  10  22  42  65  92 132 164 215 264 328 388
#     4  10  21  38  62  89 119 163 201 266 314 370
#     4  11  25  40  65 102 132 173 222 270 326 393
#     4  10  21  37  56  83 121 156 194 259 303 367
#     4  11  23  42  67  96 134 174 217 269 327 385
#     4  10  21  37  56  84 118 156 202 243 317 366
#     4  10  22  41  67  93 126 175 209 266 325 385
#     4  10  21  38  61  91 120 157 215 253 314 382
#
# _framework density 23.411850999999999
#
# number of rings (size 3 to 8) (size 9 to 14) (size 15 to 20)
#    0.000    1.750    1.250    2.250    3.500    4.000 
#    4.500    2.500    0.000    0.000    0.000    0.000 
#    0.000    0.000    0.000    0.000    0.000    0.000 
#
# Total GULP energy -89344.823806 kJ/mol
# GULP energy per Si atom -5584.051488 kJ/mol
# Density = 2.335856 g / cm^3
# Si number density = 23.411851 Si / 1000 Ang^3
#
#
#
# Elastic Constant Matrix: (Units=GPa)
#
#
# Indices 1 2 3 4 5 6 
#
# 1 48.6292 13.7901 25.3651 8.0725 -11.7820 7.0139
# 2 13.7901 189.1128 44.1999 5.9347 12.6610 23.9666
# 3 25.3651 44.1999 131.3453 11.0225 -29.4688 4.6091
# 4 8.0725 5.9347 11.0225 50.2967 -0.9772 7.7950
# 5 -11.7820 12.6610 -29.4688 -0.9772 46.7389 5.3208
# 6 7.0139 23.9666 4.6091 7.7950 5.3208 41.8941
#
#
#
# Elastic Compliance Matrix: (Units=1/GPa)
#
#
# Indices 1 2 3 4 5 6 
#
# 1 0.024472 -0.000897 -0.003003 -0.002543 0.004852 -0.003397
# 2 -0.000897 0.006580 -0.002727 0.000357 -0.003384 -0.002951
# 3 -0.003003 -0.002727 0.010721 -0.001464 0.006675 0.000308
# 4 -0.002543 0.000357 -0.001464 0.021085 -0.000829 -0.003435
# 5 0.004852 -0.003384 0.006675 -0.000829 0.028071 -0.003022
# 6 -0.003397 -0.002951 0.000308 -0.003435 -0.003022 0.027115
#
#
# Mechanical properties :
#
#
# Convention : Reuss Voigt Hill
#
# Bulk Modulus (GPa) = 35.06403 59.53306 47.29855
# Shear Modulus (GPa) = 35.51031 46.83475 41.17253
#
# Velocity S-wave (km/s) = 3.89879 4.47752 4.19814
# Velocity P-wave (km/s) = 5.93945 7.22597 6.61406
#
# Compressibility (1/GPa) = 0.02851925
#
# Stress axis : x y z
#
# Youngs Moduli (GPa) = 40.86276 151.97841 93.27711
#
# Poissons Ratio (x) = 0.13637 0.28009
# Poissons Ratio (y) = 0.03667 0.25434
# Poissons Ratio (z) = 0.12270 0.41440
#
# Static dielectric constant tensor:
#      x y z
#    x 1.929640 -0.077210 -0.092390 
#    y -0.077210 1.895530 0.027440 
#    z -0.092390 0.027440 1.877140 
# 
# From -- ./inp_files/51227.got.cif
#   From: 2010.05.17/outbox.cif.g08.bks.cpg/sg2_26_cif.got.tgz:51227.got - 2010.06.03 11:33:40.
