data_PCOD9002422
_publ_section_title
;
Structure prediction by ZEFSAII (Michael W. Deem and Ramdas Pophale) SiO2 
 PCOD9002422
Probable space group: P -1
;
_chemical_formula_sum "Si O2"
_cell_formula_units_Z 16
_cell_length_a 11.113942
_cell_length_b 13.343599
_cell_length_c 11.621743
_cell_angle_alpha 30.934942
_cell_angle_beta 61.631889
_cell_angle_gamma 54.414705
_cell_volume 719.344741
_symmetry_space_group_name_H-M "P -1"
_symmetry_group_IT_number 2
_symmetry_cell_setting 'triclinic'
loop_
_space_group_symop_operation_xyz
x,y,z
-x,-y,-z
loop_
_atom_site_type_symbol
_atom_site_label
_atom_site_fract_x
_atom_site_fract_y
_atom_site_fract_z
Si Si1 0.758548 0.663512 0.009410
Si Si2 0.501267 0.728289 0.251605
Si Si3 0.352903 0.187233 0.343322
Si Si4 0.041496 0.531314 0.579000
Si Si5 0.679348 0.872693 0.180416
Si Si6 0.801355 0.378066 0.939464
Si Si7 0.173143 0.047365 0.734106
Si Si8 0.039729 0.772755 0.755982
O O1 0.678987 0.756915 0.831251
O O2 0.884228 0.758494 0.877874
O O3 0.630406 0.700441 0.125057
O O4 0.865671 0.415915 0.187723
O O5 0.500000 0.500000 0.500000
O O6 0.533708 0.826486 0.259777
O O7 0.353186 0.908585 0.088172
O O8 0.232774 0.105811 0.531263
O O9 0.500000 0.000000 0.500000
O O10 0.340940 0.406434 0.194070
O O11 0.199140 0.347267 0.705697
O O12 0.000000 0.500000 0.500000
O O13 0.997444 0.783276 0.355821
O O14 0.927688 0.466506 0.767900
O O15 0.733527 0.901646 0.254878
O O16 0.851029 0.264232 0.149864
O O17 0.802147 0.196870 0.031316
O O18 0.000000 0.000000 0.500000
#
# Coordination Sequence:
#
# PCOD9002422 Si02
#       8
#     2   2   2   2   2   2   2   2
#     4  10  22  41  62  92 125 157 208 258 304 370
#     4  11  25  42  62  87 124 173 213 253 305 365
#     4  10  21  39  61  88 122 158 198 256 314 365
#     4   9  20  37  58  84 118 155 196 253 305 354
#     4  10  23  41  59  88 122 161 213 256 301 370
#     4  10  21  36  60  93 119 154 203 246 312 383
#     4  10  21  39  62  89 121 154 198 259 318 369
#     4  10  21  38  64  93 122 157 199 256 316 365
#
# _framework density 22.242466
#
# number of rings (size 3 to 8) (size 9 to 14) (size 15 to 20)
#    0.000    2.000    0.000    2.250    0.000   12.500 
#    0.000    3.750    0.000    0.000    0.000    0.000 
#    0.000    0.000    0.000    0.000    0.000    0.000 
#
# Total GULP energy -89157.253348 kJ/mol
# GULP energy per Si atom -5572.328334 kJ/mol
# Density = 2.219184 g / cm^3
# Si number density = 22.242466 Si / 1000 Ang^3
#
#
#
# Elastic Constant Matrix: (Units=GPa)
#
#
# Indices 1 2 3 4 5 6 
#
# 1 59.9371 38.5346 50.2316 -17.3571 6.2523 10.5091
# 2 38.5346 77.6438 48.0164 -30.4353 9.3280 -8.4081
# 3 50.2316 48.0164 152.1334 -45.2615 20.6765 0.7691
# 4 -17.3571 -30.4353 -45.2615 40.6286 -0.9513 0.5675
# 5 6.2523 9.3280 20.6765 -0.9513 34.2937 -9.6780
# 6 10.5091 -8.4081 0.7691 0.5675 -9.6780 30.3787
#
#
#
# Elastic Compliance Matrix: (Units=1/GPa)
#
#
# Indices 1 2 3 4 5 6 
#
# 1 0.035561 -0.016713 -0.007802 -0.005831 -0.002292 -0.017351
# 2 -0.016713 0.027734 0.001299 0.014875 -0.001271 0.012742
# 3 -0.007802 0.001299 0.013262 0.012257 -0.006464 0.000434
# 4 -0.005831 0.014875 0.012257 0.046691 -0.008439 0.002263
# 5 -0.002292 -0.001271 -0.006464 -0.008439 0.037141 0.012595
# 6 -0.017351 0.012742 0.000434 0.002263 0.012595 0.046406
#
#
# Mechanical properties :
#
#
# Convention : Reuss Voigt Hill
#
# Bulk Modulus (GPa) = 33.19586 62.58663 47.89124
# Shear Modulus (GPa) = 18.99187 31.25564 25.12376
#
# Velocity S-wave (km/s) = 2.92525 3.75270 3.36451
# Velocity P-wave (km/s) = 5.13482 6.85394 6.05569
#
# Compressibility (1/GPa) = 0.03012424
#
# Stress axis : x y z
#
# Youngs Moduli (GPa) = 28.12070 36.05635 75.40117
#
# Poissons Ratio (x) = 0.60262 0.58830
# Poissons Ratio (y) = 0.46999 -0.09793
# Poissons Ratio (z) = 0.21940 -0.04683
#
# Static dielectric constant tensor:
#      x y z
#    x 1.897000 -0.047920 0.028710 
#    y -0.047920 1.954880 -0.056330 
#    z 0.028710 -0.056330 1.807330 
# 
# From -- ./inp_files/432264.got.cif
#   From: 2010.05.17/outbox.cif.g08.bks.cpg/sg2_217_cif.got.tgz:432264.got - 2010.06.03 11:33:40.
