data_PCOD9002827
_publ_section_title
;
Structure prediction by ZEFSAII (Michael W. Deem and Ramdas Pophale) SiO2 
 PCOD9002827
Probable space group: P -1
;
_chemical_formula_sum "Si O2"
_cell_formula_units_Z 14
_cell_length_a 10.107476
_cell_length_b 20.680542
_cell_length_c 8.729754
_cell_angle_alpha 131.349438
_cell_angle_beta 30.453612
_cell_angle_gamma 129.660449
_cell_volume 682.868907
_symmetry_space_group_name_H-M "P -1"
_symmetry_group_IT_number 2
_symmetry_cell_setting 'triclinic'
loop_
_space_group_symop_operation_xyz
x,y,z
-x,-y,-z
loop_
_atom_site_type_symbol
_atom_site_label
_atom_site_fract_x
_atom_site_fract_y
_atom_site_fract_z
Si Si1 0.860010 0.203487 0.751106
Si Si2 0.244723 0.994280 0.355967
Si Si3 0.746684 0.439484 0.829749
Si Si4 0.158428 0.755686 0.515317
Si Si5 0.597322 0.724823 0.512746
Si Si6 0.318550 0.176495 0.735908
Si Si7 0.702125 0.467191 0.551326
O O1 0.914085 0.233218 0.570404
O O2 0.101510 0.249899 0.689921
O O3 0.819709 0.098924 0.642563
O O4 0.588998 0.229886 0.121477
O O5 0.273272 0.076579 0.569402
O O6 0.000000 0.000000 0.500000
O O7 0.500000 0.000000 0.000000
O O8 0.816765 0.344393 0.633142
O O9 0.725962 0.456498 0.694983
O O10 0.992444 0.507160 0.762488
O O11 0.464985 0.456462 0.198799
O O12 0.449485 0.808856 0.347770
O O13 0.942192 0.791130 0.890915
O O14 0.585183 0.764068 0.415951
O O15 0.469910 0.622590 0.477182
#
# Coordination Sequence:
#
# PCOD9002827 Si02
#       7
#     2   2   2   2   2   2   2
#     4  12  26  44  66  95 139 169 205 274 333 379
#     4  12  23  43  68  99 127 165 221 267 315 374
#     4  10  21  38  60  95 129 163 209 276 313 368
#     4  12  26  43  64 100 135 170 209 268 337 375
#     4  12  23  43  68  99 123 176 223 260 315 390
#     4  12  24  41  71  95 128 171 223 264 308 395
#     4  10  21  36  65  94 121 166 224 263 304 376
#
# _framework density 20.501739000000001
#
# number of rings (size 3 to 8) (size 9 to 14) (size 15 to 20)
#    0.000    0.571    4.286    4.286    4.000    1.143 
#    0.000    4.286    0.000    0.000    0.000    0.000 
#    0.000    0.000    0.000    0.000    0.000    0.000 
#
# Total GULP energy -78295.079822 kJ/mol
# GULP energy per Si atom -5592.505702 kJ/mol
# Density = 2.045508 g / cm^3
# Si number density = 20.501739 Si / 1000 Ang^3
#
#
#
# Elastic Constant Matrix: (Units=GPa)
#
#
# Indices 1 2 3 4 5 6 
#
# 1 10.7487 57.9011 -1.4018 -12.3143 78.5924 64.7699
# 2 57.9011 34.5490 52.2792 27.7680 -126.9059 -65.7779
# 3 -1.4018 52.2792 94.7049 8.8644 22.5960 3.9545
# 4 -12.3143 27.7680 8.8644 27.3831 31.1468 11.0893
# 5 78.5924 -126.9059 22.5960 31.1468 -180.5392 -151.3644
# 6 64.7699 -65.7779 3.9545 11.0893 -151.3644 -79.0976
#
#
#
# Elastic Compliance Matrix: (Units=1/GPa)
#
#
# Indices 1 2 3 4 5 6 
#
# 1 0.022614 0.000312 -0.002106 -0.000322 0.009722 -0.000496
# 2 0.000312 0.017966 -0.008716 -0.009452 0.002360 -0.020961
# 3 -0.002106 -0.008716 0.015445 0.001426 -0.003215 0.012647
# 4 -0.000322 -0.009452 0.001426 0.041555 -0.004200 0.021530
# 5 0.009722 0.002360 -0.003215 -0.004200 0.014052 -0.021642
# 6 -0.000496 -0.020961 0.012647 0.021530 -0.021642 0.049448
#
#
# Mechanical properties :
#
#
# Convention : Reuss Voigt Hill
#
# Bulk Modulus (GPa) = 28.56747 39.72885 34.14816
# Shear Modulus (GPa) = 25.80392 -44.36912 -9.28260
#
# Velocity S-wave (km/s) = 3.55155 -4.65710 -2.13015
# Velocity P-wave (km/s) = 5.54819 3.08185 3.26226
#
# Compressibility (1/GPa) = 0.03500485
#
# Stress axis : x y z
#
# Youngs Moduli (GPa) = 44.21949 55.66078 64.74685
#
# Poissons Ratio (x) = -0.01737 0.13638
# Poissons Ratio (y) = -0.01380 0.56433
# Poissons Ratio (z) = 0.09314 0.48514
#
# Static dielectric constant tensor:
#      x y z
#    x 4.587720 0.112920 3.122800 
#    y 0.112920 1.816200 0.124740 
#    z 3.122800 0.124740 5.065220 
# 
# From -- ./inp_files/201235.got.cif
#   From: 2010.05.17/outbox.cif.g08.bks.cpg/sg2_101_cif.got.tgz:201235.got - 2010.06.03 11:33:40.
