data_PCOD9002936
_publ_section_title
;
Structure prediction by ZEFSAII (Michael W. Deem and Ramdas Pophale) SiO2 
 PCOD9002936
Probable space group: P -1
;
_chemical_formula_sum "Si O2"
_cell_formula_units_Z 16
_cell_length_a 7.769626
_cell_length_b 26.310908
_cell_length_c 9.985940
_cell_angle_alpha 132.271660
_cell_angle_beta 75.805333
_cell_angle_gamma 67.230621
_cell_volume 935.377314
_symmetry_space_group_name_H-M "P -1"
_symmetry_group_IT_number 2
_symmetry_cell_setting 'triclinic'
loop_
_space_group_symop_operation_xyz
x,y,z
-x,-y,-z
loop_
_atom_site_type_symbol
_atom_site_label
_atom_site_fract_x
_atom_site_fract_y
_atom_site_fract_z
Si Si1 0.834136 0.145711 0.520435
Si Si2 0.831296 0.782989 0.824351
Si Si3 0.976852 0.269737 0.023116
Si Si4 0.590656 0.064109 0.443528
Si Si5 0.986769 0.605863 0.607130
Si Si6 0.536053 0.642140 0.880962
Si Si7 0.226776 0.077730 0.098501
Si Si8 0.216127 0.995113 0.414587
O O1 0.709318 0.106185 0.480435
O O2 0.986139 0.114678 0.297155
O O3 0.602470 0.270456 0.822553
O O4 0.063560 0.083345 0.485457
O O5 0.863653 0.820049 0.754567
O O6 0.932944 0.674010 0.615139
O O7 0.504553 0.880756 0.098110
O O8 0.986961 0.768691 0.899350
O O9 0.259317 0.169230 0.711331
O O10 0.969471 0.353973 0.205510
O O11 0.708115 0.321144 0.092011
O O12 0.708159 0.997529 0.441975
O O13 0.688928 0.989955 0.169192
O O14 0.250603 0.478275 0.318808
O O15 0.718617 0.639381 0.749544
O O16 0.500000 0.000000 0.000000
O O17 0.000000 0.000000 0.500000
#
# Coordination Sequence:
#
# PCOD9002936 Si02
#       8
#     2   2   2   2   2   2   2   2
#     4  11  21  36  54  86 117 152 193 232 292 348
#     4   9  20  37  49  82 119 143 193 234 281 337
#     4   9  19  35  57  86 116 141 191 243 284 336
#     4  10  21  37  54  84 117 149 191 244 285 345
#     4   9  20  37  57  90 114 144 193 248 282 338
#     4  11  19  35  63  87 113 151 188 242 295 333
#     4  12  23  36  53  80 119 163 192 226 289 354
#     4   9  17  32  56  76 109 141 184 235 289 327
#
# _framework density 17.105398000000001
#
# number of rings (size 3 to 8) (size 9 to 14) (size 15 to 20)
#    0.750    1.250    2.500    2.250    1.750    1.000 
#    0.000    0.625    0.000    0.000    0.000    3.500 
#    0.000    0.000    0.000    0.000    0.000    0.000 
#
# Total GULP energy -89150.956027 kJ/mol
# GULP energy per Si atom -5571.934752 kJ/mol
# Density = 1.706647 g / cm^3
# Si number density = 17.105398 Si / 1000 Ang^3
#
#
#
# Elastic Constant Matrix: (Units=GPa)
#
#
# Indices 1 2 3 4 5 6 
#
# 1 100.3785 39.4625 22.0393 10.5745 -5.7823 1.5698
# 2 39.4625 98.7764 43.2502 4.1539 -1.0086 15.4531
# 3 22.0393 43.2502 62.9959 16.6159 5.7608 -3.9513
# 4 10.5745 4.1539 16.6159 21.9676 4.5062 2.8942
# 5 -5.7823 -1.0086 5.7608 4.5062 30.6371 4.0341
# 6 1.5698 15.4531 -3.9513 2.8942 4.0341 26.6073
#
#
#
# Elastic Compliance Matrix: (Units=1/GPa)
#
#
# Indices 1 2 3 4 5 6 
#
# 1 0.012828 -0.005945 0.001438 -0.007098 0.002566 0.003293
# 2 -0.005945 0.023077 -0.019050 0.014570 0.003445 -0.017988
# 3 0.001438 -0.019050 0.037347 -0.026766 -0.006123 0.020365
# 4 -0.007098 0.014570 -0.026766 0.069670 -0.003565 -0.019056
# 5 0.002566 0.003445 -0.006123 -0.003565 0.035984 -0.008130
# 6 0.003293 -0.017988 0.020365 -0.019056 -0.008130 0.054166
#
#
# Mechanical properties :
#
#
# Convention : Reuss Voigt Hill
#
# Bulk Modulus (GPa) = 38.25948 52.40611 45.33279
# Shear Modulus (GPa) = 17.30707 26.33566 21.82137
#
# Velocity S-wave (km/s) = 3.18432 3.92804 3.57557
# Velocity P-wave (km/s) = 5.99460 7.16075 6.60347
#
# Compressibility (1/GPa) = 0.02613731
#
# Stress axis : x y z
#
# Youngs Moduli (GPa) = 77.95558 43.33359 26.77585
#
# Poissons Ratio (x) = 0.25761 -0.03850
# Poissons Ratio (y) = 0.46343 0.51008
# Poissons Ratio (z) = -0.11208 0.82551
#
# Static dielectric constant tensor:
#      x y z
#    x 1.608750 0.014370 0.014630 
#    y 0.014370 1.588400 0.014830 
#    z 0.014630 0.014830 1.563550 
# 
# From -- ./inp_files/227120.got.cif
#   From: 2010.05.17/outbox.cif.g08.bks.cpg/sg2_114_cif.got.tgz:227120.got - 2010.06.03 11:33:40.
