data_PCOD9002602
_publ_section_title
;
Structure prediction by ZEFSAII (Michael W. Deem and Ramdas Pophale) SiO2 
 PCOD9002602
Probable space group: P -1
;
_chemical_formula_sum "Si O2"
_cell_formula_units_Z 12
_cell_length_a 10.515137
_cell_length_b 7.948337
_cell_length_c 9.221704
_cell_angle_alpha 127.625802
_cell_angle_beta 48.404146
_cell_angle_gamma 102.996168
_cell_volume 434.816139
_symmetry_space_group_name_H-M "P -1"
_symmetry_group_IT_number 2
_symmetry_cell_setting 'triclinic'
loop_
_space_group_symop_operation_xyz
x,y,z
-x,-y,-z
loop_
_atom_site_type_symbol
_atom_site_label
_atom_site_fract_x
_atom_site_fract_y
_atom_site_fract_z
Si Si1 0.887186 0.263559 0.928710
Si Si2 0.281714 0.228002 0.661717
Si Si3 0.710090 0.311485 0.652609
Si Si4 0.723587 0.504188 0.448220
Si Si5 0.872186 0.826499 0.684864
Si Si6 0.619752 0.783363 0.107603
O O1 0.802533 0.512900 0.074065
O O2 0.828105 0.295340 0.159770
O O3 0.098659 0.196623 0.727208
O O4 0.828257 0.077195 0.789828
O O5 0.384060 0.304776 0.486202
O O6 0.334441 0.127149 0.728525
O O7 0.638940 0.413463 0.600575
O O8 0.599094 0.139897 0.689608
O O9 0.924982 0.231277 0.441964
O O10 0.664247 0.519732 0.905651
O O11 0.850063 0.630859 0.497475
O O12 0.728748 0.850093 0.932831
#
# Coordination Sequence:
#
# PCOD9002602 Si02
#       6
#     2   2   2   2   2   2
#     4   9  20  36  60  91 119 150 199 246 290 348
#     4   9  19  38  58  87 122 154 194 245 296 342
#     4  10  21  36  62  92 117 158 199 237 302 349
#     4   9  19  37  59  89 117 155 198 237 299 350
#     4  11  21  38  67  86 116 159 197 241 296 350
#     4  10  21  39  62  87 124 153 198 251 283 353
#
# _framework density 27.59787
#
# number of rings (size 3 to 8) (size 9 to 14) (size 15 to 20)
#    1.000    1.333    0.000    4.000    0.000    4.000 
#    0.000    3.333    0.000    3.000    0.000    0.000 
#    0.000    0.000    0.000    0.000    0.000    0.000 
#
# Total GULP energy -66929.544605 kJ/mol
# GULP energy per Si atom -5577.462050 kJ/mol
# Density = 2.753506 g / cm^3
# Si number density = 27.597870 Si / 1000 Ang^3
#
#
#
# Elastic Constant Matrix: (Units=GPa)
#
#
# Indices 1 2 3 4 5 6 
#
# 1 62.4353 -11.8315 17.9655 -57.0358 25.6528 9.5863
# 2 -11.8315 -1.2968 -49.4710 -59.8196 36.7744 36.3517
# 3 17.9655 -49.4710 96.6640 -68.4421 21.1280 0.4060
# 4 -57.0358 -59.8196 -68.4421 9.8888 27.4290 15.5185
# 5 25.6528 36.7744 21.1280 27.4290 31.7953 -11.2282
# 6 9.5863 36.3517 0.4060 15.5185 -11.2282 28.3262
#
#
#
# Elastic Compliance Matrix: (Units=1/GPa)
#
#
# Indices 1 2 3 4 5 6 
#
# 1 0.018695 -0.009873 -0.005959 0.003316 -0.001088 0.004181
# 2 -0.009873 0.011351 -0.001860 -0.011796 0.005322 -0.002627
# 3 -0.005959 -0.001860 0.009257 -0.000645 0.003485 0.006006
# 4 0.003316 -0.011796 -0.000645 0.010455 0.006171 0.010744
# 5 -0.001088 0.005322 0.003485 0.006171 0.017489 -0.002960
# 6 0.004181 -0.002627 0.006006 0.010744 -0.002960 0.030114
#
#
# Mechanical properties :
#
#
# Convention : Reuss Voigt Hill
#
# Bulk Modulus (GPa) = 255.23018 7.90318 131.56668
# Shear Modulus (GPa) = 37.29868 27.41135 32.35501
#
# Velocity S-wave (km/s) = 3.68027 3.15499 3.42771
# Velocity P-wave (km/s) = 10.52339 4.01770 7.96504
#
# Compressibility (1/GPa) = 0.00391803
#
# Stress axis : x y z
#
# Youngs Moduli (GPa) = 53.49023 88.09814 108.02363
#
# Poissons Ratio (x) = 0.86981 0.64373
# Poissons Ratio (y) = 0.52812 0.20095
# Poissons Ratio (z) = 0.31876 0.16388
#
# Static dielectric constant tensor:
#      x y z
#    x 2.180830 -0.189130 -0.137340 
#    y -0.189130 2.653920 0.364830 
#    z -0.137340 0.364830 2.401090 
# 
# From -- ./inp_files/146589.got.cif
#   From: 2010.05.17/outbox.cif.g08.bks.cpg/sg2_74_cif.got.tgz:146589.got - 2010.06.03 11:33:40.
