data_PCOD9002676
_publ_section_title
;
Structure prediction by ZEFSAII (Michael W. Deem and Ramdas Pophale) SiO2 
 PCOD9002676
Probable space group: P -1
;
_chemical_formula_sum "Si O2"
_cell_formula_units_Z 15
_cell_length_a 19.149511
_cell_length_b 9.780572
_cell_length_c 8.440479
_cell_angle_alpha 110.552104
_cell_angle_beta 134.534583
_cell_angle_gamma 40.763485
_cell_volume 678.429454
_symmetry_space_group_name_H-M "P -1"
_symmetry_group_IT_number 2
_symmetry_cell_setting 'triclinic'
loop_
_space_group_symop_operation_xyz
x,y,z
-x,-y,-z
loop_
_atom_site_type_symbol
_atom_site_label
_atom_site_fract_x
_atom_site_fract_y
_atom_site_fract_z
Si Si1 0.988978 0.851550 0.219153
Si Si2 0.690848 0.176583 0.373964
Si Si3 0.005232 0.446456 0.722178
Si Si4 0.750271 0.288397 0.218127
Si Si5 0.981791 0.225707 0.121878
Si Si6 0.267610 0.187497 0.790109
Si Si7 0.346412 0.403926 0.083790
Si Si8 0.500000 0.500000 0.500000
O O1 0.121197 0.772711 0.502857
O O2 0.007132 0.862257 0.067232
O O3 0.993448 0.674398 0.189452
O O4 0.831383 0.094194 0.136170
O O5 0.667662 0.281473 0.211696
O O6 0.871974 0.973485 0.618972
O O7 0.607032 0.357516 0.453835
O O8 0.656422 0.042096 0.256527
O O9 0.155294 0.253536 0.774614
O O10 0.852621 0.602027 0.437671
O O11 0.008555 0.612409 0.835848
O O12 0.656845 0.510168 0.056236
O O13 0.825646 0.382822 0.031867
O O14 0.370156 0.203040 0.023044
O O15 0.451042 0.381121 0.354690
#
# Coordination Sequence:
#
# PCOD9002676 Si02
#       8
#     2   2   2   2   2   2   2   1
#     4  11  18  30  54 101 126 157 188 252 295 363
#     4  11  23  43  62  93 119 166 195 257 293 373
#     4   9  16  31  57  96 122 156 191 252 293 360
#     4  11  22  33  62  86 126 154 208 240 306 348
#     4  10  21  36  63  90 131 152 198 244 314 341
#     4   9  18  37  64  84 124 158 206 236 304 354
#     4  11  23  43  62  93 119 166 195 257 293 373
#     4  12  28  42  64  86 124 156 212 246 322 344
#
# _framework density 22.109888999999999
#
# number of rings (size 3 to 8) (size 9 to 14) (size 15 to 20)
#    0.000    1.600    2.667    4.400    0.000    2.667 
#    0.000    0.000    0.000    1.600    0.000    0.000 
#    0.000    0.000    0.000    0.000    0.000    0.000 
#
# Total GULP energy -83591.102839 kJ/mol
# GULP energy per Si atom -5572.740189 kJ/mol
# Density = 2.205957 g / cm^3
# Si number density = 22.109889 Si / 1000 Ang^3
#
#
#
# Elastic Constant Matrix: (Units=GPa)
#
#
# Indices 1 2 3 4 5 6 
#
# 1 95.6293 42.2881 18.8375 8.0864 -11.3120 20.8609
# 2 42.2881 77.5989 32.6187 25.4002 -4.9841 8.5350
# 3 18.8375 32.6187 74.4323 33.9735 4.8168 5.4441
# 4 8.0864 25.4002 33.9735 42.6336 3.7331 -0.9483
# 5 -11.3120 -4.9841 4.8168 3.7331 39.8261 9.3264
# 6 20.8609 8.5350 5.4441 -0.9483 9.3264 37.4738
#
#
#
# Elastic Compliance Matrix: (Units=1/GPa)
#
#
# Indices 1 2 3 4 5 6 
#
# 1 0.016557 -0.007732 -0.001405 0.001890 0.005750 -0.008635
# 2 -0.007732 0.021713 -0.003620 -0.008776 0.001976 -0.000829
# 3 -0.001405 -0.003620 0.022713 -0.015559 -0.001754 -0.001650
# 4 0.001890 -0.008776 -0.015559 0.041168 -0.003752 0.005183
# 5 0.005750 0.001976 -0.001754 -0.003752 0.030127 -0.010989
# 6 -0.008635 -0.000829 -0.001650 0.005183 -0.010989 0.034787
#
#
# Mechanical properties :
#
#
# Convention : Reuss Voigt Hill
#
# Bulk Modulus (GPa) = 28.19371 48.34989 38.27180
# Shear Modulus (GPa) = 24.46165 34.24779 29.35472
#
# Velocity S-wave (km/s) = 3.32982 3.93998 3.64768
# Velocity P-wave (km/s) = 5.25004 6.52789 5.92352
#
# Compressibility (1/GPa) = 0.03546890
#
# Stress axis : x y z
#
# Youngs Moduli (GPa) = 60.39771 46.05608 44.02757
#
# Poissons Ratio (x) = 0.35609 0.06187
# Poissons Ratio (y) = 0.46698 0.15937
# Poissons Ratio (z) = 0.08488 0.16671
#
# Static dielectric constant tensor:
#      x y z
#    x 1.767410 -0.020110 0.009830 
#    y -0.020110 1.816870 0.010550 
#    z 0.009830 0.010550 1.834660 
# 
# From -- ./inp_files/179451.got.cif
#   From: 2010.05.17/outbox.cif.g08.bks.cpg/sg2_90_cif.got.tgz:179451.got - 2010.06.03 11:33:40.
