data_PCOD9002233
_publ_section_title
;
Structure prediction by ZEFSAII (Michael W. Deem and Ramdas Pophale) SiO2 
 PCOD9002233
Probable space group: P -1
;
_chemical_formula_sum "Si O2"
_cell_formula_units_Z 14
_cell_length_a 5.334298
_cell_length_b 9.262151
_cell_length_c 16.683237
_cell_angle_alpha 94.408651
_cell_angle_beta 79.680223
_cell_angle_gamma 123.949278
_cell_volume 672.426274
_symmetry_space_group_name_H-M "P -1"
_symmetry_group_IT_number 2
_symmetry_cell_setting 'triclinic'
loop_
_space_group_symop_operation_xyz
x,y,z
-x,-y,-z
loop_
_atom_site_type_symbol
_atom_site_label
_atom_site_fract_x
_atom_site_fract_y
_atom_site_fract_z
Si Si1 0.225616 0.798484 0.519404
Si Si2 0.342529 0.406370 0.148143
Si Si3 0.020039 0.565472 0.091893
Si Si4 0.838226 0.513603 0.403616
Si Si5 0.240887 0.383024 0.332456
Si Si6 0.397911 0.049226 0.904960
Si Si7 0.784812 0.935883 0.909845
O O1 0.309608 0.658532 0.536660
O O2 0.006279 0.692679 0.451684
O O3 0.001906 0.777000 0.603867
O O4 0.500000 0.000000 0.500000
O O5 0.113405 0.459122 0.136920
O O6 0.263319 0.333542 0.239368
O O7 0.302639 0.258593 0.084717
O O8 0.705862 0.548821 0.129893
O O9 0.305009 0.760534 0.094902
O O10 0.000000 0.500000 0.000000
O O11 0.570746 0.483111 0.360109
O O12 0.100550 0.501550 0.344063
O O13 0.531799 0.935167 0.870187
O O14 0.242050 0.993214 0.999800
O O15 0.135274 0.038518 0.866301
#
# Coordination Sequence:
#
# PCOD9002233 Si02
#       7
#     2   2   2   2   2   2   2
#     4   9  20  38  68  97 121 163 211 244 288 371
#     4  12  24  39  63  86 123 162 199 259 317 360
#     4  12  24  39  61  89 111 157 217 256 301 374
#     4   9  20  39  64  91 128 162 205 244 299 364
#     4  10  21  41  59  87 129 164 195 246 318 358
#     4  10  21  37  56  82 110 144 201 257 301 358
#     4  10  21  36  59  80 112 151 190 252 316 353
#
# _framework density 20.820128
#
# number of rings (size 3 to 8) (size 9 to 14) (size 15 to 20)
#    0.857    0.857    1.429    3.429    4.000    0.571 
#    0.000    4.286    0.000    0.000    0.000    0.000 
#    0.000    0.000    0.000    0.000    0.000    0.000 
#
# Total GULP energy -77968.425744 kJ/mol
# GULP energy per Si atom -5569.173267 kJ/mol
# Density = 2.077274 g / cm^3
# Si number density = 20.820128 Si / 1000 Ang^3
#
#
#
# Elastic Constant Matrix: (Units=GPa)
#
#
# Indices 1 2 3 4 5 6 
#
# 1 142.0624 31.5460 24.9454 0.2836 0.3341 20.5734
# 2 31.5460 101.0723 3.1039 -2.8736 6.0817 18.6006
# 3 24.9454 3.1039 57.4995 0.3951 5.8142 10.1681
# 4 0.2836 -2.8736 0.3951 5.7537 1.5256 -5.5741
# 5 0.3341 6.0817 5.8142 1.5256 21.2358 -0.8239
# 6 20.5734 18.6006 10.1681 -5.5741 -0.8239 32.6071
#
#
#
# Elastic Compliance Matrix: (Units=1/GPa)
#
#
# Indices 1 2 3 4 5 6 
#
# 1 0.008658 -0.002076 -0.002998 -0.005831 0.001531 -0.004301
# 2 -0.002076 0.011856 0.001709 0.001327 -0.004154 -0.005864
# 3 -0.002998 0.001709 0.020373 -0.005085 -0.005905 -0.006455
# 4 -0.005831 0.001327 -0.005085 0.218840 -0.013004 0.041590
# 5 0.001531 -0.004154 -0.005905 -0.013004 0.050896 0.002308
# 6 -0.004301 -0.005864 -0.006455 0.041590 0.002308 0.045908
#
#
# Mechanical properties :
#
#
# Convention : Reuss Voigt Hill
#
# Bulk Modulus (GPa) = 29.27758 46.64718 37.96238
# Shear Modulus (GPa) = 13.34583 27.98858 20.66720
#
# Velocity S-wave (km/s) = 2.53456 3.67045 3.15406
# Velocity P-wave (km/s) = 4.76004 6.35739 5.61580
#
# Compressibility (1/GPa) = 0.03415582
#
# Stress axis : x y z
#
# Youngs Moduli (GPa) = 115.50495 84.34266 49.08364
#
# Poissons Ratio (x) = 0.17513 0.14716
# Poissons Ratio (y) = 0.23984 -0.08387
# Poissons Ratio (z) = 0.34629 -0.14412
#
# Static dielectric constant tensor:
#      x y z
#    x 1.873710 0.002920 0.023280 
#    y 0.002920 1.765810 -0.012000 
#    z 0.023280 -0.012000 1.767980 
# 
# From -- ./inp_files/547278.got.cif
#   From: 2010.05.17/outbox.cif.g08.bks.cpg/sg2_274_cif.got.tgz:547278.got - 2010.06.03 11:33:40.
