data_PCOD9002147
_publ_section_title
;
Structure prediction by ZEFSAII (Michael W. Deem and Ramdas Pophale) SiO2 
 PCOD9002147
Probable space group: P -1
;
_chemical_formula_sum "Si O2"
_cell_formula_units_Z 16
_cell_length_a 5.432230
_cell_length_b 20.506845
_cell_length_c 11.723465
_cell_angle_alpha 137.510057
_cell_angle_beta 115.326465
_cell_angle_gamma 61.131666
_cell_volume 766.804060
_symmetry_space_group_name_H-M "P -1"
_symmetry_group_IT_number 2
_symmetry_cell_setting 'triclinic'
loop_
_space_group_symop_operation_xyz
x,y,z
-x,-y,-z
loop_
_atom_site_type_symbol
_atom_site_label
_atom_site_fract_x
_atom_site_fract_y
_atom_site_fract_z
Si Si1 0.338798 0.213682 0.507821
Si Si2 0.316465 0.937721 0.449020
Si Si3 0.812961 0.481408 0.595709
Si Si4 0.339869 0.289267 0.134456
Si Si5 0.671506 0.684693 0.584705
Si Si6 0.842708 0.362639 0.672086
Si Si7 0.370360 0.618465 0.118022
Si Si8 0.235894 0.751642 0.047921
O O1 0.517578 0.112635 0.469501
O O2 0.333701 0.225193 0.386054
O O3 0.457571 0.304559 0.700336
O O4 0.014188 0.249321 0.528969
O O5 0.296764 0.845448 0.245970
O O6 0.500000 0.000000 0.500000
O O7 0.000000 0.000000 0.500000
O O8 0.500000 0.500000 0.500000
O O9 0.833217 0.593661 0.754205
O O10 0.899621 0.436828 0.683053
O O11 0.021739 0.395450 0.449665
O O12 0.461528 0.278966 0.273274
O O13 0.574918 0.267047 0.053357
O O14 0.102259 0.229015 0.007817
O O15 0.483828 0.622830 0.404556
O O16 0.884095 0.369164 0.823770
O O17 0.317624 0.656908 0.028623
O O18 0.500000 0.500000 0.000000
#
# Coordination Sequence:
#
# PCOD9002147 Si02
#       8
#     2   2   2   2   2   2   2   2
#     4   9  23  39  64  95 120 164 223 264 317 401
#     4  11  25  48  78  97 122 159 214 284 342 404
#     4  11  21  35  56  91 132 188 239 252 296 365
#     4  12  24  39  62  90 141 175 216 274 304 376
#     4  10  22  37  60  91 132 180 225 260 308 370
#     4  10  21  36  58  84 131 167 231 259 304 374
#     4  10  22  36  55  85 132 175 209 261 318 374
#     4  11  27  41  64  99 128 167 218 263 343 387
#
# _framework density 20.865826999999999
#
# number of rings (size 3 to 8) (size 9 to 14) (size 15 to 20)
#    0.000    1.500    1.250    2.625   17.500    0.500 
#    0.000    0.000    0.000    4.500    0.000    0.000 
#    0.000    0.000    0.000    0.000    0.000    0.000 
#
# Total GULP energy -89121.131651 kJ/mol
# GULP energy per Si atom -5570.070728 kJ/mol
# Density = 2.081834 g / cm^3
# Si number density = 20.865827 Si / 1000 Ang^3
#
#
#
# Elastic Constant Matrix: (Units=GPa)
#
#
# Indices 1 2 3 4 5 6 
#
# 1 104.7925 55.0261 38.9744 -4.0078 -28.7661 13.1233
# 2 55.0261 120.3213 34.4085 13.4329 -33.4807 0.5619
# 3 38.9744 34.4085 65.6218 -3.2729 -15.6571 19.0120
# 4 -4.0078 13.4329 -3.2729 27.1861 14.3002 -0.8933
# 5 -28.7661 -33.4807 -15.6571 14.3002 48.1563 -13.4542
# 6 13.1233 0.5619 19.0120 -0.8933 -13.4542 31.7254
#
#
#
# Elastic Compliance Matrix: (Units=1/GPa)
#
#
# Indices 1 2 3 4 5 6 
#
# 1 0.015115 -0.005109 -0.004976 0.002796 0.002452 -0.002061
# 2 -0.005109 0.020670 -0.008490 -0.021470 0.018915 0.014253
# 3 -0.004976 -0.008490 0.026017 0.010309 -0.008095 -0.016525
# 4 0.002796 -0.021470 0.010309 0.067015 -0.035417 -0.020087
# 5 0.002452 0.018915 -0.008095 -0.035417 0.049876 0.023656
# 6 -0.002061 0.014253 -0.016525 -0.020087 0.023656 0.051489
#
#
# Mechanical properties :
#
#
# Convention : Reuss Voigt Hill
#
# Bulk Modulus (GPa) = 40.56984 60.83929 50.70456
# Shear Modulus (GPa) = 18.14558 32.23535 25.19047
#
# Velocity S-wave (km/s) = 2.95215 3.93477 3.47833
# Velocity P-wave (km/s) = 5.57725 7.06144 6.36277
#
# Compressibility (1/GPa) = 0.02464885
#
# Stress axis : x y z
#
# Youngs Moduli (GPa) = 66.16158 48.38042 38.43712
#
# Poissons Ratio (x) = 0.24719 0.19127
# Poissons Ratio (y) = 0.33804 0.32634
# Poissons Ratio (z) = 0.32923 0.41077
#
# Static dielectric constant tensor:
#      x y z
#    x 1.942290 0.014120 -0.000510 
#    y 0.014120 1.773180 -0.060060 
#    z -0.000510 -0.060060 1.785650 
# 
# From -- ./inp_files/120139.got.cif
#   From: 2010.05.17/outbox.cif.g08.bks.cpg/sg2_61_cif.got.tgz:120139.got - 2010.06.03 11:33:40.
