data_PCOD9002807
_publ_section_title
;
Structure prediction by ZEFSAII (Michael W. Deem and Ramdas Pophale) SiO2 
 PCOD9002807
Probable space group: P -1
;
_chemical_formula_sum "Si O2"
_cell_formula_units_Z 14
_cell_length_a 8.303575
_cell_length_b 8.857953
_cell_length_c 9.455732
_cell_angle_alpha 71.635038
_cell_angle_beta 57.388185
_cell_angle_gamma 71.153035
_cell_volume 545.696158
_symmetry_space_group_name_H-M "P -1"
_symmetry_group_IT_number 2
_symmetry_cell_setting 'triclinic'
loop_
_space_group_symop_operation_xyz
x,y,z
-x,-y,-z
loop_
_atom_site_type_symbol
_atom_site_label
_atom_site_fract_x
_atom_site_fract_y
_atom_site_fract_z
Si Si1 0.906830 0.142358 0.166045
Si Si2 0.888468 0.156865 0.657919
Si Si3 0.361181 0.766948 0.984003
Si Si4 0.244725 0.268998 0.818560
Si Si5 0.394035 0.018885 0.313740
Si Si6 0.781433 0.705683 0.489618
Si Si7 0.414037 0.571352 0.753293
O O1 0.800837 0.118720 0.073593
O O2 0.737560 0.272658 0.283911
O O3 0.979057 0.982538 0.267919
O O4 0.090108 0.223019 0.014943
O O5 0.025749 0.283183 0.513403
O O6 0.788156 0.059440 0.620341
O O7 0.719110 0.239850 0.820752
O O8 0.550394 0.849847 0.863937
O O9 0.389357 0.607101 0.921969
O O10 0.144684 0.308964 0.701603
O O11 0.337542 0.415808 0.787242
O O12 0.423995 0.126595 0.736708
O O13 0.357949 0.126859 0.439865
O O14 0.635032 0.581471 0.609680
#
# Coordination Sequence:
#
# PCOD9002807 Si02
#       7
#     2   2   2   2   2   2   2
#     4  10  21  36  65  87 114 147 200 241 286 334
#     4  12  21  38  62  91 118 149 195 245 290 337
#     4   9  19  38  60  88 111 150 197 238 281 339
#     4  12  21  40  63  86 119 151 196 243 287 344
#     4  11  24  36  61  91 117 153 194 241 292 339
#     4  11  23  40  61  84 119 158 196 240 279 351
#     4   9  23  38  61  89 114 152 200 234 292 342
#
# _framework density 25.655304000000001
#
# number of rings (size 3 to 8) (size 9 to 14) (size 15 to 20)
#    0.857    0.571    2.857    3.429    2.000    0.000 
#    0.000    1.429    6.286    0.000    0.000    0.000 
#    0.000    0.000    0.000    0.000    0.000    0.000 
#
# Total GULP energy -78273.708958 kJ/mol
# GULP energy per Si atom -5590.979211 kJ/mol
# Density = 2.559691 g / cm^3
# Si number density = 25.655304 Si / 1000 Ang^3
#
#
#
# Elastic Constant Matrix: (Units=GPa)
#
#
# Indices 1 2 3 4 5 6 
#
# 1 103.9116 34.0906 29.5786 -23.6403 -26.6205 24.5350
# 2 34.0906 90.0407 39.5711 -7.5483 -6.5039 44.5582
# 3 29.5786 39.5711 121.6075 -5.5567 -31.8037 24.8314
# 4 -23.6403 -7.5483 -5.5567 27.9686 15.2649 -13.4041
# 5 -26.6205 -6.5039 -31.8037 15.2649 45.7771 -15.2357
# 6 24.5350 44.5582 24.8314 -13.4041 -15.2357 55.6232
#
#
#
# Elastic Compliance Matrix: (Units=1/GPa)
#
#
# Indices 1 2 3 4 5 6 
#
# 1 0.014197 -0.004568 -0.000549 0.008570 0.004698 0.000995
# 2 -0.004568 0.022315 -0.004881 -0.002570 -0.007460 -0.016344
# 3 -0.000549 -0.004881 0.012006 -0.004076 0.008757 0.000209
# 4 0.008570 -0.002570 -0.004076 0.052942 -0.012751 0.009363
# 5 0.004698 -0.007460 0.008757 -0.012751 0.036122 0.006816
# 6 0.000995 -0.016344 0.000209 0.009363 0.006816 0.034662
#
#
# Mechanical properties :
#
#
# Convention : Reuss Voigt Hill
#
# Bulk Modulus (GPa) = 35.06183 58.00451 46.53317
# Shear Modulus (GPa) = 24.78330 40.02842 32.40586
#
# Velocity S-wave (km/s) = 3.11144 3.95427 3.55790
# Velocity P-wave (km/s) = 5.15793 6.59595 5.92076
#
# Compressibility (1/GPa) = 0.02852105
#
# Stress axis : x y z
#
# Youngs Moduli (GPa) = 70.43607 44.81319 83.28852
#
# Poissons Ratio (x) = 0.20471 0.04576
# Poissons Ratio (y) = 0.32177 0.40654
# Poissons Ratio (z) = 0.03870 0.21874
#
# Static dielectric constant tensor:
#      x y z
#    x 2.056090 -0.083110 -0.020010 
#    y -0.083110 2.044360 -0.007270 
#    z -0.020010 -0.007270 2.031840 
# 
# From -- ./inp_files/238144.got.cif
#   From: 2010.05.17/outbox.cif.g08.bks.cpg/sg2_120_cif.got.tgz:238144.got - 2010.06.03 11:33:40.
