data_PCOD9002010
_publ_section_title
;
Structure prediction by ZEFSAII (Michael W. Deem and Ramdas Pophale) SiO2 
 PCOD9002010
Probable space group: P -1
;
_chemical_formula_sum "Si O2"
_cell_formula_units_Z 16
_cell_length_a 8.636321
_cell_length_b 12.337518
_cell_length_c 13.442867
_cell_angle_alpha 128.797591
_cell_angle_beta 126.978797
_cell_angle_gamma 36.812869
_cell_volume 653.422505
_symmetry_space_group_name_H-M "P -1"
_symmetry_group_IT_number 2
_symmetry_cell_setting 'triclinic'
loop_
_space_group_symop_operation_xyz
x,y,z
-x,-y,-z
loop_
_atom_site_type_symbol
_atom_site_label
_atom_site_fract_x
_atom_site_fract_y
_atom_site_fract_z
Si Si1 0.661388 0.230611 0.050750
Si Si2 0.680773 0.774294 0.195396
Si Si3 0.026755 0.134375 0.535020
Si Si4 0.054930 0.817185 0.694538
Si Si5 0.895759 0.357564 0.888393
Si Si6 0.575677 0.369894 0.624988
Si Si7 0.074932 0.625808 0.865432
Si Si8 0.788364 0.693917 0.595170
O O1 0.860123 0.111046 0.150300
O O2 0.363750 0.416082 0.077657
O O3 0.770290 0.314664 0.083493
O O4 0.605254 0.119685 0.901713
O O5 0.744521 0.600376 0.179191
O O6 0.741898 0.875511 0.346840
O O7 0.888541 0.700453 0.142194
O O8 0.002923 0.116564 0.400769
O O9 0.757741 0.340644 0.590137
O O10 0.000000 0.000000 0.500000
O O11 0.317780 0.590849 0.665539
O O12 0.817546 0.833897 0.645151
O O13 0.754441 0.291166 0.748188
O O14 0.007764 0.298349 0.009371
O O15 0.472428 0.267705 0.500462
O O16 0.867519 0.673992 0.730104
O O17 0.000000 0.500000 0.500000
#
# Coordination Sequence:
#
# PCOD9002010 Si02
#       8
#     2   2   2   2   2   2   2   2
#     4   9  17  28  48  77 100 126 161 206 257 302
#     4  10  18  30  47  70 103 136 163 204 253 297
#     4  11  23  36  50  73 104 140 175 206 246 302
#     4   9  18  33  53  76 102 127 165 214 256 300
#     4   9  17  26  42  73 106 129 157 200 250 299
#     4   9  18  33  53  77 100 131 169 211 257 298
#     4  10  17  27  48  79 105 125 159 209 259 302
#     4   9  17  29  49  77 103 130 162 204 254 300
#
# _framework density 24.486454999999999
#
# number of rings (size 3 to 8) (size 9 to 14) (size 15 to 20)
#    0.000    2.500    0.000    5.625    0.000    4.000 
#    0.000    1.250    0.000    0.000    0.000    8.750 
#    0.000    0.000    0.000    0.000    0.000    0.000 
#
# Total GULP energy -89303.183285 kJ/mol
# GULP energy per Si atom -5581.448955 kJ/mol
# Density = 2.443072 g / cm^3
# Si number density = 24.486455 Si / 1000 Ang^3
#
#
#
# Elastic Constant Matrix: (Units=GPa)
#
#
# Indices 1 2 3 4 5 6 
#
# 1 99.4856 29.0391 65.2582 -17.7403 5.8221 -2.1206
# 2 29.0391 128.2906 203.0700 -46.0122 31.1779 0.7789
# 3 65.2582 203.0700 448.4859 -116.4630 85.6279 29.7322
# 4 -17.7403 -46.0122 -116.4630 65.8833 -11.5986 -12.8393
# 5 5.8221 31.1779 85.6279 -11.5986 63.9332 -6.4623
# 6 -2.1206 0.7789 29.7322 -12.8393 -6.4623 36.7492
#
#
#
# Elastic Compliance Matrix: (Units=1/GPa)
#
#
# Indices 1 2 3 4 5 6 
#
# 1 0.011641 0.002323 -0.003751 -0.000538 0.003141 0.004022
# 2 0.002323 0.037821 -0.023208 -0.008361 0.012671 0.017416
# 3 -0.003751 -0.023208 0.020732 0.014012 -0.015004 -0.014240
# 4 -0.000538 -0.008361 0.014012 0.032079 -0.008979 -0.001562
# 5 0.003141 0.012671 -0.015004 -0.008979 0.029061 0.014025
# 6 0.004022 0.017416 -0.014240 -0.001562 0.014025 0.040516
#
#
# Mechanical properties :
#
#
# Convention : Reuss Voigt Hill
#
# Bulk Modulus (GPa) = 47.80391 141.22186 94.51289
# Shear Modulus (GPa) = 21.92066 58.57279 40.24672
#
# Velocity S-wave (km/s) = 2.99526 4.89616 4.05857
# Velocity P-wave (km/s) = 5.61490 9.47427 7.78746
#
# Compressibility (1/GPa) = 0.02091879
#
# Stress axis : x y z
#
# Youngs Moduli (GPa) = 85.90687 26.44052 48.23571
#
# Poissons Ratio (x) = -0.06141 0.18096
# Poissons Ratio (y) = -0.19952 1.11946
# Poissons Ratio (z) = 0.32228 0.61363
#
# Static dielectric constant tensor:
#      x y z
#    x 1.971120 -0.082710 -0.058020 
#    y -0.082710 2.019410 0.050500 
#    z -0.058020 0.050500 2.050990 
# 
# From -- ./inp_files/253770.got.cif
#   From: 2010.05.17/outbox.cif.g08.bks.cpg/sg2_127_cif.got.tgz:253770.got - 2010.06.03 11:33:40.
