data_PCOD9002709
_publ_section_title
;
Structure prediction by ZEFSAII (Michael W. Deem and Ramdas Pophale) SiO2 
 PCOD9002709
Probable space group: P -1
;
_chemical_formula_sum "Si O2"
_cell_formula_units_Z 16
_cell_length_a 16.294844
_cell_length_b 10.379082
_cell_length_c 12.349537
_cell_angle_alpha 72.985758
_cell_angle_beta 50.359453
_cell_angle_gamma 34.029503
_cell_volume 752.959872
_symmetry_space_group_name_H-M "P -1"
_symmetry_group_IT_number 2
_symmetry_cell_setting 'triclinic'
loop_
_space_group_symop_operation_xyz
x,y,z
-x,-y,-z
loop_
_atom_site_type_symbol
_atom_site_label
_atom_site_fract_x
_atom_site_fract_y
_atom_site_fract_z
Si Si1 0.087337 0.753922 0.995646
Si Si2 0.289182 0.907450 0.048456
Si Si3 0.631293 0.017904 0.531458
Si Si4 0.444981 0.486264 0.879541
Si Si5 0.351233 0.115077 0.854844
Si Si6 0.908124 0.682073 0.191176
Si Si7 0.188717 0.610453 0.696701
Si Si8 0.338962 0.718197 0.483847
O O1 0.271158 0.561517 0.979290
O O2 0.184398 0.617608 0.829359
O O3 0.899972 0.854215 0.152534
O O4 0.000000 0.000000 0.000000
O O5 0.327882 0.741695 0.973217
O O6 0.414697 0.899606 0.900324
O O7 0.377608 0.763452 0.124643
O O8 0.030980 0.224042 0.191253
O O9 0.538149 0.016674 0.698376
O O10 0.426019 0.284084 0.558879
O O11 0.716256 0.064674 0.500014
O O12 0.810436 0.750589 0.371192
O O13 0.548694 0.412641 0.695498
O O14 0.230020 0.223875 0.814989
O O15 0.162024 0.376668 0.029508
O O16 0.168605 0.783313 0.622382
O O17 0.500000 0.500000 0.500000
#
# Coordination Sequence:
#
# PCOD9002709 Si02
#       8
#     2   2   2   2   2   2   2   2
#     4  12  19  36  66  92 122 162 216 265 309 367
#     4  11  25  40  63  90 131 173 203 257 331 383
#     4  11  22  37  63 101 124 162 218 264 309 370
#     4  11  23  42  62  97 123 165 215 260 325 383
#     4  11  21  41  58  91 135 170 205 255 320 382
#     4  11  22  36  64  95 126 166 215 265 308 368
#     4  11  20  35  63  96 124 161 206 264 318 362
#     4  10  21  36  63  96 121 156 211 269 310 360
#
# _framework density 21.249473999999999
#
# number of rings (size 3 to 8) (size 9 to 14) (size 15 to 20)
#    0.000    1.000    6.250    1.875    5.250    0.500 
#    0.000    2.500    0.000    1.500    0.000    0.000 
#    0.000    0.000    0.000    0.000    0.000    0.000 
#
# Total GULP energy -89361.918037 kJ/mol
# GULP energy per Si atom -5585.119877 kJ/mol
# Density = 2.120111 g / cm^3
# Si number density = 21.249474 Si / 1000 Ang^3
#
#
#
# Elastic Constant Matrix: (Units=GPa)
#
#
# Indices 1 2 3 4 5 6 
#
# 1 72.8393 20.5284 32.2335 -10.7668 -3.9370 4.6657
# 2 20.5284 46.5003 18.7164 -12.1372 2.5126 -1.4763
# 3 32.2335 18.7164 122.7669 -12.9092 7.8265 8.3751
# 4 -10.7668 -12.1372 -12.9092 27.3281 10.4241 -3.6127
# 5 -3.9370 2.5126 7.8265 10.4241 37.2362 -15.3875
# 6 4.6657 -1.4763 8.3751 -3.6127 -15.3875 30.5714
#
#
#
# Elastic Compliance Matrix: (Units=1/GPa)
#
#
# Indices 1 2 3 4 5 6 
#
# 1 0.017398 -0.005975 -0.003602 0.001534 0.002319 -0.000609
# 2 -0.005975 0.027974 -0.001282 0.011513 -0.004836 0.001540
# 3 -0.003602 -0.001282 0.010443 0.004494 -0.005693 -0.004707
# 4 0.001534 0.011513 0.004494 0.050513 -0.017183 -0.003589
# 5 0.002319 -0.004836 -0.005693 -0.017183 0.041662 0.019911
# 6 -0.000609 0.001540 -0.004707 -0.003589 0.019911 0.043765
#
#
# Mechanical properties :
#
#
# Convention : Reuss Voigt Hill
#
# Bulk Modulus (GPa) = 29.32782 42.78478 36.05630
# Shear Modulus (GPa) = 22.23808 30.40235 26.32021
#
# Velocity S-wave (km/s) = 3.23851 3.78661 3.52323
# Velocity P-wave (km/s) = 5.27405 6.26866 5.79274
#
# Compressibility (1/GPa) = 0.03409732
#
# Stress axis : x y z
#
# Youngs Moduli (GPa) = 57.47825 35.74708 95.75506
#
# Poissons Ratio (x) = 0.21359 0.34491
# Poissons Ratio (y) = 0.34343 0.12277
# Poissons Ratio (z) = 0.20704 0.04583
#
# Static dielectric constant tensor:
#      x y z
#    x 1.834190 0.067620 -0.036010 
#    y 0.067620 1.793330 0.044550 
#    z -0.036010 0.044550 1.845720 
# 
# From -- ./inp_files/464527.got.cif
#   From: 2010.05.17/outbox.cif.g08.bks.cpg/sg2_233_cif.got.tgz:464527.got - 2010.06.03 11:33:40.
