data_PCOD9002216
_publ_section_title
;
Structure prediction by ZEFSAII (Michael W. Deem and Ramdas Pophale) SiO2 
 PCOD9002216
Probable space group: P -1
;
_chemical_formula_sum "Si O2"
_cell_formula_units_Z 16
_cell_length_a 12.329675
_cell_length_b 7.762488
_cell_length_c 15.543297
_cell_angle_alpha 100.418264
_cell_angle_beta 26.828124
_cell_angle_gamma 95.767467
_cell_volume 654.083407
_symmetry_space_group_name_H-M "P -1"
_symmetry_group_IT_number 2
_symmetry_cell_setting 'triclinic'
loop_
_space_group_symop_operation_xyz
x,y,z
-x,-y,-z
loop_
_atom_site_type_symbol
_atom_site_label
_atom_site_fract_x
_atom_site_fract_y
_atom_site_fract_z
Si Si1 0.672990 0.041914 0.456294
Si Si2 0.082460 0.091951 0.035373
Si Si3 0.601427 0.034834 0.051724
Si Si4 0.034567 0.072063 0.619037
Si Si5 0.076880 0.508180 0.794330
Si Si6 0.440921 0.577874 0.864341
Si Si7 0.751692 0.231712 0.692166
Si Si8 0.486901 0.422849 0.634500
O O1 0.896766 0.076173 0.242823
O O2 0.554280 0.222027 0.600350
O O3 0.500000 0.000000 0.500000
O O4 0.757186 0.900682 0.456890
O O5 0.061812 0.301987 0.058189
O O6 0.000000 0.000000 0.000000
O O7 0.319641 0.996583 0.906379
O O8 0.478259 0.236297 0.150512
O O9 0.441349 0.880523 0.137406
O O10 0.818272 0.023312 0.828503
O O11 0.949549 0.230937 0.628056
O O12 0.125652 0.898599 0.481117
O O13 0.246064 0.428995 0.746560
O O14 0.282483 0.535859 0.581159
O O15 0.851422 0.414643 0.911541
O O16 0.608570 0.415306 0.776687
O O17 0.454120 0.549539 0.750126
#
# Coordination Sequence:
#
# PCOD9002216 Si02
#       8
#     2   2   2   2   2   2   2   2
#     4  10  22  36  65  96 130 173 220 276 330 403
#     4  10  21  36  58  93 129 172 218 263 335 399
#     4  11  25  43  67 104 132 175 232 283 334 405
#     4  10  24  47  69 100 135 182 229 275 349 401
#     4  10  22  39  60  91 137 182 217 277 337 399
#     4  12  24  40  71 100 134 179 228 282 341 400
#     4  11  24  47  75  93 138 184 223 287 338 403
#     4  10  22  40  59  96 140 180 225 274 344 406
#
# _framework density 24.461711000000001
#
# number of rings (size 3 to 8) (size 9 to 14) (size 15 to 20)
#    0.000    1.500    2.500    1.500    7.000    1.500 
#    0.000    2.500    0.000    0.000    0.000    0.000 
#    0.000    0.000    0.000    0.000    0.000    0.000 
#
# Total GULP energy -89434.619457 kJ/mol
# GULP energy per Si atom -5589.663716 kJ/mol
# Density = 2.440603 g / cm^3
# Si number density = 24.461711 Si / 1000 Ang^3
#
#
#
# Elastic Constant Matrix: (Units=GPa)
#
#
# Indices 1 2 3 4 5 6 
#
# 1 138.0454 25.3245 11.2034 12.3729 -10.4777 -49.8532
# 2 25.3245 96.2315 19.3898 22.1824 -17.1550 -28.5160
# 3 11.2034 19.3898 106.0926 7.5937 9.5931 -21.6037
# 4 12.3729 22.1824 7.5937 24.4864 -4.1526 -7.3055
# 5 -10.4777 -17.1550 9.5931 -4.1526 27.2940 10.6693
# 6 -49.8532 -28.5160 -21.6037 -7.3055 10.6693 37.9224
#
#
#
# Elastic Compliance Matrix: (Units=1/GPa)
#
#
# Indices 1 2 3 4 5 6 
#
# 1 0.015518 0.002997 0.003571 -0.004912 -0.003868 0.024831
# 2 0.002997 0.017268 -0.000464 -0.012297 0.005291 0.012804
# 3 0.003571 -0.000464 0.012997 -0.002874 -0.009328 0.013821
# 4 -0.004912 -0.012297 -0.002874 0.053471 0.002565 -0.007762
# 5 -0.003868 0.005291 -0.009328 0.002565 0.049959 -0.019982
# 6 0.024831 0.012804 0.013821 -0.007762 -0.019982 0.080640
#
#
# Mechanical properties :
#
#
# Convention : Reuss Voigt Hill
#
# Bulk Modulus (GPa) = 17.24345 50.24501 33.74423
# Shear Modulus (GPa) = 21.09931 36.90402 29.00167
#
# Velocity S-wave (km/s) = 2.94010 3.88834 3.44698
# Velocity P-wave (km/s) = 4.31161 6.38309 5.44673
#
# Compressibility (1/GPa) = 0.05799303
#
# Stress axis : x y z
#
# Youngs Moduli (GPa) = 64.44022 57.91037 76.94149
#
# Poissons Ratio (x) = -0.17358 -0.27476
# Poissons Ratio (y) = -0.19315 0.03567
# Poissons Ratio (z) = -0.23012 0.02684
#
# Static dielectric constant tensor:
#      x y z
#    x 1.993540 0.000360 -0.009820 
#    y 0.000360 1.920560 0.027030 
#    z -0.009820 0.027030 1.924040 
# 
# From -- ./inp_files/218841.got.cif
#   From: 2010.05.17/outbox.cif.g08.bks.cpg/sg2_110_cif.got.tgz:218841.got - 2010.06.03 11:33:40.
