data_PCOD9002474
_publ_section_title
;
Structure prediction by ZEFSAII (Michael W. Deem and Ramdas Pophale) SiO2 
 PCOD9002474
Probable space group: P -1
;
_chemical_formula_sum "Si O2"
_cell_formula_units_Z 16
_cell_length_a 19.615218
_cell_length_b 15.488281
_cell_length_c 7.540364
_cell_angle_alpha 58.313678
_cell_angle_beta 102.487662
_cell_angle_gamma 151.264090
_cell_volume 751.657718
_symmetry_space_group_name_H-M "P -1"
_symmetry_group_IT_number 2
_symmetry_cell_setting 'triclinic'
loop_
_space_group_symop_operation_xyz
x,y,z
-x,-y,-z
loop_
_atom_site_type_symbol
_atom_site_label
_atom_site_fract_x
_atom_site_fract_y
_atom_site_fract_z
Si Si1 0.017578 0.354966 0.115564
Si Si2 0.724431 0.118503 0.310120
Si Si3 0.367333 0.722281 0.416654
Si Si4 0.056562 0.039684 0.791934
Si Si5 0.974510 0.212653 0.860809
Si Si6 0.506524 0.891327 0.923073
Si Si7 0.168470 0.343288 0.244082
Si Si8 0.177609 0.795247 0.331857
O O1 0.047623 0.281349 0.285121
O O2 0.835514 0.170233 0.249504
O O3 0.171484 0.639537 0.953562
O O4 0.021669 0.340273 0.923980
O O5 0.749908 0.146951 0.503883
O O6 0.519728 0.851769 0.433514
O O7 0.163398 0.429561 0.657250
O O8 0.414415 0.897388 0.327021
O O9 0.399968 0.770765 0.172933
O O10 0.904250 0.811348 0.804628
O O11 0.134736 0.032100 0.879867
O O12 0.170979 0.272909 0.492341
O O13 0.000000 0.000000 0.000000
O O14 0.869564 0.149619 0.746141
O O15 0.667885 0.030715 0.903073
O O16 0.360662 0.644903 0.984057
O O17 0.000000 0.500000 0.500000
#
# Coordination Sequence:
#
# PCOD9002474 Si02
#       8
#     2   2   2   2   2   2   2   2
#     4  10  21  36  61  86 133 162 211 254 320 386
#     4  11  23  34  59  95 135 170 205 253 321 394
#     4  11  23  36  63  97 132 173 206 260 323 393
#     4  10  23  42  69  92 124 167 233 275 323 380
#     4  11  23  42  64  92 128 171 214 262 324 389
#     4  11  23  38  63  93 139 164 216 263 322 387
#     4  10  22  42  67  97 123 177 219 274 326 381
#     4  12  24  38  59  95 137 173 206 256 324 399
#
# _framework density 21.286282
#
# number of rings (size 3 to 8) (size 9 to 14) (size 15 to 20)
#    0.000    1.250    3.750    1.500    8.750    1.000 
#    0.000    0.625    0.000    4.500    0.000    0.000 
#    0.000    0.000    0.000    0.000    0.000    0.000 
#
# Total GULP energy -89336.798587 kJ/mol
# GULP energy per Si atom -5583.549912 kJ/mol
# Density = 2.123783 g / cm^3
# Si number density = 21.286282 Si / 1000 Ang^3
#
#
#
# Elastic Constant Matrix: (Units=GPa)
#
#
# Indices 1 2 3 4 5 6 
#
# 1 121.0402 24.1078 47.1975 -7.2271 -1.2171 16.5376
# 2 24.1078 53.7627 7.3956 2.1482 -1.7343 4.7848
# 3 47.1975 7.3956 68.9350 5.7604 5.3449 5.3255
# 4 -7.2271 2.1482 5.7604 31.0430 1.7152 0.2693
# 5 -1.2171 -1.7343 5.3449 1.7152 47.8277 3.3954
# 6 16.5376 4.7848 5.3255 0.2693 3.3954 40.0501
#
#
#
# Elastic Compliance Matrix: (Units=1/GPa)
#
#
# Indices 1 2 3 4 5 6 
#
# 1 0.013563 -0.004651 -0.009006 0.005114 0.001283 -0.003991
# 2 -0.004651 0.020719 0.001200 -0.002769 0.000651 -0.000751
# 3 -0.009006 0.001200 0.021152 -0.005981 -0.002407 0.001007
# 4 0.005114 -0.002769 -0.005981 0.034741 -0.000464 -0.001180
# 5 0.001283 0.000651 -0.002407 -0.000464 0.021399 -0.002099
# 6 -0.003991 -0.000751 0.001007 -0.001180 -0.002099 0.026758
#
#
# Mechanical properties :
#
#
# Convention : Reuss Voigt Hill
#
# Bulk Modulus (GPa) = 32.76348 44.57107 38.66728
# Shear Modulus (GPa) = 28.83174 34.78663 31.80919
#
# Velocity S-wave (km/s) = 3.68431 4.04694 3.86988
# Velocity P-wave (km/s) = 5.79000 6.54380 6.17841
#
# Compressibility (1/GPa) = 0.03052178
#
# Stress axis : x y z
#
# Youngs Moduli (GPa) = 73.72876 48.26462 47.27636
#
# Poissons Ratio (x) = 0.22447 0.42577
# Poissons Ratio (y) = 0.34290 -0.05675
# Poissons Ratio (z) = 0.66399 -0.05793
#
# Static dielectric constant tensor:
#      x y z
#    x 1.818930 -0.027440 0.003830 
#    y -0.027440 1.813020 0.036370 
#    z 0.003830 0.036370 1.812770 
# 
# From -- ./inp_files/274088.got.cif
#   From: 2010.05.17/outbox.cif.g08.bks.cpg/sg2_138_cif.got.tgz:274088.got - 2010.06.03 11:33:40.
