data_PCOD9002824
_publ_section_title
;
Structure prediction by ZEFSAII (Michael W. Deem and Ramdas Pophale) SiO2 
 PCOD9002824
Probable space group: P -1
;
_chemical_formula_sum "Si O2"
_cell_formula_units_Z 16
_cell_length_a 11.728867
_cell_length_b 18.222783
_cell_length_c 11.593431
_cell_angle_alpha 31.672076
_cell_angle_beta 137.268095
_cell_angle_gamma 120.954039
_cell_volume 839.074441
_symmetry_space_group_name_H-M "P -1"
_symmetry_group_IT_number 2
_symmetry_cell_setting 'triclinic'
loop_
_space_group_symop_operation_xyz
x,y,z
-x,-y,-z
loop_
_atom_site_type_symbol
_atom_site_label
_atom_site_fract_x
_atom_site_fract_y
_atom_site_fract_z
Si Si1 0.009894 0.836626 0.251524
Si Si2 0.051898 0.443682 0.984634
Si Si3 0.594335 0.331552 0.830031
Si Si4 0.959299 0.168458 0.205319
Si Si5 0.983980 0.707321 0.153279
Si Si6 0.258688 0.291084 0.702590
Si Si7 0.296602 0.410311 0.812362
Si Si8 0.320613 0.611563 0.919377
O O1 0.992486 0.765562 0.210286
O O2 0.186563 0.742532 0.572791
O O3 0.847395 0.824851 0.224718
O O4 0.000000 0.000000 0.000000
O O5 0.228034 0.483300 0.028439
O O6 0.887798 0.552764 0.645142
O O7 0.000000 0.500000 0.000000
O O8 0.057877 0.275457 0.196970
O O9 0.500000 0.500000 0.500000
O O10 0.435426 0.261017 0.801183
O O11 0.755239 0.251389 0.974654
O O12 0.662941 0.337808 0.003869
O O13 0.002701 0.182341 0.084536
O O14 0.000000 0.000000 0.500000
O O15 0.154421 0.563669 0.466132
O O16 0.807114 0.656607 0.080942
O O17 0.319811 0.304747 0.860052
O O18 0.487966 0.429497 0.944163
#
# Coordination Sequence:
#
# PCOD9002824 Si02
#       8
#     2   2   2   2   2   2   2   2
#     4  10  23  39  58  87 123 160 195 263 314 354
#     4  11  19  36  60  92 118 158 208 255 297 367
#     4  11  19  39  66  90 116 164 215 249 292 383
#     4  12  25  38  59  95 130 164 198 255 321 371
#     4  10  21  40  61  81 127 162 194 250 318 371
#     4   9  18  36  62  84 110 155 216 245 290 367
#     4   9  18  38  63  89 109 152 210 257 296 354
#     4  10  21  36  65  93 114 149 223 257 296 364
#
# _framework density 19.068631
#
# number of rings (size 3 to 8) (size 9 to 14) (size 15 to 20)
#    0.000    1.750    3.750    0.750    3.500    0.500 
#    2.250    1.875    0.000    4.500    0.000    0.000 
#    0.000    0.000    0.000    0.000    0.000    0.000 
#
# Total GULP energy -89196.904395 kJ/mol
# GULP energy per Si atom -5574.806525 kJ/mol
# Density = 1.902523 g / cm^3
# Si number density = 19.068631 Si / 1000 Ang^3
#
#
#
# Elastic Constant Matrix: (Units=GPa)
#
#
# Indices 1 2 3 4 5 6 
#
# 1 123.7538 44.5514 60.5692 13.4129 -1.9726 45.7677
# 2 44.5514 80.8943 48.3134 5.1111 -2.3485 29.8598
# 3 60.5692 48.3134 90.5721 -11.6915 -20.1041 26.5926
# 4 13.4129 5.1111 -11.6915 27.7028 6.3239 -5.4085
# 5 -1.9726 -2.3485 -20.1041 6.3239 33.2679 9.8116
# 6 45.7677 29.8598 26.5926 -5.4085 9.8116 49.7457
#
#
#
# Elastic Compliance Matrix: (Units=1/GPa)
#
#
# Indices 1 2 3 4 5 6 
#
# 1 0.023242 0.004580 -0.014575 -0.022703 0.002927 -0.019387
# 2 0.004580 0.023807 -0.013938 -0.015003 0.000129 -0.012709
# 3 -0.014575 -0.013938 0.032493 0.021326 0.012476 0.004264
# 4 -0.022703 -0.015003 0.021326 0.066653 -0.010383 0.027787
# 5 0.002927 0.000129 0.012476 -0.010383 0.045520 -0.019547
# 6 -0.019387 -0.012709 0.004264 0.027787 -0.019547 0.050165
#
#
# Mechanical properties :
#
#
# Convention : Reuss Voigt Hill
#
# Bulk Modulus (GPa) = 31.56962 66.89870 49.23416
# Shear Modulus (GPa) = 16.64968 31.59569 24.12269
#
# Velocity S-wave (km/s) = 2.95811 4.07498 3.56061
# Velocity P-wave (km/s) = 5.31591 7.56967 6.54060
#
# Compressibility (1/GPa) = 0.03167602
#
# Stress axis : x y z
#
# Youngs Moduli (GPa) = 43.02484 42.00422 30.77584
#
# Poissons Ratio (x) = -0.19237 0.44855
# Poissons Ratio (y) = -0.19705 0.42897
# Poissons Ratio (z) = 0.62707 0.58547
#
# Static dielectric constant tensor:
#      x y z
#    x 1.733840 -0.005510 -0.029880 
#    y -0.005510 1.744990 0.022800 
#    z -0.029880 0.022800 1.631790 
# 
# From -- ./inp_files/257421.got.cif
#   From: 2010.05.17/outbox.cif.g08.bks.cpg/sg2_129_cif.got.tgz:257421.got - 2010.06.03 11:33:40.
