data_PCOD9002526
_publ_section_title
;
Structure prediction by ZEFSAII (Michael W. Deem and Ramdas Pophale) SiO2 
 PCOD9002526
Probable space group: P -1
;
_chemical_formula_sum "Si O2"
_cell_formula_units_Z 14
_cell_length_a 15.601092
_cell_length_b 18.864842
_cell_length_c 9.306137
_cell_angle_alpha 47.727911
_cell_angle_beta 45.009406
_cell_angle_gamma 20.481641
_cell_volume 677.183412
_symmetry_space_group_name_H-M "P -1"
_symmetry_group_IT_number 2
_symmetry_cell_setting 'triclinic'
loop_
_space_group_symop_operation_xyz
x,y,z
-x,-y,-z
loop_
_atom_site_type_symbol
_atom_site_label
_atom_site_fract_x
_atom_site_fract_y
_atom_site_fract_z
Si Si1 0.386160 0.328901 0.587713
Si Si2 0.688861 0.434525 0.774924
Si Si3 0.778718 0.087267 0.713005
Si Si4 0.983158 0.256795 0.937855
Si Si5 0.671865 0.852816 0.176168
Si Si6 0.120849 0.310528 0.149416
Si Si7 0.458442 0.584150 0.282919
O O1 0.454014 0.363580 0.347075
O O2 0.573834 0.205316 0.670339
O O3 0.378366 0.226078 0.677057
O O4 0.105576 0.564425 0.648976
O O5 0.935728 0.271886 0.805443
O O6 0.704901 0.370537 0.689714
O O7 0.500000 0.500000 0.000000
O O8 0.669242 0.229167 0.774348
O O9 0.000000 0.000000 0.500000
O O10 0.863505 0.931886 0.902071
O O11 0.135008 0.249989 0.789118
O O12 0.713513 0.436456 0.096448
O O13 0.403249 0.097862 0.171575
O O14 0.825849 0.773665 0.954413
O O15 0.000000 0.500000 0.000000
O O16 0.500000 0.500000 0.500000
#
# Coordination Sequence:
#
# PCOD9002526 Si02
#       7
#     2   2   2   2   2   2   2
#     4  11  22  39  64  91 126 168 211 258 314 384
#     4  10  23  43  62  91 132 166 207 266 324 377
#     4  12  22  36  66  97 119 161 219 266 311 374
#     4  11  23  40  61  95 133 161 210 266 319 379
#     4  10  21  36  61  93 126 165 209 261 316 370
#     4   9  18  35  58  91 123 159 210 259 302 362
#     4  11  21  41  66  91 122 169 213 260 317 370
#
# _framework density 20.673867000000001
#
# number of rings (size 3 to 8) (size 9 to 14) (size 15 to 20)
#    0.000    1.429    2.857    4.286    0.000    3.429 
#    0.000    3.571    0.000    0.000    0.000    0.000 
#    0.000    0.000    0.000    0.000    0.000    0.000 
#
# Total GULP energy -78002.728036 kJ/mol
# GULP energy per Si atom -5571.623431 kJ/mol
# Density = 2.062681 g / cm^3
# Si number density = 20.673867 Si / 1000 Ang^3
#
#
#
# Elastic Constant Matrix: (Units=GPa)
#
#
# Indices 1 2 3 4 5 6 
#
# 1 191.4452 55.7651 53.1836 -10.6802 -7.3739 -22.0384
# 2 55.7651 116.7305 25.1829 -1.9753 -6.4592 3.5553
# 3 53.1836 25.1829 73.8868 -20.4420 0.1417 2.6076
# 4 -10.6802 -1.9753 -20.4420 21.8869 0.5571 0.5406
# 5 -7.3739 -6.4592 0.1417 0.5571 33.6446 -10.4021
# 6 -22.0384 3.5553 2.6076 0.5406 -10.4021 30.2819
#
#
#
# Elastic Compliance Matrix: (Units=1/GPa)
#
#
# Indices 1 2 3 4 5 6 
#
# 1 0.008898 -0.002965 -0.006306 -0.002140 0.004176 0.008839
# 2 -0.002965 0.010486 -0.001963 -0.002271 0.000477 -0.003015
# 3 -0.006306 -0.001963 0.024600 0.020054 -0.004820 -0.008491
# 4 -0.002140 -0.002271 0.020054 0.063399 -0.003717 -0.005427
# 5 0.004176 0.000477 -0.004820 -0.003717 0.035671 0.015718
# 6 0.008839 -0.003015 -0.008491 -0.005427 0.015718 0.046037
#
#
# Mechanical properties :
#
#
# Convention : Reuss Voigt Hill
#
# Bulk Modulus (GPa) = 46.47740 72.25841 59.36791
# Shear Modulus (GPa) = 22.85915 33.69141 28.27528
#
# Velocity S-wave (km/s) = 3.32882 4.04129 3.70223
# Velocity P-wave (km/s) = 6.10776 7.53681 6.85960
#
# Compressibility (1/GPa) = 0.02151583
#
# Stress axis : x y z
#
# Youngs Moduli (GPa) = 112.38594 95.36247 40.65082
#
# Poissons Ratio (x) = 0.28271 0.25636
# Poissons Ratio (y) = 0.33318 0.07980
# Poissons Ratio (z) = 0.70875 0.18720
#
# Static dielectric constant tensor:
#      x y z
#    x 1.784420 -0.024220 -0.044520 
#    y -0.024220 1.669320 0.078990 
#    z -0.044520 0.078990 1.885650 
# 
# From -- ./inp_files/246254.got.cif
#   From: 2010.05.17/outbox.cif.g08.bks.cpg/sg2_124_cif.got.tgz:246254.got - 2010.06.03 11:33:40.
