data_PCOD9002813
_publ_section_title
;
Structure prediction by ZEFSAII (Michael W. Deem and Ramdas Pophale) SiO2 
 PCOD9002813
Probable space group: P -1
;
_chemical_formula_sum "Si O2"
_cell_formula_units_Z 16
_cell_length_a 15.059719
_cell_length_b 7.456555
_cell_length_c 12.520151
_cell_angle_alpha 121.368516
_cell_angle_beta 53.430712
_cell_angle_gamma 145.207930
_cell_volume 642.796337
_symmetry_space_group_name_H-M "P -1"
_symmetry_group_IT_number 2
_symmetry_cell_setting 'triclinic'
loop_
_space_group_symop_operation_xyz
x,y,z
-x,-y,-z
loop_
_atom_site_type_symbol
_atom_site_label
_atom_site_fract_x
_atom_site_fract_y
_atom_site_fract_z
Si Si1 0.193104 0.329004 0.962208
Si Si2 0.256775 0.757059 0.654669
Si Si3 0.941840 0.425666 0.895239
Si Si4 0.794208 0.053162 0.686314
Si Si5 0.172944 0.401589 0.223798
Si Si6 0.407123 0.841323 0.360884
Si Si7 0.551359 0.442351 0.322476
Si Si8 0.166318 0.153742 0.598932
O O1 0.187591 0.567384 0.011117
O O2 0.245736 0.386163 0.064761
O O3 0.307879 0.379519 0.812465
O O4 0.000000 0.000000 0.000000
O O5 0.290362 0.792403 0.515846
O O6 0.207154 0.450303 0.630631
O O7 0.112737 0.695633 0.788156
O O8 0.440103 0.058536 0.661766
O O9 0.851601 0.123361 0.790341
O O10 0.000000 0.500000 0.000000
O O11 0.821103 0.338018 0.724634
O O12 0.609780 0.718244 0.680707
O O13 0.892293 0.056048 0.528917
O O14 0.288490 0.528992 0.281101
O O15 0.984797 0.071926 0.280355
O O16 0.492688 0.134082 0.314407
O O17 0.662976 0.691003 0.419421
#
# Coordination Sequence:
#
# PCOD9002813 Si02
#       8
#     2   2   2   2   2   2   2   2
#     4  11  23  43  63  94 120 163 215 258 307 373
#     4  10  22  40  62  90 129 171 206 250 314 379
#     4  11  24  41  65  88 128 171 207 252 315 373
#     4  10  23  38  60 100 120 163 212 258 311 372
#     4  10  21  36  65  90 125 163 213 259 308 366
#     4   9  20  39  60  93 121 165 209 252 313 364
#     4  10  21  40  66  90 126 162 207 262 313 361
#     4  11  20  38  64  93 132 163 204 259 313 370
#
# _framework density 24.891241999999998
#
# number of rings (size 3 to 8) (size 9 to 14) (size 15 to 20)
#    0.000    1.750    1.250    3.000    0.000   10.500 
#    6.750    0.000    0.000    1.500    0.000    0.000 
#    0.000    0.000    0.000    0.000    0.000    0.000 
#
# Total GULP energy -89367.864584 kJ/mol
# GULP energy per Si atom -5585.491537 kJ/mol
# Density = 2.483459 g / cm^3
# Si number density = 24.891242 Si / 1000 Ang^3
#
#
#
# Elastic Constant Matrix: (Units=GPa)
#
#
# Indices 1 2 3 4 5 6 
#
# 1 54.1534 39.9452 32.2007 16.7978 22.3943 25.1354
# 2 39.9452 129.8736 32.5210 -7.1805 22.4386 8.3407
# 3 32.2007 32.5210 95.6729 6.1330 45.3762 18.8681
# 4 16.7978 -7.1805 6.1330 33.3815 12.6403 9.5750
# 5 22.3943 22.4386 45.3762 12.6403 38.9265 15.6552
# 6 25.1354 8.3407 18.8681 9.5750 15.6552 54.8949
#
#
#
# Elastic Compliance Matrix: (Units=1/GPa)
#
#
# Indices 1 2 3 4 5 6 
#
# 1 0.042947 -0.012084 -0.008257 -0.020465 0.003527 -0.012427
# 2 -0.012084 0.012521 0.001857 0.010170 -0.007030 0.003223
# 3 -0.008257 0.001857 0.026504 0.011177 -0.031407 0.001396
# 4 -0.020465 0.010170 0.011177 0.048774 -0.023876 0.002285
# 5 0.003527 -0.007030 -0.031407 -0.023876 0.074866 -0.006938
# 6 -0.012427 0.003223 0.001396 0.002285 -0.006938 0.024517
#
#
# Mechanical properties :
#
#
# Convention : Reuss Voigt Hill
#
# Bulk Modulus (GPa) = 22.22014 54.33707 38.27861
# Shear Modulus (GPa) = 17.72426 37.10945 27.41686
#
# Velocity S-wave (km/s) = 2.67136 3.86536 3.32243
# Velocity P-wave (km/s) = 4.29664 6.46518 5.48906
#
# Compressibility (1/GPa) = 0.04500421
#
# Stress axis : x y z
#
# Youngs Moduli (GPa) = 23.28448 79.86403 37.73032
#
# Poissons Ratio (x) = 0.96510 0.31155
# Poissons Ratio (y) = 0.28138 -0.07008
# Poissons Ratio (z) = 0.19226 -0.14835
#
# Static dielectric constant tensor:
#      x y z
#    x 2.075000 -0.023530 0.005860 
#    y -0.023530 1.978070 0.041130 
#    z 0.005860 0.041130 1.962500 
# 
# From -- ./inp_files/331794.got.cif
#   From: 2010.05.17/outbox.cif.g08.bks.cpg/sg2_166_cif.got.tgz:331794.got - 2010.06.03 11:33:40.
