data_PCOD9002734
_publ_section_title
;
Structure prediction by ZEFSAII (Michael W. Deem and Ramdas Pophale) SiO2 
 PCOD9002734
Probable space group: P -1
;
_chemical_formula_sum "Si O2"
_cell_formula_units_Z 16
_cell_length_a 11.368070
_cell_length_b 20.616770
_cell_length_c 16.888683
_cell_angle_alpha 20.646714
_cell_angle_beta 136.426232
_cell_angle_gamma 148.732364
_cell_volume 660.142355
_symmetry_space_group_name_H-M "P -1"
_symmetry_group_IT_number 2
_symmetry_cell_setting 'triclinic'
loop_
_space_group_symop_operation_xyz
x,y,z
-x,-y,-z
loop_
_atom_site_type_symbol
_atom_site_label
_atom_site_fract_x
_atom_site_fract_y
_atom_site_fract_z
Si Si1 0.656087 0.398571 0.089691
Si Si2 0.398744 0.470955 0.583525
Si Si3 0.410458 0.111990 0.929696
Si Si4 0.939453 0.745118 0.568014
Si Si5 0.782097 0.243498 0.089583
Si Si6 0.915326 0.476718 0.573292
Si Si7 0.769037 0.871891 0.591535
Si Si8 0.267923 0.833472 0.483932
O O1 0.629953 0.273276 0.303869
O O2 0.498174 0.154551 0.229538
O O3 0.585923 0.555709 0.866169
O O4 0.952664 0.618435 0.970834
O O5 0.280424 0.181602 0.832790
O O6 0.418262 0.636651 0.333487
O O7 0.683760 0.649186 0.537548
O O8 0.253872 0.473488 0.573953
O O9 0.584647 0.136371 0.047085
O O10 0.234723 0.826071 0.129160
O O11 0.077896 0.775566 0.522897
O O12 0.860431 0.508618 0.854561
O O13 0.118549 0.014080 0.397182
O O14 0.677092 0.998176 0.372389
O O15 0.000000 0.500000 0.500000
O O16 0.124597 0.687946 0.498927
O O17 0.000000 0.000000 0.500000
#
# Coordination Sequence:
#
# PCOD9002734 Si02
#       8
#     2   2   2   2   2   2   2   2
#     4   9  20  40  68  97 136 186 229 291 347 419
#     4  10  22  43  74 104 137 181 241 295 350 419
#     4  10  22  44  76 104 137 189 234 296 351 425
#     4  10  21  39  70 101 138 187 231 289 354 421
#     4   9  19  40  64 101 138 175 228 285 357 409
#     4  12  27  46  70 105 145 188 235 292 365 426
#     4  10  21  36  64 103 139 176 232 291 348 417
#     4  10  22  45  66  97 144 187 236 286 355 427
#
# _framework density 24.237197999999999
#
# number of rings (size 3 to 8) (size 9 to 14) (size 15 to 20)
#    0.000    2.000    0.000    3.750    5.250    1.000 
#   15.750    2.500    0.000    0.000    0.000    0.000 
#    0.000    0.000    0.000    0.000    0.000    0.000 
#
# Total GULP energy -89420.562374 kJ/mol
# GULP energy per Si atom -5588.785148 kJ/mol
# Density = 2.418203 g / cm^3
# Si number density = 24.237198 Si / 1000 Ang^3
#
#
#
# Elastic Constant Matrix: (Units=GPa)
#
#
# Indices 1 2 3 4 5 6 
#
# 1 135.0827 44.5739 25.9660 0.7905 21.3322 -1.7861
# 2 44.5739 113.6616 63.6235 -4.2587 16.0238 -14.2120
# 3 25.9660 63.6235 173.6364 -8.4556 25.3735 -8.2846
# 4 0.7905 -4.2587 -8.4556 25.0405 -1.3793 10.2905
# 5 21.3322 16.0238 25.3735 -1.3793 32.1473 -0.9869
# 6 -1.7861 -14.2120 -8.2846 10.2905 -0.9869 32.1255
#
#
#
# Elastic Compliance Matrix: (Units=1/GPa)
#
#
# Indices 1 2 3 4 5 6 
#
# 1 0.009160 -0.003296 0.000481 -0.000639 -0.004866 -0.000769
# 2 -0.003296 0.013017 -0.003937 -0.001073 -0.001090 0.004870
# 3 0.000481 -0.003937 0.007858 0.001900 -0.004491 -0.000435
# 4 -0.000639 -0.001073 0.001900 0.046600 0.001001 -0.014917
# 5 -0.004866 -0.001090 -0.004491 0.001001 0.038435 -0.001051
# 6 -0.000769 0.004870 -0.000435 -0.014917 -0.001051 0.037873
#
#
# Mechanical properties :
#
#
# Convention : Reuss Voigt Hill
#
# Bulk Modulus (GPa) = 60.49252 76.74528 68.61890
# Shear Modulus (GPa) = 29.07714 37.07713 33.07714
#
# Velocity S-wave (km/s) = 3.46741 3.91546 3.69823
# Velocity P-wave (km/s) = 6.40651 7.22316 6.82706
#
# Compressibility (1/GPa) = 0.01653097
#
# Stress axis : x y z
#
# Youngs Moduli (GPa) = 109.17136 76.82339 127.26005
#
# Poissons Ratio (x) = 0.25317 -0.06122
# Poissons Ratio (y) = 0.35978 0.50107
# Poissons Ratio (z) = -0.05252 0.30248
#
# Static dielectric constant tensor:
#      x y z
#    x 2.041440 0.004850 -0.032970 
#    y 0.004850 1.927020 0.003770 
#    z -0.032970 0.003770 1.983050 
# 
# From -- ./inp_files/570699.got.cif
#   From: 2010.05.17/outbox.cif.g08.bks.cpg/sg2_286_cif.got.tgz:570699.got - 2010.06.03 11:33:40.
