data_PCOD9002658
_publ_section_title
;
Structure prediction by ZEFSAII (Michael W. Deem and Ramdas Pophale) SiO2 
 PCOD9002658
Probable space group: P -1
;
_chemical_formula_sum "Si O2"
_cell_formula_units_Z 16
_cell_length_a 21.830425
_cell_length_b 11.829254
_cell_length_c 15.814252
_cell_angle_alpha 42.649572
_cell_angle_beta 23.525336
_cell_angle_gamma 29.841491
_cell_volume 773.497230
_symmetry_space_group_name_H-M "P -1"
_symmetry_group_IT_number 2
_symmetry_cell_setting 'triclinic'
loop_
_space_group_symop_operation_xyz
x,y,z
-x,-y,-z
loop_
_atom_site_type_symbol
_atom_site_label
_atom_site_fract_x
_atom_site_fract_y
_atom_site_fract_z
Si Si1 0.314439 0.889189 0.036362
Si Si2 0.326505 0.000724 0.253877
Si Si3 0.139417 0.832691 0.497843
Si Si4 0.148735 0.746359 0.044631
Si Si5 0.462085 0.971095 0.288836
Si Si6 0.978809 0.521859 0.413635
Si Si7 0.655060 0.268917 0.368102
Si Si8 0.502472 0.558895 0.834090
O O1 0.440407 0.758807 0.861945
O O2 0.339938 0.052684 0.954769
O O3 0.418827 0.664980 0.088485
O O4 0.058174 0.056073 0.251419
O O5 0.087997 0.265794 0.389601
O O6 0.304622 0.840904 0.324039
O O7 0.383704 0.955268 0.306437
O O8 0.500000 0.000000 0.000000
O O9 0.295407 0.564513 0.416257
O O10 0.000000 0.000000 0.500000
O O11 0.288910 0.695196 0.813709
O O12 0.289346 0.673200 0.989308
O O13 0.108824 0.579082 0.181284
O O14 0.908372 0.019924 0.209438
O O15 0.473464 0.807658 0.427577
O O16 0.271431 0.242390 0.413315
O O17 0.000000 0.500000 0.500000
O O18 0.500000 0.500000 0.500000
#
# Coordination Sequence:
#
# PCOD9002658 Si02
#       8
#     2   2   2   2   2   2   2   2
#     4  10  22  38  60  91 132 162 195 247 314 383
#     4  11  21  33  59  92 124 156 198 256 315 375
#     4  10  22  36  53  91 131 163 199 233 306 388
#     4  10  21  41  61  91 118 167 210 255 317 371
#     4  10  22  39  57  88 119 159 208 255 307 363
#     4   9  19  32  58  87 122 147 195 249 313 369
#     4  10  24  41  62  87 122 160 217 274 304 350
#     4  10  21  36  63  87 126 165 197 241 314 385
#
# _framework density 20.685271
#
# number of rings (size 3 to 8) (size 9 to 14) (size 15 to 20)
#    0.000    2.000    0.000    3.750   14.000    0.000 
#    0.000    0.625    0.000    1.500    0.000    0.000 
#    0.000    0.000    0.000    0.000    0.000    0.000 
#
# Total GULP energy -89118.793270 kJ/mol
# GULP energy per Si atom -5569.924579 kJ/mol
# Density = 2.063819 g / cm^3
# Si number density = 20.685271 Si / 1000 Ang^3
#
#
#
# Elastic Constant Matrix: (Units=GPa)
#
#
# Indices 1 2 3 4 5 6 
#
# 1 64.2368 10.3448 38.9470 5.4728 -4.3526 20.1496
# 2 10.3448 65.7769 26.8980 17.3518 11.6730 12.8423
# 3 38.9470 26.8980 90.3322 -3.0118 7.3997 9.9342
# 4 5.4728 17.3518 -3.0118 33.9819 1.9465 7.0539
# 5 -4.3526 11.6730 7.3997 1.9465 34.7733 1.1633
# 6 20.1496 12.8423 9.9342 7.0539 1.1633 25.2127
#
#
#
# Elastic Compliance Matrix: (Units=1/GPa)
#
#
# Indices 1 2 3 4 5 6 
#
# 1 0.029383 0.004467 -0.012421 -0.004307 0.005729 -0.019924
# 2 0.004467 0.023225 -0.007846 -0.011145 -0.004644 -0.008977
# 3 -0.012421 -0.007846 0.018749 0.006876 -0.003455 0.004771
# 4 -0.004307 -0.011145 0.006876 0.037265 -0.000213 -0.004007
# 5 0.005729 -0.004644 -0.003455 -0.000213 0.031856 -0.002262
# 6 -0.019924 -0.008977 0.004771 -0.004007 -0.002262 0.059503
#
#
# Mechanical properties :
#
#
# Convention : Reuss Voigt Hill
#
# Bulk Modulus (GPa) = 25.15117 41.41395 33.28256
# Shear Modulus (GPa) = 20.42195 28.40402 24.41298
#
# Velocity S-wave (km/s) = 3.14549 3.70963 3.43915
# Velocity P-wave (km/s) = 5.03761 6.19781 5.64759
#
# Compressibility (1/GPa) = 0.03975958
#
# Stress axis : x y z
#
# Youngs Moduli (GPa) = 34.03272 43.05642 53.33518
#
# Poissons Ratio (x) = -0.19235 0.66246
# Poissons Ratio (y) = -0.15204 0.41846
# Poissons Ratio (z) = 0.42271 0.33782
#
# Static dielectric constant tensor:
#      x y z
#    x 1.783630 0.013290 0.006740 
#    y 0.013290 1.787930 -0.005060 
#    z 0.006740 -0.005060 1.899340 
# 
# From -- ./inp_files/579161.got.cif
#   From: 2010.05.17/outbox.cif.g08.bks.cpg/sg2_290_cif.got.tgz:579161.got - 2010.06.03 11:33:40.
