data_PCOD9002980
_publ_section_title
;
Structure prediction by ZEFSAII (Michael W. Deem and Ramdas Pophale) SiO2 
 PCOD9002980
Probable space group: P -1
;
_chemical_formula_sum "Si O2"
_cell_formula_units_Z 14
_cell_length_a 14.662206
_cell_length_b 7.662594
_cell_length_c 14.372908
_cell_angle_alpha 86.967140
_cell_angle_beta 26.033043
_cell_angle_gamma 71.073973
_cell_volume 548.707516
_symmetry_space_group_name_H-M "P -1"
_symmetry_group_IT_number 2
_symmetry_cell_setting 'triclinic'
loop_
_space_group_symop_operation_xyz
x,y,z
-x,-y,-z
loop_
_atom_site_type_symbol
_atom_site_label
_atom_site_fract_x
_atom_site_fract_y
_atom_site_fract_z
Si Si1 0.431601 0.267149 0.133121
Si Si2 0.535469 0.885151 0.169089
Si Si3 0.026042 0.509172 0.326126
Si Si4 0.768670 0.384995 0.199731
Si Si5 0.472655 0.125805 0.616432
Si Si6 0.983040 0.073397 0.681671
Si Si7 0.943677 0.001595 0.918570
O O1 0.241329 0.383890 0.216016
O O2 0.245404 0.433404 0.386071
O O3 0.473632 0.047737 0.136205
O O4 0.727996 0.184690 0.845208
O O5 0.527972 0.965450 0.278864
O O6 0.830233 0.653528 0.887995
O O7 0.295015 0.868182 0.381626
O O8 0.996410 0.729737 0.325543
O O9 0.500000 0.500000 0.500000
O O10 0.743781 0.600956 0.190497
O O11 0.767078 0.246488 0.121153
O O12 0.013222 0.185879 0.046506
O O13 0.500000 0.000000 0.500000
O O14 0.760091 0.071117 0.354766
O O15 0.884685 0.018803 0.863493
#
# Coordination Sequence:
#
# PCOD9002980 Si02
#       7
#     2   2   2   2   2   2   2
#     4  10  22  38  61  91 122 155 195 248 302 362
#     4  10  22  39  60  88 121 158 202 249 297 361
#     4  10  21  40  62  88 121 156 199 246 300 364
#     4   9  18  34  56  78 108 153 196 245 298 350
#     4  10  21  37  56  82 117 157 202 251 300 350
#     4  10  21  38  59  87 121 155 196 246 302 358
#     4   9  19  36  55  81 115 153 201 248 296 361
#
# _framework density 25.514506000000001
#
# number of rings (size 3 to 8) (size 9 to 14) (size 15 to 20)
#    0.000    2.286    0.000    1.714    0.000    5.714 
#    0.000    5.714    0.000    0.000    0.000    0.000 
#    0.000    0.000    0.000    0.000    0.000    0.000 
#
# Total GULP energy -78121.442099 kJ/mol
# GULP energy per Si atom -5580.103007 kJ/mol
# Density = 2.545643 g / cm^3
# Si number density = 25.514506 Si / 1000 Ang^3
#
#
#
# Elastic Constant Matrix: (Units=GPa)
#
#
# Indices 1 2 3 4 5 6 
#
# 1 74.1715 18.3949 15.1185 0.3158 2.2960 -14.8290
# 2 18.3949 130.3090 -10.1724 4.3296 22.7429 -11.6489
# 3 15.1185 -10.1724 109.5640 9.7329 12.3435 9.9824
# 4 0.3158 4.3296 9.7329 34.1828 0.2139 4.2831
# 5 2.2960 22.7429 12.3435 0.2139 46.9713 0.8657
# 6 -14.8290 -11.6489 9.9824 4.2831 0.8657 29.0821
#
#
#
# Elastic Compliance Matrix: (Units=1/GPa)
#
#
# Indices 1 2 3 4 5 6 
#
# 1 0.016349 -0.001937 -0.003318 -0.000054 0.000851 0.008682
# 2 -0.001937 0.009207 0.001599 -0.001896 -0.004822 0.002574
# 3 -0.003318 0.001599 0.010734 -0.002676 -0.003343 -0.004242
# 4 -0.000054 -0.001896 -0.002676 0.030805 0.001566 -0.004452
# 5 0.000851 -0.004822 -0.003343 0.001566 0.024478 -0.001309
# 6 0.008682 0.002574 -0.004242 -0.004452 -0.001309 0.041994
#
#
# Mechanical properties :
#
#
# Convention : Reuss Voigt Hill
#
# Bulk Modulus (GPa) = 34.50884 40.08071 37.29478
# Shear Modulus (GPa) = 33.21405 41.42746 37.32075
#
# Velocity S-wave (km/s) = 3.61192 4.03387 3.82871
# Velocity P-wave (km/s) = 5.56320 6.11876 5.84758
#
# Compressibility (1/GPa) = 0.02897808
#
# Stress axis : x y z
#
# Youngs Moduli (GPa) = 61.16711 108.61110 93.16021
#
# Poissons Ratio (x) = 0.21043 0.30909
# Poissons Ratio (y) = 0.11851 -0.14900
# Poissons Ratio (z) = 0.20294 -0.17371
#
# Static dielectric constant tensor:
#      x y z
#    x 2.075390 0.022880 -0.056830 
#    y 0.022880 2.125170 -0.011720 
#    z -0.056830 -0.011720 2.160080 
# 
# From -- ./inp_files/529728.got.cif
#   From: 2010.05.17/outbox.cif.g08.bks.cpg/sg2_265_cif.got.tgz:529728.got - 2010.06.03 11:33:40.
