data_PCOD9002141
_publ_section_title
;
Structure prediction by ZEFSAII (Michael W. Deem and Ramdas Pophale) SiO2 
 PCOD9002141
Probable space group: P -1
;
_chemical_formula_sum "Si O2"
_cell_formula_units_Z 16
_cell_length_a 7.393576
_cell_length_b 9.993140
_cell_length_c 12.261305
_cell_angle_alpha 112.985325
_cell_angle_beta 44.203044
_cell_angle_gamma 109.606306
_cell_volume 579.280784
_symmetry_space_group_name_H-M "P -1"
_symmetry_group_IT_number 2
_symmetry_cell_setting 'triclinic'
loop_
_space_group_symop_operation_xyz
x,y,z
-x,-y,-z
loop_
_atom_site_type_symbol
_atom_site_label
_atom_site_fract_x
_atom_site_fract_y
_atom_site_fract_z
Si Si1 0.545662 0.721225 0.576842
Si Si2 0.882859 0.079456 0.349328
Si Si3 0.901814 0.325853 0.119781
Si Si4 0.269044 0.995466 0.001000
Si Si5 0.803533 0.616438 0.646495
Si Si6 0.313734 0.536761 0.950172
Si Si7 0.970062 0.228590 0.720266
Si Si8 0.408434 0.926296 0.320334
O O1 0.239133 0.675252 0.701841
O O2 0.648396 0.641682 0.611094
O O3 0.741060 0.690018 0.387044
O O4 0.596298 0.897078 0.622967
O O5 0.620269 0.102202 0.543844
O O6 0.984442 0.050664 0.172202
O O7 0.063504 0.224426 0.338274
O O8 0.989638 0.930443 0.299746
O O9 0.792345 0.441520 0.119625
O O10 0.203316 0.382845 0.999535
O O11 0.805330 0.171656 0.056807
O O12 0.393507 0.084178 0.871057
O O13 0.500000 0.000000 0.000000
O O14 0.619636 0.559839 0.807282
O O15 0.000000 0.500000 0.500000
O O16 0.208931 0.667598 0.106439
O O17 0.837163 0.179787 0.647959
#
# Coordination Sequence:
#
# PCOD9002141 Si02
#       8
#     2   2   2   2   2   2   2   2
#     4   9  17  30  50  74 107 129 164 218 269 306
#     4  11  18  30  51  78 104 128 170 221 267 297
#     4   9  18  32  46  77 111 130 160 217 270 314
#     4  11  17  26  52  79 102 130 163 211 265 311
#     4  11  21  34  50  71 105 145 176 207 252 313
#     4  10  20  31  49  74 104 141 171 203 270 318
#     4  11  16  28  53  80 103 128 165 226 272 301
#     4  10  17  27  49  81 106 120 161 229 269 295
#
# _framework density 27.620455
#
# number of rings (size 3 to 8) (size 9 to 14) (size 15 to 20)
#    0.000    1.750    5.000    3.000    0.000    0.500 
#    0.000    0.625    0.000    0.750    0.000    7.875 
#    0.000    0.000    0.000    0.000    0.000    0.000 
#
# Total GULP energy -89203.953260 kJ/mol
# GULP energy per Si atom -5575.247079 kJ/mol
# Density = 2.755759 g / cm^3
# Si number density = 27.620455 Si / 1000 Ang^3
#
#
#
# Elastic Constant Matrix: (Units=GPa)
#
#
# Indices 1 2 3 4 5 6 
#
# 1 73.2154 0.6739 58.2479 -2.6452 -54.5530 34.0691
# 2 0.6739 152.6923 121.8609 -26.6494 -72.1185 51.5918
# 3 58.2479 121.8609 188.8046 -41.5471 95.6560 -49.6517
# 4 -2.6452 -26.6494 -41.5471 62.6933 -4.3299 3.8682
# 5 -54.5530 -72.1185 95.6560 -4.3299 -154.5071 106.9926
# 6 34.0691 51.5918 -49.6517 3.8682 106.9926 -35.4806
#
#
#
# Elastic Compliance Matrix: (Units=1/GPa)
#
#
# Indices 1 2 3 4 5 6 
#
# 1 0.011516 -0.001350 -0.001014 -0.001061 -0.002910 0.001623
# 2 -0.001350 0.006409 -0.001644 0.001328 -0.003381 0.000272
# 3 -0.001014 -0.001644 0.005366 0.003149 0.002695 -0.002403
# 4 -0.001061 0.001328 0.003149 0.018666 -0.000157 -0.001932
# 5 -0.002910 -0.003381 0.002695 -0.000157 0.009333 0.016647
# 6 0.001623 0.000272 -0.002403 -0.001932 0.016647 0.027121
#
#
# Mechanical properties :
#
#
# Convention : Reuss Voigt Hill
#
# Bulk Modulus (GPa) = 65.45903 86.25307 75.85605
# Shear Modulus (GPa) = 54.63471 -9.86355 22.38558
#
# Velocity S-wave (km/s) = 4.45236 -1.89179 2.84997
# Velocity P-wave (km/s) = 7.08394 5.15014 6.19299
#
# Compressibility (1/GPa) = 0.01527673
#
# Stress axis : x y z
#
# Youngs Moduli (GPa) = 86.83911 156.01930 186.36657
#
# Poissons Ratio (x) = 0.21057 0.18895
# Poissons Ratio (y) = 0.11720 0.30630
# Poissons Ratio (z) = 0.08804 0.25642
#
# Static dielectric constant tensor:
#      x y z
#    x 2.237350 0.047730 -0.099200 
#    y 0.047730 2.111960 -0.128590 
#    z -0.099200 -0.128590 2.371510 
# 
# From -- ./inp_files/568153.got.cif
#   From: 2010.05.17/outbox.cif.g08.bks.cpg/sg2_285_cif.got.tgz:568153.got - 2010.06.03 11:33:40.
