data_PCOD9002937
_publ_section_title
;
Structure prediction by ZEFSAII (Michael W. Deem and Ramdas Pophale) SiO2 
 PCOD9002937
Probable space group: P -1
;
_chemical_formula_sum "Si O2"
_cell_formula_units_Z 16
_cell_length_a 9.267391
_cell_length_b 8.432570
_cell_length_c 14.439304
_cell_angle_alpha 81.418406
_cell_angle_beta 141.127163
_cell_angle_gamma 102.427023
_cell_volume 691.277078
_symmetry_space_group_name_H-M "P -1"
_symmetry_group_IT_number 2
_symmetry_cell_setting 'triclinic'
loop_
_space_group_symop_operation_xyz
x,y,z
-x,-y,-z
loop_
_atom_site_type_symbol
_atom_site_label
_atom_site_fract_x
_atom_site_fract_y
_atom_site_fract_z
Si Si1 0.182842 0.486828 0.678004
Si Si2 0.718210 0.798772 0.349907
Si Si3 0.070080 0.657319 0.958033
Si Si4 0.271296 0.839018 0.651865
Si Si5 0.480362 0.675558 0.432345
Si Si6 0.350137 0.148428 0.317073
Si Si7 0.910227 0.142926 0.886188
Si Si8 0.066873 0.410432 0.835651
O O1 0.343580 0.357928 0.734398
O O2 0.285619 0.675573 0.730923
O O3 0.000000 0.500000 0.500000
O O4 0.086677 0.418649 0.735141
O O5 0.635144 0.731418 0.415627
O O6 0.002011 0.829986 0.488037
O O7 0.659148 0.979801 0.287454
O O8 0.844268 0.737949 0.811957
O O9 0.157146 0.582269 0.914223
O O10 0.000000 0.500000 0.000000
O O11 0.208980 0.776832 0.092633
O O12 0.432454 0.819975 0.645992
O O13 0.500000 0.500000 0.500000
O O14 0.563124 0.805151 0.541569
O O15 0.207954 0.646035 0.273714
O O16 0.238880 0.963197 0.257940
O O17 0.133035 0.260226 0.941144
O O18 0.000000 0.000000 0.000000
#
# Coordination Sequence:
#
# PCOD9002937 Si02
#       8
#     2   2   2   2   2   2   2   2
#     4  10  21  37  56  88 133 175 201 245 317 400
#     4  10  22  37  54  84 138 177 197 242 310 408
#     4   9  20  39  63  89 116 162 216 268 310 362
#     4  10  21  37  54  84 125 173 203 238 314 380
#     4  12  21  33  60 103 128 158 208 257 336 391
#     4  11  21  36  63  94 126 158 206 274 316 383
#     4   9  21  40  61  92 116 160 218 275 310 355
#     4  11  21  38  65  95 126 167 208 265 325 384
#
# _framework density 23.145568000000001
#
# number of rings (size 3 to 8) (size 9 to 14) (size 15 to 20)
#    0.000    1.750    1.250    4.500    0.000    5.000 
#    2.250    0.000    0.000    7.500    0.000    0.000 
#    0.000    0.000    0.000    0.000    0.000    0.000 
#
# Total GULP energy -89152.444978 kJ/mol
# GULP energy per Si atom -5572.027811 kJ/mol
# Density = 2.309289 g / cm^3
# Si number density = 23.145568 Si / 1000 Ang^3
#
#
#
# Elastic Constant Matrix: (Units=GPa)
#
#
# Indices 1 2 3 4 5 6 
#
# 1 121.4410 46.5941 29.2202 1.1078 -36.6838 0.7118
# 2 46.5941 176.7542 31.7240 6.7698 -18.0455 -14.2204
# 3 29.2202 31.7240 93.0801 11.3553 -23.5158 -11.0737
# 4 1.1078 6.7698 11.3553 33.8736 -2.5999 -11.2940
# 5 -36.6838 -18.0455 -23.5158 -2.5999 38.6575 8.7520
# 6 0.7118 -14.2204 -11.0737 -11.2940 8.7520 33.2436
#
#
#
# Elastic Compliance Matrix: (Units=1/GPa)
#
#
# Indices 1 2 3 4 5 6 
#
# 1 0.012931 -0.002442 -0.000794 -0.000368 0.011708 -0.004794
# 2 -0.002442 0.006694 -0.001360 0.000029 -0.000615 0.002634
# 3 -0.000794 -0.001360 0.013627 -0.003401 0.006416 0.001130
# 4 -0.000368 0.000029 -0.003401 0.034200 -0.002640 0.011201
# 5 0.011708 -0.000615 0.006416 -0.002640 0.042803 -0.010542
# 6 -0.004794 0.002634 0.001130 0.011201 -0.010542 0.038268
#
#
# Mechanical properties :
#
#
# Convention : Reuss Voigt Hill
#
# Bulk Modulus (GPa) = 41.56778 67.37242 54.47010
# Shear Modulus (GPa) = 30.16872 40.07074 35.11973
#
# Velocity S-wave (km/s) = 3.61423 4.16534 3.89953
# Velocity P-wave (km/s) = 5.95106 7.23220 6.62268
#
# Compressibility (1/GPa) = 0.02405709
#
# Stress axis : x y z
#
# Youngs Moduli (GPa) = 77.33553 149.39740 73.38576
#
# Poissons Ratio (x) = 0.36488 0.05830
# Poissons Ratio (y) = 0.18888 0.09981
# Poissons Ratio (z) = 0.06144 0.20320
#
# Static dielectric constant tensor:
#      x y z
#    x 1.980100 0.046780 0.202220 
#    y 0.046780 1.572930 0.534040 
#    z 0.202220 0.534040 1.844150 
# 
# From -- ./inp_files/494981.got.cif
#   From: 2010.05.17/outbox.cif.g08.bks.cpg/sg2_248_cif.got.tgz:494981.got - 2010.06.03 11:33:40.
