data_PCOD9002294
_publ_section_title
;
Structure prediction by ZEFSAII (Michael W. Deem and Ramdas Pophale) SiO2 
 PCOD9002294
Probable space group: P -1
;
_chemical_formula_sum "Si O2"
_cell_formula_units_Z 16
_cell_length_a 5.217152
_cell_length_b 14.281048
_cell_length_c 9.057270
_cell_angle_alpha 89.105756
_cell_angle_beta 86.115731
_cell_angle_gamma 61.080143
_cell_volume 589.201406
_symmetry_space_group_name_H-M "P -1"
_symmetry_group_IT_number 2
_symmetry_cell_setting 'triclinic'
loop_
_space_group_symop_operation_xyz
x,y,z
-x,-y,-z
loop_
_atom_site_type_symbol
_atom_site_label
_atom_site_fract_x
_atom_site_fract_y
_atom_site_fract_z
Si Si1 0.556466 0.390455 0.438332
Si Si2 0.669745 0.314585 0.906662
Si Si3 0.295690 0.915636 0.073325
Si Si4 0.264741 0.411260 0.176756
Si Si5 0.246713 0.368292 0.685707
Si Si6 0.518228 0.869714 0.381367
Si Si7 0.979212 0.160795 0.434523
Si Si8 0.142707 0.222809 0.128747
O O1 0.500000 0.500000 0.500000
O O2 0.541662 0.392349 0.264600
O O3 0.276689 0.382727 0.510977
O O4 0.839847 0.285618 0.476104
O O5 0.724478 0.193494 0.907099
O O6 0.382650 0.397093 0.007795
O O7 0.943230 0.295060 0.997216
O O8 0.548410 0.356290 0.747935
O O9 0.576796 0.876278 0.956173
O O10 0.364838 0.937795 0.237969
O O11 0.000000 0.000000 0.000000
O O12 0.221664 0.307275 0.203428
O O13 0.017056 0.527790 0.234615
O O14 0.283080 0.250051 0.694395
O O15 0.732922 0.894383 0.473101
O O16 0.264854 0.870134 0.497756
O O17 0.022403 0.170125 0.256560
#
# Coordination Sequence:
#
# PCOD9002294 Si02
#       8
#     2   2   2   2   2   2   2   2
#     4  11  21  35  60  90 129 178 235 266 323 376
#     4  10  23  41  62  93 126 173 224 267 351 391
#     4  10  25  47  72  98 127 168 224 285 346 417
#     4  11  21  39  57  93 133 180 227 271 321 390
#     4  10  21  36  59  90 133 177 227 272 313 388
#     4  10  24  43  69  99 138 178 228 274 343 389
#     4  11  22  42  66  97 137 182 219 281 328 404
#     4  11  23  41  69  93 134 179 221 277 340 406
#
# _framework density 27.155401000000001
#
# number of rings (size 3 to 8) (size 9 to 14) (size 15 to 20)
#    0.000    1.500    1.250    3.750    7.000    1.000 
#    2.250    1.250    0.000    0.000    0.000    0.000 
#    0.000    0.000    0.000    0.000    0.000    0.000 
#
# Total GULP energy -89394.901887 kJ/mol
# GULP energy per Si atom -5587.181368 kJ/mol
# Density = 2.709359 g / cm^3
# Si number density = 27.155401 Si / 1000 Ang^3
#
#
#
# Elastic Constant Matrix: (Units=GPa)
#
#
# Indices 1 2 3 4 5 6 
#
# 1 90.1200 9.4460 31.0088 -6.1593 8.4206 -25.2159
# 2 9.4460 126.3221 -7.2713 -16.4825 -9.8978 -30.9083
# 3 31.0088 -7.2713 114.7465 -21.8688 -8.5249 -23.5155
# 4 -6.1593 -16.4825 -21.8688 21.7890 -12.0436 6.0012
# 5 8.4206 -9.8978 -8.5249 -12.0436 51.0715 -1.6937
# 6 -25.2159 -30.9083 -23.5155 6.0012 -1.6937 47.3023
#
#
#
# Elastic Compliance Matrix: (Units=1/GPa)
#
#
# Indices 1 2 3 4 5 6 
#
# 1 0.014109 -0.000755 -0.003789 -0.004048 -0.003877 0.005519
# 2 -0.000755 0.014680 0.008191 0.021516 0.009771 0.010882
# 3 -0.003789 0.008191 0.018349 0.027649 0.012106 0.009380
# 4 -0.004048 0.021516 0.027649 0.104047 0.034442 0.013679
# 5 -0.003877 0.009771 0.012106 0.034442 0.032493 0.007130
# 6 0.005519 0.010882 0.009380 0.013679 0.007130 0.034376
#
#
# Mechanical properties :
#
#
# Convention : Reuss Voigt Hill
#
# Bulk Modulus (GPa) = 18.37164 44.17283 31.27223
# Shear Modulus (GPa) = 21.84328 43.89957 32.87143
#
# Velocity S-wave (km/s) = 2.83924 4.02507 3.48299
# Velocity P-wave (km/s) = 4.18670 6.15658 5.26460
#
# Compressibility (1/GPa) = 0.05443172
#
# Stress axis : x y z
#
# Youngs Moduli (GPa) = 70.87664 68.12107 54.49886
#
# Poissons Ratio (x) = 0.05141 0.20650
# Poissons Ratio (y) = 0.05349 -0.44639
# Poissons Ratio (z) = 0.26856 -0.55797
#
# Static dielectric constant tensor:
#      x y z
#    x 2.228920 0.002880 -0.053730 
#    y 0.002880 2.106870 -0.004800 
#    z -0.053730 -0.004800 2.067090 
# 
# From -- ./inp_files/113175.got.cif
#   From: 2010.05.17/outbox.cif.g08.bks.cpg/sg2_57_cif.got.tgz:113175.got - 2010.06.03 11:33:40.
