data_PCOD9002068
_publ_section_title
;
Structure prediction by ZEFSAII (Michael W. Deem and Ramdas Pophale) SiO2 
 PCOD9002068
Probable space group: P -1
;
_chemical_formula_sum "Si O2"
_cell_formula_units_Z 16
_cell_length_a 5.165805
_cell_length_b 21.429536
_cell_length_c 10.981659
_cell_angle_alpha 140.149993
_cell_angle_beta 95.730811
_cell_angle_gamma 80.026171
_cell_volume 766.152833
_symmetry_space_group_name_H-M "P -1"
_symmetry_group_IT_number 2
_symmetry_cell_setting 'triclinic'
loop_
_space_group_symop_operation_xyz
x,y,z
-x,-y,-z
loop_
_atom_site_type_symbol
_atom_site_label
_atom_site_fract_x
_atom_site_fract_y
_atom_site_fract_z
Si Si1 0.818187 0.869081 0.836402
Si Si2 0.301515 0.590348 0.571393
Si Si3 0.344490 0.263115 0.883148
Si Si4 0.735872 0.414139 0.900202
Si Si5 0.875527 0.515207 0.828701
Si Si6 0.820447 0.202603 0.657557
Si Si7 0.233155 0.290691 0.201268
Si Si8 0.730373 0.094183 0.258595
O O1 0.821777 0.791349 0.828190
O O2 0.570342 0.866531 0.731615
O O3 0.079997 0.856264 0.748438
O O4 0.781371 0.978111 0.056845
O O5 0.500000 0.500000 0.500000
O O6 0.182656 0.547301 0.381806
O O7 0.504629 0.667770 0.678351
O O8 0.041676 0.632701 0.700035
O O9 0.624828 0.206062 0.767896
O O10 0.111729 0.218851 0.735629
O O11 0.324292 0.380490 0.024430
O O12 0.297170 0.257221 0.015907
O O13 0.903710 0.437307 0.825083
O O14 0.701299 0.301869 0.726803
O O15 0.500000 0.500000 0.000000
O O16 0.860056 0.437528 0.070632
O O17 0.802905 0.115334 0.432249
#
# Coordination Sequence:
#
# PCOD9002068 Si02
#       8
#     2   2   2   2   2   2   2   2
#     4  10  23  43  68  97 129 162 200 273 330 387
#     4  12  26  41  63  91 130 176 221 259 308 384
#     4  11  23  41  59  84 130 166 210 256 313 365
#     4  10  21  36  57  84 124 163 208 262 309 372
#     4  10  23  37  54  85 123 167 208 257 312 361
#     4  11  23  38  63  90 118 168 212 256 315 382
#     4  12  26  42  64  94 128 173 219 263 319 380
#     4  10  22  44  69  96 129 158 207 268 338 379
#
# _framework density 20.883562999999999
#
# number of rings (size 3 to 8) (size 9 to 14) (size 15 to 20)
#    0.000    1.250    2.500    2.625    5.250    0.000 
#    0.000    1.250    0.000    0.000    0.000    0.000 
#    0.000    0.000    0.000    0.000    0.000    0.000 
#
# Total GULP energy -89263.067868 kJ/mol
# GULP energy per Si atom -5578.941742 kJ/mol
# Density = 2.083603 g / cm^3
# Si number density = 20.883563 Si / 1000 Ang^3
#
#
#
# Elastic Constant Matrix: (Units=GPa)
#
#
# Indices 1 2 3 4 5 6 
#
# 1 96.2348 4.3613 31.1328 -5.9237 8.7857 16.6546
# 2 4.3613 56.4180 22.2833 -15.8239 7.4998 9.7147
# 3 31.1328 22.2833 90.6735 -29.4783 16.2084 9.3318
# 4 -5.9237 -15.8239 -29.4783 21.6286 -3.0398 0.5163
# 5 8.7857 7.4998 16.2084 -3.0398 21.8814 -1.2172
# 6 16.6546 9.7147 9.3318 0.5163 -1.2172 25.4091
#
#
#
# Elastic Compliance Matrix: (Units=1/GPa)
#
#
# Indices 1 2 3 4 5 6 
#
# 1 0.013266 0.002455 -0.003418 0.000406 -0.004057 -0.008582
# 2 0.002455 0.026648 0.003792 0.024220 -0.010352 -0.014179
# 3 -0.003418 0.003792 0.027132 0.036894 -0.015493 -0.010666
# 4 0.000406 0.024220 0.036894 0.111929 -0.021712 -0.026391
# 5 -0.004057 -0.010352 -0.015493 -0.021712 0.060208 0.015633
# 6 -0.008582 -0.014179 -0.010666 -0.026391 0.015633 0.055604
#
#
# Mechanical properties :
#
#
# Convention : Reuss Voigt Hill
#
# Bulk Modulus (GPa) = 13.75425 39.87569 26.81497
# Shear Modulus (GPa) = 15.95596 26.15374 21.05485
#
# Velocity S-wave (km/s) = 2.76713 3.54271 3.17866
# Velocity P-wave (km/s) = 4.09998 5.98917 5.13225
#
# Compressibility (1/GPa) = 0.07270478
#
# Stress axis : x y z
#
# Youngs Moduli (GPa) = 75.37929 37.52605 36.85730
#
# Poissons Ratio (x) = -0.09214 0.12598
# Poissons Ratio (y) = -0.18508 -0.13976
# Poissons Ratio (z) = 0.25764 -0.14230
#
# Static dielectric constant tensor:
#      x y z
#    x 1.824790 0.165870 -0.045880 
#    y 0.165870 1.736010 0.074800 
#    z -0.045880 0.074800 1.750260 
# 
# From -- ./inp_files/370911.got.cif
#   From: 2010.05.17/outbox.cif.g08.bks.cpg/sg2_186_cif.got.tgz:370911.got - 2010.06.03 11:33:40.
