data_PCOD9002679
_publ_section_title
;
Structure prediction by ZEFSAII (Michael W. Deem and Ramdas Pophale) SiO2 
 PCOD9002679
Probable space group: P -1
;
_chemical_formula_sum "Si O2"
_cell_formula_units_Z 16
_cell_length_a 20.922007
_cell_length_b 18.129219
_cell_length_c 11.593690
_cell_angle_alpha 40.435356
_cell_angle_beta 149.128175
_cell_angle_gamma 158.609687
_cell_volume 805.769633
_symmetry_space_group_name_H-M "P -1"
_symmetry_group_IT_number 2
_symmetry_cell_setting 'triclinic'
loop_
_space_group_symop_operation_xyz
x,y,z
-x,-y,-z
loop_
_atom_site_type_symbol
_atom_site_label
_atom_site_fract_x
_atom_site_fract_y
_atom_site_fract_z
Si Si1 0.563855 0.906078 0.831228
Si Si2 0.649258 0.231128 0.098563
Si Si3 0.562694 0.452861 0.320435
Si Si4 0.157985 0.677571 0.321072
Si Si5 0.707103 0.040346 0.316588
Si Si6 0.860307 0.907720 0.776145
Si Si7 0.286235 0.194847 0.962746
Si Si8 0.922305 0.543424 0.747025
O O1 0.510806 0.850819 0.949012
O O2 0.334041 0.786183 0.566141
O O3 0.620215 0.834260 0.936389
O O4 0.764359 0.147494 0.828025
O O5 0.674401 0.112095 0.278058
O O6 0.897832 0.474828 0.198843
O O7 0.528408 0.163643 0.869696
O O8 0.381755 0.331084 0.286975
O O9 0.428019 0.311489 0.163521
O O10 0.739982 0.489680 0.581364
O O11 0.681642 0.660579 0.223421
O O12 0.181993 0.595759 0.361926
O O13 0.868594 0.223317 0.254367
O O14 0.818051 0.009257 0.568347
O O15 0.000000 0.000000 0.000000
O O16 0.022565 0.980924 0.842529
O O17 0.000000 0.500000 0.000000
#
# Coordination Sequence:
#
# PCOD9002679 Si02
#       8
#     2   2   2   2   2   2   2   2
#     4  11  22  39  63  88 128 167 203 248 320 373
#     4  10  23  39  62  93 124 163 196 262 321 363
#     4  10  21  36  63  91 120 160 209 255 314 350
#     4  10  23  37  58  95 124 159 208 256 304 383
#     4  10  22  41  62  96 130 151 214 264 306 375
#     4  10  22  36  61  90 119 162 202 256 304 355
#     4  10  21  41  58  90 125 159 209 258 296 374
#     4  11  21  37  65  95 126 160 204 264 318 362
#
# _framework density 19.856793
#
# number of rings (size 3 to 8) (size 9 to 14) (size 15 to 20)
#    0.000    1.750    2.500    1.125    7.000    2.000 
#    0.000    0.625    0.000    1.500    0.000    0.000 
#    0.000    0.000    0.000    0.000    0.000    0.000 
#
# Total GULP energy -89347.290926 kJ/mol
# GULP energy per Si atom -5584.205683 kJ/mol
# Density = 1.981160 g / cm^3
# Si number density = 19.856793 Si / 1000 Ang^3
#
#
#
# Elastic Constant Matrix: (Units=GPa)
#
#
# Indices 1 2 3 4 5 6 
#
# 1 100.0097 45.5964 14.5850 4.4733 23.8587 18.2361
# 2 45.5964 80.3411 32.1663 -1.4528 0.3341 12.3044
# 3 14.5850 32.1663 95.6637 -14.0447 13.1901 10.3015
# 4 4.4733 -1.4528 -14.0447 20.3883 1.2516 -4.9580
# 5 23.8587 0.3341 13.1901 1.2516 24.3278 2.6046
# 6 18.2361 12.3044 10.3015 -4.9580 2.6046 23.1869
#
#
#
# Elastic Compliance Matrix: (Units=1/GPa)
#
#
# Indices 1 2 3 4 5 6 
#
# 1 0.023475 -0.013483 0.004928 -0.004077 -0.024050 -0.011667
# 2 -0.013483 0.023515 -0.008608 -0.002529 0.017760 -0.000586
# 3 0.004928 -0.008608 0.016207 0.009600 -0.013683 -0.002919
# 4 -0.004077 -0.002529 0.009600 0.060077 -0.005737 0.013774
# 5 -0.024050 0.017760 -0.013683 -0.005737 0.071485 0.006313
# 6 -0.011667 -0.000586 -0.002919 0.013774 0.006313 0.056148
#
#
# Mechanical properties :
#
#
# Convention : Reuss Voigt Hill
#
# Bulk Modulus (GPa) = 34.63602 51.18996 42.91299
# Shear Modulus (GPa) = 16.95747 25.82507 21.39127
#
# Velocity S-wave (km/s) = 2.92548 3.61025 3.28575
# Velocity P-wave (km/s) = 5.37513 6.57374 6.00442
#
# Compressibility (1/GPa) = 0.02887168
#
# Stress axis : x y z
#
# Youngs Moduli (GPa) = 42.59939 42.52533 61.70298
#
# Poissons Ratio (x) = 0.57335 -0.30409
# Poissons Ratio (y) = 0.57435 0.53115
# Poissons Ratio (z) = -0.20994 0.36607
#
# Static dielectric constant tensor:
#      x y z
#    x 1.692790 0.033730 -0.009700 
#    y 0.033730 1.712170 0.020860 
#    z -0.009700 0.020860 1.714280 
# 
# From -- ./inp_files/428784.got.cif
#   From: 2010.05.17/outbox.cif.g08.bks.cpg/sg2_215_cif.got.tgz:428784.got - 2010.06.03 11:33:40.
