data_PCOD9002874
_publ_section_title
;
Structure prediction by ZEFSAII (Michael W. Deem and Ramdas Pophale) SiO2 
 PCOD9002874
Probable space group: P -1
;
_chemical_formula_sum "Si O2"
_cell_formula_units_Z 16
_cell_length_a 10.673425
_cell_length_b 14.194570
_cell_length_c 13.180521
_cell_angle_alpha 31.743836
_cell_angle_beta 58.974771
_cell_angle_gamma 80.225953
_cell_volume 723.177431
_symmetry_space_group_name_H-M "P -1"
_symmetry_group_IT_number 2
_symmetry_cell_setting 'triclinic'
loop_
_space_group_symop_operation_xyz
x,y,z
-x,-y,-z
loop_
_atom_site_type_symbol
_atom_site_label
_atom_site_fract_x
_atom_site_fract_y
_atom_site_fract_z
Si Si1 0.809863 0.756713 0.587800
Si Si2 0.205976 0.543712 0.971944
Si Si3 0.410598 0.198336 0.532076
Si Si4 0.231385 0.366710 0.791577
Si Si5 0.564246 0.797015 0.246782
Si Si6 0.963452 0.203988 0.221390
Si Si7 0.090131 0.767431 0.327693
Si Si8 0.931654 0.256531 0.871375
O O1 0.681561 0.730908 0.573393
O O2 0.999315 0.829670 0.391239
O O3 0.843397 0.943198 0.483194
O O4 0.739507 0.532558 0.883417
O O5 0.385242 0.689295 0.693502
O O6 0.132458 0.690921 0.882845
O O7 0.033633 0.312628 0.203743
O O8 0.408253 0.249581 0.605218
O O9 0.275485 0.927958 0.839118
O O10 0.347812 0.631428 0.479793
O O11 0.356551 0.291374 0.782338
O O12 0.059738 0.237976 0.907770
O O13 0.152580 0.308621 0.988977
O O14 0.690203 0.059175 0.930867
O O15 0.038056 0.784945 0.218519
O O16 0.999713 0.509023 0.617810
#
# Coordination Sequence:
#
# PCOD9002874 Si02
#       8
#     2   2   2   2   2   2   2   2
#     4  12  23  41  68  95 126 169 213 260 315 379
#     4  11  26  44  65  93 128 169 218 257 315 372
#     4  11  22  41  63  95 128 167 207 261 318 375
#     4  11  19  38  62  93 117 167 207 252 328 367
#     4  10  21  36  67  90 126 158 209 264 310 386
#     4  11  23  45  67  90 128 171 209 268 311 373
#     4  10  21  39  60  97 127 161 211 262 313 380
#     4  10  21  38  64  91 132 166 204 260 322 377
#
# _framework density 22.124585
#
# number of rings (size 3 to 8) (size 9 to 14) (size 15 to 20)
#    0.000    1.250    3.750    2.250    0.000    3.000 
#    2.250    0.000    0.000    0.000    0.000    0.000 
#    0.000    0.000    0.000    0.000    0.000    0.000 
#
# Total GULP energy -89255.791084 kJ/mol
# GULP energy per Si atom -5578.486943 kJ/mol
# Density = 2.207423 g / cm^3
# Si number density = 22.124585 Si / 1000 Ang^3
#
#
#
# Elastic Constant Matrix: (Units=GPa)
#
#
# Indices 1 2 3 4 5 6 
#
# 1 43.2294 9.1742 21.2310 -9.2809 9.2438 6.2891
# 2 9.1742 62.1371 18.7182 -2.5188 8.0722 -2.5009
# 3 21.2310 18.7182 102.1617 -4.7853 2.8218 1.5331
# 4 -9.2809 -2.5188 -4.7853 25.4234 -0.5579 -3.3068
# 5 9.2438 8.0722 2.8218 -0.5579 39.9629 -0.9851
# 6 6.2891 -2.5009 1.5331 -3.3068 -0.9851 13.3989
#
#
#
# Elastic Compliance Matrix: (Units=1/GPa)
#
#
# Indices 1 2 3 4 5 6 
#
# 1 0.031335 -0.002351 -0.005312 0.008376 -0.006601 -0.012957
# 2 -0.002351 0.017851 -0.002733 0.000958 -0.002738 0.004783
# 3 -0.005312 -0.002733 0.011356 0.000050 0.000999 0.000769
# 4 0.008376 0.000958 0.000050 0.043356 -0.001360 0.006842
# 5 -0.006601 -0.002738 0.000999 -0.001360 0.027115 0.004131
# 6 -0.012957 0.004783 0.000769 0.006842 0.004131 0.083512
#
#
# Mechanical properties :
#
#
# Convention : Reuss Voigt Hill
#
# Bulk Modulus (GPa) = 25.15748 33.97497 29.56623
# Shear Modulus (GPa) = 20.11529 26.31736 23.21633
#
# Velocity S-wave (km/s) = 3.01854 3.45267 3.24287
# Velocity P-wave (km/s) = 4.85224 5.59322 5.23585
#
# Compressibility (1/GPa) = 0.03974960
#
# Stress axis : x y z
#
# Youngs Moduli (GPa) = 31.91344 56.01951 88.05627
#
# Poissons Ratio (x) = 0.13168 0.46777
# Poissons Ratio (y) = 0.07502 0.24070
# Poissons Ratio (z) = 0.16953 0.15313
#
# Static dielectric constant tensor:
#      x y z
#    x 1.822190 0.038080 -0.008750 
#    y 0.038080 1.829020 -0.034680 
#    z -0.008750 -0.034680 1.867740 
# 
# From -- ./inp_files/474793.got.cif
#   From: 2010.05.17/outbox.cif.g08.bks.cpg/sg2_238_cif.got.tgz:474793.got - 2010.06.03 11:33:40.
