data_PCOD9002933
_publ_section_title
;
Structure prediction by ZEFSAII (Michael W. Deem and Ramdas Pophale) SiO2 
 PCOD9002933
Probable space group: P -1
;
_chemical_formula_sum "Si O2"
_cell_formula_units_Z 10
_cell_length_a 9.259090
_cell_length_b 18.214010
_cell_length_c 6.407471
_cell_angle_alpha 121.109365
_cell_angle_beta 80.646885
_cell_angle_gamma 144.940260
_cell_volume 450.843653
_symmetry_space_group_name_H-M "P -1"
_symmetry_group_IT_number 2
_symmetry_cell_setting 'triclinic'
loop_
_space_group_symop_operation_xyz
x,y,z
-x,-y,-z
loop_
_atom_site_type_symbol
_atom_site_label
_atom_site_fract_x
_atom_site_fract_y
_atom_site_fract_z
Si Si1 0.956101 0.037939 0.799956
Si Si2 0.493115 0.740568 0.746420
Si Si3 0.391269 0.503632 0.338275
Si Si4 0.045114 0.213618 0.687868
Si Si5 0.615848 0.983875 0.094238
O O1 0.251092 0.144498 0.972011
O O2 0.987920 0.096392 0.655074
O O3 0.663299 0.834091 0.620105
O O4 0.888734 0.080143 0.043004
O O5 0.317409 0.562447 0.519440
O O6 0.396210 0.789412 0.881160
O O7 0.500000 0.500000 0.500000
O O8 0.669369 0.647487 0.324372
O O9 0.126889 0.325545 0.007841
O O10 0.759018 0.086871 0.427792
O O11 0.500000 0.000000 0.000000
#
# Coordination Sequence:
#
# PCOD9002933 Si02
#       5
#     2   2   2   2   2
#     4   9  18  36  57  83 108 134 195 227 264 316
#     4   9  18  37  55  82 115 133 181 244 258 313
#     4  11  20  35  53  90 115 133 178 239 277 317
#     4  11  20  33  62  81 109 150 178 221 288 318
#     4  10  21  37  54  81 114 146 183 226 265 322
#
# _framework density 22.18064
#
# number of rings (size 3 to 8) (size 9 to 14) (size 15 to 20)
#    1.200    0.800    4.000    0.000    0.000    4.000 
#    0.000    1.000    0.000    4.800    0.000    0.000 
#    0.000    0.000    0.000    0.000    0.000    0.000 
#
# Total GULP energy -55705.436970 kJ/mol
# GULP energy per Si atom -5570.543697 kJ/mol
# Density = 2.213016 g / cm^3
# Si number density = 22.180640 Si / 1000 Ang^3
#
#
#
# Elastic Constant Matrix: (Units=GPa)
#
#
# Indices 1 2 3 4 5 6 
#
# 1 142.6971 25.7506 71.2142 16.6742 7.9007 -47.3513
# 2 25.7506 74.8696 31.1928 -5.0151 14.4310 -30.2715
# 3 71.2142 31.1928 148.7809 13.3778 -1.1161 -28.2431
# 4 16.6742 -5.0151 13.3778 31.4940 -17.4614 -3.6130
# 5 7.9007 14.4310 -1.1161 -17.4614 35.4786 -6.3176
# 6 -47.3513 -30.2715 -28.2431 -3.6130 -6.3176 43.6424
#
#
#
# Elastic Compliance Matrix: (Units=1/GPa)
#
#
# Indices 1 2 3 4 5 6 
#
# 1 0.014058 0.002843 -0.004275 -0.006631 -0.005346 0.013135
# 2 0.002843 0.020915 -0.003114 0.001652 -0.005776 0.014878
# 3 -0.004275 -0.003114 0.009451 -0.001329 0.001766 -0.000536
# 4 -0.006631 0.001652 -0.001329 0.050512 0.025803 0.001008
# 5 -0.005346 -0.005776 0.001766 0.025803 0.044465 -0.000092
# 6 0.013135 0.014878 -0.000536 0.001008 -0.000092 0.047208
#
#
# Mechanical properties :
#
#
# Convention : Reuss Voigt Hill
#
# Bulk Modulus (GPa) = 28.30175 69.18476 48.74326
# Shear Modulus (GPa) = 24.09888 38.00236 31.05062
#
# Velocity S-wave (km/s) = 3.29976 4.14371 3.74558
# Velocity P-wave (km/s) = 5.22544 7.35887 6.38194
#
# Compressibility (1/GPa) = 0.03533350
#
# Stress axis : x y z
#
# Youngs Moduli (GPa) = 71.13416 47.81173 105.80379
#
# Poissons Ratio (x) = -0.13594 0.45235
# Poissons Ratio (y) = -0.20226 0.32943
# Poissons Ratio (z) = 0.30412 0.14886
#
# Static dielectric constant tensor:
#      x y z
#    x 1.850020 -0.001370 -0.090910 
#    y -0.001370 1.878390 0.018740 
#    z -0.090910 0.018740 1.874270 
# 
# From -- ./inp_files/48972.got.cif
#   From: 2010.05.17/outbox.cif.g08.bks.cpg/sg2_25_cif.got.tgz:48972.got - 2010.06.03 11:33:40.
