data_PCOD9002799
_publ_section_title
;
Structure prediction by ZEFSAII (Michael W. Deem and Ramdas Pophale) SiO2 
 PCOD9002799
Probable space group: P -1
;
_chemical_formula_sum "Si O2"
_cell_formula_units_Z 14
_cell_length_a 11.404272
_cell_length_b 5.787707
_cell_length_c 18.547789
_cell_angle_alpha 62.711966
_cell_angle_beta 148.627876
_cell_angle_gamma 117.858807
_cell_volume 558.740320
_symmetry_space_group_name_H-M "P -1"
_symmetry_group_IT_number 2
_symmetry_cell_setting 'triclinic'
loop_
_space_group_symop_operation_xyz
x,y,z
-x,-y,-z
loop_
_atom_site_type_symbol
_atom_site_label
_atom_site_fract_x
_atom_site_fract_y
_atom_site_fract_z
Si Si1 0.722678 0.445116 0.924828
Si Si2 0.023842 0.631385 0.261775
Si Si3 0.933749 0.913518 0.598299
Si Si4 0.886623 0.876271 0.841334
Si Si5 0.618503 0.216774 0.459364
Si Si6 0.292720 0.279096 0.645013
Si Si7 0.570676 0.707492 0.073218
O O1 0.823058 0.731744 0.904724
O O2 0.558953 0.281065 0.801234
O O3 0.551443 0.447513 0.900478
O O4 0.923173 0.279664 0.068635
O O5 0.956102 0.318816 0.273376
O O6 0.270168 0.670440 0.424223
O O7 0.844846 0.741488 0.204953
O O8 0.034622 0.809911 0.170713
O O9 0.803219 0.841359 0.463780
O O10 0.734417 0.968222 0.538165
O O11 0.139172 0.138221 0.648224
O O12 0.650639 0.818431 0.681448
O O13 0.714370 0.413386 0.415783
O O14 0.500000 0.500000 0.000000
O O15 0.500000 0.000000 0.000000
#
# Coordination Sequence:
#
# PCOD9002799 Si02
#       7
#     2   2   2   2   2   2   2
#     4  10  22  46  74  97 146 188 247 306 368 444
#     4  11  24  41  70 103 142 192 237 309 366 439
#     4  10  21  36  65 102 141 183 239 300 366 435
#     4  10  22  43  69 102 144 198 241 302 368 446
#     4  10  21  40  66  95 145 189 242 295 363 439
#     4   9  20  39  64 101 136 186 239 300 371 427
#     4  12  28  50  78 111 149 192 251 312 374 443
#
# _framework density 25.056363000000001
#
# number of rings (size 3 to 8) (size 9 to 14) (size 15 to 20)
#    0.000    1.714    1.429    1.714    4.000    6.286 
#    0.000    7.143    0.000    0.000    0.000    0.000 
#    0.000    0.000    0.000    0.000    0.000    0.000 
#
# Total GULP energy -78203.286573 kJ/mol
# GULP energy per Si atom -5585.949041 kJ/mol
# Density = 2.499933 g / cm^3
# Si number density = 25.056363 Si / 1000 Ang^3
#
#
#
# Elastic Constant Matrix: (Units=GPa)
#
#
# Indices 1 2 3 4 5 6 
#
# 1 95.3447 55.5181 36.5120 -3.8181 -9.1849 39.7772
# 2 55.5181 111.2608 50.9416 -22.4202 -7.1590 33.6741
# 3 36.5120 50.9416 127.4150 -8.3403 27.9521 8.8409
# 4 -3.8181 -22.4202 -8.3403 37.7558 4.2528 -9.2038
# 5 -9.1849 -7.1590 27.9521 4.2528 36.8006 -6.1574
# 6 39.7772 33.6741 8.8409 -9.2038 -6.1574 52.3977
#
#
#
# Elastic Compliance Matrix: (Units=1/GPa)
#
#
# Indices 1 2 3 4 5 6 
#
# 1 0.020713 -0.005330 -0.004782 -0.005716 0.006462 -0.011736
# 2 -0.005330 0.017241 -0.005676 0.006852 0.004823 -0.004306
# 3 -0.004782 -0.005676 0.014091 0.001576 -0.012563 0.003701
# 4 -0.005716 0.006852 0.001576 0.031964 -0.004182 0.004793
# 5 0.006462 0.004823 -0.012563 -0.004182 0.039418 -0.001988
# 6 -0.011736 -0.004306 0.003701 0.004793 -0.001988 0.030745
#
#
# Mechanical properties :
#
#
# Convention : Reuss Voigt Hill
#
# Bulk Modulus (GPa) = 48.85733 68.88488 58.87110
# Shear Modulus (GPa) = 25.96448 38.12742 32.04595
#
# Velocity S-wave (km/s) = 3.22256 3.90509 3.58013
# Velocity P-wave (km/s) = 5.77822 6.91987 6.37465
#
# Compressibility (1/GPa) = 0.02046776
#
# Stress axis : x y z
#
# Youngs Moduli (GPa) = 48.27872 58.00210 70.96976
#
# Poissons Ratio (x) = 0.30915 0.33937
# Poissons Ratio (y) = 0.25733 0.40285
# Poissons Ratio (z) = 0.23086 0.32924
#
# Static dielectric constant tensor:
#      x y z
#    x 1.922110 0.023980 -0.041180 
#    y 0.023980 2.082800 0.047440 
#    z -0.041180 0.047440 2.015650 
# 
# From -- ./inp_files/592710.got.cif
#   From: 2010.05.17/outbox.cif.g08.bks.cpg/sg2_297_cif.got.tgz:592710.got - 2010.06.03 11:33:40.
