data_PCOD9002273
_publ_section_title
;
Structure prediction by ZEFSAII (Michael W. Deem and Ramdas Pophale) SiO2 
 PCOD9002273
Probable space group: P -1
;
_chemical_formula_sum "Si O2"
_cell_formula_units_Z 16
_cell_length_a 12.174404
_cell_length_b 8.351043
_cell_length_c 12.035875
_cell_angle_alpha 48.727373
_cell_angle_beta 101.907509
_cell_angle_gamma 122.108104
_cell_volume 758.749572
_symmetry_space_group_name_H-M "P -1"
_symmetry_group_IT_number 2
_symmetry_cell_setting 'triclinic'
loop_
_space_group_symop_operation_xyz
x,y,z
-x,-y,-z
loop_
_atom_site_type_symbol
_atom_site_label
_atom_site_fract_x
_atom_site_fract_y
_atom_site_fract_z
Si Si1 0.108710 0.443550 0.089499
Si Si2 0.178564 0.518371 0.311046
Si Si3 0.320945 0.028507 0.484989
Si Si4 0.957654 0.223426 0.773513
Si Si5 0.181753 0.358279 0.922382
Si Si6 0.628244 0.423077 0.328792
Si Si7 0.657104 0.660992 0.455545
Si Si8 0.958482 0.087996 0.603396
O O1 0.183696 0.580899 0.154360
O O2 0.037046 0.151719 0.247237
O O3 0.203413 0.496050 0.980512
O O4 0.000000 0.500000 0.000000
O O5 0.156468 0.717667 0.275350
O O6 0.294143 0.485652 0.391673
O O7 0.048033 0.249922 0.444832
O O8 0.467388 0.267855 0.373017
O O9 0.299897 0.080088 0.587246
O O10 0.332055 0.789020 0.567235
O O11 0.194732 0.004520 0.408218
O O12 0.012045 0.265795 0.641401
O O13 0.075921 0.382894 0.813215
O O14 0.892303 0.934345 0.926190
O O15 0.308306 0.437336 0.837513
O O16 0.689211 0.624614 0.351594
O O17 0.500000 0.500000 0.500000
#
# Coordination Sequence:
#
# PCOD9002273 Si02
#       8
#     2   2   2   2   2   2   2   2
#     4  11  23  37  56  89 131 159 200 251 309 384
#     4  12  21  38  64  93 121 161 210 259 313 363
#     4  10  21  38  63  96 121 157 213 265 303 366
#     4  10  21  36  59  88 125 158 204 258 307 377
#     4  10  21  40  56  88 130 168 197 246 325 377
#     4  10  21  40  64  91 124 166 209 260 314 367
#     4  10  22  39  63  92 123 159 211 265 303 361
#     4  11  22  37  62  93 121 157 210 262 311 365
#
# _framework density 21.087325
#
# number of rings (size 3 to 8) (size 9 to 14) (size 15 to 20)
#    0.000    1.500    2.500    3.000    0.000    0.000 
#    2.250    2.500    0.000    4.500    0.000    0.000 
#    0.000    0.000    0.000    0.000    0.000    0.000 
#
# Total GULP energy -89225.957973 kJ/mol
# GULP energy per Si atom -5576.622373 kJ/mol
# Density = 2.103933 g / cm^3
# Si number density = 21.087325 Si / 1000 Ang^3
#
#
#
# Elastic Constant Matrix: (Units=GPa)
#
#
# Indices 1 2 3 4 5 6 
#
# 1 132.0194 33.4735 43.5798 15.0074 7.8004 6.2939
# 2 33.4735 58.6841 29.5508 28.9972 -14.1017 -15.2694
# 3 43.5798 29.5508 90.4532 26.9511 -13.3227 1.1484
# 4 15.0074 28.9972 26.9511 31.3153 -13.0449 -5.8909
# 5 7.8004 -14.1017 -13.3227 -13.0449 41.4194 8.3199
# 6 6.2939 -15.2694 1.1484 -5.8909 8.3199 38.0820
#
#
#
# Elastic Compliance Matrix: (Units=1/GPa)
#
#
# Indices 1 2 3 4 5 6 
#
# 1 0.010971 -0.007401 -0.004335 0.002874 -0.004425 -0.003239
# 2 -0.007401 0.039911 -0.000361 -0.029529 0.003159 0.011979
# 3 -0.004335 -0.000361 0.017187 -0.011555 0.003065 -0.002404
# 4 0.002874 -0.029529 -0.011555 0.070881 0.008591 -0.002879
# 5 -0.004425 0.003159 0.003065 0.008591 0.030429 -0.003413
# 6 -0.003239 0.011979 -0.002404 -0.002879 -0.003413 0.031970
#
#
# Mechanical properties :
#
#
# Convention : Reuss Voigt Hill
#
# Bulk Modulus (GPa) = 22.79210 54.92943 38.86076
# Shear Modulus (GPa) = 20.81861 33.80020 27.30940
#
# Velocity S-wave (km/s) = 3.14547 4.00793 3.60260
# Velocity P-wave (km/s) = 4.90142 6.89370 5.98109
#
# Compressibility (1/GPa) = 0.04387485
#
# Stress axis : x y z
#
# Youngs Moduli (GPa) = 91.14687 25.05562 58.18414
#
# Poissons Ratio (x) = 0.18544 0.25221
# Poissons Ratio (y) = 0.67460 0.02102
# Poissons Ratio (z) = 0.39510 0.00905
#
# Static dielectric constant tensor:
#      x y z
#    x 1.774020 -0.063350 -0.019610 
#    y -0.063350 1.838140 0.024050 
#    z -0.019610 0.024050 1.755730 
# 
# From -- ./inp_files/180222.got.cif
#   From: 2010.05.17/outbox.cif.g08.bks.cpg/sg2_91_cif.got.tgz:180222.got - 2010.06.03 11:33:40.
