data_PCOD9002464
_publ_section_title
;
Structure prediction by ZEFSAII (Michael W. Deem and Ramdas Pophale) SiO2 
 PCOD9002464
Probable space group: P -1
;
_chemical_formula_sum "Si O2"
_cell_formula_units_Z 14
_cell_length_a 15.791839
_cell_length_b 7.368524
_cell_length_c 7.992523
_cell_angle_alpha 60.422816
_cell_angle_beta 91.736607
_cell_angle_gamma 56.364681
_cell_volume 611.323145
_symmetry_space_group_name_H-M "P -1"
_symmetry_group_IT_number 2
_symmetry_cell_setting 'triclinic'
loop_
_space_group_symop_operation_xyz
x,y,z
-x,-y,-z
loop_
_atom_site_type_symbol
_atom_site_label
_atom_site_fract_x
_atom_site_fract_y
_atom_site_fract_z
Si Si1 0.319628 0.752110 0.484128
Si Si2 0.927803 0.915033 0.310523
Si Si3 0.086917 0.977193 0.347349
Si Si4 0.603165 0.836572 0.260423
Si Si5 0.862905 0.429637 0.964203
Si Si6 0.378083 0.049895 0.156779
Si Si7 0.793787 0.772285 0.481917
O O1 0.375313 0.440095 0.658546
O O2 0.200191 0.891409 0.325703
O O3 0.383995 0.812439 0.345798
O O4 0.288665 0.922113 0.575615
O O5 0.899760 0.035000 0.445487
O O6 0.877512 0.766251 0.368341
O O7 0.056733 0.789342 0.373972
O O8 0.870126 0.166420 0.062370
O O9 0.976408 0.281384 0.144877
O O10 0.706638 0.748157 0.415136
O O11 0.478629 0.032848 0.241098
O O12 0.605495 0.968587 0.032329
O O13 0.746281 0.667174 0.939164
O O14 0.862100 0.567518 0.735330
#
# Coordination Sequence:
#
# PCOD9002464 Si02
#       7
#     2   2   2   2   2   2   2
#     4  10  21  40  62  84 115 157 185 239 289 337
#     4   8  16  32  54  88 115 144 183 236 278 335
#     4   8  16  34  60  84 119 146 191 235 281 341
#     4  11  24  41  56  88 119 147 198 243 274 353
#     4   9  18  35  61  87 112 151 195 232 280 349
#     4  10  22  39  61  82 116 157 191 233 299 333
#     4  10  21  36  61  86 115 151 196 232 291 335
#
# _framework density 22.901146000000001
#
# number of rings (size 3 to 8) (size 9 to 14) (size 15 to 20)
#    0.857    1.714    0.000    2.143    0.000    8.571 
#    0.000    7.857    0.000    0.000    0.000    0.000 
#    0.000    0.000    0.000    0.000    0.000    0.000 
#
# Total GULP energy -78030.859702 kJ/mol
# GULP energy per Si atom -5573.632836 kJ/mol
# Density = 2.284902 g / cm^3
# Si number density = 22.901146 Si / 1000 Ang^3
#
#
#
# Elastic Constant Matrix: (Units=GPa)
#
#
# Indices 1 2 3 4 5 6 
#
# 1 144.6801 11.3874 22.0760 -5.7052 -12.6768 -10.0607
# 2 11.3874 40.6218 -4.2595 -7.3783 4.1215 0.0335
# 3 22.0760 -4.2595 47.7467 -14.9099 2.8468 -0.4422
# 4 -5.7052 -7.3783 -14.9099 18.8395 -6.1309 0.1056
# 5 -12.6768 4.1215 2.8468 -6.1309 36.6605 -7.1608
# 6 -10.0607 0.0335 -0.4422 0.1056 -7.1608 33.3391
#
#
#
# Elastic Compliance Matrix: (Units=1/GPa)
#
#
# Indices 1 2 3 4 5 6 
#
# 1 0.008482 -0.003559 -0.004878 -0.001355 0.004148 0.003394
# 2 -0.003559 0.030184 0.010049 0.017814 -0.002741 -0.001616
# 3 -0.004878 0.010049 0.032961 0.028255 -0.000911 -0.001330
# 4 -0.001355 0.017814 0.028255 0.085233 0.009943 0.001814
# 5 0.004148 -0.002741 -0.000911 0.009943 0.032347 0.008159
# 6 0.003394 -0.001616 -0.001330 0.001814 0.008159 0.032750
#
#
# Mechanical properties :
#
#
# Convention : Reuss Voigt Hill
#
# Bulk Modulus (GPa) = 13.35989 32.38407 22.87198
# Shear Modulus (GPa) = 20.51837 31.35747 25.93792
#
# Velocity S-wave (km/s) = 2.99650 3.70436 3.36907
# Velocity P-wave (km/s) = 4.22118 5.69806 5.01429
#
# Compressibility (1/GPa) = 0.07485090
#
# Stress axis : x y z
#
# Youngs Moduli (GPa) = 117.89178 33.13039 30.33863
#
# Poissons Ratio (x) = 0.11792 0.14801
# Poissons Ratio (y) = 0.41960 -0.30489
# Poissons Ratio (z) = 0.57513 -0.33294
#
# Static dielectric constant tensor:
#      x y z
#    x 1.915940 -0.007790 -0.013220 
#    y -0.007790 1.950710 -0.034150 
#    z -0.013220 -0.034150 1.826710 
# 
# From -- ./inp_files/294105.got.cif
#   From: 2010.05.17/outbox.cif.g08.bks.cpg/sg2_148_cif.got.tgz:294105.got - 2010.06.03 11:33:40.
