data_PCOD9002065
_publ_section_title
;
Structure prediction by ZEFSAII (Michael W. Deem and Ramdas Pophale) SiO2 
 PCOD9002065
Probable space group: P -1
;
_chemical_formula_sum "Si O2"
_cell_formula_units_Z 16
_cell_length_a 8.874105
_cell_length_b 17.886578
_cell_length_c 22.357324
_cell_angle_alpha 23.563977
_cell_angle_beta 144.042223
_cell_angle_gamma 151.691483
_cell_volume 672.709367
_symmetry_space_group_name_H-M "P -1"
_symmetry_group_IT_number 2
_symmetry_cell_setting 'triclinic'
loop_
_space_group_symop_operation_xyz
x,y,z
-x,-y,-z
loop_
_atom_site_type_symbol
_atom_site_label
_atom_site_fract_x
_atom_site_fract_y
_atom_site_fract_z
Si Si1 0.926868 0.804879 0.166434
Si Si2 0.218384 0.595019 0.754289
Si Si3 0.097093 0.990310 0.633657
Si Si4 0.971422 0.821573 0.842435
Si Si5 0.311725 0.753898 0.413087
Si Si6 0.977399 0.893727 0.924856
Si Si7 0.637624 0.285671 0.413717
Si Si8 0.781648 0.336033 0.161067
O O1 0.723975 0.541717 0.269639
O O2 0.247967 0.853385 0.261596
O O3 0.822066 0.875151 0.140524
O O4 0.000000 0.000000 0.000000
O O5 0.596742 0.711952 0.795178
O O6 0.188793 0.684679 0.614911
O O7 0.143189 0.648173 0.755820
O O8 0.028595 0.317177 0.894920
O O9 0.132714 0.810215 0.741020
O O10 0.152321 0.987321 0.723712
O O11 0.736661 0.894870 0.582378
O O12 0.369375 0.221784 0.517212
O O13 0.084852 0.931810 0.863100
O O14 0.971685 0.596435 0.006307
O O15 0.305003 0.815554 0.434855
O O16 0.000000 0.500000 0.500000
O O17 0.595965 0.779074 0.883872
#
# Coordination Sequence:
#
# PCOD9002065 Si02
#       8
#     2   2   2   2   2   2   2   2
#     4  11  20  34  61  86 110 148 196 227 265 334
#     4   8  15  30  51  82 115 147 181 224 275 328
#     4  11  19  34  59  82 110 148 189 229 276 335
#     4   8  17  27  51  85 119 142 174 234 289 313
#     4  10  23  39  57  81 111 150 188 230 280 339
#     4   9  15  31  52  82 116 148 181 226 273 329
#     4  10  21  36  57  84 118 149 181 230 282 325
#     4   9  16  28  54  87 115 140 185 231 271 327
#
# _framework density 23.784419
#
# number of rings (size 3 to 8) (size 9 to 14) (size 15 to 20)
#    0.000    2.500    2.500    2.250    0.000    1.000 
#    0.000    0.625    8.250    3.750    0.000    0.000 
#    0.000    0.000    0.000    0.000    0.000    0.000 
#
# Total GULP energy -89203.877157 kJ/mol
# GULP energy per Si atom -5575.242322 kJ/mol
# Density = 2.373028 g / cm^3
# Si number density = 23.784419 Si / 1000 Ang^3
#
#
#
# Elastic Constant Matrix: (Units=GPa)
#
#
# Indices 1 2 3 4 5 6 
#
# 1 52.1083 5.6093 12.0496 4.9588 -19.8871 -19.1123
# 2 5.6093 58.5896 21.1303 -10.8214 -10.2093 -15.9642
# 3 12.0496 21.1303 92.9890 11.1619 -21.6990 -5.7968
# 4 4.9588 -10.8214 11.1619 33.9932 -16.3338 1.2464
# 5 -19.8871 -10.2093 -21.6990 -16.3338 37.8123 5.1881
# 6 -19.1123 -15.9642 -5.7968 1.2464 5.1881 21.4740
#
#
#
# Elastic Compliance Matrix: (Units=1/GPa)
#
#
# Indices 1 2 3 4 5 6 
#
# 1 0.039795 0.012327 -0.001466 0.007435 0.021332 0.038602
# 2 0.012327 0.030974 -0.005342 0.015898 0.014799 0.028058
# 3 -0.001466 -0.005342 0.013440 -0.003794 0.004195 -0.002441
# 4 0.007435 0.015898 -0.003794 0.046236 0.024799 0.008737
# 5 0.021332 0.014799 0.004195 0.024799 0.052448 0.017010
# 6 0.038602 0.028058 -0.002441 0.008737 0.017010 0.096508
#
#
# Mechanical properties :
#
#
# Convention : Reuss Voigt Hill
#
# Bulk Modulus (GPa) = 10.49888 31.25168 20.87528
# Shear Modulus (GPa) = 16.66048 29.64908 23.15478
#
# Velocity S-wave (km/s) = 2.64953 3.53452 3.12352
# Velocity P-wave (km/s) = 3.71265 5.46124 4.66953
#
# Compressibility (1/GPa) = 0.09524826
#
# Stress axis : x y z
#
# Youngs Moduli (GPa) = 25.12875 32.28467 74.40478
#
# Poissons Ratio (x) = -0.39798 0.10909
# Poissons Ratio (y) = -0.30977 0.39745
# Poissons Ratio (z) = 0.03684 0.17246
#
# Static dielectric constant tensor:
#      x y z
#    x 1.920570 0.000550 0.018630 
#    y 0.000550 1.964350 -0.022800 
#    z 0.018630 -0.022800 2.018270 
# 
# From -- ./inp_files/270374.got.cif
#   From: 2010.05.17/outbox.cif.g08.bks.cpg/sg2_136_cif.got.tgz:270374.got - 2010.06.03 11:33:40.
