data_PCOD9002691
_publ_section_title
;
Structure prediction by ZEFSAII (Michael W. Deem and Ramdas Pophale) SiO2 
 PCOD9002691
Probable space group: P -1
;
_chemical_formula_sum "Si O2"
_cell_formula_units_Z 16
_cell_length_a 14.374408
_cell_length_b 7.493828
_cell_length_c 15.103361
_cell_angle_alpha 54.297302
_cell_angle_beta 148.701793
_cell_angle_gamma 108.026732
_cell_volume 613.436935
_symmetry_space_group_name_H-M "P -1"
_symmetry_group_IT_number 2
_symmetry_cell_setting 'triclinic'
loop_
_space_group_symop_operation_xyz
x,y,z
-x,-y,-z
loop_
_atom_site_type_symbol
_atom_site_label
_atom_site_fract_x
_atom_site_fract_y
_atom_site_fract_z
Si Si1 0.986180 0.842618 0.366732
Si Si2 0.473121 0.158874 0.161903
Si Si3 0.279045 0.130102 0.399802
Si Si4 0.330189 0.622023 0.032075
Si Si5 0.873879 0.951055 0.048043
Si Si6 0.340184 0.349352 0.814493
Si Si7 0.888801 0.366084 0.825615
Si Si8 0.556571 0.305681 0.470440
O O1 0.999076 0.825579 0.274537
O O2 0.821523 0.756478 0.292801
O O3 0.199255 0.640012 0.633736
O O4 0.878015 0.133872 0.212118
O O5 0.347041 0.420744 0.031650
O O6 0.664033 0.013479 0.419984
O O7 0.343398 0.008861 0.109312
O O8 0.483074 0.216615 0.051637
O O9 0.100837 0.394061 0.199787
O O10 0.449591 0.207039 0.482421
O O11 0.293463 0.935345 0.393443
O O12 0.515810 0.682235 0.141151
O O13 0.392936 0.483251 0.216900
O O14 0.939059 0.781959 0.062327
O O15 0.880811 0.195325 0.948049
O O16 0.687733 0.420004 0.590437
#
# Coordination Sequence:
#
# PCOD9002691 Si02
#       8
#     2   2   2   2   2   2   2   2
#     4  10  22  41  62  88 124 156 204 265 301 358
#     4  10  22  41  58  87 127 150 208 256 295 377
#     4  10  21  38  61  92 120 161 203 252 307 367
#     4  11  22  39  64  91 118 167 199 255 317 357
#     4  10  22  40  56  91 123 154 208 251 300 377
#     4  10  22  41  61  88 122 158 211 252 300 380
#     4  11  21  38  64  87 125 170 196 251 318 363
#     4  10  21  36  63  93 123 152 214 248 297 389
#
# _framework density 26.082550000000001
#
# number of rings (size 3 to 8) (size 9 to 14) (size 15 to 20)
#    0.000    1.750    1.250    2.625    3.500    0.500 
#   13.500    1.250    0.000    0.000    0.000    0.000 
#    0.000    0.000    0.000    0.000    0.000    0.000 
#
# Total GULP energy -89619.969813 kJ/mol
# GULP energy per Si atom -5601.248113 kJ/mol
# Density = 2.602318 g / cm^3
# Si number density = 26.082550 Si / 1000 Ang^3
#
#
#
# Elastic Constant Matrix: (Units=GPa)
#
#
# Indices 1 2 3 4 5 6 
#
# 1 107.7201 23.8379 29.9840 -12.0453 -7.5508 13.8791
# 2 23.8379 92.5807 31.1597 -29.6362 8.2074 -13.3941
# 3 29.9840 31.1597 111.1636 -24.5913 -13.7331 -15.0850
# 4 -12.0453 -29.6362 -24.5913 50.5123 -5.5790 5.0234
# 5 -7.5508 8.2074 -13.7331 -5.5790 40.9675 -6.9860
# 6 13.8791 -13.3941 -15.0850 5.0234 -6.9860 42.2478
#
#
#
# Elastic Compliance Matrix: (Units=1/GPa)
#
#
# Indices 1 2 3 4 5 6 
#
# 1 0.011524 -0.002751 -0.002923 0.000356 0.000786 -0.005614
# 2 -0.002751 0.015012 -0.001804 0.006611 -0.002570 0.003808
# 3 -0.002923 -0.001804 0.012703 0.004519 0.005602 0.005313
# 4 0.000356 0.006611 0.004519 0.026293 0.004030 0.001133
# 5 0.000786 -0.002570 0.005602 0.004030 0.028373 0.005140
# 6 -0.005614 0.003808 0.005313 0.001133 0.005140 0.029334
#
#
# Mechanical properties :
#
#
# Convention : Reuss Voigt Hill
#
# Bulk Modulus (GPa) = 41.18368 53.49195 47.33782
# Shear Modulus (GPa) = 34.17885 41.84437 38.01161
#
# Velocity S-wave (km/s) = 3.62389 4.00972 3.82168
# Velocity P-wave (km/s) = 5.77357 6.48000 6.13696
#
# Compressibility (1/GPa) = 0.02428146
#
# Stress axis : x y z
#
# Youngs Moduli (GPa) = 86.77444 66.61342 78.72384
#
# Poissons Ratio (x) = 0.18329 0.23012
# Poissons Ratio (y) = 0.23876 0.14202
# Poissons Ratio (z) = 0.25365 0.12017
#
# Static dielectric constant tensor:
#      x y z
#    x 2.002390 0.029470 0.063690 
#    y 0.029470 2.082910 -0.007980 
#    z 0.063690 -0.007980 2.050340 
# 
# From -- ./inp_files/418598.got.cif
#   From: 2010.05.17/outbox.cif.g08.bks.cpg/sg2_210_cif.got.tgz:418598.got - 2010.06.03 11:33:40.
