data_PCOD9002433
_publ_section_title
;
Structure prediction by ZEFSAII (Michael W. Deem and Ramdas Pophale) SiO2 
 PCOD9002433
Probable space group: P -1
;
_chemical_formula_sum "Si O2"
_cell_formula_units_Z 14
_cell_length_a 5.208161
_cell_length_b 23.002014
_cell_length_c 20.594777
_cell_angle_alpha 168.211832
_cell_angle_beta 97.641172
_cell_angle_gamma 82.177805
_cell_volume 499.347021
_symmetry_space_group_name_H-M "P -1"
_symmetry_group_IT_number 2
_symmetry_cell_setting 'triclinic'
loop_
_space_group_symop_operation_xyz
x,y,z
-x,-y,-z
loop_
_atom_site_type_symbol
_atom_site_label
_atom_site_fract_x
_atom_site_fract_y
_atom_site_fract_z
Si Si1 0.703075 0.226438 0.839248
Si Si2 0.080181 0.244192 0.147783
Si Si3 0.014881 0.239998 0.591547
Si Si4 0.279759 0.794467 0.743561
Si Si5 0.615876 0.486149 0.308639
Si Si6 0.587053 0.071928 0.299353
Si Si7 0.703604 0.232874 0.700472
O O1 0.797176 0.153134 0.688761
O O2 0.439759 0.050419 0.640087
O O3 0.885607 0.078831 0.737764
O O4 0.750549 0.563019 0.207496
O O5 0.210767 0.523408 0.487992
O O6 0.846506 0.378061 0.244489
O O7 0.045551 0.000223 0.933774
O O8 0.263470 0.082882 0.924939
O O9 0.791511 0.245125 0.536232
O O10 0.892013 0.329122 0.754621
O O11 0.403475 0.628923 0.505108
O O12 0.500000 0.000000 0.000000
O O13 0.641263 0.727521 0.519233
O O14 0.512287 0.196911 0.958472
O O15 0.500000 0.500000 0.000000
#
# Coordination Sequence:
#
# PCOD9002433 Si02
#       7
#     2   2   2   2   2   2   2
#     4  11  25  42  65  91 124 163 201 259 329 386
#     4  10  21  39  62  85 124 168 199 254 315 360
#     4  12  25  42  66  90 125 165 208 264 322 379
#     4  10  21  36  60  94 125 158 208 254 303 375
#     4  10  21  41  61  85 128 164 204 263 309 364
#     4  10  23  42  59  90 120 161 216 257 308 378
#     4  11  25  43  64  94 126 158 208 260 323 393
#
# _framework density 28.036618000000001
#
# number of rings (size 3 to 8) (size 9 to 14) (size 15 to 20)
#    0.000    1.429    1.429    3.000    4.000    2.286 
#    2.571    0.000    0.000    0.000    0.000    0.000 
#    0.000    0.000    0.000    0.000    0.000    0.000 
#
# Total GULP energy -78362.880592 kJ/mol
# GULP energy per Si atom -5597.348614 kJ/mol
# Density = 2.797281 g / cm^3
# Si number density = 28.036618 Si / 1000 Ang^3
#
#
#
# Elastic Constant Matrix: (Units=GPa)
#
#
# Indices 1 2 3 4 5 6 
#
# 1 72.6107 28.6252 38.5454 14.9576 1.7630 7.1524
# 2 28.6252 120.8442 72.5659 21.6626 -6.1077 -18.0479
# 3 38.5454 72.5659 154.0793 36.0034 24.9395 0.6554
# 4 14.9576 21.6626 36.0034 56.3237 -9.5837 -10.0955
# 5 1.7630 -6.1077 24.9395 -9.5837 53.6982 -8.1662
# 6 7.1524 -18.0479 0.6554 -10.0955 -8.1662 59.8416
#
#
#
# Elastic Compliance Matrix: (Units=1/GPa)
#
#
# Indices 1 2 3 4 5 6 
#
# 1 0.016939 -0.002823 -0.002066 -0.002877 -0.000959 -0.003470
# 2 -0.002823 0.014415 -0.007747 0.002385 0.006681 0.006084
# 3 -0.002066 -0.007747 0.014078 -0.007966 -0.009517 -0.004886
# 4 -0.002877 0.002385 -0.007966 0.025551 0.009657 0.006779
# 5 -0.000959 0.006681 -0.009517 0.009657 0.026699 0.007506
# 6 -0.003470 0.006084 -0.004886 0.006779 0.007506 0.021182
#
#
# Mechanical properties :
#
#
# Convention : Reuss Voigt Hill
#
# Bulk Modulus (GPa) = 49.60259 69.66745 59.63502
# Shear Modulus (GPa) = 33.14404 47.82590 40.48497
#
# Velocity S-wave (km/s) = 3.44200 4.13466 3.80413
# Velocity P-wave (km/s) = 5.79025 6.90627 6.37274
#
# Compressibility (1/GPa) = 0.02016024
#
# Stress axis : x y z
#
# Youngs Moduli (GPa) = 59.03409 69.37366 71.03156
#
# Poissons Ratio (x) = 0.19583 0.14674
# Poissons Ratio (y) = 0.16665 0.55030
# Poissons Ratio (z) = 0.12196 0.53746
#
# Static dielectric constant tensor:
#      x y z
#    x 2.244210 -0.010460 0.018610 
#    y -0.010460 2.188070 -0.026670 
#    z 0.018610 -0.026670 2.170020 
# 
# From -- ./inp_files/605289.got.cif
#   From: 2010.05.17/outbox.cif.g08.bks.cpg/sg2_303_cif.got.tgz:605289.got - 2010.06.03 11:33:40.
