data_PCOD9002611
_publ_section_title
;
Structure prediction by ZEFSAII (Michael W. Deem and Ramdas Pophale) SiO2 
 PCOD9002611
Probable space group: P -1
;
_chemical_formula_sum "Si O2"
_cell_formula_units_Z 15
_cell_length_a 14.431820
_cell_length_b 18.628883
_cell_length_c 10.615189
_cell_angle_alpha 32.924927
_cell_angle_beta 134.010091
_cell_angle_gamma 158.312663
_cell_volume 519.131018
_symmetry_space_group_name_H-M "P -1"
_symmetry_group_IT_number 2
_symmetry_cell_setting 'triclinic'
loop_
_space_group_symop_operation_xyz
x,y,z
-x,-y,-z
loop_
_atom_site_type_symbol
_atom_site_label
_atom_site_fract_x
_atom_site_fract_y
_atom_site_fract_z
Si Si1 0.065807 0.678856 0.088831
Si Si2 0.577637 0.272215 0.419625
Si Si3 0.146442 0.247445 0.353477
Si Si4 0.925515 0.716955 0.274590
Si Si5 0.500000 0.500000 0.500000
Si Si6 0.566309 0.862960 0.049449
Si Si7 0.840964 0.935953 0.783878
Si Si8 0.730079 0.221433 0.278456
O O1 0.834587 0.457073 0.307507
O O2 0.010127 0.504349 0.202565
O O3 0.345658 0.961972 0.010511
O O4 0.974897 0.729586 0.853384
O O5 0.673426 0.393620 0.471182
O O6 0.456144 0.296279 0.209707
O O7 0.333398 0.949867 0.630674
O O8 0.471671 0.539946 0.263074
O O9 0.071506 0.148494 0.576690
O O10 0.000000 0.000000 0.500000
O O11 0.171070 0.894784 0.153135
O O12 0.056470 0.859038 0.324823
O O13 0.846900 0.793495 0.046393
O O14 0.469029 0.320376 0.675896
O O15 0.323804 0.699104 0.975610
O O16 0.500000 0.000000 0.500000
#
# Coordination Sequence:
#
# PCOD9002611 Si02
#       8
#     2   2   2   2   1   2   2   2
#     4  10  21  38  62  90 120 159 206 254 292 360
#     4  10  22  39  61  88 122 161 196 247 305 356
#     4  12  23  39  62  92 120 156 206 248 311 357
#     4  10  21  38  58  89 122 160 199 250 305 358
#     4  12  22  36  64  90 124 162 200 258 302 356
#     4  11  21  39  63  93 122 160 207 253 302 353
#     4  11  23  38  59  90 123 159 196 250 308 366
#     4  10  21  36  62  93 122 160 206 251 296 356
#
# _framework density 28.894438000000001
#
# number of rings (size 3 to 8) (size 9 to 14) (size 15 to 20)
#    0.000    1.333    4.000    2.800    0.000    6.933 
#    0.000    0.667    0.000    1.600    0.000    0.000 
#    0.000    0.000    0.000    0.000    0.000    0.000 
#
# Total GULP energy -83880.852022 kJ/mol
# GULP energy per Si atom -5592.056801 kJ/mol
# Density = 2.882867 g / cm^3
# Si number density = 28.894438 Si / 1000 Ang^3
#
#
#
# Elastic Constant Matrix: (Units=GPa)
#
#
# Indices 1 2 3 4 5 6 
#
# 1 103.7119 50.7158 27.4448 -34.7429 -6.5648 -39.8009
# 2 50.7158 244.9724 41.6929 -14.0485 29.4380 -68.9658
# 3 27.4448 41.6929 77.9863 0.9467 16.0611 -22.9006
# 4 -34.7429 -14.0485 0.9467 57.9169 -4.2691 22.8475
# 5 -6.5648 29.4380 16.0611 -4.2691 48.6840 -21.9801
# 6 -39.8009 -68.9658 -22.9006 22.8475 -21.9801 68.9382
#
#
#
# Elastic Compliance Matrix: (Units=1/GPa)
#
#
# Indices 1 2 3 4 5 6 
#
# 1 0.017871 -0.001328 -0.005382 0.008254 0.009028 0.007344
# 2 -0.001328 0.005998 -0.000995 -0.001366 -0.001377 0.004917
# 3 -0.005382 -0.000995 0.016811 -0.004651 -0.005506 0.001268
# 4 0.008254 -0.001366 -0.004651 0.024228 0.003282 -0.005129
# 5 0.009028 -0.001377 -0.005506 0.003282 0.029331 0.010269
# 6 0.007344 0.004917 0.001268 -0.005129 0.010269 0.029060
#
#
# Mechanical properties :
#
#
# Convention : Reuss Voigt Hill
#
# Bulk Modulus (GPa) = 39.57283 74.04195 56.80739
# Shear Modulus (GPa) = 33.98322 55.56230 44.77276
#
# Velocity S-wave (km/s) = 3.43318 4.38989 3.94068
# Velocity P-wave (km/s) = 5.42595 7.16767 6.35675
#
# Compressibility (1/GPa) = 0.02526986
#
# Stress axis : x y z
#
# Youngs Moduli (GPa) = 55.95810 166.73228 59.48338
#
# Poissons Ratio (x) = 0.22135 0.32014
# Poissons Ratio (y) = 0.07429 0.05920
# Poissons Ratio (z) = 0.30117 0.16594
#
# Static dielectric constant tensor:
#      x y z
#    x 2.113060 -0.163610 0.030610 
#    y -0.163610 1.931810 0.115790 
#    z 0.030610 0.115790 2.196990 
# 
# From -- ./inp_files/391079.got.cif
#   From: 2010.05.17/outbox.cif.g08.bks.cpg/sg2_196_cif.got.tgz:391079.got - 2010.06.03 11:33:40.
