data_PCOD9002947
_publ_section_title
;
Structure prediction by ZEFSAII (Michael W. Deem and Ramdas Pophale) SiO2 
 PCOD9002947
Probable space group: P -1
;
_chemical_formula_sum "Si O2"
_cell_formula_units_Z 11
_cell_length_a 9.547282
_cell_length_b 13.016525
_cell_length_c 13.637190
_cell_angle_alpha 21.380589
_cell_angle_beta 62.757053
_cell_angle_gamma 64.045878
_cell_volume 548.958642
_symmetry_space_group_name_H-M "P -1"
_symmetry_group_IT_number 2
_symmetry_cell_setting 'triclinic'
loop_
_space_group_symop_operation_xyz
x,y,z
-x,-y,-z
loop_
_atom_site_type_symbol
_atom_site_label
_atom_site_fract_x
_atom_site_fract_y
_atom_site_fract_z
Si Si1 0.019887 0.076646 0.287083
Si Si2 0.539393 0.361083 0.477500
Si Si3 0.917133 0.152426 0.740854
Si Si4 0.500000 0.000000 0.000000
Si Si5 0.187686 0.638782 0.756937
Si Si6 0.804757 0.765495 0.269239
O O1 0.853696 0.206146 0.265372
O O2 0.036194 0.009878 0.227280
O O3 0.064740 0.791953 0.584238
O O4 0.143497 0.314025 0.065164
O O5 0.581149 0.146131 0.743492
O O6 0.646054 0.323755 0.380764
O O7 0.357415 0.298725 0.570871
O O8 0.547879 0.679076 0.230445
O O9 0.869929 0.479284 0.451397
O O10 0.067291 0.145933 0.771400
O O11 0.780009 0.001713 0.982110
#
# Coordination Sequence:
#
# PCOD9002947 Si02
#       6
#     2   2   2   1   2   2
#     4  10  21  37  55  78 107 148 179 223 263 323
#     4  11  22  36  51  84 110 140 177 228 265 332
#     4  10  21  37  55  78 107 148 179 223 263 323
#     4  10  24  30  52  82 110 142 168 208 304 302
#     4  10  22  35  55  80 110 139 184 222 268 316
#     4  10  22  35  55  80 110 139 184 222 268 316
#
# _framework density 20.037939000000001
#
# number of rings (size 3 to 8) (size 9 to 14) (size 15 to 20)
#    0.000    1.818    0.000    3.273   15.273    0.000 
#    0.000    0.909    0.000    0.000    0.000   17.818 
#    0.000    0.000    0.000    0.000    0.000    0.000 
#
# Total GULP energy -61253.679227 kJ/mol
# GULP energy per Si atom -5568.516293 kJ/mol
# Density = 1.999233 g / cm^3
# Si number density = 20.037939 Si / 1000 Ang^3
#
#
#
# Elastic Constant Matrix: (Units=GPa)
#
#
# Indices 1 2 3 4 5 6 
#
# 1 37.0540 28.1855 4.1478 4.2732 -14.9348 -12.8576
# 2 28.1855 162.4807 21.9477 13.7935 -18.9485 -23.0765
# 3 4.1478 21.9477 129.1883 2.5106 1.1371 0.1495
# 4 4.2732 13.7935 2.5106 27.1021 -8.4651 -11.3044
# 5 -14.9348 -18.9485 1.1371 -8.4651 27.4233 4.7844
# 6 -12.8576 -23.0765 0.1495 -11.3044 4.7844 24.8693
#
#
#
# Elastic Compliance Matrix: (Units=1/GPa)
#
#
# Indices 1 2 3 4 5 6 
#
# 1 0.043922 -0.002876 -0.001326 0.009882 0.021478 0.020407
# 2 -0.002876 0.007933 -0.001279 -0.000405 0.002948 0.005131
# 3 -0.001326 -0.001279 0.008048 -0.001419 -0.001997 -0.002182
# 4 0.009882 -0.000405 -0.001419 0.051231 0.016643 0.024827
# 5 0.021478 0.002948 -0.001997 0.016643 0.053478 0.011129
# 6 0.020407 0.005131 -0.002182 0.024827 0.011129 0.064679
#
#
# Mechanical properties :
#
#
# Convention : Reuss Voigt Hill
#
# Bulk Modulus (GPa) = 20.43305 48.58723 34.51014
# Shear Modulus (GPa) = 19.48799 34.17508 26.83154
#
# Velocity S-wave (km/s) = 3.12196 4.13427 3.66326
# Velocity P-wave (km/s) = 4.81818 6.86221 5.92894
#
# Compressibility (1/GPa) = 0.04894032
#
# Stress axis : x y z
#
# Youngs Moduli (GPa) = 22.76768 126.05265 124.25015
#
# Poissons Ratio (x) = 0.36250 0.16479
# Poissons Ratio (y) = 0.06547 0.15897
# Poissons Ratio (z) = 0.03020 0.16128
#
# Static dielectric constant tensor:
#      x y z
#    x 1.137770 0.344750 0.014690 
#    y 0.344750 1.986190 0.124060 
#    z 0.014690 0.124060 1.743360 
# 
# From -- ./inp_files/422576.got.cif
#   From: 2010.05.17/outbox.cif.g08.bks.cpg/sg2_212_cif.got.tgz:422576.got - 2010.06.03 11:33:40.
