data_PCOD9002609
_publ_section_title
;
Structure prediction by ZEFSAII (Michael W. Deem and Ramdas Pophale) SiO2 
 PCOD9002609
Probable space group: P -1
;
_chemical_formula_sum "Si O2"
_cell_formula_units_Z 16
_cell_length_a 14.574759
_cell_length_b 14.979690
_cell_length_c 8.968555
_cell_angle_alpha 91.051417
_cell_angle_beta 128.689872
_cell_angle_gamma 48.675866
_cell_volume 849.076717
_symmetry_space_group_name_H-M "P -1"
_symmetry_group_IT_number 2
_symmetry_cell_setting 'triclinic'
loop_
_space_group_symop_operation_xyz
x,y,z
-x,-y,-z
loop_
_atom_site_type_symbol
_atom_site_label
_atom_site_fract_x
_atom_site_fract_y
_atom_site_fract_z
Si Si1 0.352465 0.690615 0.471701
Si Si2 0.720749 0.701770 0.560302
Si Si3 0.806822 0.392693 0.828608
Si Si4 0.299855 0.876681 0.196344
Si Si5 0.502569 0.009233 0.181003
Si Si6 0.043673 0.964607 0.371198
Si Si7 0.163026 0.072880 0.341809
Si Si8 0.098715 0.343080 0.945143
O O1 0.598874 0.556749 0.707078
O O2 0.281962 0.635898 0.355505
O O3 0.261462 0.811854 0.252652
O O4 0.254976 0.779235 0.532305
O O5 0.538947 0.740965 0.383261
O O6 0.945796 0.517844 0.728018
O O7 0.611059 0.853279 0.364407
O O8 0.772847 0.699155 0.783026
O O9 0.929869 0.381196 0.845430
O O10 0.973347 0.258660 0.118247
O O11 0.245722 0.989594 0.260482
O O12 0.143504 0.968890 0.902041
O O13 0.653125 0.995806 0.382461
O O14 0.268807 0.183676 0.010772
O O15 0.500000 0.000000 0.000000
O O16 0.074473 0.043218 0.336226
O O17 0.000000 0.000000 0.500000
#
# Coordination Sequence:
#
# PCOD9002609 Si02
#       8
#     2   2   2   2   2   2   2   2
#     4  10  21  36  62  93 115 155 202 257 304 360
#     4  11  23  39  67  94 122 161 224 260 301 371
#     4  11  19  37  66  89 117 151 214 260 300 356
#     4  11  19  40  62  90 117 157 210 255 299 364
#     4  12  27  42  62  94 134 170 202 258 322 378
#     4  11  24  38  60  91 125 161 196 250 316 372
#     4  11  21  41  63  87 120 164 210 250 303 374
#     4  11  23  41  67  95 121 165 215 267 307 365
#
# _framework density 18.843999
#
# number of rings (size 3 to 8) (size 9 to 14) (size 15 to 20)
#    0.000    1.000    6.250    1.875    1.750    0.500 
#    0.000    1.875    0.000    0.000    0.000    0.000 
#    0.000    0.000    0.000    0.000    0.000    0.000 
#
# Total GULP energy -89266.920573 kJ/mol
# GULP energy per Si atom -5579.182536 kJ/mol
# Density = 1.880111 g / cm^3
# Si number density = 18.843999 Si / 1000 Ang^3
#
#
#
# Elastic Constant Matrix: (Units=GPa)
#
#
# Indices 1 2 3 4 5 6 
#
# 1 69.5200 47.5150 51.8627 1.4844 14.1456 -13.9669
# 2 47.5150 107.0642 69.3234 -9.5217 -0.7020 -30.2868
# 3 51.8627 69.3234 117.5725 -5.3470 13.7513 -26.1616
# 4 1.4844 -9.5217 -5.3470 41.9661 1.4221 4.5272
# 5 14.1456 -0.7020 13.7513 1.4221 31.7916 1.2809
# 6 -13.9669 -30.2868 -26.1616 4.5272 1.2809 37.1218
#
#
#
# Elastic Compliance Matrix: (Units=1/GPa)
#
#
# Indices 1 2 3 4 5 6 
#
# 1 0.026312 -0.008335 -0.005826 -0.003220 -0.009215 -0.000296
# 2 -0.008335 0.020148 -0.007162 0.002896 0.006813 0.007666
# 3 -0.005826 -0.007162 0.016772 0.000467 -0.004998 0.003900
# 4 -0.003220 0.002896 0.000467 0.024819 0.000247 -0.001555
# 5 -0.009215 0.006813 -0.004998 0.000247 0.037968 -0.002771
# 6 -0.000296 0.007666 0.003900 -0.001555 -0.002771 0.036115
#
#
# Mechanical properties :
#
#
# Convention : Reuss Voigt Hill
#
# Bulk Modulus (GPa) = 48.58078 70.17323 59.37701
# Shear Modulus (GPa) = 23.62463 30.53960 27.08211
#
# Velocity S-wave (km/s) = 3.54460 4.03010 3.79512
# Velocity P-wave (km/s) = 6.52600 7.67955 7.12616
#
# Compressibility (1/GPa) = 0.02058427
#
# Stress axis : x y z
#
# Youngs Moduli (GPa) = 38.00501 49.63367 59.62286
#
# Poissons Ratio (x) = 0.41372 0.34739
# Poissons Ratio (y) = 0.31679 0.42702
# Poissons Ratio (z) = 0.22144 0.35548
#
# Static dielectric constant tensor:
#      x y z
#    x 1.648140 0.027720 0.014230 
#    y 0.027720 1.707390 -0.056610 
#    z 0.014230 -0.056610 1.662060 
# 
# From -- ./inp_files/199587.got.cif
#   From: 2010.05.17/outbox.cif.g08.bks.cpg/sg2_100_cif.got.tgz:199587.got - 2010.06.03 11:33:40.
