data_PCOD9002320
_publ_section_title
;
Structure prediction by ZEFSAII (Michael W. Deem and Ramdas Pophale) SiO2 
 PCOD9002320
Probable space group: P -1
;
_chemical_formula_sum "Si O2"
_cell_formula_units_Z 16
_cell_length_a 8.757529
_cell_length_b 11.655326
_cell_length_c 15.054157
_cell_angle_alpha 26.779977
_cell_angle_beta 91.824672
_cell_angle_gamma 81.741129
_cell_volume 639.484302
_symmetry_space_group_name_H-M "P -1"
_symmetry_group_IT_number 2
_symmetry_cell_setting 'triclinic'
loop_
_space_group_symop_operation_xyz
x,y,z
-x,-y,-z
loop_
_atom_site_type_symbol
_atom_site_label
_atom_site_fract_x
_atom_site_fract_y
_atom_site_fract_z
Si Si1 0.225267 0.064438 0.356453
Si Si2 0.845817 0.093937 0.168618
Si Si3 0.878431 0.376123 0.443196
Si Si4 0.084073 0.439079 0.247814
Si Si5 0.509104 0.856670 0.913629
Si Si6 0.313980 0.538809 0.938883
Si Si7 0.439873 0.278827 0.451759
Si Si8 0.525248 0.674361 0.297163
O O1 0.105308 0.197247 0.344427
O O2 0.242770 0.328211 0.127890
O O3 0.169037 0.875322 0.421410
O O4 0.416543 0.870960 0.513518
O O5 0.668902 0.164201 0.071009
O O6 0.931273 0.285573 0.995120
O O7 0.801320 0.176592 0.214912
O O8 0.965495 0.778348 0.384070
O O9 0.719791 0.583118 0.346470
O O10 0.943969 0.492594 0.280822
O O11 0.261218 0.339441 0.368745
O O12 0.482250 0.066429 0.683210
O O13 0.547783 0.009697 0.892095
O O14 0.652893 0.568938 0.086792
O O15 0.500000 0.500000 0.000000
O O16 0.454289 0.557698 0.294916
O O17 0.500000 0.500000 0.500000
#
# Coordination Sequence:
#
# PCOD9002320 Si02
#       8
#     2   2   2   2   2   2   2   2
#     4   9  19  34  58  85 123 158 194 236 298 352
#     4  10  21  36  59  93 123 150 193 240 305 354
#     4  11  22  39  62  89 120 158 194 248 294 350
#     4  11  21  36  59  89 123 153 194 244 300 353
#     4   9  16  36  60  84 115 159 200 240 287 348
#     4   8  16  31  57  87 119 146 191 242 281 351
#     4   9  17  35  60  86 114 157 202 244 284 352
#     4   9  20  38  67  84 110 161 210 238 293 351
#
# _framework density 25.020161000000002
#
# number of rings (size 3 to 8) (size 9 to 14) (size 15 to 20)
#    0.000    2.500    1.250    1.500    0.000    2.500 
#    2.250    1.250   24.750    0.000    0.000    0.000 
#    0.000    0.000    0.000    0.000    0.000    0.000 
#
# Total GULP energy -89490.135423 kJ/mol
# GULP energy per Si atom -5593.133464 kJ/mol
# Density = 2.496321 g / cm^3
# Si number density = 25.020161 Si / 1000 Ang^3
#
#
#
# Elastic Constant Matrix: (Units=GPa)
#
#
# Indices 1 2 3 4 5 6 
#
# 1 83.3914 14.8050 28.0110 5.8261 -9.8771 -28.7344
# 2 14.8050 95.1537 26.5698 -17.3656 0.9465 -17.2530
# 3 28.0110 26.5698 82.4385 10.5801 -16.4587 -13.8163
# 4 5.8261 -17.3656 10.5801 27.2643 3.8770 -6.9155
# 5 -9.8771 0.9465 -16.4587 3.8770 46.2816 1.1974
# 6 -28.7344 -17.2530 -13.8163 -6.9155 1.1974 50.6557
#
#
#
# Elastic Compliance Matrix: (Units=1/GPa)
#
#
# Indices 1 2 3 4 5 6 
#
# 1 0.016310 -0.000116 -0.003704 -0.000348 0.001985 0.008107
# 2 -0.000116 0.016392 -0.007101 0.015299 -0.004316 0.005770
# 3 -0.003704 -0.007101 0.018410 -0.012202 0.006958 -0.001329
# 4 -0.000348 0.015299 -0.012202 0.054982 -0.009576 0.009418
# 5 0.001985 -0.004316 0.006958 -0.009576 0.025405 -0.000354
# 6 0.008107 0.005770 -0.001329 0.009418 -0.000354 0.027237
#
#
# Mechanical properties :
#
#
# Convention : Reuss Voigt Hill
#
# Bulk Modulus (GPa) = 34.16863 44.41724 39.29293
# Shear Modulus (GPa) = 26.26943 37.61352 31.94147
#
# Velocity S-wave (km/s) = 3.24378 3.88148 3.57687
# Velocity P-wave (km/s) = 5.26456 6.15459 5.72689
#
# Compressibility (1/GPa) = 0.02926662
#
# Stress axis : x y z
#
# Youngs Moduli (GPa) = 61.31381 61.00695 54.31753
#
# Poissons Ratio (x) = 0.00711 0.20122
# Poissons Ratio (y) = 0.00714 0.38573
# Poissons Ratio (z) = 0.22713 0.43324
#
# Static dielectric constant tensor:
#      x y z
#    x 1.979070 -0.017260 -0.025160 
#    y -0.017260 1.995140 0.037050 
#    z -0.025160 0.037050 2.012820 
# 
# From -- ./inp_files/280203.got.cif
#   From: 2010.05.17/outbox.cif.g08.bks.cpg/sg2_141_cif.got.tgz:280203.got - 2010.06.03 11:33:40.
