data_PCOD9002578
_publ_section_title
;
Structure prediction by ZEFSAII (Michael W. Deem and Ramdas Pophale) SiO2 
 PCOD9002578
Probable space group: P -1
;
_chemical_formula_sum "Si O2"
_cell_formula_units_Z 15
_cell_length_a 10.496500
_cell_length_b 14.824018
_cell_length_c 8.545548
_cell_angle_alpha 111.853498
_cell_angle_beta 99.648190
_cell_angle_gamma 31.701336
_cell_volume 617.481833
_symmetry_space_group_name_H-M "P -1"
_symmetry_group_IT_number 2
_symmetry_cell_setting 'triclinic'
loop_
_space_group_symop_operation_xyz
x,y,z
-x,-y,-z
loop_
_atom_site_type_symbol
_atom_site_label
_atom_site_fract_x
_atom_site_fract_y
_atom_site_fract_z
Si Si1 0.554690 0.577059 0.069627
Si Si2 0.215930 0.585848 0.281475
Si Si3 0.163115 0.050221 0.791401
Si Si4 0.573304 0.168262 0.596997
Si Si5 0.884783 0.753126 0.881984
Si Si6 0.000000 0.000000 0.000000
Si Si7 0.980945 0.531161 0.203173
Si Si8 0.010179 0.803007 0.656519
O O1 0.390545 0.749453 0.261548
O O2 0.833889 0.418098 0.091467
O O3 0.500000 0.500000 0.000000
O O4 0.548639 0.607352 0.902584
O O5 0.057365 0.761985 0.248562
O O6 0.058875 0.590474 0.285028
O O7 0.243429 0.620586 0.474784
O O8 0.365713 0.872338 0.599425
O O9 0.270280 0.074695 0.925108
O O10 0.061011 0.040065 0.891281
O O11 0.296849 0.308078 0.678328
O O12 0.776159 0.970776 0.599733
O O13 0.837172 0.669845 0.818637
O O14 0.923488 0.773926 0.735347
O O15 0.955349 0.122314 0.188246
O O16 0.000000 0.500000 0.000000
#
# Coordination Sequence:
#
# PCOD9002578 Si02
#       8
#     2   2   2   2   2   1   2   2
#     4  10  21  36  62  87 123 162 208 249 297 376
#     4  10  21  39  65  88 120 169 208 244 316 371
#     4   9  19  36  59  90 115 164 205 245 302 363
#     4  10  22  36  65  94 117 159 219 249 300 373
#     4   9  20  41  59  85 128 164 194 255 318 353
#     4  10  22  38  60  80 142 156 186 264 318 350
#     4  11  19  42  67  83 126 168 201 255 306 367
#     4  10  23  38  59  96 119 162 206 253 314 358
#
# _framework density 24.292211000000002
#
# number of rings (size 3 to 8) (size 9 to 14) (size 15 to 20)
#    0.000    2.133    4.000    0.000    7.467    3.733 
#    0.000    6.667    2.933    0.000    0.000    0.000 
#    0.000    0.000    0.000    0.000    0.000    0.000 
#
# Total GULP energy -83501.457451 kJ/mol
# GULP energy per Si atom -5566.763830 kJ/mol
# Density = 2.423692 g / cm^3
# Si number density = 24.292211 Si / 1000 Ang^3
#
#
#
# Elastic Constant Matrix: (Units=GPa)
#
#
# Indices 1 2 3 4 5 6 
#
# 1 125.9126 44.2796 60.2133 6.3831 9.4344 36.2481
# 2 44.2796 68.7168 36.1523 -3.8893 -2.3829 25.3422
# 3 60.2133 36.1523 242.6484 -2.0581 -12.2944 25.9903
# 4 6.3831 -3.8893 -2.0581 24.4959 10.5584 -0.6323
# 5 9.4344 -2.3829 -12.2944 10.5584 26.2591 3.7159
# 6 36.2481 25.3422 25.9903 -0.6323 3.7159 48.7774
#
#
#
# Elastic Compliance Matrix: (Units=1/GPa)
#
#
# Indices 1 2 3 4 5 6 
#
# 1 0.012845 -0.005559 -0.002030 -0.002713 -0.004230 -0.005288
# 2 -0.005559 0.021368 -0.000900 0.003229 0.003163 -0.006690
# 3 -0.002030 -0.000900 0.005031 -0.000690 0.003418 -0.000974
# 4 -0.002713 0.003229 -0.000690 0.050595 -0.019805 0.002871
# 5 -0.004230 0.003163 0.003418 -0.019805 0.050074 -0.004392
# 6 -0.005288 -0.006690 -0.000974 0.002871 -0.004392 0.028798
#
#
# Mechanical properties :
#
#
# Convention : Reuss Voigt Hill
#
# Bulk Modulus (GPa) = 44.91255 79.84090 62.37673
# Shear Modulus (GPa) = 25.89204 39.68200 32.78702
#
# Velocity S-wave (km/s) = 3.26829 4.04608 3.67780
# Velocity P-wave (km/s) = 5.72459 7.40040 6.61577
#
# Compressibility (1/GPa) = 0.02226549
#
# Stress axis : x y z
#
# Youngs Moduli (GPa) = 77.85337 46.79975 198.78070
#
# Poissons Ratio (x) = 0.26015 0.40355
# Poissons Ratio (y) = 0.43276 0.17889
# Poissons Ratio (z) = 0.15805 0.04212
#
# Static dielectric constant tensor:
#      x y z
#    x 1.936290 -0.064000 -0.069940 
#    y -0.064000 2.078530 0.111500 
#    z -0.069940 0.111500 2.059370 
# 
# From -- ./inp_files/268626.got.cif
#   From: 2010.05.17/outbox.cif.g08.bks.cpg/sg2_135_cif.got.tgz:268626.got - 2010.06.03 11:33:40.
