data_PCOD9002565
_publ_section_title
;
Structure prediction by ZEFSAII (Michael W. Deem and Ramdas Pophale) SiO2 
 PCOD9002565
Probable space group: P -1
;
_chemical_formula_sum "Si O2"
_cell_formula_units_Z 16
_cell_length_a 9.612992
_cell_length_b 18.050039
_cell_length_c 11.663633
_cell_angle_alpha 64.203189
_cell_angle_beta 76.861711
_cell_angle_gamma 133.463911
_cell_volume 782.925444
_symmetry_space_group_name_H-M "P -1"
_symmetry_group_IT_number 2
_symmetry_cell_setting 'triclinic'
loop_
_space_group_symop_operation_xyz
x,y,z
-x,-y,-z
loop_
_atom_site_type_symbol
_atom_site_label
_atom_site_fract_x
_atom_site_fract_y
_atom_site_fract_z
Si Si1 0.985196 0.861623 0.928100
Si Si2 0.101147 0.987974 0.585006
Si Si3 0.234579 0.748861 0.462997
Si Si4 0.282200 0.263481 0.693470
Si Si5 0.920434 0.272485 0.973413
Si Si6 0.986856 0.704903 0.313279
Si Si7 0.358768 0.655563 0.608929
Si Si8 0.690707 0.065463 0.529384
O O1 0.909880 0.871921 0.818691
O O2 0.375027 0.054982 0.733758
O O3 0.892998 0.716546 0.037172
O O4 0.855358 0.831288 0.091980
O O5 0.454423 0.200496 0.421633
O O6 0.102796 0.902529 0.576476
O O7 0.000000 0.000000 0.500000
O O8 0.136844 0.607022 0.615521
O O9 0.127434 0.764616 0.560164
O O10 0.135878 0.730255 0.370659
O O11 0.628591 0.483819 0.507658
O O12 0.057395 0.219877 0.712846
O O13 0.369056 0.238728 0.601949
O O14 0.834294 0.217274 0.892638
O O15 0.150326 0.469837 0.812262
O O16 0.589434 0.109433 0.214307
O O17 0.500000 0.000000 0.500000
#
# Coordination Sequence:
#
# PCOD9002565 Si02
#       8
#     2   2   2   2   2   2   2   2
#     4   9  19  40  59  82 119 155 187 231 291 340
#     4  11  24  41  55  83 117 146 195 241 277 336
#     4  10  21  36  62  84 118 148 196 233 282 336
#     4   9  19  35  60  84 122 149 181 234 297 339
#     4   9  19  36  64  81 112 148 190 231 283 338
#     4   9  19  37  56  91 117 149 187 233 287 350
#     4  10  21  39  58  88 115 147 189 242 281 335
#     4  11  20  42  59  77 112 158 187 235 286 332
#
# _framework density 20.436176
#
# number of rings (size 3 to 8) (size 9 to 14) (size 15 to 20)
#    0.000    2.250    3.750    0.750    1.750    9.000 
#    4.500    0.625    0.000    0.000    0.000    0.000 
#    0.000    0.000    0.000    0.000    0.000    0.000 
#
# Total GULP energy -89203.789970 kJ/mol
# GULP energy per Si atom -5575.236873 kJ/mol
# Density = 2.038966 g / cm^3
# Si number density = 20.436176 Si / 1000 Ang^3
#
#
#
# Elastic Constant Matrix: (Units=GPa)
#
#
# Indices 1 2 3 4 5 6 
#
# 1 102.1878 35.7514 22.4233 13.1494 31.3833 12.4230
# 2 35.7514 54.1160 10.0599 14.2825 12.2771 2.0361
# 3 22.4233 10.0599 41.6816 5.9627 16.5516 1.8731
# 4 13.1494 14.2825 5.9627 21.5281 -3.1763 13.3748
# 5 31.3833 12.2771 16.5516 -3.1763 35.5722 11.1571
# 6 12.4230 2.0361 1.8731 13.3748 11.1571 44.2275
#
#
#
# Elastic Compliance Matrix: (Units=1/GPa)
#
#
# Indices 1 2 3 4 5 6 
#
# 1 0.017464 -0.005320 -0.000804 -0.010544 -0.014864 0.002312
# 2 -0.005320 0.031661 0.004711 -0.028919 -0.014877 0.012336
# 3 -0.000804 0.004711 0.035036 -0.022572 -0.022709 0.011080
# 4 -0.010544 -0.028919 -0.022572 0.112296 0.053012 -0.042084
# 5 -0.014864 -0.014877 -0.022709 0.053012 0.070435 -0.027978
# 6 0.002312 0.012336 0.011080 -0.042084 -0.027978 0.040708
#
#
# Mechanical properties :
#
#
# Convention : Reuss Voigt Hill
#
# Bulk Modulus (GPa) = 12.29501 37.16162 24.72832
# Shear Modulus (GPa) = 14.81309 28.91563 21.86436
#
# Velocity S-wave (km/s) = 2.69522 3.76563 3.27446
# Velocity P-wave (km/s) = 3.96421 6.09347 5.14030
#
# Compressibility (1/GPa) = 0.08133384
#
# Stress axis : x y z
#
# Youngs Moduli (GPa) = 57.25921 31.58449 28.54216
#
# Poissons Ratio (x) = 0.16804 0.02296
# Poissons Ratio (y) = 0.30463 -0.13445
# Poissons Ratio (z) = 0.04605 -0.14879
#
# Static dielectric constant tensor:
#      x y z
#    x 1.752950 -0.026230 0.034010 
#    y -0.026230 1.729690 -0.001650 
#    z 0.034010 -0.001650 1.779490 
# 
# From -- ./inp_files/402021.got.cif
#   From: 2010.05.17/outbox.cif.g08.bks.cpg/sg2_202_cif.got.tgz:402021.got - 2010.06.03 11:33:40.
