data_PCOD9002916
_publ_section_title
;
Structure prediction by ZEFSAII (Michael W. Deem and Ramdas Pophale) SiO2 
 PCOD9002916
Probable space group: P -1
;
_chemical_formula_sum "Si O2"
_cell_formula_units_Z 14
_cell_length_a 7.474190
_cell_length_b 13.006744
_cell_length_c 13.547549
_cell_angle_alpha 34.487766
_cell_angle_beta 114.588818
_cell_angle_gamma 95.104863
_cell_volume 589.861748
_symmetry_space_group_name_H-M "P -1"
_symmetry_group_IT_number 2
_symmetry_cell_setting 'triclinic'
loop_
_space_group_symop_operation_xyz
x,y,z
-x,-y,-z
loop_
_atom_site_type_symbol
_atom_site_label
_atom_site_fract_x
_atom_site_fract_y
_atom_site_fract_z
Si Si1 0.246469 0.459430 0.468886
Si Si2 0.252108 0.167747 0.274829
Si Si3 0.648092 0.473732 0.207089
Si Si4 0.198647 0.630073 0.890175
Si Si5 0.869863 0.771538 0.020561
Si Si6 0.334049 0.933928 0.070623
Si Si7 0.040386 0.756894 0.375828
O O1 0.144478 0.608217 0.422521
O O2 0.134305 0.606552 0.232316
O O3 0.130943 0.310758 0.560338
O O4 0.509714 0.303482 0.672207
O O5 0.053216 0.196104 0.279674
O O6 0.500000 0.000000 0.500000
O O7 0.226138 0.398770 0.083511
O O8 0.193388 0.133664 0.177433
O O9 0.728649 0.352050 0.217804
O O10 0.747434 0.630427 0.115304
O O11 0.754845 0.308703 0.450111
O O12 0.379582 0.614842 0.023934
O O13 0.765173 0.936241 0.954743
O O14 0.119563 0.011949 0.886361
O O15 0.500000 0.000000 0.000000
#
# Coordination Sequence:
#
# PCOD9002916 Si02
#       7
#     2   2   2   2   2   2   2
#     4   8  14  26  42  69 100 127 155 190 238 290
#     4  10  21  37  52  71  97 132 171 202 240 299
#     4   9  16  33  53  75 102 127 160 207 253 287
#     4   9  20  36  53  71  99 132 164 205 249 291
#     4   9  18  30  49  74 100 126 161 203 242 286
#     4   9  15  24  43  73 101 128 157 194 241 288
#     4   8  14  24  42  70 101 121 152 198 240 286
#
# _framework density 23.734373000000001
#
# number of rings (size 3 to 8) (size 9 to 14) (size 15 to 20)
#    0.000    3.143    0.000    2.571    0.000    5.714 
#    0.000   12.143    0.000    3.429    0.000    9.000 
#    0.000    0.000    0.000    0.000    0.000    0.000 
#
# Total GULP energy -78231.041131 kJ/mol
# GULP energy per Si atom -5587.931509 kJ/mol
# Density = 2.368035 g / cm^3
# Si number density = 23.734373 Si / 1000 Ang^3
#
#
#
# Elastic Constant Matrix: (Units=GPa)
#
#
# Indices 1 2 3 4 5 6 
#
# 1 56.8361 13.5238 25.1164 -3.3066 16.8728 -2.5262
# 2 13.5238 44.0339 72.7019 17.8792 4.4663 -3.8905
# 3 25.1164 72.7019 225.8738 14.6372 35.8719 -8.5003
# 4 -3.3066 17.8792 14.6372 45.1818 7.7084 0.2541
# 5 16.8728 4.4663 35.8719 7.7084 45.7380 -2.8541
# 6 -2.5262 -3.8905 -8.5003 0.2541 -2.8541 30.4209
#
#
#
# Elastic Compliance Matrix: (Units=1/GPa)
#
#
# Indices 1 2 3 4 5 6 
#
# 1 0.023653 -0.015814 0.003726 0.008760 -0.011592 -0.000178
# 2 -0.015814 0.078611 -0.025212 -0.028028 0.022910 0.004079
# 3 0.003726 -0.025212 0.013311 0.007760 -0.010676 -0.000262
# 4 0.008760 -0.028028 0.007760 0.033471 -0.012355 -0.002127
# 5 -0.011592 0.022910 -0.010676 -0.012355 0.034503 0.002324
# 6 -0.000178 0.004079 -0.000262 -0.002127 0.002324 0.033542
#
#
# Mechanical properties :
#
#
# Convention : Reuss Voigt Hill
#
# Bulk Modulus (GPa) = 24.40509 61.04755 42.72632
# Shear Modulus (GPa) = 16.37469 38.62824 27.50147
#
# Velocity S-wave (km/s) = 2.62947 4.03863 3.40769
# Velocity P-wave (km/s) = 4.41857 6.89380 5.79000
#
# Compressibility (1/GPa) = 0.04097506
#
# Stress axis : x y z
#
# Youngs Moduli (GPa) = 42.27710 12.72092 75.12676
#
# Poissons Ratio (x) = 0.20117 -0.27995
# Poissons Ratio (y) = 0.66856 1.89413
# Poissons Ratio (z) = -0.15754 0.32073
#
# Static dielectric constant tensor:
#      x y z
#    x 1.961320 0.070810 -0.027910 
#    y 0.070810 1.882010 0.002710 
#    z -0.027910 0.002710 1.917110 
# 
# From -- ./inp_files/267997.got.cif
#   From: 2010.05.17/outbox.cif.g08.bks.cpg/sg2_134_cif.got.tgz:267997.got - 2010.06.03 11:33:40.
