data_PCOD9002617
_publ_section_title
;
Structure prediction by ZEFSAII (Michael W. Deem and Ramdas Pophale) SiO2 
 PCOD9002617
Probable space group: P -1
;
_chemical_formula_sum "Si O2"
_cell_formula_units_Z 16
_cell_length_a 19.747167
_cell_length_b 10.703544
_cell_length_c 8.279307
_cell_angle_alpha 77.466478
_cell_angle_beta 139.013074
_cell_angle_gamma 130.400253
_cell_volume 732.834599
_symmetry_space_group_name_H-M "P -1"
_symmetry_group_IT_number 2
_symmetry_cell_setting 'triclinic'
loop_
_space_group_symop_operation_xyz
x,y,z
-x,-y,-z
loop_
_atom_site_type_symbol
_atom_site_label
_atom_site_fract_x
_atom_site_fract_y
_atom_site_fract_z
Si Si1 0.325040 0.483289 0.691444
Si Si2 0.020419 0.110586 0.845135
Si Si3 0.681947 0.805680 0.331964
Si Si4 0.908326 0.574341 0.918633
Si Si5 0.385357 0.822675 0.467053
Si Si6 0.734285 0.068145 0.625431
Si Si7 0.300098 0.374356 0.036485
Si Si8 0.467145 0.269061 0.402671
O O1 0.321371 0.351890 0.609295
O O2 0.204387 0.476555 0.411888
O O3 0.510936 0.682978 0.994728
O O4 0.265254 0.392445 0.790396
O O5 0.075891 0.297861 0.960589
O O6 0.151321 0.193542 0.928841
O O7 0.849237 0.972063 0.494316
O O8 0.000000 0.000000 0.000000
O O9 0.707038 0.927134 0.490336
O O10 0.800183 0.362434 0.860528
O O11 0.085038 0.719008 0.134163
O O12 0.375090 0.906039 0.581690
O O13 0.449285 0.738590 0.580138
O O14 0.500000 0.000000 0.500000
O O15 0.678629 0.947895 0.724327
O O16 0.404538 0.345718 0.209498
O O17 0.405978 0.575938 0.271814
#
# Coordination Sequence:
#
# PCOD9002617 Si02
#       8
#     2   2   2   2   2   2   2   2
#     4  11  24  37  61  95 137 158 199 255 338 376
#     4  11  21  38  61  92 125 164 209 248 307 379
#     4  10  22  37  58  89 131 161 201 251 308 381
#     4  11  22  39  67  94 123 162 207 267 311 367
#     4  10  22  40  64  91 119 163 230 261 291 360
#     4  10  21  41  64  87 121 163 223 255 298 363
#     4  11  22  36  63  92 133 160 200 255 324 375
#     4  10  21  36  62  94 118 167 208 256 304 370
#
# _framework density 21.833029
#
# number of rings (size 3 to 8) (size 9 to 14) (size 15 to 20)
#    0.000    1.500    3.750    1.875    5.250    0.500 
#    0.000    0.625    0.000    0.750    0.000    0.000 
#    0.000    0.000    0.000    0.000    0.000    0.000 
#
# Total GULP energy -89087.170003 kJ/mol
# GULP energy per Si atom -5567.948125 kJ/mol
# Density = 2.178334 g / cm^3
# Si number density = 21.833029 Si / 1000 Ang^3
#
#
#
# Elastic Constant Matrix: (Units=GPa)
#
#
# Indices 1 2 3 4 5 6 
#
# 1 152.6794 40.0120 37.3752 0.2607 36.2074 5.8903
# 2 40.0120 76.0552 29.3567 28.4577 6.6445 14.0079
# 3 37.3752 29.3567 86.4623 22.5384 18.9008 21.0954
# 4 0.2607 28.4577 22.5384 32.9210 4.9717 15.5918
# 5 36.2074 6.6445 18.9008 4.9717 25.5166 8.8762
# 6 5.8903 14.0079 21.0954 15.5918 8.8762 39.9469
#
#
#
# Elastic Compliance Matrix: (Units=1/GPa)
#
#
# Indices 1 2 3 4 5 6 
#
# 1 0.013866 -0.009474 -0.002213 0.011390 -0.018525 0.002117
# 2 -0.009474 0.026452 -0.001291 -0.023387 0.012351 -0.000813
# 3 -0.002213 -0.001291 0.017405 -0.007973 -0.006522 -0.003851
# 4 0.011390 -0.023387 -0.007973 0.063124 -0.012602 -0.011106
# 5 -0.018525 0.012351 -0.006522 -0.012602 0.072823 -0.009418
# 6 0.002117 -0.000813 -0.003851 -0.011106 -0.009418 0.033467
#
#
# Mechanical properties :
#
#
# Convention : Reuss Voigt Hill
#
# Bulk Modulus (GPa) = 31.47986 58.74276 45.11131
# Shear Modulus (GPa) = 18.96215 33.57374 26.26794
#
# Velocity S-wave (km/s) = 2.95024 3.92567 3.47238
# Velocity P-wave (km/s) = 5.10441 6.89287 6.06493
#
# Compressibility (1/GPa) = 0.03176635
#
# Stress axis : x y z
#
# Youngs Moduli (GPa) = 72.11713 37.80363 57.45624
#
# Poissons Ratio (x) = 0.35815 0.12717
# Poissons Ratio (y) = 0.68323 0.07419
# Poissons Ratio (z) = 0.15962 0.04882
#
# Static dielectric constant tensor:
#      x y z
#    x 1.822840 -0.014550 -0.000480 
#    y -0.014550 1.915850 0.012680 
#    z -0.000480 0.012680 1.826120 
# 
# From -- ./inp_files/346157.got.cif
#   From: 2010.05.17/outbox.cif.g08.bks.cpg/sg2_174_cif.got.tgz:346157.got - 2010.06.03 11:33:40.
