data_PCOD9002106
_publ_section_title
;
Structure prediction by ZEFSAII (Michael W. Deem and Ramdas Pophale) SiO2 
 PCOD9002106
Probable space group: P -1
;
_chemical_formula_sum "Si O2"
_cell_formula_units_Z 12
_cell_length_a 8.247391
_cell_length_b 9.135607
_cell_length_c 9.505935
_cell_angle_alpha 75.275455
_cell_angle_beta 93.493015
_cell_angle_gamma 49.202485
_cell_volume 498.551630
_symmetry_space_group_name_H-M "P -1"
_symmetry_group_IT_number 2
_symmetry_cell_setting 'triclinic'
loop_
_space_group_symop_operation_xyz
x,y,z
-x,-y,-z
loop_
_atom_site_type_symbol
_atom_site_label
_atom_site_fract_x
_atom_site_fract_y
_atom_site_fract_z
Si Si1 0.175083 0.819358 0.897383
Si Si2 0.836268 0.166432 0.571192
Si Si3 0.515180 0.275002 0.297148
Si Si4 0.585726 0.916040 0.249161
Si Si5 0.786474 0.548751 0.536667
Si Si6 0.164310 0.133571 0.983970
O O1 0.384177 0.682537 0.831567
O O2 0.225957 0.923765 0.981770
O O3 0.949260 0.014668 0.749965
O O4 0.085203 0.730142 0.997562
O O5 0.605664 0.285308 0.446096
O O6 0.834112 0.344310 0.556753
O O7 0.000000 0.000000 0.500000
O O8 0.266020 0.401013 0.311731
O O9 0.611098 0.048934 0.314212
O O10 0.602904 0.755235 0.380365
O O11 0.342584 0.075074 0.122825
O O12 0.773754 0.806241 0.163627
O O13 0.000000 0.500000 0.500000
#
# Coordination Sequence:
#
# PCOD9002106 Si02
#       6
#     2   2   2   2   2   2
#     4   9  18  36  62  87 113 156 201 233 287 349
#     4  10  21  39  62  87 115 151 194 247 299 345
#     4  10  21  36  57  89 121 152 190 240 296 347
#     4  10  21  38  61  91 122 154 193 237 295 350
#     4  12  23  36  59  90 122 151 193 250 298 345
#     4   9  18  35  63  86 118 162 193 231 284 354
#
# _framework density 24.069724999999998
#
# number of rings (size 3 to 8) (size 9 to 14) (size 15 to 20)
#    0.000    2.000    0.000    5.000    0.000    2.667 
#    0.000    0.000    0.000   94.000    0.000    0.000 
#    0.000    0.000    0.000    0.000    0.000    0.000 
#
# Total GULP energy -66857.365115 kJ/mol
# GULP energy per Si atom -5571.447093 kJ/mol
# Density = 2.401494 g / cm^3
# Si number density = 24.069725 Si / 1000 Ang^3
#
#
#
# Elastic Constant Matrix: (Units=GPa)
#
#
# Indices 1 2 3 4 5 6 
#
# 1 92.5852 13.1513 49.0006 18.9028 -44.9434 -22.4084
# 2 13.1513 73.6041 46.6427 13.9925 -21.1013 -8.3193
# 3 49.0006 46.6427 132.0337 12.9342 -45.9820 7.3138
# 4 18.9028 13.9925 12.9342 27.9732 -1.4020 -9.9175
# 5 -44.9434 -21.1013 -45.9820 -1.4020 73.9812 16.7396
# 6 -22.4084 -8.3193 7.3138 -9.9175 16.7396 27.4720
#
#
#
# Elastic Compliance Matrix: (Units=1/GPa)
#
#
# Indices 1 2 3 4 5 6 
#
# 1 0.023698 0.006940 -0.008711 -0.009433 0.007167 0.015978
# 2 0.006940 0.021429 -0.009411 -0.007076 0.001864 0.010965
# 3 -0.008711 -0.009411 0.018997 -0.005702 0.008799 -0.022433
# 4 -0.009433 -0.007076 -0.005702 0.054842 -0.014906 0.020561
# 5 0.007167 0.001864 0.008799 -0.014906 0.027706 -0.018195
# 6 0.015978 0.010965 -0.022433 0.020561 -0.018195 0.077236
#
#
# Mechanical properties :
#
#
# Convention : Reuss Voigt Hill
#
# Bulk Modulus (GPa) = 23.94675 57.31247 40.62961
# Shear Modulus (GPa) = 19.21669 38.51384 28.86527
#
# Velocity S-wave (km/s) = 2.82862 4.00446 3.46675
# Velocity P-wave (km/s) = 4.54298 6.72634 5.73944
#
# Compressibility (1/GPa) = 0.04175933
#
# Stress axis : x y z
#
# Youngs Moduli (GPa) = 42.19779 46.66640 52.64083
#
# Poissons Ratio (x) = -0.32388 0.45858
# Poissons Ratio (y) = -0.29286 0.49539
# Poissons Ratio (z) = 0.36760 0.43917
#
# Static dielectric constant tensor:
#      x y z
#    x 1.972110 -0.282480 0.436460 
#    y -0.282480 1.886620 -0.027260 
#    z 0.436460 -0.027260 1.696330 
# 
# From -- ./inp_files/158058.got.cif
#   From: 2010.05.17/outbox.cif.g08.bks.cpg/sg2_80_cif.got.tgz:158058.got - 2010.06.03 11:33:40.
