data_PCOD9002897
_publ_section_title
;
Structure prediction by ZEFSAII (Michael W. Deem and Ramdas Pophale) SiO2 
 PCOD9002897
Probable space group: P -1
;
_chemical_formula_sum "Si O2"
_cell_formula_units_Z 14
_cell_length_a 13.125069
_cell_length_b 12.614255
_cell_length_c 9.999658
_cell_angle_alpha 58.987560
_cell_angle_beta 45.354973
_cell_angle_gamma 37.027743
_cell_volume 705.270471
_symmetry_space_group_name_H-M "P -1"
_symmetry_group_IT_number 2
_symmetry_cell_setting 'triclinic'
loop_
_space_group_symop_operation_xyz
x,y,z
-x,-y,-z
loop_
_atom_site_type_symbol
_atom_site_label
_atom_site_fract_x
_atom_site_fract_y
_atom_site_fract_z
Si Si1 0.685890 0.958202 0.924662
Si Si2 0.455926 0.697973 0.028291
Si Si3 0.002063 0.613158 0.022128
Si Si4 0.535730 0.584713 0.308609
Si Si5 0.153679 0.981140 0.465646
Si Si6 0.050637 0.870844 0.155419
Si Si7 0.927320 0.435002 0.707735
O O1 0.813172 0.811356 0.017377
O O2 0.612951 0.129700 0.952222
O O3 0.834605 0.895679 0.701999
O O4 0.500000 0.000000 0.000000
O O5 0.468094 0.599661 0.209211
O O6 0.288826 0.748807 0.048990
O O7 0.679972 0.581922 0.838454
O O8 0.223954 0.537572 0.844376
O O9 0.996338 0.580173 0.203560
O O10 0.000000 0.500000 0.000000
O O11 0.500000 0.500000 0.500000
O O12 0.385785 0.786171 0.368248
O O13 0.000000 0.000000 0.500000
O O14 0.072388 0.024353 0.662334
O O15 0.010778 0.748926 0.247328
O O16 0.000000 0.000000 0.000000
O O17 0.000000 0.500000 0.500000
#
# Coordination Sequence:
#
# PCOD9002897 Si02
#       7
#     2   2   2   2   2   2   2
#     4  11  22  41  70  98 134 170 232 284 334 390
#     4  10  23  44  65  95 133 184 220 281 334 403
#     4  11  24  43  68  95 132 174 221 280 334 401
#     4  10  21  36  68  98 127 164 227 276 323 389
#     4  11  22  41  68  98 130 179 228 274 331 400
#     4  12  26  45  69  98 141 181 223 279 339 407
#     4  11  27  47  67 101 139 178 225 279 346 404
#
# _framework density 19.850539999999999
#
# number of rings (size 3 to 8) (size 9 to 14) (size 15 to 20)
#    0.000    1.143    2.857    4.714    8.000    0.000 
#    5.143    1.429    0.000    0.000    0.000    0.000 
#    0.000    0.000    0.000    0.000    0.000    0.000 
#
# Total GULP energy -78092.285378 kJ/mol
# GULP energy per Si atom -5578.020384 kJ/mol
# Density = 1.980536 g / cm^3
# Si number density = 19.850540 Si / 1000 Ang^3
#
#
#
# Elastic Constant Matrix: (Units=GPa)
#
#
# Indices 1 2 3 4 5 6 
#
# 1 126.5110 38.1813 63.0146 -23.4695 14.2181 -13.2646
# 2 38.1813 82.1329 49.4843 -15.1314 8.5068 -8.2911
# 3 63.0146 49.4843 186.4816 -26.6215 19.9642 -11.6744
# 4 -23.4695 -15.1314 -26.6215 36.2706 -0.7678 1.5447
# 5 14.2181 8.5068 19.9642 -0.7678 25.2473 0.7885
# 6 -13.2646 -8.2911 -11.6744 1.5447 0.7885 41.8981
#
#
#
# Elastic Compliance Matrix: (Units=1/GPa)
#
#
# Indices 1 2 3 4 5 6 
#
# 1 0.011147 -0.002569 -0.001865 0.004588 -0.003873 0.002405
# 2 -0.002569 0.015827 -0.002634 0.002905 -0.001762 0.001511
# 3 -0.001865 -0.002634 0.007638 0.003173 -0.004036 0.000976
# 4 0.004588 0.002905 0.003173 0.033898 -0.005096 0.001758
# 5 -0.003873 -0.001762 -0.004036 -0.005096 0.045524 -0.003368
# 6 0.002405 0.001511 0.000976 0.001758 -0.003368 0.025198
#
#
# Mechanical properties :
#
#
# Convention : Reuss Voigt Hill
#
# Bulk Modulus (GPa) = 48.83733 77.38730 63.11232
# Shear Modulus (GPa) = 31.21232 36.97954 34.09593
#
# Velocity S-wave (km/s) = 3.96961 4.32081 4.14893
# Velocity P-wave (km/s) = 6.75769 7.99764 7.40367
#
# Compressibility (1/GPa) = 0.02047614
#
# Stress axis : x y z
#
# Youngs Moduli (GPa) = 89.70765 63.18404 130.93082
#
# Poissons Ratio (x) = 0.16234 0.24417
# Poissons Ratio (y) = 0.23049 0.34481
# Poissons Ratio (z) = 0.16730 0.16640
#
# Static dielectric constant tensor:
#      x y z
#    x 1.699270 0.028480 -0.008860 
#    y 0.028480 2.126830 -0.154870 
#    z -0.008860 -0.154870 1.771250 
# 
# From -- ./inp_files/153967.got.cif
#   From: 2010.05.17/outbox.cif.g08.bks.cpg/sg2_77_cif.got.tgz:153967.got - 2010.06.03 11:33:40.
