data_PCOD9002838
_publ_section_title
;
Structure prediction by ZEFSAII (Michael W. Deem and Ramdas Pophale) SiO2 
 PCOD9002838
Probable space group: P -1
;
_chemical_formula_sum "Si O2"
_cell_formula_units_Z 16
_cell_length_a 8.887994
_cell_length_b 15.264562
_cell_length_c 8.929938
_cell_angle_alpha 62.924069
_cell_angle_beta 76.379611
_cell_angle_gamma 42.960631
_cell_volume 725.593370
_symmetry_space_group_name_H-M "P -1"
_symmetry_group_IT_number 2
_symmetry_cell_setting 'triclinic'
loop_
_space_group_symop_operation_xyz
x,y,z
-x,-y,-z
loop_
_atom_site_type_symbol
_atom_site_label
_atom_site_fract_x
_atom_site_fract_y
_atom_site_fract_z
Si Si1 0.947002 0.100687 0.295768
Si Si2 0.454200 0.375373 0.083263
Si Si3 0.088644 0.656880 0.826091
Si Si4 0.599952 0.142003 0.729050
Si Si5 0.315150 0.407866 0.418819
Si Si6 0.017253 0.348088 0.480548
Si Si7 0.331771 0.247375 0.016452
Si Si8 0.424003 0.039572 0.659053
O O1 0.706611 0.220692 0.175358
O O2 0.970517 0.200973 0.274777
O O3 0.000000 0.000000 0.500000
O O4 0.135187 0.989518 0.213239
O O5 0.356401 0.427650 0.230733
O O6 0.339798 0.342121 0.037477
O O7 0.348115 0.519521 0.913730
O O8 0.039871 0.632307 0.695344
O O9 0.915672 0.685916 0.962141
O O10 0.540799 0.266795 0.553360
O O11 0.540055 0.076304 0.690074
O O12 0.433314 0.216953 0.851426
O O13 0.193570 0.539818 0.452018
O O14 0.167672 0.376065 0.455381
O O15 0.163554 0.185749 0.612149
O O16 0.498517 0.094059 0.175444
O O17 0.500000 0.000000 0.500000
#
# Coordination Sequence:
#
# PCOD9002838 Si02
#       8
#     2   2   2   2   2   2   2   2
#     4  12  27  48  71  92 140 194 231 279 345 422
#     4  12  26  43  70 102 139 185 223 287 351 414
#     4  12  25  44  70 104 139 176 232 284 353 406
#     4  11  23  42  68 100 137 181 232 284 345 406
#     4  10  21  39  65 103 139 173 228 279 350 407
#     4  10  21  36  66 101 141 169 223 290 337 408
#     4  12  24  40  74 105 139 171 231 299 346 403
#     4  11  20  38  65 104 135 174 223 281 343 405
#
# _framework density 22.050919
#
# number of rings (size 3 to 8) (size 9 to 14) (size 15 to 20)
#    0.000    0.750    5.000    2.625    7.000    0.500 
#    0.000    0.625    2.750    0.000    0.000    0.000 
#    0.000    0.000    0.000    0.000    0.000    0.000 
#
# Total GULP energy -89353.717409 kJ/mol
# GULP energy per Si atom -5584.607338 kJ/mol
# Density = 2.200073 g / cm^3
# Si number density = 22.050919 Si / 1000 Ang^3
#
#
#
# Elastic Constant Matrix: (Units=GPa)
#
#
# Indices 1 2 3 4 5 6 
#
# 1 48.5363 39.0565 19.0696 1.1210 3.0033 -10.2541
# 2 39.0565 157.6216 53.1088 -17.5807 5.3602 -3.7050
# 3 19.0696 53.1088 89.0531 -18.0816 7.3002 0.1399
# 4 1.1210 -17.5807 -18.0816 44.3500 -5.4684 7.9111
# 5 3.0033 5.3602 7.3002 -5.4684 19.0185 -10.3242
# 6 -10.2541 -3.7050 0.1399 7.9111 -10.3242 27.3159
#
#
#
# Elastic Compliance Matrix: (Units=1/GPa)
#
#
# Indices 1 2 3 4 5 6 
#
# 1 0.030708 -0.006744 -0.004422 -0.007274 0.004497 0.014442
# 2 -0.006744 0.009510 -0.003601 0.002797 -0.000670 -0.002287
# 3 -0.004422 -0.003601 0.015962 0.005531 -0.006169 -0.006164
# 4 -0.007274 0.002797 0.005531 0.028009 0.000749 -0.010208
# 5 0.004497 -0.000670 -0.006169 0.000749 0.069712 0.027760
# 6 0.014442 -0.002287 -0.006164 -0.010208 0.027760 0.055200
#
#
# Mechanical properties :
#
#
# Convention : Reuss Voigt Hill
#
# Bulk Modulus (GPa) = 37.52861 57.52009 47.52435
# Shear Modulus (GPa) = 20.20070 30.40196 25.30133
#
# Velocity S-wave (km/s) = 3.02999 3.71714 3.39101
# Velocity P-wave (km/s) = 5.41268 6.67567 6.07707
#
# Compressibility (1/GPa) = 0.02664633
#
# Stress axis : x y z
#
# Youngs Moduli (GPa) = 32.56475 105.15727 62.64883
#
# Poissons Ratio (x) = 0.70916 0.27705
# Poissons Ratio (y) = 0.21961 0.22557
# Poissons Ratio (z) = 0.14401 0.37863
#
# Static dielectric constant tensor:
#      x y z
#    x 1.891860 -0.006600 0.030040 
#    y -0.006600 1.910730 0.059200 
#    z 0.030040 0.059200 1.875860 
# 
# From -- ./inp_files/206311.got.cif
#   From: 2010.05.17/outbox.cif.g08.bks.cpg/sg2_104_cif.got.tgz:206311.got - 2010.06.03 11:33:40.
