data_PCOD9002066
_publ_section_title
;
Structure prediction by ZEFSAII (Michael W. Deem and Ramdas Pophale) SiO2 
 PCOD9002066
Probable space group: P -1
;
_chemical_formula_sum "Si O2"
_cell_formula_units_Z 16
_cell_length_a 5.233516
_cell_length_b 24.881006
_cell_length_c 6.175649
_cell_angle_alpha 93.237568
_cell_angle_beta 97.745392
_cell_angle_gamma 130.033407
_cell_volume 599.144735
_symmetry_space_group_name_H-M "P -1"
_symmetry_group_IT_number 2
_symmetry_cell_setting 'triclinic'
loop_
_space_group_symop_operation_xyz
x,y,z
-x,-y,-z
loop_
_atom_site_type_symbol
_atom_site_label
_atom_site_fract_x
_atom_site_fract_y
_atom_site_fract_z
Si Si1 0.719685 0.958633 0.650003
Si Si2 0.776722 0.796757 0.718690
Si Si3 0.699175 0.581486 0.121096
Si Si4 0.557583 0.167851 0.656946
Si Si5 0.156334 0.671629 0.808630
Si Si6 0.807145 0.694475 0.401593
Si Si7 0.006481 0.085570 0.961287
Si Si8 0.092144 0.451740 0.487286
O O1 0.409838 0.885722 0.474856
O O2 0.861451 0.938317 0.847674
O O3 0.000000 0.000000 0.500000
O O4 0.702985 0.014846 0.774632
O O5 0.630629 0.821101 0.542193
O O6 0.529453 0.746530 0.880200
O O7 0.752794 0.739949 0.554711
O O8 0.068942 0.869308 0.904915
O O9 0.560981 0.615082 0.244294
O O10 0.967332 0.590193 0.313903
O O11 0.500000 0.500000 0.000000
O O12 0.894432 0.635973 0.962708
O O13 0.319397 0.133356 0.833461
O O14 0.928352 0.246051 0.734629
O O15 0.995217 0.682845 0.596623
O O16 0.147466 0.607640 0.731803
O O17 0.500000 0.500000 0.500000
O O18 0.000000 0.500000 0.500000
#
# Coordination Sequence:
#
# PCOD9002066 Si02
#       8
#     2   2   2   2   2   2   2   2
#     4   8  15  29  56  85 115 156 198 248 302 371
#     4  10  21  36  57  84 118 157 201 258 312 378
#     4  11  23  43  65  92 122 166 216 265 332 400
#     4   9  18  36  56  83 117 157 200 248 311 372
#     4  10  23  40  62  88 122 163 209 258 323 392
#     4  10  23  39  59  86 124 158 205 265 321 379
#     4   9  16  31  57  84 115 156 204 244 307 374
#     4  11  25  45  68  96 133 167 216 279 340 402
#
# _framework density 26.704730999999999
#
# number of rings (size 3 to 8) (size 9 to 14) (size 15 to 20)
#    0.000    2.250    1.250    0.750    3.500    1.500 
#    2.250    0.625    0.000   25.500    0.000    0.000 
#    0.000    0.000    0.000    0.000    0.000    0.000 
#
# Total GULP energy -89201.578816 kJ/mol
# GULP energy per Si atom -5575.098676 kJ/mol
# Density = 2.664395 g / cm^3
# Si number density = 26.704731 Si / 1000 Ang^3
#
#
#
# Elastic Constant Matrix: (Units=GPa)
#
#
# Indices 1 2 3 4 5 6 
#
# 1 72.0004 50.7690 27.3643 8.6516 -16.5809 -18.9246
# 2 50.7690 190.7259 86.6577 37.0422 -29.9254 -14.5934
# 3 27.3643 86.6577 118.3612 27.4400 -22.3674 -9.4003
# 4 8.6516 37.0422 27.4400 93.2348 -16.2125 -29.6299
# 5 -16.5809 -29.9254 -22.3674 -16.2125 24.3393 5.2794
# 6 -18.9246 -14.5934 -9.4003 -29.6299 5.2794 43.5693
#
#
#
# Elastic Compliance Matrix: (Units=1/GPa)
#
#
# Indices 1 2 3 4 5 6 
#
# 1 0.021185 -0.004063 -0.000305 0.004563 0.010101 0.009654
# 2 -0.004063 0.009336 -0.004984 -0.001698 0.003274 -0.001264
# 3 -0.000305 -0.004984 0.013405 -0.001112 0.005310 -0.000309
# 4 0.004563 -0.001698 -0.001112 0.016355 0.008448 0.011272
# 5 0.010101 0.003274 0.005310 0.008448 0.061429 0.004932
# 6 0.009654 -0.001264 -0.000309 0.011272 0.004932 0.033723
#
#
# Mechanical properties :
#
#
# Convention : Reuss Voigt Hill
#
# Bulk Modulus (GPa) = 39.64924 78.96327 59.30626
# Shear Modulus (GPa) = 27.39038 46.64848 37.01943
#
# Velocity S-wave (km/s) = 3.20609 4.18404 3.72728
# Velocity P-wave (km/s) = 5.34648 7.27838 6.38591
#
# Compressibility (1/GPa) = 0.02522116
#
# Stress axis : x y z
#
# Youngs Moduli (GPa) = 47.20262 107.11396 74.59994
#
# Poissons Ratio (x) = 0.43522 0.02277
# Poissons Ratio (y) = 0.19179 0.37181
# Poissons Ratio (z) = 0.01441 0.53386
#
# Static dielectric constant tensor:
#      x y z
#    x 2.202570 0.099820 -0.098450 
#    y 0.099820 2.248480 0.135770 
#    z -0.098450 0.135770 2.242390 
# 
# From -- ./inp_files/13449.got.cif
#   From: 2010.05.17/outbox.cif.g08.bks.cpg/sg2_7_cif.got.tgz:13449.got - 2010.06.03 11:33:40.
