data_PCOD9002567
_publ_section_title
;
Structure prediction by ZEFSAII (Michael W. Deem and Ramdas Pophale) SiO2 
 PCOD9002567
Probable space group: P -1
;
_chemical_formula_sum "Si O2"
_cell_formula_units_Z 16
_cell_length_a 8.314529
_cell_length_b 25.055303
_cell_length_c 23.756412
_cell_angle_alpha 160.951411
_cell_angle_beta 27.608236
_cell_angle_gamma 155.297239
_cell_volume 661.256014
_symmetry_space_group_name_H-M "P -1"
_symmetry_group_IT_number 2
_symmetry_cell_setting 'triclinic'
loop_
_space_group_symop_operation_xyz
x,y,z
-x,-y,-z
loop_
_atom_site_type_symbol
_atom_site_label
_atom_site_fract_x
_atom_site_fract_y
_atom_site_fract_z
Si Si1 0.740833 0.525504 0.268542
Si Si2 0.311086 0.505072 0.483322
Si Si3 0.514881 0.130181 0.574593
Si Si4 0.865887 0.699336 0.073626
Si Si5 0.452771 0.996746 0.686613
Si Si6 0.555965 0.779058 0.770787
Si Si7 0.730684 0.705457 0.991002
Si Si8 0.531009 0.655726 0.356840
O O1 0.364974 0.494228 0.389892
O O2 0.789012 0.616608 0.283461
O O3 0.096819 0.674075 0.343339
O O4 0.760321 0.334567 0.070382
O O5 0.509685 0.710546 0.652249
O O6 0.517760 0.394456 0.338723
O O7 0.880336 0.417028 0.555126
O O8 0.152519 0.169325 0.741406
O O9 0.551902 0.052207 0.426405
O O10 0.500000 0.000000 0.500000
O O11 0.500000 0.500000 0.000000
O O12 0.793498 0.741502 0.074318
O O13 0.648804 0.868867 0.520277
O O14 0.020301 0.911167 0.764428
O O15 0.542608 0.211777 0.868668
O O16 0.183316 0.811021 0.932073
O O17 0.554930 0.488452 0.811713
#
# Coordination Sequence:
#
# PCOD9002567 Si02
#       8
#     2   2   2   2   2   2   2   2
#     4  11  20  39  61  86 122 160 194 245 304 351
#     4   9  16  31  61  90 119 158 191 236 303 363
#     4  11  22  40  61  87 111 154 211 256 285 339
#     4  10  21  36  62  85 110 154 209 250 283 341
#     4  11  21  39  62  86 124 154 201 250 297 352
#     4   9  17  31  59  94 114 148 199 254 293 346
#     4  11  20  38  61  88 122 155 201 246 301 346
#     4  10  23  37  59  91 128 158 189 237 307 378
#
# _framework density 24.196376000000001
#
# number of rings (size 3 to 8) (size 9 to 14) (size 15 to 20)
#    0.000    1.750    3.750    3.000    0.000    0.000 
#    2.250    6.250    0.000    3.000    0.000    0.000 
#    0.000    0.000    0.000    0.000    0.000    0.000 
#
# Total GULP energy -89219.137542 kJ/mol
# GULP energy per Si atom -5576.196096 kJ/mol
# Density = 2.414130 g / cm^3
# Si number density = 24.196376 Si / 1000 Ang^3
#
#
#
# Elastic Constant Matrix: (Units=GPa)
#
#
# Indices 1 2 3 4 5 6 
#
# 1 63.2830 8.2092 31.3232 3.6680 -7.1648 -21.1829
# 2 8.2092 63.4661 18.5567 -5.6394 9.9682 -8.9938
# 3 31.3232 18.5567 142.9088 1.5339 -12.8539 -9.0960
# 4 3.6680 -5.6394 1.5339 27.0590 -10.6042 -0.7830
# 5 -7.1648 9.9682 -12.8539 -10.6042 31.6538 1.0945
# 6 -21.1829 -8.9938 -9.0960 -0.7830 1.0945 34.2753
#
#
#
# Elastic Compliance Matrix: (Units=1/GPa)
#
#
# Indices 1 2 3 4 5 6 
#
# 1 0.022331 -0.000584 -0.003755 -0.001482 0.002784 0.012529
# 2 -0.000584 0.018335 -0.002606 0.001589 -0.006570 0.004005
# 3 -0.003755 -0.002606 0.008430 0.000926 0.003734 -0.000865
# 4 -0.001482 0.001589 0.000926 0.042891 0.013899 0.000283
# 5 0.002784 -0.006570 0.003734 0.013899 0.040463 0.000013
# 6 0.012529 0.004005 -0.000865 0.000283 0.000013 0.037746
#
#
# Mechanical properties :
#
#
# Convention : Reuss Voigt Hill
#
# Bulk Modulus (GPa) = 28.40460 42.87066 35.63763
# Shear Modulus (GPa) = 25.53356 32.70220 29.11788
#
# Velocity S-wave (km/s) = 3.25201 3.68031 3.47277
# Velocity P-wave (km/s) = 5.08580 5.98463 5.55343
#
# Compressibility (1/GPa) = 0.03520556
#
# Stress axis : x y z
#
# Youngs Moduli (GPa) = 44.78016 54.54190 118.62807
#
# Poissons Ratio (x) = 0.03186 0.44545
# Poissons Ratio (y) = 0.02616 0.30913
# Poissons Ratio (z) = 0.16815 0.14213
#
# Static dielectric constant tensor:
#      x y z
#    x 2.040010 0.079980 -0.146100 
#    y 0.079980 2.000470 -0.058440 
#    z -0.146100 -0.058440 2.100570 
# 
# From -- ./inp_files/171442.got.cif
#   From: 2010.05.17/outbox.cif.g08.bks.cpg/sg2_86_cif.got.tgz:171442.got - 2010.06.03 11:33:40.
