data_PCOD9002680
_publ_section_title
;
Structure prediction by ZEFSAII (Michael W. Deem and Ramdas Pophale) SiO2 
 PCOD9002680
Probable space group: P -1
;
_chemical_formula_sum "Si O2"
_cell_formula_units_Z 16
_cell_length_a 12.224452
_cell_length_b 8.028742
_cell_length_c 12.982474
_cell_angle_alpha 72.045423
_cell_angle_beta 54.491496
_cell_angle_gamma 49.103037
_cell_volume 778.642277
_symmetry_space_group_name_H-M "P -1"
_symmetry_group_IT_number 2
_symmetry_cell_setting 'triclinic'
loop_
_space_group_symop_operation_xyz
x,y,z
-x,-y,-z
loop_
_atom_site_type_symbol
_atom_site_label
_atom_site_fract_x
_atom_site_fract_y
_atom_site_fract_z
Si Si1 0.303737 0.670149 0.044937
Si Si2 0.550785 0.566993 0.561099
Si Si3 0.884065 0.408208 0.175898
Si Si4 0.048599 0.646395 0.085483
Si Si5 0.701987 0.099773 0.202645
Si Si6 0.783808 0.067320 0.570956
Si Si7 0.549792 0.841485 0.347023
Si Si8 0.941687 0.005489 0.702234
O O1 0.217387 0.560965 0.070914
O O2 0.193830 0.817965 0.174981
O O3 0.500000 0.500000 0.000000
O O4 0.288880 0.816776 0.929402
O O5 0.500000 0.500000 0.500000
O O6 0.395694 0.701836 0.700010
O O7 0.704122 0.329554 0.568719
O O8 0.582322 0.735363 0.464172
O O9 0.995564 0.486240 0.137582
O O10 0.691052 0.628571 0.242178
O O11 0.925324 0.221522 0.266696
O O12 0.930920 0.317405 0.052195
O O13 0.891152 0.885319 0.170592
O O14 0.591037 0.011042 0.278850
O O15 0.636572 0.062093 0.608053
O O16 0.944312 0.943674 0.430126
O O17 0.845797 0.977681 0.668933
#
# Coordination Sequence:
#
# PCOD9002680 Si02
#       8
#     2   2   2   2   2   2   2   2
#     4  12  27  41  63  92 127 165 203 261 313 367
#     4  10  21  36  63  91 121 161 203 249 303 360
#     4  10  21  42  64  95 122 162 207 253 313 363
#     4  10  24  40  65  93 127 159 205 259 306 376
#     4  11  23  41  62  96 125 160 207 258 309 365
#     4  10  23  40  63  90 125 166 205 254 297 384
#     4  10  22  38  66  93 124 160 207 257 307 363
#     4  11  23  42  62  91 124 167 209 245 320 362
#
# _framework density 20.548590999999998
#
# number of rings (size 3 to 8) (size 9 to 14) (size 15 to 20)
#    0.000    1.500    2.500    1.500    8.750    1.000 
#    0.000    1.250    0.000    3.750    0.000    0.000 
#    0.000    0.000    0.000    0.000    0.000    0.000 
#
# Total GULP energy -89393.636193 kJ/mol
# GULP energy per Si atom -5587.102262 kJ/mol
# Density = 2.050182 g / cm^3
# Si number density = 20.548591 Si / 1000 Ang^3
#
#
#
# Elastic Constant Matrix: (Units=GPa)
#
#
# Indices 1 2 3 4 5 6 
#
# 1 107.3570 28.5976 32.9046 11.2496 -17.9335 -13.4338
# 2 28.5976 41.0253 23.4432 21.1293 6.1175 -2.9077
# 3 32.9046 23.4432 133.7509 26.5663 7.3967 6.8105
# 4 11.2496 21.1293 26.5663 36.2193 -0.6116 -5.5088
# 5 -17.9335 6.1175 7.3967 -0.6116 28.0384 2.9177
# 6 -13.4338 -2.9077 6.8105 -5.5088 2.9177 26.6157
#
#
#
# Elastic Compliance Matrix: (Units=1/GPa)
#
#
# Indices 1 2 3 4 5 6 
#
# 1 0.017608 -0.015782 -0.004548 0.008615 0.015215 0.008442
# 2 -0.015782 0.051411 0.001915 -0.027806 -0.021777 -0.006207
# 3 -0.004548 0.001915 0.010551 -0.008438 -0.005679 -0.005910
# 4 0.008615 -0.027806 -0.008438 0.049431 0.013611 0.012209
# 5 0.015215 -0.021777 -0.005679 0.013611 0.051535 0.003921
# 6 0.008442 -0.006207 -0.005910 0.012209 0.003921 0.044764
#
#
# Mechanical properties :
#
#
# Convention : Reuss Voigt Hill
#
# Bulk Modulus (GPa) = 23.39795 50.22490 36.81143
# Shear Modulus (GPa) = 18.09125 31.32053 24.70589
#
# Velocity S-wave (km/s) = 2.97039 3.90836 3.47120
# Velocity P-wave (km/s) = 4.81411 6.69792 5.83257
#
# Compressibility (1/GPa) = 0.04273879
#
# Stress axis : x y z
#
# Youngs Moduli (GPa) = 56.79251 19.45122 94.77939
#
# Poissons Ratio (x) = 0.30699 0.43105
# Poissons Ratio (y) = 0.89633 -0.18151
# Poissons Ratio (z) = 0.25829 -0.03725
#
# Static dielectric constant tensor:
#      x y z
#    x 1.740260 0.025290 -0.027610 
#    y 0.025290 1.738030 -0.004380 
#    z -0.027610 -0.004380 1.753630 
# 
# From -- ./inp_files/392794.got.cif
#   From: 2010.05.17/outbox.cif.g08.bks.cpg/sg2_197_cif.got.tgz:392794.got - 2010.06.03 11:33:40.
