data_PCOD9002627
_publ_section_title
;
Structure prediction by ZEFSAII (Michael W. Deem and Ramdas Pophale) SiO2 
 PCOD9002627
Probable space group: P -1
;
_chemical_formula_sum "Si O2"
_cell_formula_units_Z 14
_cell_length_a 8.066163
_cell_length_b 10.004395
_cell_length_c 14.968327
_cell_angle_alpha 148.795590
_cell_angle_beta 75.092268
_cell_angle_gamma 98.521126
_cell_volume 598.477436
_symmetry_space_group_name_H-M "P -1"
_symmetry_group_IT_number 2
_symmetry_cell_setting 'triclinic'
loop_
_space_group_symop_operation_xyz
x,y,z
-x,-y,-z
loop_
_atom_site_type_symbol
_atom_site_label
_atom_site_fract_x
_atom_site_fract_y
_atom_site_fract_z
Si Si1 0.054600 0.815675 0.241315
Si Si2 0.988615 0.803075 0.701580
Si Si3 0.355893 0.751713 0.660414
Si Si4 0.403413 0.854986 0.519633
Si Si5 0.367195 0.465865 0.919788
Si Si6 0.590067 0.048017 0.921273
Si Si7 0.773191 0.897126 0.466574
O O1 0.179628 0.567020 0.046029
O O2 0.916970 0.747667 0.295553
O O3 0.992701 0.992226 0.265271
O O4 0.158114 0.004710 0.394851
O O5 0.787591 0.896912 0.811192
O O6 0.000000 0.500000 0.500000
O O7 0.153339 0.798383 0.744309
O O8 0.500000 0.500000 0.500000
O O9 0.463898 0.955729 0.809214
O O10 0.329051 0.746487 0.554451
O O11 0.298174 0.848548 0.439421
O O12 0.607269 0.758906 0.430207
O O13 0.390430 0.165317 0.718297
O O14 0.393918 0.659266 0.945471
O O15 0.500000 0.500000 0.000000
O O16 0.500000 0.000000 0.000000
#
# Coordination Sequence:
#
# PCOD9002627 Si02
#       7
#     2   2   2   2   2   2   2
#     4  10  21  40  61  94 129 162 211 269 326 380
#     4  11  23  44  69  93 130 178 222 265 332 401
#     4  12  24  44  72  93 131 183 222 268 339 394
#     4  11  22  40  64  96 128 169 217 263 328 395
#     4  11  21  42  67  89 133 176 204 266 340 389
#     4  11  26  46  67 100 136 171 226 279 326 390
#     4  10  21  36  62  95 126 157 214 273 311 381
#
# _framework density 23.392693999999999
#
# number of rings (size 3 to 8) (size 9 to 14) (size 15 to 20)
#    0.000    1.143    5.714    0.857    0.000    4.571 
#    0.000    0.000    0.000    0.000    0.000    0.000 
#    0.000    0.000    0.000    0.000    0.000    0.000 
#
# Total GULP energy -78073.951849 kJ/mol
# GULP energy per Si atom -5576.710846 kJ/mol
# Density = 2.333945 g / cm^3
# Si number density = 23.392694 Si / 1000 Ang^3
#
#
#
# Elastic Constant Matrix: (Units=GPa)
#
#
# Indices 1 2 3 4 5 6 
#
# 1 170.5385 12.6523 42.4075 -1.0969 -29.7274 -3.9887
# 2 12.6523 72.9803 21.0196 -3.7288 -24.1069 0.8441
# 3 42.4075 21.0196 95.6636 11.3517 -20.5193 7.8542
# 4 -1.0969 -3.7288 11.3517 36.2996 4.0358 -6.0704
# 5 -29.7274 -24.1069 -20.5193 4.0358 44.3501 -4.6057
# 6 -3.9887 0.8441 7.8542 -6.0704 -4.6057 34.9687
#
#
#
# Elastic Compliance Matrix: (Units=1/GPa)
#
#
# Indices 1 2 3 4 5 6 
#
# 1 0.007298 0.000988 -0.002857 0.001113 0.004234 0.002201
# 2 0.000988 0.017311 -0.002736 0.001987 0.008813 0.001815
# 3 -0.002857 -0.002736 0.014019 -0.005774 0.003195 -0.003990
# 4 0.001113 0.001987 -0.005774 0.030989 -0.003005 0.006360
# 5 0.004234 0.008813 0.003195 -0.003005 0.032269 0.003281
# 6 0.002201 0.001815 -0.003990 0.006360 0.003281 0.031237
#
#
# Mechanical properties :
#
#
# Convention : Reuss Voigt Hill
#
# Bulk Modulus (GPa) = 33.99331 54.59346 44.29338
# Shear Modulus (GPa) = 32.86497 40.66387 36.76442
#
# Velocity S-wave (km/s) = 3.75230 4.17383 3.96867
# Velocity P-wave (km/s) = 5.77375 6.82762 6.32268
#
# Compressibility (1/GPa) = 0.02941756
#
# Stress axis : x y z
#
# Youngs Moduli (GPa) = 137.03302 57.76724 71.33265
#
# Poissons Ratio (x) = -0.05705 0.20376
# Poissons Ratio (y) = -0.13533 0.19515
# Poissons Ratio (z) = 0.39144 0.15804
#
# Static dielectric constant tensor:
#      x y z
#    x 2.093830 0.015940 -0.034220 
#    y 0.015940 1.910210 -0.021240 
#    z -0.034220 -0.021240 1.946790 
# 
# From -- ./inp_files/206230.got.cif
#   From: 2010.05.17/outbox.cif.g08.bks.cpg/sg2_104_cif.got.tgz:206230.got - 2010.06.03 11:33:40.
