data_PCOD9002016
_publ_section_title
;
Structure prediction by ZEFSAII (Michael W. Deem and Ramdas Pophale) SiO2 
 PCOD9002016
Probable space group: P -1
;
_chemical_formula_sum "Si O2"
_cell_formula_units_Z 14
_cell_length_a 8.953085
_cell_length_b 9.043380
_cell_length_c 9.804947
_cell_angle_alpha 77.287542
_cell_angle_beta 131.627042
_cell_angle_gamma 101.152682
_cell_volume 577.642140
_symmetry_space_group_name_H-M "P -1"
_symmetry_group_IT_number 2
_symmetry_cell_setting 'triclinic'
loop_
_space_group_symop_operation_xyz
x,y,z
-x,-y,-z
loop_
_atom_site_type_symbol
_atom_site_label
_atom_site_fract_x
_atom_site_fract_y
_atom_site_fract_z
Si Si1 0.161684 0.353593 0.226313
Si Si2 0.778271 0.811046 0.290435
Si Si3 0.849453 0.518737 0.528959
Si Si4 0.751923 0.206482 0.461918
Si Si5 0.256715 0.683184 0.126789
Si Si6 0.456348 0.677857 0.957126
Si Si7 0.586000 0.892958 0.423385
O O1 0.060314 0.415143 0.290886
O O2 0.284136 0.506072 0.217368
O O3 0.292392 0.220065 0.385568
O O4 0.983907 0.304359 0.025248
O O5 0.720912 0.648703 0.364584
O O6 0.703456 0.919603 0.340033
O O7 0.015229 0.830610 0.406138
O O8 0.658789 0.786955 0.082383
O O9 0.749690 0.353819 0.527363
O O10 0.000000 0.500000 0.500000
O O11 0.662355 0.267938 0.255561
O O12 0.616574 0.064173 0.461005
O O13 0.377937 0.808675 0.266257
O O14 0.333808 0.705461 0.014595
O O15 0.500000 0.500000 0.000000
#
# Coordination Sequence:
#
# PCOD9002016 Si02
#       7
#     2   2   2   2   2   2   2
#     4  10  21  40  63  80 112 153 196 232 277 344
#     4   9  19  33  54  82 114 150 184 227 285 332
#     4   9  17  33  57  83 109 145 187 228 275 331
#     4  11  21  34  56  89 118 146 183 238 293 329
#     4  10  22  38  62  83 110 155 196 231 278 339
#     4  11  21  34  58  87 116 142 193 240 276 334
#     4  10  21  36  56  86 117 147 187 235 287 338
#
# _framework density 24.236457000000001
#
# number of rings (size 3 to 8) (size 9 to 14) (size 15 to 20)
#    0.000    2.000    1.429    3.429    2.000    3.429 
#    0.000    0.714    0.000    1.714    0.000    0.000 
#    0.000    0.000    0.000    0.000    0.000    0.000 
#
# Total GULP energy -78215.602253 kJ/mol
# GULP energy per Si atom -5586.828732 kJ/mol
# Density = 2.418129 g / cm^3
# Si number density = 24.236457 Si / 1000 Ang^3
#
#
#
# Elastic Constant Matrix: (Units=GPa)
#
#
# Indices 1 2 3 4 5 6 
#
# 1 48.6682 18.8230 11.5665 1.5162 4.0468 23.1938
# 2 18.8230 175.3030 56.6228 22.3373 14.7802 18.6249
# 3 11.5665 56.6228 127.8257 28.8551 20.6235 16.4076
# 4 1.5162 22.3373 28.8551 35.2446 12.6075 5.0059
# 5 4.0468 14.7802 20.6235 12.6075 22.4448 0.8084
# 6 23.1938 18.6249 16.4076 5.0059 0.8084 30.8905
#
#
#
# Elastic Compliance Matrix: (Units=1/GPa)
#
#
# Indices 1 2 3 4 5 6 
#
# 1 0.033439 -0.001139 0.000912 0.005030 -0.008024 -0.025510
# 2 -0.001139 0.007081 -0.002131 -0.001940 -0.001340 -0.001932
# 3 0.000912 -0.002131 0.011429 -0.005200 -0.006181 -0.004466
# 4 0.005030 -0.001940 -0.005200 0.040767 -0.017535 -0.005993
# 5 -0.008024 -0.001340 -0.006181 -0.017535 0.062003 0.011334
# 6 -0.025510 -0.001932 -0.004466 -0.005993 0.011334 0.055738
#
#
# Mechanical properties :
#
#
# Convention : Reuss Voigt Hill
#
# Bulk Modulus (GPa) = 21.17199 58.42462 39.79830
# Shear Modulus (GPa) = 21.65273 35.36829 28.51051
#
# Velocity S-wave (km/s) = 2.99221 3.82422 3.43351
# Velocity P-wave (km/s) = 4.54889 6.60742 5.67232
#
# Compressibility (1/GPa) = 0.04723221
#
# Stress axis : x y z
#
# Youngs Moduli (GPa) = 29.90523 141.23153 87.49612
#
# Poissons Ratio (x) = 0.16091 -0.07984
# Poissons Ratio (y) = 0.03407 0.18648
# Poissons Ratio (z) = -0.02729 0.30101
#
# Static dielectric constant tensor:
#      x y z
#    x 2.056740 -0.032220 0.015570 
#    y -0.032220 2.010320 0.016480 
#    z 0.015570 0.016480 1.950390 
# 
# From -- ./inp_files/416737.got.cif
#   From: 2010.05.17/outbox.cif.g08.bks.cpg/sg2_209_cif.got.tgz:416737.got - 2010.06.03 11:33:40.
