data_PCOD9002630
_publ_section_title
;
Structure prediction by ZEFSAII (Michael W. Deem and Ramdas Pophale) SiO2 
 PCOD9002630
Probable space group: P -1
;
_chemical_formula_sum "Si O2"
_cell_formula_units_Z 15
_cell_length_a 6.059559
_cell_length_b 11.362439
_cell_length_c 16.680850
_cell_angle_alpha 36.344412
_cell_angle_beta 74.155636
_cell_angle_gamma 64.423448
_cell_volume 607.921837
_symmetry_space_group_name_H-M "P -1"
_symmetry_group_IT_number 2
_symmetry_cell_setting 'triclinic'
loop_
_space_group_symop_operation_xyz
x,y,z
-x,-y,-z
loop_
_atom_site_type_symbol
_atom_site_label
_atom_site_fract_x
_atom_site_fract_y
_atom_site_fract_z
Si Si1 0.510769 0.301026 0.822569
Si Si2 0.811552 0.670659 0.301012
Si Si3 0.743693 0.319737 0.109569
Si Si4 0.717367 0.654670 0.637206
Si Si5 0.770328 0.961901 0.584495
Si Si6 0.203608 0.328111 0.981923
Si Si7 0.000000 0.000000 0.000000
Si Si8 0.483496 0.995969 0.739191
O O1 0.416501 0.347547 0.716719
O O2 0.609739 0.470944 0.759611
O O3 0.276671 0.320761 0.887810
O O4 0.735537 0.083144 0.933662
O O5 0.044156 0.448626 0.386985
O O6 0.901704 0.848098 0.153791
O O7 0.695384 0.770995 0.342367
O O8 0.669708 0.114807 0.238052
O O9 0.958039 0.280691 0.044892
O O10 0.500000 0.500000 0.000000
O O11 0.823146 0.438642 0.108992
O O12 0.784709 0.737676 0.668469
O O13 0.488221 0.853214 0.517085
O O14 0.729439 0.975011 0.676723
O O15 0.000000 0.000000 0.500000
O O16 0.415389 0.152063 0.110636
#
# Coordination Sequence:
#
# PCOD9002630 Si02
#       8
#     2   2   2   2   2   2   1   2
#     4  11  22  40  65  99 138 179 215 263 330 410
#     4  11  24  40  66 104 140 178 219 274 336 409
#     4   9  21  37  55  91 132 173 218 269 324 390
#     4  10  25  45  71  97 127 182 228 285 340 394
#     4  11  25  49  73  93 127 177 237 290 338 399
#     4  10  21  36  62  95 134 175 219 269 327 400
#     4  10  22  38  62  92 142 182 212 246 328 404
#     4  11  24  41  65  99 134 175 222 280 340 394
#
# _framework density 24.674223999999999
#
# number of rings (size 3 to 8) (size 9 to 14) (size 15 to 20)
#    0.000    1.600    1.333    2.000    1.867   11.200 
#    0.000    2.667    0.000    0.000    0.000    0.000 
#    0.000    0.000    0.000    0.000    0.000    0.000 
#
# Total GULP energy -83622.344432 kJ/mol
# GULP energy per Si atom -5574.822962 kJ/mol
# Density = 2.461806 g / cm^3
# Si number density = 24.674224 Si / 1000 Ang^3
#
#
#
# Elastic Constant Matrix: (Units=GPa)
#
#
# Indices 1 2 3 4 5 6 
#
# 1 96.6014 54.3903 19.2757 -9.2167 -8.1197 -28.3098
# 2 54.3903 173.5221 40.7362 -11.4283 -13.8693 -18.7213
# 3 19.2757 40.7362 23.7216 -2.3885 -0.3936 1.3505
# 4 -9.2167 -11.4283 -2.3885 29.6622 -8.3686 4.9959
# 5 -8.1197 -13.8693 -0.3936 -8.3686 42.3978 -10.8809
# 6 -28.3098 -18.7213 1.3505 4.9959 -10.8809 38.5339
#
#
#
# Elastic Compliance Matrix: (Units=1/GPa)
#
#
# Indices 1 2 3 4 5 6 
#
# 1 0.019914 0.001093 -0.018434 0.004804 0.009536 0.017877
# 2 0.001093 0.012486 -0.022348 0.003835 0.007202 0.009189
# 3 -0.018434 -0.022348 0.096367 -0.006639 -0.019584 -0.032448
# 4 0.004804 0.003835 -0.006639 0.038542 0.010654 0.003636
# 5 0.009536 0.007202 -0.019584 0.010654 0.034723 0.019615
# 6 0.017877 0.009189 -0.032448 0.003636 0.019615 0.049754
#
#
# Mechanical properties :
#
#
# Convention : Reuss Voigt Hill
#
# Bulk Modulus (GPa) = 20.24789 58.07217 39.16003
# Shear Modulus (GPa) = 14.38319 34.08164 24.23242
#
# Velocity S-wave (km/s) = 2.41700 3.72057 3.13724
# Velocity P-wave (km/s) = 4.00164 6.48410 5.38779
#
# Compressibility (1/GPa) = 0.04938787
#
# Stress axis : x y z
#
# Youngs Moduli (GPa) = 50.21690 80.08694 10.37698
#
# Poissons Ratio (x) = -0.08755 0.19129
# Poissons Ratio (y) = -0.05490 0.23191
# Poissons Ratio (z) = 0.92572 1.78981
#
# Static dielectric constant tensor:
#      x y z
#    x 1.931590 0.025350 -0.016700 
#    y 0.025350 1.994130 -0.006870 
#    z -0.016700 -0.006870 1.980790 
# 
# From -- ./inp_files/549019.got.cif
#   From: 2010.05.17/outbox.cif.g08.bks.cpg/sg2_275_cif.got.tgz:549019.got - 2010.06.03 11:33:40.
