data_PCOD9002749
_publ_section_title
;
Structure prediction by ZEFSAII (Michael W. Deem and Ramdas Pophale) SiO2 
 PCOD9002749
Probable space group: P -1
;
_chemical_formula_sum "Si O2"
_cell_formula_units_Z 16
_cell_length_a 12.445106
_cell_length_b 6.547667
_cell_length_c 11.169755
_cell_angle_alpha 71.722890
_cell_angle_beta 77.287598
_cell_angle_gamma 51.490715
_cell_volume 675.917378
_symmetry_space_group_name_H-M "P -1"
_symmetry_group_IT_number 2
_symmetry_cell_setting 'triclinic'
loop_
_space_group_symop_operation_xyz
x,y,z
-x,-y,-z
loop_
_atom_site_type_symbol
_atom_site_label
_atom_site_fract_x
_atom_site_fract_y
_atom_site_fract_z
Si Si1 0.490357 0.601675 0.281827
Si Si2 0.914095 0.622144 0.836297
Si Si3 0.983207 0.927517 0.649380
Si Si4 0.265247 0.506682 0.374217
Si Si5 0.379034 0.851410 0.864437
Si Si6 0.902507 0.914128 0.019691
Si Si7 0.722995 0.589079 0.340814
Si Si8 0.633691 0.799915 0.840934
O O1 0.368039 0.587589 0.354128
O O2 0.576359 0.364935 0.208836
O O3 0.597393 0.569619 0.357539
O O4 0.422719 0.894233 0.189645
O O5 0.903526 0.791360 0.695020
O O6 0.781866 0.632940 0.896681
O O7 0.044255 0.318798 0.852649
O O8 0.932748 0.769812 0.911710
O O9 0.138001 0.683677 0.695692
O O10 0.881750 0.221021 0.680533
O O11 0.000000 0.000000 0.500000
O O12 0.253646 0.402689 0.524162
O O13 0.330838 0.293882 0.289707
O O14 0.517174 0.768256 0.913226
O O15 0.260183 0.880741 0.965784
O O16 0.322674 0.139421 0.765159
O O17 0.000000 0.000000 0.000000
#
# Coordination Sequence:
#
# PCOD9002749 Si02
#       8
#     2   2   2   2   2   2   2   2
#     4  10  21  36  64  89 134 174 211 263 313 383
#     4  11  24  46  68  96 132 168 216 270 326 385
#     4  10  21  41  67  97 132 169 213 263 323 387
#     4  10  21  38  61  98 128 176 212 253 329 381
#     4  10  23  42  62  97 127 171 220 264 325 377
#     4  11  27  44  71  95 125 172 217 272 330 382
#     4  10  21  38  61  94 136 166 216 265 311 391
#     4  10  23  41  66  92 133 167 216 271 316 389
#
# _framework density 23.671531999999999
#
# number of rings (size 3 to 8) (size 9 to 14) (size 15 to 20)
#    0.000    1.750    2.500    0.375    3.500    7.000 
#    0.000    2.500    0.000    0.000    0.000    0.000 
#    0.000    0.000    0.000    0.000    0.000    0.000 
#
# Total GULP energy -89388.553951 kJ/mol
# GULP energy per Si atom -5586.784622 kJ/mol
# Density = 2.361765 g / cm^3
# Si number density = 23.671532 Si / 1000 Ang^3
#
#
#
# Elastic Constant Matrix: (Units=GPa)
#
#
# Indices 1 2 3 4 5 6 
#
# 1 146.7469 37.3495 23.8155 9.3080 -6.3050 -1.4834
# 2 37.3495 107.7318 23.4964 0.0287 -3.3457 -14.3678
# 3 23.8155 23.4964 52.8448 2.9629 -11.6203 4.9102
# 4 9.3080 0.0287 2.9629 26.8526 -4.3575 -2.1435
# 5 -6.3050 -3.3457 -11.6203 -4.3575 30.5521 2.1689
# 6 -1.4834 -14.3678 4.9102 -2.1435 2.1689 42.6766
#
#
#
# Elastic Compliance Matrix: (Units=1/GPa)
#
#
# Indices 1 2 3 4 5 6 
#
# 1 0.007938 -0.002280 -0.002356 -0.002491 0.000162 -0.000354
# 2 -0.002280 0.011726 -0.004955 0.001498 -0.001182 0.004574
# 3 -0.002356 -0.004955 0.024590 -0.000907 0.008554 -0.005060
# 4 -0.002491 0.001498 -0.000907 0.039149 0.004729 0.002248
# 5 0.000162 -0.001182 0.008554 0.004729 0.036776 -0.003008
# 6 -0.000354 0.004574 -0.005060 0.002248 -0.003008 0.025808
#
#
# Mechanical properties :
#
#
# Convention : Reuss Voigt Hill
#
# Bulk Modulus (GPa) = 39.88315 52.96070 46.42193
# Shear Modulus (GPa) = 28.81382 34.86040 31.83711
#
# Velocity S-wave (km/s) = 3.49267 3.84170 3.67134
# Velocity P-wave (km/s) = 5.75762 6.48845 6.13393
#
# Compressibility (1/GPa) = 0.02507325
#
# Stress axis : x y z
#
# Youngs Moduli (GPa) = 125.96933 85.27745 40.66665
#
# Poissons Ratio (x) = 0.19443 0.09579
# Poissons Ratio (y) = 0.28720 0.20152
# Poissons Ratio (z) = 0.29673 0.42258
#
# Static dielectric constant tensor:
#      x y z
#    x 1.945710 -0.032380 -0.026600 
#    y -0.032380 1.879760 -0.041050 
#    z -0.026600 -0.041050 1.938380 
# 
# From -- ./inp_files/364506.got.cif
#   From: 2010.05.17/outbox.cif.g08.bks.cpg/sg2_183_cif.got.tgz:364506.got - 2010.06.03 11:33:40.
