data_PCOD9002375
_publ_section_title
;
Structure prediction by ZEFSAII (Michael W. Deem and Ramdas Pophale) SiO2 
 PCOD9002375
Probable space group: P -1
;
_chemical_formula_sum "Si O2"
_cell_formula_units_Z 12
_cell_length_a 8.521442
_cell_length_b 22.843458
_cell_length_c 9.581199
_cell_angle_alpha 140.645146
_cell_angle_beta 150.676391
_cell_angle_gamma 39.205095
_cell_volume 547.892620
_symmetry_space_group_name_H-M "P -1"
_symmetry_group_IT_number 2
_symmetry_cell_setting 'triclinic'
loop_
_space_group_symop_operation_xyz
x,y,z
-x,-y,-z
loop_
_atom_site_type_symbol
_atom_site_label
_atom_site_fract_x
_atom_site_fract_y
_atom_site_fract_z
Si Si1 0.334285 0.358222 0.220220
Si Si2 0.839086 0.319930 0.082723
Si Si3 0.224139 0.781353 0.896581
Si Si4 0.793888 0.545293 0.251754
Si Si5 0.741311 0.890559 0.497186
Si Si6 0.169147 0.746637 0.363289
O O1 0.489965 0.288415 0.345987
O O2 0.136381 0.467764 0.314808
O O3 0.627812 0.319703 0.262636
O O4 0.021260 0.326914 0.865462
O O5 0.062399 0.392119 0.412414
O O6 0.955998 0.239209 0.144056
O O7 0.441885 0.383184 0.913976
O O8 0.818293 0.272764 0.827797
O O9 0.531214 0.819170 0.243889
O O10 0.014228 0.866517 0.787314
O O11 0.500000 0.500000 0.000000
O O12 0.940348 0.851696 0.435068
O O13 0.500000 0.000000 0.500000
#
# Coordination Sequence:
#
# PCOD9002375 Si02
#       6
#     2   2   2   2   2   2
#     4  10  21  38  57  84 119 166 209 237 280 356
#     4  12  24  37  59  90 127 157 198 259 297 331
#     4  10  23  41  61  91 125 152 194 253 314 345
#     4  12  24  36  59  88 123 166 217 237 276 353
#     4  10  21  43  68  88 115 157 200 240 300 389
#     4  10  21  36  60  88 118 157 203 239 302 352
#
# _framework density 21.902100000000001
#
# number of rings (size 3 to 8) (size 9 to 14) (size 15 to 20)
#    0.000    1.333    1.667    4.000    0.000    1.333 
#    0.000    1.667    0.000    0.000    0.000    0.000 
#    0.000    0.000    0.000    0.000    0.000    0.000 
#
# Total GULP energy -66820.135931 kJ/mol
# GULP energy per Si atom -5568.344661 kJ/mol
# Density = 2.185225 g / cm^3
# Si number density = 21.902100 Si / 1000 Ang^3
#
#
#
# Elastic Constant Matrix: (Units=GPa)
#
#
# Indices 1 2 3 4 5 6 
#
# 1 53.4340 36.2384 16.7394 2.7513 -18.6260 2.3484
# 2 36.2384 112.4244 5.4857 4.4276 -18.0898 -28.2035
# 3 16.7394 5.4857 75.2569 -5.4622 -4.7634 -3.0956
# 4 2.7513 4.4276 -5.4622 25.4725 -1.7806 -0.4129
# 5 -18.6260 -18.0898 -4.7634 -1.7806 31.0268 -0.8756
# 6 2.3484 -28.2035 -3.0956 -0.4129 -0.8756 29.8396
#
#
#
# Elastic Compliance Matrix: (Units=1/GPa)
#
#
# Indices 1 2 3 4 5 6 
#
# 1 0.034047 -0.012388 -0.006715 -0.002391 0.011631 -0.014777
# 2 -0.012388 0.018043 0.002393 -0.000712 0.003928 0.018382
# 3 -0.006715 0.002393 0.015050 0.003608 0.000006 0.004402
# 4 -0.002391 -0.000712 0.003608 0.040494 0.001041 0.000480
# 5 0.011631 0.003928 0.000006 0.001041 0.041677 0.004035
# 6 -0.014777 0.018382 0.004402 0.000480 0.004035 0.052632
#
#
# Mechanical properties :
#
#
# Convention : Reuss Voigt Hill
#
# Bulk Modulus (GPa) = 29.65598 39.78245 34.71922
# Shear Modulus (GPa) = 20.27547 29.44455 24.86001
#
# Velocity S-wave (km/s) = 3.04589 3.67054 3.37271
# Velocity P-wave (km/s) = 5.09309 6.01391 5.57255
#
# Compressibility (1/GPa) = 0.03372001
#
# Stress axis : x y z
#
# Youngs Moduli (GPa) = 29.37136 55.42362 66.44355
#
# Poissons Ratio (x) = 0.68660 0.44618
# Poissons Ratio (y) = 0.36386 -0.15902
# Poissons Ratio (z) = 0.19723 -0.13265
#
# Static dielectric constant tensor:
#      x y z
#    x 1.899150 -0.028950 -0.022690 
#    y -0.028950 1.842700 0.004550 
#    z -0.022690 0.004550 1.800500 
# 
# From -- ./inp_files/223970.got.cif
#   From: 2010.05.17/outbox.cif.g08.bks.cpg/sg2_112_cif.got.tgz:223970.got - 2010.06.03 11:33:40.
