data_PCOD9002154
_publ_section_title
;
Structure prediction by ZEFSAII (Michael W. Deem and Ramdas Pophale) SiO2 
 PCOD9002154
Probable space group: P -1
;
_chemical_formula_sum "Si O2"
_cell_formula_units_Z 12
_cell_length_a 8.299137
_cell_length_b 12.209007
_cell_length_c 7.493229
_cell_angle_alpha 77.330284
_cell_angle_beta 126.255671
_cell_angle_gamma 65.715923
_cell_volume 433.719866
_symmetry_space_group_name_H-M "P -1"
_symmetry_group_IT_number 2
_symmetry_cell_setting 'triclinic'
loop_
_space_group_symop_operation_xyz
x,y,z
-x,-y,-z
loop_
_atom_site_type_symbol
_atom_site_label
_atom_site_fract_x
_atom_site_fract_y
_atom_site_fract_z
Si Si1 0.132443 0.813392 0.456322
Si Si2 0.403406 0.885291 0.146031
Si Si3 0.537418 0.618279 0.514955
Si Si4 0.008165 0.711752 0.705319
Si Si5 0.826401 0.810489 0.957372
Si Si6 0.123119 0.435351 0.802928
O O1 0.149679 0.760739 0.683667
O O2 0.415876 0.728584 0.571006
O O3 0.050768 0.747517 0.282002
O O4 0.855257 0.994989 0.197914
O O5 0.399740 0.755014 0.230958
O O6 0.725067 0.796496 0.376020
O O7 0.324515 0.010150 0.200196
O O8 0.500000 0.500000 0.500000
O O9 0.859769 0.515360 0.730704
O O10 0.925559 0.757094 0.839917
O O11 0.207656 0.528389 0.878112
O O12 0.698312 0.746396 0.982667
O O13 0.000000 0.500000 0.500000
#
# Coordination Sequence:
#
# PCOD9002154 Si02
#       6
#     2   2   2   2   2   2
#     4  10  21  36  59  83 114 148 186 225 283 328
#     4   9  21  35  58  82 114 148 188 228 276 327
#     4  11  19  36  61  82 112 149 185 232 279 333
#     4  11  20  37  59  83 115 149 185 231 274 327
#     4  10  21  36  58  85 115 142 192 230 273 327
#     4  11  20  37  61  85 109 151 189 226 279 331
#
# _framework density 27.667628000000001
#
# number of rings (size 3 to 8) (size 9 to 14) (size 15 to 20)
#    1.000    0.667    3.333    2.000    0.000    0.000 
#    0.000    1.667    7.333    0.000    0.000    0.000 
#    0.000    0.000    0.000    0.000    0.000    0.000 
#
# Total GULP energy -66815.774831 kJ/mol
# GULP energy per Si atom -5567.981236 kJ/mol
# Density = 2.760466 g / cm^3
# Si number density = 27.667628 Si / 1000 Ang^3
#
#
#
# Elastic Constant Matrix: (Units=GPa)
#
#
# Indices 1 2 3 4 5 6 
#
# 1 62.2466 27.7313 40.4589 -7.2354 -23.6555 -10.3870
# 2 27.7313 133.8348 48.3778 -9.0644 -18.3118 7.7068
# 3 40.4589 48.3778 114.8949 -19.5106 -23.8602 -8.7831
# 4 -7.2354 -9.0644 -19.5106 63.8783 5.3569 -7.5365
# 5 -23.6555 -18.3118 -23.8602 5.3569 47.9861 -2.3890
# 6 -10.3870 7.7068 -8.7831 -7.5365 -2.3890 53.0007
#
#
#
# Elastic Compliance Matrix: (Units=1/GPa)
#
#
# Indices 1 2 3 4 5 6 
#
# 1 0.024855 -0.002173 -0.005530 0.000638 0.008840 0.004760
# 2 -0.002173 0.009307 -0.003206 -0.000244 0.000799 -0.002309
# 3 -0.005530 -0.003206 0.013159 0.002987 0.002365 0.002094
# 4 0.000638 -0.000244 0.002987 0.016969 -0.000035 0.003067
# 5 0.008840 0.000799 0.002365 -0.000035 0.026842 0.003213
# 6 0.004760 -0.002309 0.002094 0.003067 0.003213 0.021064
#
#
# Mechanical properties :
#
#
# Convention : Reuss Voigt Hill
#
# Bulk Modulus (GPa) = 39.20826 60.45692 49.83259
# Shear Modulus (GPa) = 35.08446 45.93356 40.50901
#
# Velocity S-wave (km/s) = 3.56486 4.07897 3.83055
# Velocity P-wave (km/s) = 5.58088 6.63947 6.13306
#
# Compressibility (1/GPa) = 0.02550483
#
# Stress axis : x y z
#
# Youngs Moduli (GPa) = 40.23324 107.45106 75.99411
#
# Poissons Ratio (x) = 0.23346 0.42021
# Poissons Ratio (y) = 0.08741 0.24361
# Poissons Ratio (z) = 0.22247 0.34445
#
# Static dielectric constant tensor:
#      x y z
#    x 2.460120 0.019090 0.142360 
#    y 0.019090 2.187960 -0.012240 
#    z 0.142360 -0.012240 2.331860 
# 
# From -- ./inp_files/192002.got.cif
#   From: 2010.05.17/outbox.cif.g08.bks.cpg/sg2_97_cif.got.tgz:192002.got - 2010.06.03 11:33:40.
