data_PCOD9002134
_publ_section_title
;
Structure prediction by ZEFSAII (Michael W. Deem and Ramdas Pophale) SiO2 
 PCOD9002134
Probable space group: P -1
;
_chemical_formula_sum "Si O2"
_cell_formula_units_Z 12
_cell_length_a 19.855467
_cell_length_b 28.111178
_cell_length_c 4.868146
_cell_angle_alpha 70.241379
_cell_angle_beta 69.729752
_cell_angle_gamma 11.613347
_cell_volume 513.102587
_symmetry_space_group_name_H-M "P -1"
_symmetry_group_IT_number 2
_symmetry_cell_setting 'triclinic'
loop_
_space_group_symop_operation_xyz
x,y,z
-x,-y,-z
loop_
_atom_site_type_symbol
_atom_site_label
_atom_site_fract_x
_atom_site_fract_y
_atom_site_fract_z
Si Si1 0.914683 0.173029 0.989549
Si Si2 0.910702 0.609715 0.214775
Si Si3 0.534484 0.546360 0.404805
Si Si4 0.716768 0.606925 0.426809
Si Si5 0.230945 0.028008 0.241943
Si Si6 0.672503 0.203792 0.714312
O O1 0.637223 0.346080 0.269868
O O2 0.093894 0.099255 0.008049
O O3 0.697095 0.325559 0.727596
O O4 0.185044 0.941705 0.033899
O O5 0.000000 0.500000 0.500000
O O6 0.017792 0.579424 0.338041
O O7 0.534267 0.859506 0.154429
O O8 0.125979 0.471818 0.906158
O O9 0.487049 0.638415 0.222051
O O10 0.918175 0.268169 0.364987
O O11 0.580879 0.647263 0.434034
O O12 0.402060 0.859684 0.457570
O O13 0.000000 0.000000 0.500000
#
# Coordination Sequence:
#
# PCOD9002134 Si02
#       6
#     2   2   2   2   2   2
#     4  10  22  36  56  82 113 147 185 227 280 336
#     4  10  21  38  59  85 112 149 191 232 276 332
#     4  11  22  36  55  85 114 144 185 233 279 329
#     4  10  22  38  60  84 112 148 192 230 275 337
#     4  10  21  36  58  83 112 146 185 235 280 323
#     4   9  21  40  60  83 114 152 186 227 282 341
#
# _framework density 23.387136999999999
#
# number of rings (size 3 to 8) (size 9 to 14) (size 15 to 20)
#    0.000    2.000    0.000    3.500    0.000   18.667 
#    0.000    1.667    0.000    0.000    0.000    0.000 
#    0.000    0.000    0.000    0.000    0.000    0.000 
#
# Total GULP energy -67084.893391 kJ/mol
# GULP energy per Si atom -5590.407783 kJ/mol
# Density = 2.333391 g / cm^3
# Si number density = 23.387137 Si / 1000 Ang^3
#
#
#
# Elastic Constant Matrix: (Units=GPa)
#
#
# Indices 1 2 3 4 5 6 
#
# 1 124.9727 87.7243 29.7018 1.2122 11.0276 -18.2411
# 2 87.7243 167.5640 44.1456 8.9776 6.7682 -19.6734
# 3 29.7018 44.1456 113.6827 5.9015 3.6075 -4.2859
# 4 1.2122 8.9776 5.9015 20.8538 -5.6178 6.6407
# 5 11.0276 6.7682 3.6075 -5.6178 19.8974 -3.9022
# 6 -18.2411 -19.6734 -4.2859 6.6407 -3.9022 50.5332
#
#
#
# Elastic Compliance Matrix: (Units=1/GPa)
#
#
# Indices 1 2 3 4 5 6 
#
# 1 0.013358 -0.006395 -0.000809 0.000372 -0.004612 0.001858
# 2 -0.006395 0.010340 -0.002031 -0.004275 -0.000404 0.002075
# 3 -0.000809 -0.002031 0.009952 -0.002231 -0.001304 -0.000046
# 4 0.000372 -0.004275 -0.002231 0.057333 0.016272 -0.007997
# 5 -0.004612 -0.000404 -0.001304 0.016272 0.057860 0.000397
# 6 0.001858 0.002075 -0.000046 -0.007997 0.000397 0.022345
#
#
# Mechanical properties :
#
#
# Convention : Reuss Voigt Hill
#
# Bulk Modulus (GPa) = 65.88568 81.04030 73.46299
# Shear Modulus (GPa) = 25.67784 34.56673 30.12229
#
# Velocity S-wave (km/s) = 3.31712 3.84868 3.59274
# Velocity P-wave (km/s) = 6.55011 7.38083 6.97784
#
# Compressibility (1/GPa) = 0.01517781
#
# Stress axis : x y z
#
# Youngs Moduli (GPa) = 74.86154 96.70918 100.48027
#
# Poissons Ratio (x) = 0.61850 0.08133
# Poissons Ratio (y) = 0.47878 0.20412
# Poissons Ratio (z) = 0.06059 0.19646
#
# Static dielectric constant tensor:
#      x y z
#    x 1.935570 -0.013700 -0.002680 
#    y -0.013700 1.912400 0.015720 
#    z -0.002680 0.015720 1.961250 
# 
# From -- ./inp_files/73767.got.cif
#   From: 2010.05.17/outbox.cif.g08.bks.cpg/sg2_37_cif.got.tgz:73767.got - 2010.06.03 11:33:40.
