data_PCOD9002726
_publ_section_title
;
Structure prediction by ZEFSAII (Michael W. Deem and Ramdas Pophale) SiO2 
 PCOD9002726
Probable space group: P -1
;
_chemical_formula_sum "Si O2"
_cell_formula_units_Z 16
_cell_length_a 8.204224
_cell_length_b 10.838237
_cell_length_c 12.518020
_cell_angle_alpha 41.796790
_cell_angle_beta 103.492467
_cell_angle_gamma 123.245139
_cell_volume 588.933064
_symmetry_space_group_name_H-M "P -1"
_symmetry_group_IT_number 2
_symmetry_cell_setting 'triclinic'
loop_
_space_group_symop_operation_xyz
x,y,z
-x,-y,-z
loop_
_atom_site_type_symbol
_atom_site_label
_atom_site_fract_x
_atom_site_fract_y
_atom_site_fract_z
Si Si1 0.712290 0.666880 0.364346
Si Si2 0.709440 0.088600 0.226369
Si Si3 0.722018 0.132578 0.741928
Si Si4 0.048387 0.243745 0.320100
Si Si5 0.055427 0.100065 0.062532
Si Si6 0.978605 0.404279 0.415713
Si Si7 0.453728 0.336626 0.366891
Si Si8 0.370654 0.584456 0.872534
O O1 0.500000 0.500000 0.500000
O O2 0.870708 0.644264 0.469197
O O3 0.649577 0.559413 0.306683
O O4 0.837669 0.938590 0.197694
O O5 0.666028 0.264517 0.156576
O O6 0.955809 0.232971 0.197774
O O7 0.509506 0.967860 0.193644
O O8 0.640740 0.870845 0.431462
O O9 0.781822 0.958249 0.844291
O O10 0.889396 0.324893 0.725386
O O11 0.779572 0.267758 0.549516
O O12 0.953288 0.314210 0.351229
O O13 0.293028 0.398241 0.273159
O O14 0.000000 0.000000 0.500000
O O15 0.165315 0.360045 0.937455
O O16 0.000000 0.000000 0.000000
O O17 0.504076 0.271731 0.305678
O O18 0.500000 0.500000 0.000000
#
# Coordination Sequence:
#
# PCOD9002726 Si02
#       8
#     2   2   2   2   2   2   2   2
#     4  11  21  40  71  98 131 176 232 290 352 414
#     4  11  24  41  68 103 133 183 239 296 349 415
#     4  10  22  37  63 100 133 177 237 294 341 414
#     4  10  24  38  62 100 141 175 226 288 357 413
#     4  11  24  42  67  99 139 184 233 287 357 425
#     4  10  21  36  63  99 133 171 230 293 346 405
#     4  11  23  43  69 102 139 183 240 294 350 422
#     4  12  26  45  70  97 145 189 233 295 359 423
#
# _framework density 27.167770999999998
#
# number of rings (size 3 to 8) (size 9 to 14) (size 15 to 20)
#    0.000    1.250    5.000    0.375    7.000    0.000 
#    0.000    0.625    2.750    2.250    0.000    0.000 
#    0.000    0.000    0.000    0.000    0.000    0.000 
#
# Total GULP energy -89400.118177 kJ/mol
# GULP energy per Si atom -5587.507386 kJ/mol
# Density = 2.710594 g / cm^3
# Si number density = 27.167771 Si / 1000 Ang^3
#
#
#
# Elastic Constant Matrix: (Units=GPa)
#
#
# Indices 1 2 3 4 5 6 
#
# 1 74.0322 -0.3839 -2.4776 4.3283 3.5419 43.9618
# 2 -0.3839 137.9897 18.5567 -11.1066 3.7316 11.0856
# 3 -2.4776 18.5567 39.2600 -12.8385 -2.7434 -0.1283
# 4 4.3283 -11.1066 -12.8385 39.0864 -8.7756 9.1508
# 5 3.5419 3.7316 -2.7434 -8.7756 39.7418 2.8588
# 6 43.9618 11.0856 -0.1283 9.1508 2.8588 56.4114
#
#
#
# Elastic Compliance Matrix: (Units=1/GPa)
#
#
# Indices 1 2 3 4 5 6 
#
# 1 0.025873 0.001781 0.001720 0.003086 -0.000162 -0.021001
# 2 0.001781 0.008093 -0.003210 0.001684 -0.000536 -0.003231
# 3 0.001720 -0.003210 0.030949 0.010768 0.004852 -0.002632
# 4 0.003086 0.001684 0.010768 0.033095 0.008229 -0.008497
# 5 -0.000162 -0.000536 0.004852 0.008229 0.027558 -0.002489
# 6 -0.021001 -0.003231 -0.002632 -0.008497 -0.002489 0.036227
#
#
# Mechanical properties :
#
#
# Convention : Reuss Voigt Hill
#
# Bulk Modulus (GPa) = 15.26796 31.40803 23.33799
# Shear Modulus (GPa) = 27.31555 42.75369 35.03462
#
# Velocity S-wave (km/s) = 3.17431 3.97128 3.59495
# Velocity P-wave (km/s) = 4.36658 5.71086 5.08336
#
# Compressibility (1/GPa) = 0.06549664
#
# Stress axis : x y z
#
# Youngs Moduli (GPa) = 38.65070 123.55990 32.31129
#
# Poissons Ratio (x) = -0.22001 -0.05559
# Poissons Ratio (y) = -0.06882 0.10373
# Poissons Ratio (z) = -0.06650 0.39665
#
# Static dielectric constant tensor:
#      x y z
#    x 2.386260 0.010120 -0.060740 
#    y 0.010120 2.226680 -0.013980 
#    z -0.060740 -0.013980 2.115430 
# 
# From -- ./inp_files/499913.got.cif
#   From: 2010.05.17/outbox.cif.g08.bks.cpg/sg2_250_cif.got.tgz:499913.got - 2010.06.03 11:33:40.
