data_PCOD9002191
_publ_section_title
;
Structure prediction by ZEFSAII (Michael W. Deem and Ramdas Pophale) SiO2 
 PCOD9002191
Probable space group: P -1
;
_chemical_formula_sum "Si O2"
_cell_formula_units_Z 16
_cell_length_a 10.519671
_cell_length_b 9.814968
_cell_length_c 7.920889
_cell_angle_alpha 73.525426
_cell_angle_beta 77.223597
_cell_angle_gamma 123.268325
_cell_volume 578.842581
_symmetry_space_group_name_H-M "P -1"
_symmetry_group_IT_number 2
_symmetry_cell_setting 'triclinic'
loop_
_space_group_symop_operation_xyz
x,y,z
-x,-y,-z
loop_
_atom_site_type_symbol
_atom_site_label
_atom_site_fract_x
_atom_site_fract_y
_atom_site_fract_z
Si Si1 0.444617 0.808681 0.287978
Si Si2 0.629613 0.745548 0.510272
Si Si3 0.249970 0.329850 0.793374
Si Si4 0.304211 0.800930 0.633113
Si Si5 0.697242 0.695882 0.853112
Si Si6 0.978904 0.670802 0.646025
Si Si7 0.651355 0.208918 0.016729
Si Si8 0.960312 0.317026 0.772439
O O1 0.583953 0.829460 0.352177
O O2 0.285170 0.692899 0.506550
O O3 0.475812 0.997031 0.181909
O O4 0.395360 0.719933 0.148853
O O5 0.442920 0.534390 0.660491
O O6 0.762105 0.747535 0.361689
O O7 0.690781 0.806416 0.663970
O O8 0.095899 0.332552 0.841592
O O9 0.243322 0.229094 0.999287
O O10 0.293131 0.704819 0.842645
O O11 0.154822 0.809545 0.654270
O O12 0.500000 0.000000 0.500000
O O13 0.832553 0.673090 0.753286
O O14 0.500000 0.500000 0.000000
O O15 0.014317 0.702576 0.423922
O O16 0.937468 0.472685 0.755747
O O17 0.767568 0.154077 0.951308
#
# Coordination Sequence:
#
# PCOD9002191 Si02
#       8
#     2   2   2   2   2   2   2   2
#     4  10  21  39  59  88 123 166 213 255 312 373
#     4  10  21  37  58  84 125 163 208 252 305 380
#     4  10  21  36  58  90 121 162 201 255 316 372
#     4  10  21  39  63  91 126 162 206 262 315 371
#     4  10  22  39  59  89 130 166 209 254 314 380
#     4  11  22  38  64  97 128 164 206 262 324 373
#     4  10  22  37  60  88 122 162 207 264 313 372
#     4  11  22  37  65  94 128 159 205 267 326 373
#
# _framework density 27.641366999999999
#
# number of rings (size 3 to 8) (size 9 to 14) (size 15 to 20)
#    0.000    1.750    2.500    1.500    1.750    5.000 
#    0.000    0.625    0.000    3.750    0.000    0.000 
#    0.000    0.000    0.000    0.000    0.000    0.000 
#
# Total GULP energy -89255.069925 kJ/mol
# GULP energy per Si atom -5578.441870 kJ/mol
# Density = 2.757845 g / cm^3
# Si number density = 27.641367 Si / 1000 Ang^3
#
#
#
# Elastic Constant Matrix: (Units=GPa)
#
#
# Indices 1 2 3 4 5 6 
#
# 1 174.8548 30.6889 59.1015 12.9224 5.5703 33.4354
# 2 30.6889 47.7043 37.1423 27.1209 15.8234 21.7204
# 3 59.1015 37.1423 209.2591 62.6408 39.9658 12.1246
# 4 12.9224 27.1209 62.6408 29.4791 13.8734 10.0731
# 5 5.5703 15.8234 39.9658 13.8734 62.4780 12.8849
# 6 33.4354 21.7204 12.1246 10.0731 12.8849 33.6270
#
#
#
# Elastic Compliance Matrix: (Units=1/GPa)
#
#
# Indices 1 2 3 4 5 6 
#
# 1 0.010704 -0.013170 -0.009610 0.029034 0.003910 -0.008866
# 2 -0.013170 0.089238 0.029089 -0.129696 -0.008575 -0.012897
# 3 -0.009610 0.029089 0.026962 -0.078762 -0.007845 0.007643
# 4 0.029034 -0.129696 -0.078762 0.305307 0.015775 -0.014197
# 5 0.003910 -0.008575 -0.007845 0.015775 0.021059 -0.008315
# 6 -0.008866 -0.012897 0.007643 -0.014197 -0.008315 0.051567
#
#
# Mechanical properties :
#
#
# Convention : Reuss Voigt Hill
#
# Bulk Modulus (GPa) = 7.16728 76.18708 41.67718
# Shear Modulus (GPa) = 9.28118 45.44254 27.36186
#
# Velocity S-wave (km/s) = 1.83439 4.05903 3.14966
# Velocity P-wave (km/s) = 2.66181 7.04203 5.32332
#
# Compressibility (1/GPa) = 0.13952286
#
# Stress axis : x y z
#
# Youngs Moduli (GPa) = 93.42510 11.20603 37.08909
#
# Poissons Ratio (x) = 0.14759 0.35641
# Poissons Ratio (y) = 1.23043 -1.07890
# Poissons Ratio (z) = 0.89778 -0.32598
#
# Static dielectric constant tensor:
#      x y z
#    x 2.424570 -0.008460 -0.265140 
#    y -0.008460 2.490070 -0.166540 
#    z -0.265140 -0.166540 2.466640 
# 
# From -- ./inp_files/205964.got.cif
#   From: 2010.05.17/outbox.cif.g08.bks.cpg/sg2_103_cif.got.tgz:205964.got - 2010.06.03 11:33:40.
