data_PCOD9002078
_publ_section_title
;
Structure prediction by ZEFSAII (Michael W. Deem and Ramdas Pophale) SiO2 
 PCOD9002078
Probable space group: P -1
;
_chemical_formula_sum "Si O2"
_cell_formula_units_Z 16
_cell_length_a 9.783534
_cell_length_b 18.534405
_cell_length_c 6.563962
_cell_angle_alpha 85.080659
_cell_angle_beta 83.007515
_cell_angle_gamma 40.279903
_cell_volume 763.756440
_symmetry_space_group_name_H-M "P -1"
_symmetry_group_IT_number 2
_symmetry_cell_setting 'triclinic'
loop_
_space_group_symop_operation_xyz
x,y,z
-x,-y,-z
loop_
_atom_site_type_symbol
_atom_site_label
_atom_site_fract_x
_atom_site_fract_y
_atom_site_fract_z
Si Si1 0.308164 0.355767 0.919487
Si Si2 0.393272 0.226610 0.310815
Si Si3 0.607320 0.347849 0.974771
Si Si4 0.600286 0.037312 0.017470
Si Si5 0.968319 0.089346 0.868083
Si Si6 0.607450 0.488049 0.682642
Si Si7 0.027691 0.412168 0.623469
Si Si8 0.325932 0.870384 0.350888
O O1 0.382942 0.408893 0.905306
O O2 0.486693 0.249782 0.764909
O O3 0.098098 0.407315 0.840936
O O4 0.340950 0.314750 0.152610
O O5 0.430661 0.148515 0.159824
O O6 0.607592 0.149264 0.422733
O O7 0.209087 0.295372 0.495621
O O8 0.780737 0.214982 0.961676
O O9 0.672498 0.392631 0.828431
O O10 0.560127 0.394520 0.197083
O O11 0.660780 0.059287 0.796327
O O12 0.816368 0.952105 0.131918
O O13 0.500000 0.000000 0.000000
O O14 0.881879 0.094851 0.665311
O O15 0.000000 0.000000 0.000000
O O16 0.500000 0.500000 0.500000
O O17 0.814484 0.453348 0.628794
O O18 0.000000 0.500000 0.500000
#
# Coordination Sequence:
#
# PCOD9002078 Si02
#       8
#     2   2   2   2   2   2   2   2
#     4   9  19  38  62  85 113 152 199 248 299 355
#     4  10  21  37  60  86 120 155 194 251 300 354
#     4  10  22  41  63  86 123 161 197 254 308 352
#     4  10  21  36  57  85 119 158 198 243 298 359
#     4   9  19  38  62  88 117 154 202 251 300 358
#     4  11  25  41  60  90 125 162 202 245 302 367
#     4  11  23  38  62  92 118 154 204 250 302 368
#     4   8  18  37  57  83 115 151 200 245 295 359
#
# _framework density 20.949086000000001
#
# number of rings (size 3 to 8) (size 9 to 14) (size 15 to 20)
#    0.000    2.250    0.000    2.250    0.000   11.000 
#    0.000    2.500    0.000    1.500    0.000    0.000 
#    0.000    0.000    0.000    0.000    0.000    0.000 
#
# Total GULP energy -89216.877301 kJ/mol
# GULP energy per Si atom -5576.054831 kJ/mol
# Density = 2.090141 g / cm^3
# Si number density = 20.949086 Si / 1000 Ang^3
#
#
#
# Elastic Constant Matrix: (Units=GPa)
#
#
# Indices 1 2 3 4 5 6 
#
# 1 198.5520 45.2016 57.9090 -4.0822 22.2786 4.4949
# 2 45.2016 92.5453 22.7807 13.2503 8.4204 4.8121
# 3 57.9090 22.7807 97.4224 -1.4266 22.5119 0.7691
# 4 -4.0822 13.2503 -1.4266 26.2036 -5.1431 6.6567
# 5 22.2786 8.4204 22.5119 -5.1431 25.1274 2.1225
# 6 4.4949 4.8121 0.7691 6.6567 2.1225 29.7477
#
#
#
# Elastic Compliance Matrix: (Units=1/GPa)
#
#
# Indices 1 2 3 4 5 6 
#
# 1 0.006777 -0.002663 -0.002901 0.002059 -0.002026 -0.000834
# 2 -0.002663 0.013787 -0.001075 -0.008084 -0.002969 0.000221
# 3 -0.002901 -0.001075 0.014664 -0.001536 -0.010633 0.001335
# 4 0.002059 -0.008084 -0.001536 0.047705 0.012916 -0.010560
# 5 -0.002026 -0.002969 -0.010633 0.012916 0.055245 -0.005771
# 6 -0.000834 0.000221 0.001335 -0.010560 -0.005771 0.036447
#
#
# Mechanical properties :
#
#
# Convention : Reuss Voigt Hill
#
# Bulk Modulus (GPa) = 45.55710 71.14471 58.35090
# Shear Modulus (GPa) = 25.61197 33.72429 29.66813
#
# Velocity S-wave (km/s) = 3.50034 4.01661 3.76733
# Velocity P-wave (km/s) = 6.17497 7.45288 6.84382
#
# Compressibility (1/GPa) = 0.02195047
#
# Stress axis : x y z
#
# Youngs Moduli (GPa) = 147.54977 72.53199 68.19313
#
# Poissons Ratio (x) = 0.19317 0.19783
# Poissons Ratio (y) = 0.39297 0.07329
# Poissons Ratio (z) = 0.42804 0.07796
#
# Static dielectric constant tensor:
#      x y z
#    x 1.765370 -0.058420 0.003170 
#    y -0.058420 1.816230 -0.008110 
#    z 0.003170 -0.008110 1.786280 
# 
# From -- ./inp_files/47855.got.cif
#   From: 2010.05.17/outbox.cif.g08.bks.cpg/sg2_24_cif.got.tgz:47855.got - 2010.06.03 11:33:40.
