data_PCOD9002903
_publ_section_title
;
Structure prediction by ZEFSAII (Michael W. Deem and Ramdas Pophale) SiO2 
 PCOD9002903
Probable space group: P -1
;
_chemical_formula_sum "Si O2"
_cell_formula_units_Z 14
_cell_length_a 7.790505
_cell_length_b 13.269587
_cell_length_c 9.473289
_cell_angle_alpha 48.160818
_cell_angle_beta 100.442976
_cell_angle_gamma 78.011980
_cell_volume 641.309425
_symmetry_space_group_name_H-M "P -1"
_symmetry_group_IT_number 2
_symmetry_cell_setting 'triclinic'
loop_
_space_group_symop_operation_xyz
x,y,z
-x,-y,-z
loop_
_atom_site_type_symbol
_atom_site_label
_atom_site_fract_x
_atom_site_fract_y
_atom_site_fract_z
Si Si1 0.585198 0.607182 0.672635
Si Si2 0.892303 0.861238 0.141584
Si Si3 0.688062 0.254155 0.015219
Si Si4 0.550199 0.142961 0.366621
Si Si5 0.709681 0.413119 0.523870
Si Si6 0.927840 0.018810 0.730048
Si Si7 0.620945 0.714453 0.273474
O O1 0.596176 0.707070 0.709144
O O2 0.358938 0.652572 0.555604
O O3 0.653613 0.663490 0.489825
O O4 0.335058 0.574619 0.128025
O O5 0.709058 0.827838 0.152937
O O6 0.092441 0.713010 0.265319
O O7 0.850354 0.985366 0.898783
O O8 0.945159 0.899943 0.267994
O O9 0.575152 0.203331 0.161592
O O10 0.913250 0.138843 0.161892
O O11 0.595252 0.231883 0.873392
O O12 0.500000 0.000000 0.500000
O O13 0.756855 0.088735 0.527696
O O14 0.500000 0.500000 0.500000
O O15 0.742559 0.557023 0.354507
#
# Coordination Sequence:
#
# PCOD9002903 Si02
#       7
#     2   2   2   2   2   2   2
#     4  10  21  43  68  92 126 172 214 260 323 375
#     4  11  21  36  63 100 129 162 214 265 316 375
#     4  11  24  44  66  94 133 173 208 261 326 385
#     4  12  26  44  65  92 130 171 220 264 318 381
#     4   9  17  35  61  91 126 160 201 261 316 367
#     4  11  24  40  63  91 132 172 211 262 326 377
#     4  10  21  36  69  98 124 160 218 265 311 373
#
# _framework density 21.830335000000002
#
# number of rings (size 3 to 8) (size 9 to 14) (size 15 to 20)
#    0.000    1.429    1.429    6.857    4.000    0.571 
#    0.000    0.714    0.000    0.000    0.000    0.000 
#    0.000    0.000    0.000    0.000    0.000    0.000 
#
# Total GULP energy -77947.993171 kJ/mol
# GULP energy per Si atom -5567.713798 kJ/mol
# Density = 2.178065 g / cm^3
# Si number density = 21.830335 Si / 1000 Ang^3
#
#
#
# Elastic Constant Matrix: (Units=GPa)
#
#
# Indices 1 2 3 4 5 6 
#
# 1 60.7537 37.4418 17.5070 -6.7481 -9.5195 14.5637
# 2 37.4418 108.6634 18.5264 -6.5929 -11.3093 8.7680
# 3 17.5070 18.5264 71.5065 -3.6079 -2.3983 -7.3082
# 4 -6.7481 -6.5929 -3.6079 26.5208 -6.3340 -0.2542
# 5 -9.5195 -11.3093 -2.3983 -6.3340 37.6623 -4.6965
# 6 14.5637 8.7680 -7.3082 -0.2542 -4.6965 30.6343
#
#
#
# Elastic Compliance Matrix: (Units=1/GPa)
#
#
# Indices 1 2 3 4 5 6 
#
# 1 0.025736 -0.006360 -0.005410 0.005011 0.003710 -0.011095
# 2 -0.006360 0.011996 -0.001437 0.001674 0.002133 -0.000412
# 3 -0.005410 -0.001437 0.016429 0.000620 0.000217 0.006941
# 4 0.005011 0.001674 0.000620 0.041541 0.008665 -0.001040
# 5 0.003710 0.002133 0.000217 0.008665 0.029892 0.002332
# 6 -0.011095 -0.000412 0.006941 -0.001040 0.002332 0.040040
#
#
# Mechanical properties :
#
#
# Convention : Reuss Voigt Hill
#
# Bulk Modulus (GPa) = 36.03887 43.09713 39.56800
# Shear Modulus (GPa) = 24.83881 30.12672 27.48276
#
# Velocity S-wave (km/s) = 3.37681 3.71892 3.55198
# Velocity P-wave (km/s) = 5.63456 6.18265 5.91496
#
# Compressibility (1/GPa) = 0.02774782
#
# Stress axis : x y z
#
# Youngs Moduli (GPa) = 38.85616 83.36136 60.86622
#
# Poissons Ratio (x) = 0.53018 0.32928
# Poissons Ratio (y) = 0.24713 0.08746
# Poissons Ratio (z) = 0.21021 0.11979
#
# Static dielectric constant tensor:
#      x y z
#    x 1.828710 -0.004530 -0.037340 
#    y -0.004530 1.947650 -0.016460 
#    z -0.037340 -0.016460 1.846650 
# 
# From -- ./inp_files/205707.got.cif
#   From: 2010.05.17/outbox.cif.g08.bks.cpg/sg2_103_cif.got.tgz:205707.got - 2010.06.03 11:33:40.
