data_PCOD9002721
_publ_section_title
;
Structure prediction by ZEFSAII (Michael W. Deem and Ramdas Pophale) SiO2 
 PCOD9002721
Probable space group: P -1
;
_chemical_formula_sum "Si O2"
_cell_formula_units_Z 16
_cell_length_a 15.749652
_cell_length_b 8.828810
_cell_length_c 8.974710
_cell_angle_alpha 83.904773
_cell_angle_beta 110.515460
_cell_angle_gamma 140.537685
_cell_volume 713.961222
_symmetry_space_group_name_H-M "P -1"
_symmetry_group_IT_number 2
_symmetry_cell_setting 'triclinic'
loop_
_space_group_symop_operation_xyz
x,y,z
-x,-y,-z
loop_
_atom_site_type_symbol
_atom_site_label
_atom_site_fract_x
_atom_site_fract_y
_atom_site_fract_z
Si Si1 0.443581 0.576780 0.538713
Si Si2 0.618798 0.963974 0.990860
Si Si3 0.200065 0.250019 0.200938
Si Si4 0.248020 0.950897 0.232419
Si Si5 0.845646 0.268183 0.509175
Si Si6 0.871632 0.815203 0.165434
Si Si7 0.701837 0.816855 0.265419
Si Si8 0.302337 0.679808 0.761136
O O1 0.500000 0.500000 0.500000
O O2 0.320563 0.478032 0.363177
O O3 0.588691 0.866932 0.620553
O O4 0.379187 0.424403 0.668719
O O5 0.736424 0.080359 0.923288
O O6 0.461641 0.809968 0.846068
O O7 0.599583 0.791653 0.104999
O O8 0.685229 0.185535 0.108986
O O9 0.223761 0.099950 0.210606
O O10 0.206417 0.317458 0.028950
O O11 0.041429 0.059530 0.199915
O O12 0.136716 0.730342 0.303810
O O13 0.739649 0.270427 0.408755
O O14 0.000000 0.500000 0.500000
O O15 0.776419 0.025065 0.413991
O O16 0.813230 0.883824 0.212331
O O17 0.827816 0.613014 0.259710
#
# Coordination Sequence:
#
# PCOD9002721 Si02
#       8
#     2   2   2   2   2   2   2   2
#     4  10  21  36  63  98 122 163 207 275 314 362
#     4  10  23  42  65  96 126 172 217 259 320 386
#     4  10  22  40  61  97 129 161 210 276 314 372
#     4  11  21  43  68  93 128 170 219 259 320 379
#     4  11  24  45  64  91 135 175 210 257 321 391
#     4  11  23  41  65  94 131 166 214 265 321 377
#     4  11  22  41  69  93 126 173 218 259 322 382
#     4  10  24  41  63  94 131 169 209 268 318 379
#
# _framework density 22.410181999999999
#
# number of rings (size 3 to 8) (size 9 to 14) (size 15 to 20)
#    0.000    1.500    3.750    1.500    3.500    3.000 
#    6.750    1.875    0.000    0.000    0.000    0.000 
#    0.000    0.000    0.000    0.000    0.000    0.000 
#
# Total GULP energy -89416.796191 kJ/mol
# GULP energy per Si atom -5588.549762 kJ/mol
# Density = 2.235917 g / cm^3
# Si number density = 22.410182 Si / 1000 Ang^3
#
#
#
# Elastic Constant Matrix: (Units=GPa)
#
#
# Indices 1 2 3 4 5 6 
#
# 1 87.5226 -1.3178 21.8842 -2.1071 -18.1108 13.0625
# 2 -1.3178 41.2605 4.0065 -13.7578 -8.8197 4.7706
# 3 21.8842 4.0065 43.9337 -15.2224 -5.6727 2.7378
# 4 -2.1071 -13.7578 -15.2224 22.7763 13.4743 -4.3613
# 5 -18.1108 -8.8197 -5.6727 13.4743 26.9772 -7.0137
# 6 13.0625 4.7706 2.7378 -4.3613 -7.0137 32.7994
#
#
#
# Elastic Compliance Matrix: (Units=1/GPa)
#
#
# Indices 1 2 3 4 5 6 
#
# 1 0.018663 0.000099 -0.013076 -0.018377 0.017686 -0.005017
# 2 0.000099 0.031238 0.004742 0.021712 -0.000119 -0.002117
# 3 -0.013076 0.004742 0.040057 0.039485 -0.017849 0.002608
# 4 -0.018377 0.021712 0.039485 0.113661 -0.052469 0.004758
# 5 0.017686 -0.000119 -0.017849 -0.052469 0.072112 0.002907
# 6 -0.005017 -0.002117 0.002608 0.004758 0.002907 0.033831
#
#
# Mechanical properties :
#
#
# Convention : Reuss Voigt Hill
#
# Bulk Modulus (GPa) = 13.60815 24.65140 19.12978
# Shear Modulus (GPa) = 14.26417 26.38683 20.32550
#
# Velocity S-wave (km/s) = 2.52564 3.43512 3.01487
# Velocity P-wave (km/s) = 3.81977 5.17275 4.54687
#
# Compressibility (1/GPa) = 0.07348538
#
# Stress axis : x y z
#
# Youngs Moduli (GPa) = 53.58242 32.01228 24.96470
#
# Poissons Ratio (x) = -0.00316 0.32645
# Poissons Ratio (y) = -0.00530 -0.11837
# Poissons Ratio (z) = 0.70067 -0.15179
#
# Static dielectric constant tensor:
#      x y z
#    x 1.833430 0.006940 0.010070 
#    y 0.006940 1.807520 0.010020 
#    z 0.010070 0.010020 1.884260 
# 
# From -- ./inp_files/205331.got.cif
#   From: 2010.05.17/outbox.cif.g08.bks.cpg/sg2_103_cif.got.tgz:205331.got - 2010.06.03 11:33:40.
