data_PCOD9002714
_publ_section_title
;
Structure prediction by ZEFSAII (Michael W. Deem and Ramdas Pophale) SiO2 
 PCOD9002714
Probable space group: P -1
;
_chemical_formula_sum "Si O2"
_cell_formula_units_Z 16
_cell_length_a 8.991772
_cell_length_b 18.599893
_cell_length_c 9.664685
_cell_angle_alpha 142.333723
_cell_angle_beta 103.368367
_cell_angle_gamma 58.931388
_cell_volume 796.004325
_symmetry_space_group_name_H-M "P -1"
_symmetry_group_IT_number 2
_symmetry_cell_setting 'triclinic'
loop_
_space_group_symop_operation_xyz
x,y,z
-x,-y,-z
loop_
_atom_site_type_symbol
_atom_site_label
_atom_site_fract_x
_atom_site_fract_y
_atom_site_fract_z
Si Si1 0.231237 0.155704 0.041224
Si Si2 0.200714 0.417818 0.492889
Si Si3 0.456188 0.655988 0.726537
Si Si4 0.724551 0.141784 0.765923
Si Si5 0.959899 0.148759 0.177259
Si Si6 0.902746 0.832949 0.480236
Si Si7 0.503607 0.935928 0.556704
Si Si8 0.923650 0.299221 0.964645
O O1 0.236333 0.267428 0.312198
O O2 0.108920 0.118189 0.045872
O O3 0.108071 0.232682 0.994832
O O4 0.422277 0.036141 0.827967
O O5 0.373065 0.363581 0.347095
O O6 0.000000 0.500000 0.500000
O O7 0.194709 0.534153 0.768080
O O8 0.500000 0.500000 0.500000
O O9 0.249720 0.751830 0.766921
O O10 0.436079 0.735671 0.986014
O O11 0.629730 0.117645 0.579223
O O12 0.840022 0.207477 0.847821
O O13 0.835010 0.992330 0.649011
O O14 0.991485 0.205306 0.411546
O O15 0.000000 0.000000 0.000000
O O16 0.721087 0.832875 0.465695
O O17 0.024845 0.727306 0.224046
O O18 0.500000 0.000000 0.500000
#
# Coordination Sequence:
#
# PCOD9002714 Si02
#       8
#     2   2   2   2   2   2   2   2
#     4  11  21  40  64  94 133 175 222 271 328 397
#     4  10  22  38  63  96 129 169 225 274 318 392
#     4  12  22  42  69  99 132 175 227 269 329 402
#     4  11  20  36  67  99 127 170 228 278 325 388
#     4  12  26  43  66 102 138 174 219 283 340 388
#     4  11  23  40  60  97 140 170 214 282 339 385
#     4  10  21  36  63  96 130 169 222 275 331 389
#     4  11  20  38  64  96 125 174 228 270 322 393
#
# _framework density 20.100394000000001
#
# number of rings (size 3 to 8) (size 9 to 14) (size 15 to 20)
#    0.000    1.000    6.250    2.625    3.500    0.500 
#    0.000    1.250    0.000    0.000    0.000    0.000 
#    0.000    0.000    0.000    0.000    0.000    0.000 
#
# Total GULP energy -89158.942449 kJ/mol
# GULP energy per Si atom -5572.433903 kJ/mol
# Density = 2.005464 g / cm^3
# Si number density = 20.100394 Si / 1000 Ang^3
#
#
#
# Elastic Constant Matrix: (Units=GPa)
#
#
# Indices 1 2 3 4 5 6 
#
# 1 100.7030 8.2827 17.1374 6.2825 -11.2331 5.0682
# 2 8.2827 33.1632 11.0763 -5.3059 -4.0960 2.4470
# 3 17.1374 11.0763 113.7310 -1.4521 -12.4238 9.1152
# 4 6.2825 -5.3059 -1.4521 32.7848 5.1160 -0.2317
# 5 -11.2331 -4.0960 -12.4238 5.1160 48.0039 -5.7083
# 6 5.0682 2.4470 9.1152 -0.2317 -5.7083 17.0264
#
#
#
# Elastic Compliance Matrix: (Units=1/GPa)
#
#
# Indices 1 2 3 4 5 6 
#
# 1 0.010811 -0.002416 -0.001065 -0.002858 0.002161 -0.001615
# 2 -0.002416 0.032733 -0.002488 0.005522 0.000717 -0.002338
# 3 -0.001065 -0.002488 0.009686 -0.000044 0.001576 -0.003983
# 4 -0.002858 0.005522 -0.000044 0.032523 -0.003763 -0.000738
# 5 0.002161 0.000717 0.001576 -0.003763 0.022926 0.006045
# 6 -0.001615 -0.002338 -0.003983 -0.000738 0.006045 0.063698
#
#
# Mechanical properties :
#
#
# Convention : Reuss Voigt Hill
#
# Bulk Modulus (GPa) = 24.21685 35.62111 29.91898
# Shear Modulus (GPa) = 25.24259 33.63641 29.43950
#
# Velocity S-wave (km/s) = 3.54761 4.09518 3.83119
# Velocity P-wave (km/s) = 5.37167 6.33410 5.87263
#
# Compressibility (1/GPa) = 0.04129356
#
# Stress axis : x y z
#
# Youngs Moduli (GPa) = 92.50101 30.55058 103.23879
#
# Poissons Ratio (x) = 0.07380 0.10992
# Poissons Ratio (y) = 0.22345 0.25682
# Poissons Ratio (z) = 0.09849 0.07600
#
# Static dielectric constant tensor:
#      x y z
#    x 1.934780 0.007840 0.021850 
#    y 0.007840 1.710620 0.012030 
#    z 0.021850 0.012030 1.784380 
# 
# From -- ./inp_files/218924.got.cif
#   From: 2010.05.17/outbox.cif.g08.bks.cpg/sg2_110_cif.got.tgz:218924.got - 2010.06.03 11:33:40.
