data_PCOD9002731
_publ_section_title
;
Structure prediction by ZEFSAII (Michael W. Deem and Ramdas Pophale) SiO2 
 PCOD9002731
Probable space group: P -1
;
_chemical_formula_sum "Si O2"
_cell_formula_units_Z 12
_cell_length_a 15.200722
_cell_length_b 14.402472
_cell_length_c 5.914998
_cell_angle_alpha 50.944369
_cell_angle_beta 64.177263
_cell_angle_gamma 30.410583
_cell_volume 489.501279
_symmetry_space_group_name_H-M "P -1"
_symmetry_group_IT_number 2
_symmetry_cell_setting 'triclinic'
loop_
_space_group_symop_operation_xyz
x,y,z
-x,-y,-z
loop_
_atom_site_type_symbol
_atom_site_label
_atom_site_fract_x
_atom_site_fract_y
_atom_site_fract_z
Si Si1 0.510927 0.348792 0.289491
Si Si2 0.662638 0.040439 0.965972
Si Si3 0.022160 0.415301 0.855464
Si Si4 0.322870 0.402376 0.083001
Si Si5 0.849752 0.987408 0.171189
Si Si6 0.122806 0.810622 0.461139
O O1 0.581497 0.240382 0.622607
O O2 0.673950 0.138850 0.273659
O O3 0.500000 0.500000 0.000000
O O4 0.355381 0.415274 0.285390
O O5 0.497677 0.167964 0.115513
O O6 0.765199 0.844969 0.985098
O O7 0.840474 0.902374 0.115020
O O8 0.000000 0.500000 0.500000
O O9 0.000000 0.500000 0.000000
O O10 0.853768 0.495018 0.912264
O O11 0.282390 0.574589 0.756305
O O12 0.009766 0.833593 0.402931
O O13 0.824618 0.142179 0.846795
O O14 0.000000 0.000000 0.500000
#
# Coordination Sequence:
#
# PCOD9002731 Si02
#       6
#     2   2   2   2   2   2
#     4  11  22  40  69 111 155 194 237 296 377 471
#     4  11  26  46  74 107 153 192 258 316 387 464
#     4  12  32  55  83 109 146 202 271 338 398 442
#     4  11  26  44  75 108 150 198 252 316 388 451
#     4  10  21  36  64 100 150 194 244 293 372 455
#     4  11  21  37  65 106 151 202 246 299 372 467
#
# _framework density 24.514747
#
# number of rings (size 3 to 8) (size 9 to 14) (size 15 to 20)
#    0.000    1.000    0.000    6.000    9.333    6.667 
#    0.000    0.000    0.000    0.000    0.000    0.000 
#    0.000    0.000    0.000    0.000    0.000    0.000 
#
# Total GULP energy -66876.353623 kJ/mol
# GULP energy per Si atom -5573.029469 kJ/mol
# Density = 2.445895 g / cm^3
# Si number density = 24.514747 Si / 1000 Ang^3
#
#
#
# Elastic Constant Matrix: (Units=GPa)
#
#
# Indices 1 2 3 4 5 6 
#
# 1 111.2358 43.2589 27.7006 11.7148 19.8884 -6.3415
# 2 43.2589 151.5212 25.6814 7.6199 -0.7545 11.3940
# 3 27.7006 25.6814 106.2819 2.3911 5.6205 5.6004
# 4 11.7148 7.6199 2.3911 28.5058 -0.0897 -2.2893
# 5 19.8884 -0.7545 5.6205 -0.0897 34.6968 4.8886
# 6 -6.3415 11.3940 5.6004 -2.2893 4.8886 28.7388
#
#
#
# Elastic Compliance Matrix: (Units=1/GPa)
#
#
# Indices 1 2 3 4 5 6 
#
# 1 0.013179 -0.003657 -0.002348 -0.003794 -0.008093 0.005890
# 2 -0.003657 0.008202 -0.000933 -0.000961 0.003053 -0.004473
# 3 -0.002348 -0.000933 0.010358 0.000173 -0.000050 -0.002145
# 4 -0.003794 -0.000961 0.000173 0.037060 0.001921 0.002135
# 5 -0.008093 0.003053 -0.000050 0.001921 0.034772 -0.008749
# 6 0.005890 -0.004473 -0.002145 0.002135 -0.008749 0.039946
#
#
# Mechanical properties :
#
#
# Convention : Reuss Voigt Hill
#
# Bulk Modulus (GPa) = 55.98232 62.48008 59.23120
# Shear Modulus (GPa) = 30.60962 36.54815 33.57888
#
# Velocity S-wave (km/s) = 3.53742 3.86536 3.70502
# Velocity P-wave (km/s) = 6.29048 6.74266 6.52049
#
# Compressibility (1/GPa) = 0.01786278
#
# Stress axis : x y z
#
# Youngs Moduli (GPa) = 75.87653 121.92435 96.54250
#
# Poissons Ratio (x) = 0.44589 0.22671
# Poissons Ratio (y) = 0.27749 0.09006
# Poissons Ratio (z) = 0.17818 0.11374
#
# Static dielectric constant tensor:
#      x y z
#    x 2.472130 -0.015560 0.414470 
#    y -0.015560 2.033800 -0.094660 
#    z 0.414470 -0.094660 2.307980 
# 
# From -- ./inp_files/25428.got.cif
#   From: 2010.05.17/outbox.cif.g08.bks.cpg/sg2_13_cif.got.tgz:25428.got - 2010.06.03 11:33:40.
