data_PCOD9002768
_publ_section_title
;
Structure prediction by ZEFSAII (Michael W. Deem and Ramdas Pophale) SiO2 
 PCOD9002768
Probable space group: P -1
;
_chemical_formula_sum "Si O2"
_cell_formula_units_Z 12
_cell_length_a 6.527801
_cell_length_b 9.292926
_cell_length_c 19.556784
_cell_angle_alpha 34.674323
_cell_angle_beta 60.185150
_cell_angle_gamma 78.023688
_cell_volume 534.641570
_symmetry_space_group_name_H-M "P -1"
_symmetry_group_IT_number 2
_symmetry_cell_setting 'triclinic'
loop_
_space_group_symop_operation_xyz
x,y,z
-x,-y,-z
loop_
_atom_site_type_symbol
_atom_site_label
_atom_site_fract_x
_atom_site_fract_y
_atom_site_fract_z
Si Si1 0.197667 0.489071 0.532502
Si Si2 0.552640 0.525359 0.631231
Si Si3 0.616483 0.472797 0.918764
Si Si4 0.240136 0.885714 0.168413
Si Si5 0.924315 0.044448 0.571244
Si Si6 0.000879 0.707606 0.133152
O O1 0.442513 0.519031 0.434157
O O2 0.000000 0.500000 0.500000
O O3 0.028145 0.205251 0.709936
O O4 0.205441 0.736918 0.483173
O O5 0.608236 0.278662 0.755508
O O6 0.285082 0.503133 0.715528
O O7 0.796480 0.811701 0.494099
O O8 0.397406 0.212325 0.019037
O O9 0.726980 0.760609 0.747659
O O10 0.864416 0.394021 0.908768
O O11 0.500000 0.500000 0.000000
O O12 0.173114 0.767504 0.149801
O O13 0.000000 0.000000 0.500000
O O14 0.000000 0.000000 0.000000
#
# Coordination Sequence:
#
# PCOD9002768 Si02
#       6
#     2   2   2   2   2   2
#     4   8  17  38  65  88 119 168 207 250 311 381
#     4  10  21  43  65  90 126 164 218 256 309 389
#     4  12  23  41  67  96 130 164 207 269 328 369
#     4  10  21  42  68  90 127 173 211 253 317 383
#     4  10  21  36  64  93 126 165 200 261 330 364
#     4  12  26  39  67  93 123 174 221 254 305 380
#
# _framework density 22.444942999999999
#
# number of rings (size 3 to 8) (size 9 to 14) (size 15 to 20)
#    0.000    2.000    1.667    5.500    2.333    1.333 
#    0.000    2.500    0.000    0.000    0.000    0.000 
#    0.000    0.000    0.000    0.000    0.000    0.000 
#
# Total GULP energy -67040.969286 kJ/mol
# GULP energy per Si atom -5586.747441 kJ/mol
# Density = 2.239386 g / cm^3
# Si number density = 22.444943 Si / 1000 Ang^3
#
#
#
# Elastic Constant Matrix: (Units=GPa)
#
#
# Indices 1 2 3 4 5 6 
#
# 1 50.8182 40.7784 42.3359 9.0122 -22.5687 -9.1764
# 2 40.7784 152.4271 75.8991 37.1910 -12.9060 -14.6563
# 3 42.3359 75.8991 199.4169 7.4237 -29.3538 -3.6829
# 4 9.0122 37.1910 7.4237 55.5949 0.2201 -7.2843
# 5 -22.5687 -12.9060 -29.3538 0.2201 45.0051 7.3212
# 6 -9.1764 -14.6563 -3.6829 -7.2843 7.3212 38.5768
#
#
#
# Elastic Compliance Matrix: (Units=1/GPa)
#
#
# Indices 1 2 3 4 5 6 
#
# 1 0.032981 -0.005914 -0.002827 -0.000693 0.012545 0.002817
# 2 -0.005914 0.011050 -0.002998 -0.005790 -0.002016 0.001795
# 3 -0.002827 -0.002998 0.007055 0.001333 0.002540 -0.001368
# 4 -0.000693 -0.005790 0.001333 0.022095 -0.001612 0.002240
# 5 0.012545 -0.002016 0.002540 -0.001612 0.030178 -0.003571
# 6 0.002817 0.001795 -0.001368 0.002240 -0.003571 0.028244
#
#
# Mechanical properties :
#
#
# Convention : Reuss Voigt Hill
#
# Bulk Modulus (GPa) = 36.22033 80.07658 58.14846
# Shear Modulus (GPa) = 30.43523 44.07863 37.25693
#
# Velocity S-wave (km/s) = 3.68638 4.43635 4.07864
# Velocity P-wave (km/s) = 5.85591 7.87375 6.93857
#
# Compressibility (1/GPa) = 0.02760880
#
# Stress axis : x y z
#
# Youngs Moduli (GPa) = 30.32055 90.49668 141.74462
#
# Poissons Ratio (x) = 0.53516 0.40067
# Poissons Ratio (y) = 0.17930 0.42500
# Poissons Ratio (z) = 0.08571 0.27134
#
# Static dielectric constant tensor:
#      x y z
#    x 1.992290 -0.038280 -0.014940 
#    y -0.038280 1.862020 0.027750 
#    z -0.014940 0.027750 1.837180 
# 
# From -- ./inp_files/585982.got.cif
#   From: 2010.05.17/outbox.cif.g08.bks.cpg/sg2_293_cif.got.tgz:585982.got - 2010.06.03 11:33:40.
