data_PCOD9002142
_publ_section_title
;
Structure prediction by ZEFSAII (Michael W. Deem and Ramdas Pophale) SiO2 
 PCOD9002142
Probable space group: P -1
;
_chemical_formula_sum "Si O2"
_cell_formula_units_Z 16
_cell_length_a 11.103352
_cell_length_b 7.708417
_cell_length_c 17.913507
_cell_angle_alpha 135.186145
_cell_angle_beta 50.417335
_cell_angle_gamma 139.870684
_cell_volume 681.138150
_symmetry_space_group_name_H-M "P -1"
_symmetry_group_IT_number 2
_symmetry_cell_setting 'triclinic'
loop_
_space_group_symop_operation_xyz
x,y,z
-x,-y,-z
loop_
_atom_site_type_symbol
_atom_site_label
_atom_site_fract_x
_atom_site_fract_y
_atom_site_fract_z
Si Si1 0.504579 0.200581 0.723006
Si Si2 0.720464 0.679806 0.555356
Si Si3 0.799911 0.231977 0.395376
Si Si4 0.687910 0.118552 0.862805
Si Si5 0.684031 0.452608 0.107775
Si Si6 0.659407 0.417812 0.333215
Si Si7 0.857574 0.345715 0.707393
Si Si8 0.964853 0.881905 0.251747
O O1 0.433974 0.411436 0.827384
O O2 0.725381 0.347164 0.695534
O O3 0.412580 0.031818 0.629044
O O4 0.413724 0.923688 0.732362
O O5 0.796927 0.504963 0.511765
O O6 0.686981 0.561633 0.447663
O O7 0.513666 0.583761 0.636188
O O8 0.847314 0.039307 0.612005
O O9 0.934385 0.369598 0.309782
O O10 0.891169 0.090511 0.360851
O O11 0.762745 0.306574 0.813612
O O12 0.815186 0.987301 0.785886
O O13 0.464463 0.844347 0.874424
O O14 0.732631 0.337982 0.981199
O O15 0.869169 0.713534 0.159635
O O16 0.852932 0.611156 0.271724
#
# Coordination Sequence:
#
# PCOD9002142 Si02
#       8
#     2   2   2   2   2   2   2   2
#     4   9  19  37  57  81 111 145 185 231 280 326
#     4   9  18  35  56  82 113 150 187 227 276 330
#     4  10  21  36  58  84 114 150 190 230 274 334
#     4  11  23  38  60  86 112 149 190 227 284 340
#     4  10  22  40  60  84 114 146 185 237 283 332
#     4   9  18  35  60  83 111 150 187 226 280 336
#     4  11  21  37  59  83 116 151 186 232 278 330
#     4  11  22  40  59  83 117 148 186 236 281 329
#
# _framework density 23.490096000000001
#
# number of rings (size 3 to 8) (size 9 to 14) (size 15 to 20)
#    0.000    2.000    0.000    5.250    0.000    1.000 
#    0.000   13.125    0.000    0.000    0.000    0.000 
#    0.000    0.000    0.000    0.000    0.000    0.000 
#
# Total GULP energy -89409.468862 kJ/mol
# GULP energy per Si atom -5588.091804 kJ/mol
# Density = 2.343663 g / cm^3
# Si number density = 23.490096 Si / 1000 Ang^3
#
#
#
# Elastic Constant Matrix: (Units=GPa)
#
#
# Indices 1 2 3 4 5 6 
#
# 1 82.5015 6.8531 10.3989 4.4820 -4.4643 23.4879
# 2 6.8531 51.7396 -6.4949 -16.3151 6.9678 -2.4135
# 3 10.3989 -6.4949 57.9089 4.7403 3.7727 -5.9720
# 4 4.4820 -16.3151 4.7403 29.6867 -8.7208 -9.2508
# 5 -4.4643 6.9678 3.7727 -8.7208 28.0952 -1.7478
# 6 23.4879 -2.4135 -5.9720 -9.2508 -1.7478 39.0876
#
#
#
# Elastic Compliance Matrix: (Units=1/GPa)
#
#
# Indices 1 2 3 4 5 6 
#
# 1 0.017926 -0.006885 -0.004736 -0.009778 0.001275 -0.014178
# 2 -0.006885 0.027214 0.004046 0.018030 -0.002130 0.010608
# 3 -0.004736 0.004046 0.019393 0.000606 -0.003797 0.006032
# 4 -0.009778 0.018030 0.000606 0.055006 0.012252 0.020647
# 5 0.001275 -0.002130 -0.003797 0.012252 0.040839 0.003248
# 6 -0.014178 0.010608 0.006032 0.020647 0.003248 0.040712
#
#
# Mechanical properties :
#
#
# Convention : Reuss Voigt Hill
#
# Bulk Modulus (GPa) = 20.25042 23.74047 21.99544
# Shear Modulus (GPa) = 21.48664 31.46673 26.47669
#
# Velocity S-wave (km/s) = 3.02770 3.66399 3.36094
# Velocity P-wave (km/s) = 4.56751 5.29418 4.94421
#
# Compressibility (1/GPa) = 0.04938170
#
# Stress axis : x y z
#
# Youngs Moduli (GPa) = 55.78351 36.74530 51.56626
#
# Poissons Ratio (x) = 0.25300 0.24423
# Poissons Ratio (y) = 0.38408 -0.20861
# Poissons Ratio (z) = 0.26420 -0.14865
#
# Static dielectric constant tensor:
#      x y z
#    x 1.991440 -0.004510 -0.004580 
#    y -0.004510 1.873240 0.000480 
#    z -0.004580 0.000480 1.854070 
# 
# From -- ./inp_files/594249.got.cif
#   From: 2010.05.17/outbox.cif.g08.bks.cpg/sg2_298_cif.got.tgz:594249.got - 2010.06.03 11:33:40.
