data_PCOD9002961
_publ_section_title
;
Structure prediction by ZEFSAII (Michael W. Deem and Ramdas Pophale) SiO2 
 PCOD9002961
Probable space group: P -1
;
_chemical_formula_sum "Si O2"
_cell_formula_units_Z 16
_cell_length_a 9.229831
_cell_length_b 13.678633
_cell_length_c 12.321268
_cell_angle_alpha 94.743885
_cell_angle_beta 66.646686
_cell_angle_gamma 40.762753
_cell_volume 717.393025
_symmetry_space_group_name_H-M "P -1"
_symmetry_group_IT_number 2
_symmetry_cell_setting 'triclinic'
loop_
_space_group_symop_operation_xyz
x,y,z
-x,-y,-z
loop_
_atom_site_type_symbol
_atom_site_label
_atom_site_fract_x
_atom_site_fract_y
_atom_site_fract_z
Si Si1 0.011528 0.164654 0.217989
Si Si2 0.814326 0.273587 0.818321
Si Si3 0.697096 0.134458 0.390449
Si Si4 0.890379 0.437985 0.304648
Si Si5 0.832116 0.451391 0.952704
Si Si6 0.311025 0.325939 0.319849
Si Si7 0.712012 0.743744 0.025345
Si Si8 0.219105 0.787148 0.928704
O O1 0.888224 0.129770 0.303124
O O2 0.850381 0.345760 0.336791
O O3 0.921213 0.208449 0.121447
O O4 0.384000 0.966362 0.108739
O O5 0.888165 0.347977 0.824918
O O6 0.465090 0.443775 0.892164
O O7 0.793541 0.238891 0.944786
O O8 0.067397 0.075531 0.657983
O O9 0.399104 0.334994 0.563839
O O10 0.562561 0.162129 0.320422
O O11 0.205255 0.307454 0.258581
O O12 0.991318 0.385394 0.146328
O O13 0.699295 0.633305 0.999854
O O14 0.166087 0.289020 0.896102
O O15 0.445035 0.352230 0.226248
O O16 0.000000 0.500000 0.500000
O O17 0.000000 0.000000 0.000000
#
# Coordination Sequence:
#
# PCOD9002961 Si02
#       8
#     2   2   2   2   2   2   2   2
#     4  11  21  35  60  89 117 146 179 234 296 345
#     4  11  20  38  61  83 108 155 197 231 273 333
#     4  10  21  37  55  83 123 149 180 229 288 349
#     4  11  22  35  57  89 118 146 181 231 303 345
#     4  10  23  38  60  80 109 153 202 236 269 319
#     4   9  19  32  51  83 120 143 169 221 287 343
#     4  11  22  39  57  85 117 144 191 244 277 326
#     4  11  18  33  61  84 111 142 186 233 284 336
#
# _framework density 22.302975
#
# number of rings (size 3 to 8) (size 9 to 14) (size 15 to 20)
#    0.000    1.500    3.750    3.000    1.750    0.000 
#    0.000    1.250    0.000    0.000    0.000    0.000 
#    0.000    0.000    0.000    0.000    0.000    0.000 
#
# Total GULP energy -89165.048743 kJ/mol
# GULP energy per Si atom -5572.815546 kJ/mol
# Density = 2.225221 g / cm^3
# Si number density = 22.302975 Si / 1000 Ang^3
#
#
#
# Elastic Constant Matrix: (Units=GPa)
#
#
# Indices 1 2 3 4 5 6 
#
# 1 138.7652 30.5605 29.5160 27.2676 16.8686 -1.9557
# 2 30.5605 47.1776 14.9202 16.3543 -4.4474 -9.0347
# 3 29.5160 14.9202 96.9324 31.5147 -8.0962 3.2587
# 4 27.2676 16.3543 31.5147 33.0634 4.2910 1.2172
# 5 16.8686 -4.4474 -8.0962 4.2910 28.0403 10.8729
# 6 -1.9557 -9.0347 3.2587 1.2172 10.8729 26.2964
#
#
#
# Elastic Compliance Matrix: (Units=1/GPa)
#
#
# Indices 1 2 3 4 5 6 
#
# 1 0.010497 -0.005343 -0.002241 -0.002884 -0.008478 0.002862
# 2 -0.005343 0.031114 0.001803 -0.014006 0.007928 0.007439
# 3 -0.002241 0.001803 0.017339 -0.016843 0.011401 -0.005630
# 4 -0.002884 -0.014006 -0.016843 0.057444 -0.014255 0.000296
# 5 -0.008478 0.007928 0.011401 -0.014255 0.055943 -0.021791
# 6 0.002862 0.007439 -0.005630 0.000296 -0.021791 0.050491
#
#
# Mechanical properties :
#
#
# Convention : Reuss Voigt Hill
#
# Bulk Modulus (GPa) = 21.10160 48.09651 34.59905
# Shear Modulus (GPa) = 19.98519 31.33858 25.66188
#
# Velocity S-wave (km/s) = 2.99670 3.75257 3.39573
# Velocity P-wave (km/s) = 4.63201 6.35513 5.56072
#
# Compressibility (1/GPa) = 0.04738977
#
# Stress axis : x y z
#
# Youngs Moduli (GPa) = 95.26333 32.13960 57.67437
#
# Poissons Ratio (x) = 0.17171 0.12923
# Poissons Ratio (y) = 0.50896 -0.10400
# Poissons Ratio (z) = 0.21346 -0.05796
#
# Static dielectric constant tensor:
#      x y z
#    x 1.907810 0.005070 0.006800 
#    y 0.005070 1.974160 -0.021220 
#    z 0.006800 -0.021220 1.850480 
# 
# From -- ./inp_files/503817.got.cif
#   From: 2010.05.17/outbox.cif.g08.bks.cpg/sg2_252_cif.got.tgz:503817.got - 2010.06.03 11:33:40.
