data_PCOD9002550
_publ_section_title
;
Structure prediction by ZEFSAII (Michael W. Deem and Ramdas Pophale) SiO2 
 PCOD9002550
Probable space group: P -1
;
_chemical_formula_sum "Si O2"
_cell_formula_units_Z 16
_cell_length_a 14.562604
_cell_length_b 12.800990
_cell_length_c 7.507211
_cell_angle_alpha 86.615453
_cell_angle_beta 54.610927
_cell_angle_gamma 129.600670
_cell_volume 643.173819
_symmetry_space_group_name_H-M "P -1"
_symmetry_group_IT_number 2
_symmetry_cell_setting 'triclinic'
loop_
_space_group_symop_operation_xyz
x,y,z
-x,-y,-z
loop_
_atom_site_type_symbol
_atom_site_label
_atom_site_fract_x
_atom_site_fract_y
_atom_site_fract_z
Si Si1 0.652360 0.686873 0.142733
Si Si2 0.728013 0.913275 0.753346
Si Si3 0.800969 0.946484 0.251538
Si Si4 0.874932 0.509150 0.114236
Si Si5 0.506697 0.124490 0.432600
Si Si6 0.308772 0.693852 0.180536
Si Si7 0.062643 0.705614 0.509562
Si Si8 0.208537 0.337859 0.718558
O O1 0.422691 0.489844 0.371694
O O2 0.747737 0.654535 0.119889
O O3 0.753506 0.833299 0.861924
O O4 0.667215 0.769587 0.296692
O O5 0.776561 0.916311 0.494850
O O6 0.856952 0.116125 0.634675
O O7 0.497451 0.776780 0.040447
O O8 0.709327 0.991394 0.319223
O O9 0.025446 0.121115 0.906734
O O10 0.648299 0.296068 0.388017
O O11 0.869370 0.605763 0.234129
O O12 0.000000 0.500000 0.000000
O O13 0.955519 0.617578 0.828571
O O14 0.500000 0.000000 0.500000
O O15 0.612886 0.222200 0.114744
O O16 0.241332 0.756605 0.319073
O O17 0.105260 0.469716 0.417636
#
# Coordination Sequence:
#
# PCOD9002550 Si02
#       8
#     2   2   2   2   2   2   2   2
#     4  11  27  46  72 100 136 183 231 290 334 411
#     4  11  24  42  70  99 134 183 226 283 346 397
#     4  11  23  45  70  97 139 176 231 286 335 410
#     4  11  22  38  68  98 134 180 220 277 348 400
#     4  10  21  36  61  98 133 176 221 274 334 407
#     4   9  22  37  60  92 141 173 223 278 338 404
#     4  10  21  40  59  96 137 177 224 286 330 416
#     4  11  24  48  68 100 142 175 233 286 339 408
#
# _framework density 24.876633999999999
#
# number of rings (size 3 to 8) (size 9 to 14) (size 15 to 20)
#    0.000    1.500    2.500    1.500    5.250    1.500 
#    0.000    2.500    0.000    0.000    0.000    0.000 
#    0.000    0.000    0.000    0.000    0.000    0.000 
#
# Total GULP energy -89434.981515 kJ/mol
# GULP energy per Si atom -5589.686345 kJ/mol
# Density = 2.482001 g / cm^3
# Si number density = 24.876634 Si / 1000 Ang^3
#
#
#
# Elastic Constant Matrix: (Units=GPa)
#
#
# Indices 1 2 3 4 5 6 
#
# 1 107.7010 14.9397 43.2666 -7.3483 14.3733 -22.2837
# 2 14.9397 82.7201 42.0576 -15.2452 7.1015 -16.1583
# 3 43.2666 42.0576 100.9460 -24.4229 -4.3172 -0.2635
# 4 -7.3483 -15.2452 -24.4229 44.0474 -5.0083 -3.4468
# 5 14.3733 7.1015 -4.3172 -5.0083 43.0034 -2.9918
# 6 -22.2837 -16.1583 -0.2635 -3.4468 -2.9918 28.8174
#
#
#
# Elastic Compliance Matrix: (Units=1/GPa)
#
#
# Indices 1 2 3 4 5 6 
#
# 1 0.016187 0.005207 -0.009400 -0.000269 -0.006225 0.014672
# 2 0.005207 0.020168 -0.010094 0.002900 -0.004696 0.015102
# 3 -0.009400 -0.010094 0.019797 0.005785 0.006680 -0.011363
# 4 -0.000269 0.002900 0.005785 0.027704 0.003778 0.005177
# 5 -0.006225 -0.004696 0.006680 0.003778 0.026933 -0.004137
# 6 0.014672 0.015102 -0.011363 0.005177 -0.004137 0.054601
#
#
# Mechanical properties :
#
#
# Convention : Reuss Voigt Hill
#
# Bulk Modulus (GPa) = 36.26289 54.65500 45.45894
# Shear Modulus (GPa) = 24.61142 35.91386 30.26264
#
# Velocity S-wave (km/s) = 3.14879 3.80370 3.49163
# Velocity P-wave (km/s) = 5.27528 6.42720 5.87952
#
# Compressibility (1/GPa) = 0.02757640
#
# Stress axis : x y z
#
# Youngs Moduli (GPa) = 61.77722 49.58228 50.51351
#
# Poissons Ratio (x) = -0.25816 0.47485
# Poissons Ratio (y) = -0.32166 0.50990
# Poissons Ratio (z) = 0.58073 0.50050
#
# Static dielectric constant tensor:
#      x y z
#    x -3.305450 3.667160 1.229630 
#    y 3.667160 -0.535070 -0.852500 
#    z 1.229630 -0.852500 1.634920 
# 
# From -- ./inp_files/311276.got.cif
#   From: 2010.05.17/outbox.cif.g08.bks.cpg/sg2_156_cif.got.tgz:311276.got - 2010.06.03 11:33:40.
