data_PCOD9002274
_publ_section_title
;
Structure prediction by ZEFSAII (Michael W. Deem and Ramdas Pophale) SiO2 
 PCOD9002274
Probable space group: P -1
;
_chemical_formula_sum "Si O2"
_cell_formula_units_Z 14
_cell_length_a 13.567886
_cell_length_b 11.227616
_cell_length_c 13.806477
_cell_angle_alpha 63.548270
_cell_angle_beta 158.337667
_cell_angle_gamma 105.739258
_cell_volume 626.933095
_symmetry_space_group_name_H-M "P -1"
_symmetry_group_IT_number 2
_symmetry_cell_setting 'triclinic'
loop_
_space_group_symop_operation_xyz
x,y,z
-x,-y,-z
loop_
_atom_site_type_symbol
_atom_site_label
_atom_site_fract_x
_atom_site_fract_y
_atom_site_fract_z
Si Si1 0.611573 0.029873 0.693108
Si Si2 0.470786 0.033174 0.774932
Si Si3 0.120130 0.311279 0.491236
Si Si4 0.046248 0.907731 0.474576
Si Si5 0.829583 0.399023 0.874556
Si Si6 0.573275 0.441171 0.826308
Si Si7 0.130980 0.751627 0.221386
O O1 0.434914 0.072824 0.615158
O O2 0.500000 0.000000 0.500000
O O3 0.707567 0.157220 0.710400
O O4 0.884370 0.869752 0.021495
O O5 0.356872 0.905370 0.727805
O O6 0.265019 0.177020 0.595953
O O7 0.793003 0.987884 0.133603
O O8 0.998654 0.238321 0.489505
O O9 0.375854 0.365888 0.720072
O O10 0.829615 0.438036 0.131970
O O11 0.000000 0.000000 0.500000
O O12 0.500000 0.500000 0.500000
O O13 0.754525 0.353572 0.927411
O O14 0.989898 0.290536 0.971873
O O15 0.000000 0.500000 0.000000
O O16 0.349497 0.604495 0.528683
#
# Coordination Sequence:
#
# PCOD9002274 Si02
#       7
#     2   2   2   2   2   2   2
#     4  11  27  42  68  89 133 187 229 264 307 404
#     4  11  23  41  66  97 133 168 216 270 329 384
#     4  11  21  37  66  99 125 159 208 265 343 387
#     4  10  21  40  67  97 132 161 211 281 334 388
#     4  10  21  36  59  88 126 167 206 259 323 381
#     4  11  22  36  63  93 130 166 200 272 330 384
#     4  10  25  42  59  93 131 173 228 264 322 384
#
# _framework density 22.330931
#
# number of rings (size 3 to 8) (size 9 to 14) (size 15 to 20)
#    0.000    1.429    0.000    6.857   12.000    0.000 
#    0.000    0.000    0.000    5.143    0.000    0.000 
#    0.000    0.000    0.000    0.000    0.000    0.000 
#
# Total GULP energy -78102.967732 kJ/mol
# GULP energy per Si atom -5578.783409 kJ/mol
# Density = 2.228011 g / cm^3
# Si number density = 22.330931 Si / 1000 Ang^3
#
#
#
# Elastic Constant Matrix: (Units=GPa)
#
#
# Indices 1 2 3 4 5 6 
#
# 1 15.6666 10.9245 0.3905 11.5182 -2.3447 -3.4157
# 2 10.9245 104.1660 14.1945 17.3504 9.9501 5.6454
# 3 0.3905 14.1945 79.3271 14.7390 -6.4952 0.4178
# 4 11.5182 17.3504 14.7390 50.1607 2.0034 5.2815
# 5 -2.3447 9.9501 -6.4952 2.0034 31.5601 8.0628
# 6 -3.4157 5.6454 0.4178 5.2815 8.0628 10.1337
#
#
#
# Elastic Compliance Matrix: (Units=1/GPa)
#
#
# Indices 1 2 3 4 5 6 
#
# 1 0.102848 -0.009947 0.006125 -0.027708 -0.000126 0.054496
# 2 -0.009947 0.011660 -0.002205 -0.000217 -0.003001 -0.007256
# 3 0.006125 -0.002205 0.014241 -0.005234 0.003797 0.002412
# 4 -0.027708 -0.000217 -0.005234 0.030615 0.001714 -0.026322
# 5 -0.000126 -0.003001 0.003797 0.001714 0.041604 -0.032522
# 6 0.054496 -0.007256 0.002412 -0.026322 -0.032522 0.160587
#
#
# Mechanical properties :
#
#
# Convention : Reuss Voigt Hill
#
# Bulk Modulus (GPa) = 8.56938 27.79762 18.18350
# Shear Modulus (GPa) = 12.12105 29.94759 21.03432
#
# Velocity S-wave (km/s) = 2.33232 3.66605 3.07243
# Velocity P-wave (km/s) = 3.33147 5.51316 4.55487
#
# Compressibility (1/GPa) = 0.11669451
#
# Stress axis : x y z
#
# Youngs Moduli (GPa) = 9.72311 85.76464 70.21968
#
# Poissons Ratio (x) = 0.85311 -0.43006
# Poissons Ratio (y) = 0.09672 0.15480
# Poissons Ratio (z) = -0.05955 0.18907
#
# Static dielectric constant tensor:
#      x y z
#    x 1.837250 0.032630 -0.007460 
#    y 0.032630 1.778120 -0.015600 
#    z -0.007460 -0.015600 1.897190 
# 
# From -- ./inp_files/531773.got.cif
#   From: 2010.05.17/outbox.cif.g08.bks.cpg/sg2_266_cif.got.tgz:531773.got - 2010.06.03 11:33:40.
