data_PCOD9002872
_publ_section_title
;
Structure prediction by ZEFSAII (Michael W. Deem and Ramdas Pophale) SiO2 
 PCOD9002872
Probable space group: P -1
;
_chemical_formula_sum "Si O2"
_cell_formula_units_Z 16
_cell_length_a 9.410204
_cell_length_b 14.202270
_cell_length_c 8.857428
_cell_angle_alpha 95.913485
_cell_angle_beta 54.286641
_cell_angle_gamma 66.520011
_cell_volume 786.980011
_symmetry_space_group_name_H-M "P -1"
_symmetry_group_IT_number 2
_symmetry_cell_setting 'triclinic'
loop_
_space_group_symop_operation_xyz
x,y,z
-x,-y,-z
loop_
_atom_site_type_symbol
_atom_site_label
_atom_site_fract_x
_atom_site_fract_y
_atom_site_fract_z
Si Si1 0.298685 0.029092 0.937072
Si Si2 0.279400 0.994958 0.303843
Si Si3 0.769830 0.558871 0.577763
Si Si4 0.868914 0.269350 0.213929
Si Si5 0.363882 0.607169 0.322757
Si Si6 0.381020 0.793098 0.827936
Si Si7 0.185395 0.505355 0.813944
Si Si8 0.827903 0.181107 0.725957
O O1 0.344455 0.911738 0.821908
O O2 0.497137 0.035542 0.781777
O O3 0.279242 0.017890 0.128397
O O4 0.081449 0.144253 0.042974
O O5 0.252650 0.890176 0.319369
O O6 0.078210 0.107209 0.523769
O O7 0.656550 0.499283 0.703895
O O8 0.618967 0.696037 0.719134
O O9 0.788045 0.536341 0.382834
O O10 0.000000 0.500000 0.500000
O O11 0.813415 0.312471 0.427402
O O12 0.677782 0.263118 0.273065
O O13 0.877707 0.364813 0.134929
O O14 0.593430 0.564021 0.241765
O O15 0.298530 0.689701 0.234539
O O16 0.222902 0.819377 0.068193
O O17 0.000000 0.500000 0.000000
#
# Coordination Sequence:
#
# PCOD9002872 Si02
#       8
#     2   2   2   2   2   2   2   2
#     4  10  21  36  67  85 121 163 201 250 310 360
#     4   9  20  40  56  94 119 156 208 251 294 373
#     4  11  25  42  64  93 127 164 206 253 313 367
#     4  11  21  44  63  87 121 167 206 244 313 373
#     4  11  22  43  68  85 124 174 203 249 308 370
#     4  11  23  41  58  93 128 156 202 257 308 363
#     4  11  25  43  66  91 123 165 211 255 301 370
#     4  10  22  36  65  88 123 158 204 252 303 357
#
# _framework density 20.330884000000001
#
# number of rings (size 3 to 8) (size 9 to 14) (size 15 to 20)
#    0.000    1.500    3.750    1.125    5.250    3.500 
#    0.000    0.625    0.000    0.000    0.000    0.000 
#    0.000    0.000    0.000    0.000    0.000    0.000 
#
# Total GULP energy -89397.050369 kJ/mol
# GULP energy per Si atom -5587.315648 kJ/mol
# Density = 2.028461 g / cm^3
# Si number density = 20.330884 Si / 1000 Ang^3
#
#
#
# Elastic Constant Matrix: (Units=GPa)
#
#
# Indices 1 2 3 4 5 6 
#
# 1 59.8226 6.0560 17.9887 11.7114 -28.7462 -3.0669
# 2 6.0560 85.0799 25.4429 25.9063 -20.7488 -1.4849
# 3 17.9887 25.4429 61.4450 15.8453 -27.5459 4.5569
# 4 11.7114 25.9063 15.8453 28.6919 -0.8254 -2.0274
# 5 -28.7462 -20.7488 -27.5459 -0.8254 37.6853 5.4287
# 6 -3.0669 -1.4849 4.5569 -2.0274 5.4287 19.7808
#
#
#
# Elastic Compliance Matrix: (Units=1/GPa)
#
#
# Indices 1 2 3 4 5 6 
#
# 1 0.048440 0.021059 0.020386 -0.049483 0.065030 -0.018524
# 2 0.021059 0.029281 0.012315 -0.041555 0.042179 -0.013209
# 3 0.020386 0.012315 0.044400 -0.044174 0.057633 -0.026488
# 4 -0.049483 -0.041555 -0.044174 0.116871 -0.095777 0.037649
# 5 0.065030 0.042179 0.057633 -0.095777 0.146606 -0.050080
# 6 -0.018524 -0.013209 -0.026488 0.037649 -0.050080 0.070395
#
#
# Mechanical properties :
#
#
# Convention : Reuss Voigt Hill
#
# Bulk Modulus (GPa) = 4.35463 33.92475 19.13969
# Shear Modulus (GPa) = 11.76411 27.68894 19.72653
#
# Velocity S-wave (km/s) = 2.40809 3.69442 3.11830
# Velocity P-wave (km/s) = 3.14299 5.90938 4.73282
#
# Compressibility (1/GPa) = 0.22964048
#
# Stress axis : x y z
#
# Youngs Moduli (GPa) = 20.64401 34.15197 22.52249
#
# Poissons Ratio (x) = -0.71919 -0.45915
# Poissons Ratio (y) = -0.43473 -0.27736
# Poissons Ratio (z) = -0.42085 -0.42058
#
# Static dielectric constant tensor:
#      x y z
#    x 1.713930 0.014460 0.018730 
#    y 0.014460 1.713650 0.013560 
#    z 0.018730 0.013560 1.718610 
# 
# From -- ./inp_files/186168.got.cif
#   From: 2010.05.17/outbox.cif.g08.bks.cpg/sg2_94_cif.got.tgz:186168.got - 2010.06.03 11:33:40.
