data_PCOD9002160
_publ_section_title
;
Structure prediction by ZEFSAII (Michael W. Deem and Ramdas Pophale) SiO2 
 PCOD9002160
Probable space group: P -1
;
_chemical_formula_sum "Si O2"
_cell_formula_units_Z 13
_cell_length_a 13.172630
_cell_length_b 6.265099
_cell_length_c 8.089799
_cell_angle_alpha 57.390801
_cell_angle_beta 82.529441
_cell_angle_gamma 109.889912
_cell_volume 485.702829
_symmetry_space_group_name_H-M "P -1"
_symmetry_group_IT_number 2
_symmetry_cell_setting 'triclinic'
loop_
_space_group_symop_operation_xyz
x,y,z
-x,-y,-z
loop_
_atom_site_type_symbol
_atom_site_label
_atom_site_fract_x
_atom_site_fract_y
_atom_site_fract_z
Si Si1 0.860803 0.805184 0.752611
Si Si2 0.114037 0.701959 0.000622
Si Si3 0.449145 0.029682 0.253806
Si Si4 0.233912 0.846761 0.584575
Si Si5 0.966525 0.700338 0.310474
Si Si6 0.643351 0.647865 0.074269
Si Si7 0.500000 0.500000 0.500000
O O1 0.812659 0.955676 0.575682
O O2 0.994263 0.025618 0.691615
O O3 0.853033 0.510009 0.816728
O O4 0.772524 0.719659 0.962669
O O5 0.213022 0.863768 0.775846
O O6 0.060565 0.829582 0.087463
O O7 0.000000 0.500000 0.000000
O O8 0.562661 0.343985 0.122372
O O9 0.369654 0.974902 0.458835
O O10 0.472960 0.764824 0.332526
O O11 0.376058 0.092049 0.102769
O O12 0.157665 0.526926 0.649795
O O13 0.000000 0.500000 0.500000
O O14 0.600135 0.589594 0.294525
#
# Coordination Sequence:
#
# PCOD9002160 Si02
#       7
#     2   2   2   2   2   2   1
#     4  10  21  40  59  81 119 154 186 240 294 342
#     4  10  21  36  58  86 113 150 194 233 285 349
#     4  10  22  42  60  86 122 156 197 246 296 350
#     4   9  20  39  59  82 115 153 194 238 287 345
#     4   9  20  37  58  85 115 148 189 235 284 342
#     4  10  23  40  61  88 122 156 195 246 298 351
#     4  12  22  38  66  90 116 156 204 246 294 352
#
# _framework density 26.765338
#
# number of rings (size 3 to 8) (size 9 to 14) (size 15 to 20)
#    0.000    2.154    0.000    1.846    0.000   10.462 
#    0.000   15.385    0.000    0.000    0.000    0.000 
#    0.000    0.000    0.000    0.000    0.000    0.000 
#
# Total GULP energy -72494.074918 kJ/mol
# GULP energy per Si atom -5576.467301 kJ/mol
# Density = 2.670442 g / cm^3
# Si number density = 26.765338 Si / 1000 Ang^3
#
#
#
# Elastic Constant Matrix: (Units=GPa)
#
#
# Indices 1 2 3 4 5 6 
#
# 1 91.9567 45.3027 22.5031 -26.1647 1.2687 -24.7063
# 2 45.3027 63.6850 15.7608 -20.5887 8.7640 -14.7165
# 3 22.5031 15.7608 123.0208 7.0132 1.7235 -29.9600
# 4 -26.1647 -20.5887 7.0132 44.2060 -19.5518 1.1740
# 5 1.2687 8.7640 1.7235 -19.5518 58.6979 -13.8279
# 6 -24.7063 -14.7165 -29.9600 1.1740 -13.8279 57.4722
#
#
#
# Elastic Compliance Matrix: (Units=1/GPa)
#
#
# Indices 1 2 3 4 5 6 
#
# 1 0.021214 -0.010602 -0.001524 0.010454 0.006278 0.006908
# 2 -0.010602 0.025670 -0.001434 0.005151 -0.001666 0.000762
# 3 -0.001524 -0.001434 0.009781 -0.003308 -0.000176 0.004102
# 4 0.010454 0.005151 -0.003308 0.037338 0.013063 0.006468
# 5 0.006278 -0.001666 -0.000176 0.013063 0.023276 0.007514
# 6 0.006908 0.000762 0.004102 0.006468 0.007514 0.024378
#
#
# Mechanical properties :
#
#
# Convention : Reuss Voigt Hill
#
# Bulk Modulus (GPa) = 33.84677 49.53285 41.68981
# Shear Modulus (GPa) = 27.99141 45.08160 36.53651
#
# Velocity S-wave (km/s) = 3.23740 4.10851 3.69869
# Velocity P-wave (km/s) = 5.16213 6.40726 5.81810
#
# Compressibility (1/GPa) = 0.02954492
#
# Stress axis : x y z
#
# Youngs Moduli (GPa) = 47.13771 38.95673 102.23679
#
# Poissons Ratio (x) = 0.41302 0.15580
# Poissons Ratio (y) = 0.49976 0.14662
# Poissons Ratio (z) = 0.07184 0.05587
#
# Static dielectric constant tensor:
#      x y z
#    x 2.049340 -0.006830 0.010440 
#    y -0.006830 2.198200 0.006360 
#    z 0.010440 0.006360 2.178040 
# 
# From -- ./inp_files/34951.got.cif
#   From: 2010.05.17/outbox.cif.g08.bks.cpg/sg2_18_cif.got.tgz:34951.got - 2010.06.03 11:33:40.
