data_PCOD9002417
_publ_section_title
;
Structure prediction by ZEFSAII (Michael W. Deem and Ramdas Pophale) SiO2 
 PCOD9002417
Probable space group: P -1
;
_chemical_formula_sum "Si O2"
_cell_formula_units_Z 16
_cell_length_a 17.449903
_cell_length_b 7.837700
_cell_length_c 20.723639
_cell_angle_alpha 113.656676
_cell_angle_beta 19.492202
_cell_angle_gamma 123.184819
_cell_volume 721.640472
_symmetry_space_group_name_H-M "P -1"
_symmetry_group_IT_number 2
_symmetry_cell_setting 'triclinic'
loop_
_space_group_symop_operation_xyz
x,y,z
-x,-y,-z
loop_
_atom_site_type_symbol
_atom_site_label
_atom_site_fract_x
_atom_site_fract_y
_atom_site_fract_z
Si Si1 0.213613 0.332000 0.994853
Si Si2 0.182527 0.312557 0.458010
Si Si3 0.841447 0.401537 0.380398
Si Si4 0.684572 0.982270 0.294824
Si Si5 0.238128 0.756980 0.860403
Si Si6 0.280961 0.033192 0.990310
Si Si7 0.137063 0.943643 0.593461
Si Si8 0.884399 0.154721 0.543855
O O1 0.047495 0.440921 0.165589
O O2 0.988987 0.106795 0.101346
O O3 0.314778 0.246554 0.959787
O O4 0.490462 0.516769 0.769187
O O5 0.056214 0.388004 0.624053
O O6 0.110362 0.066157 0.486824
O O7 0.079445 0.322555 0.469913
O O8 0.521379 0.281518 0.595487
O O9 0.836599 0.207098 0.396591
O O10 0.736817 0.116236 0.207210
O O11 0.500000 0.000000 0.500000
O O12 0.557393 0.837034 0.628168
O O13 0.180497 0.849042 0.985288
O O14 0.000000 0.500000 0.000000
O O15 0.062026 0.983931 0.211988
O O16 0.575076 0.091731 0.789454
O O17 0.040131 0.791900 0.583142
#
# Coordination Sequence:
#
# PCOD9002417 Si02
#       8
#     2   2   2   2   2   2   2   2
#     4  10  21  37  63  89 116 157 203 245 300 363
#     4  11  23  39  60  87 116 156 205 255 303 360
#     4   9  20  39  61  88 117 154 204 246 296 360
#     4   9  19  38  60  90 127 157 200 254 294 357
#     4  10  21  36  60  92 127 163 206 247 300 368
#     4  10  22  41  61  84 123 161 196 254 307 360
#     4   9  20  41  61  85 120 158 199 250 303 360
#     4  10  24  41  57  85 124 156 198 256 312 359
#
# _framework density 22.171704999999999
#
# number of rings (size 3 to 8) (size 9 to 14) (size 15 to 20)
#    0.000    2.250    0.000    3.000    3.500    6.500 
#    2.250    5.000    0.000    0.000    0.000    0.000 
#    0.000    0.000    0.000    0.000    0.000    0.000 
#
# Total GULP energy -89253.630433 kJ/mol
# GULP energy per Si atom -5578.351902 kJ/mol
# Density = 2.212124 g / cm^3
# Si number density = 22.171705 Si / 1000 Ang^3
#
#
#
# Elastic Constant Matrix: (Units=GPa)
#
#
# Indices 1 2 3 4 5 6 
#
# 1 68.6290 10.6197 32.6744 8.8478 -10.5943 27.5886
# 2 10.6197 83.9831 52.1741 17.7579 -5.4070 26.7608
# 3 32.6744 52.1741 90.0065 26.4658 -1.5973 20.9427
# 4 8.8478 17.7579 26.4658 23.1834 9.0344 6.9478
# 5 -10.5943 -5.4070 -1.5973 9.0344 27.6744 -4.2834
# 6 27.5886 26.7608 20.9427 6.9478 -4.2834 29.0701
#
#
#
# Elastic Compliance Matrix: (Units=1/GPa)
#
#
# Indices 1 2 3 4 5 6 
#
# 1 0.035299 0.016922 -0.011765 -0.006793 0.012612 -0.037120
# 2 0.016922 0.030772 -0.014196 -0.008369 0.009645 -0.030738
# 3 -0.011765 -0.014196 0.027050 -0.019200 0.002043 0.009637
# 4 -0.006793 -0.008369 -0.019200 0.086204 -0.033098 0.002504
# 5 0.012612 0.009645 0.002043 -0.033098 0.052742 -0.006639
# 6 -0.037120 -0.030738 0.009637 0.002504 -0.006639 0.089405
#
#
# Mechanical properties :
#
#
# Convention : Reuss Voigt Hill
#
# Bulk Modulus (GPa) = 13.32591 48.17278 30.74935
# Shear Modulus (GPa) = 13.71496 25.79560 19.75528
#
# Velocity S-wave (km/s) = 2.48982 3.41463 2.98822
# Velocity P-wave (km/s) = 3.78008 6.10906 5.07984
#
# Compressibility (1/GPa) = 0.07504178
#
# Stress axis : x y z
#
# Youngs Moduli (GPa) = 28.32962 32.49697 36.96829
#
# Poissons Ratio (x) = -0.54991 0.43493
# Poissons Ratio (y) = -0.47939 0.52482
# Poissons Ratio (z) = 0.33330 0.46134
#
# Static dielectric constant tensor:
#      x y z
#    x 1.901130 -0.000500 -0.012910 
#    y -0.000500 1.816270 0.020960 
#    z -0.012910 0.020960 1.827030 
# 
# From -- ./inp_files/577452.got.cif
#   From: 2010.05.17/outbox.cif.g08.bks.cpg/sg2_289_cif.got.tgz:577452.got - 2010.06.03 11:33:40.
