data_PCOD9002218
_publ_section_title
;
Structure prediction by ZEFSAII (Michael W. Deem and Ramdas Pophale) SiO2 
 PCOD9002218
Probable space group: P -1
;
_chemical_formula_sum "Si O2"
_cell_formula_units_Z 16
_cell_length_a 10.479121
_cell_length_b 14.660831
_cell_length_c 14.714470
_cell_angle_alpha 28.230126
_cell_angle_beta 67.162135
_cell_angle_gamma 50.509119
_cell_volume 727.638986
_symmetry_space_group_name_H-M "P -1"
_symmetry_group_IT_number 2
_symmetry_cell_setting 'triclinic'
loop_
_space_group_symop_operation_xyz
x,y,z
-x,-y,-z
loop_
_atom_site_type_symbol
_atom_site_label
_atom_site_fract_x
_atom_site_fract_y
_atom_site_fract_z
Si Si1 0.812332 0.204507 0.200869
Si Si2 0.116217 0.606373 0.474768
Si Si3 0.748515 0.851115 0.262565
Si Si4 0.830206 0.855983 0.876166
Si Si5 0.257415 0.873073 0.149295
Si Si6 0.900021 0.360366 0.334100
Si Si7 0.449773 0.656962 0.012149
Si Si8 0.425345 0.628627 0.602208
O O1 0.642965 0.458968 0.078838
O O2 0.983179 0.190431 0.149125
O O3 0.719167 0.220777 0.118439
O O4 0.901754 0.936764 0.463229
O O5 0.270602 0.338732 0.611410
O O6 0.121909 0.820592 0.252238
O O7 0.139835 0.577773 0.601007
O O8 0.921577 0.690984 0.425001
O O9 0.794255 0.950714 0.078182
O O10 0.579588 0.111479 0.132994
O O11 0.748573 0.988150 0.882198
O O12 0.674406 0.080792 0.652414
O O13 0.882881 0.583384 0.097397
O O14 0.455147 0.584636 0.323998
O O15 0.743918 0.361252 0.340051
O O16 0.448776 0.496178 0.232980
#
# Coordination Sequence:
#
# PCOD9002218 Si02
#       8
#     2   2   2   2   2   2   2   2
#     4  10  22  44  68  84 121 156 212 254 295 354
#     4  11  20  35  59  91 127 156 196 245 305 360
#     4  10  21  36  58  94 123 156 196 249 302 362
#     4  11  22  39  62  91 121 167 200 240 303 364
#     4  11  20  36  59  89 123 158 198 243 302 359
#     4  11  22  40  61  90 125 163 200 243 305 360
#     4  10  21  44  65  89 119 163 199 258 303 342
#     4  10  24  39  59  91 126 160 199 246 303 366
#
# _framework density 21.988927
#
# number of rings (size 3 to 8) (size 9 to 14) (size 15 to 20)
#    0.000    1.500    5.000    0.750    0.000    5.500 
#    0.000    8.750    0.000    0.000    0.000    0.000 
#    0.000    0.000    0.000    0.000    0.000    0.000 
#
# Total GULP energy -89427.186068 kJ/mol
# GULP energy per Si atom -5589.199129 kJ/mol
# Density = 2.193888 g / cm^3
# Si number density = 21.988927 Si / 1000 Ang^3
#
#
#
# Elastic Constant Matrix: (Units=GPa)
#
#
# Indices 1 2 3 4 5 6 
#
# 1 29.4174 -8.3218 26.2688 -2.2217 -3.7934 -4.0757
# 2 -8.3218 60.3748 14.0105 -19.8957 -1.0146 -2.3676
# 3 26.2688 14.0105 133.5509 -13.9409 -10.9887 -4.3064
# 4 -2.2217 -19.8957 -13.9409 34.4206 0.1689 6.3784
# 5 -3.7934 -1.0146 -10.9887 0.1689 35.1269 -4.6633
# 6 -4.0757 -2.3676 -4.3064 6.3784 -4.6633 26.1267
#
#
#
# Elastic Compliance Matrix: (Units=1/GPa)
#
#
# Indices 1 2 3 4 5 6 
#
# 1 0.046892 0.010254 -0.009417 0.003956 0.003232 0.006303
# 2 0.010254 0.022853 -0.003026 0.012597 0.000792 0.000237
# 3 -0.009417 -0.003026 0.009995 0.001710 0.001993 -0.000158
# 4 0.003956 0.012597 0.001710 0.038646 0.000162 -0.007365
# 5 0.003232 0.000792 0.001993 0.000162 0.030296 0.006272
# 6 0.006303 0.000237 -0.000158 -0.007365 0.006272 0.042171
#
#
# Mechanical properties :
#
#
# Convention : Reuss Voigt Hill
#
# Bulk Modulus (GPa) = 13.26957 31.91754 22.59356
# Shear Modulus (GPa) = 22.69090 31.89387 27.29238
#
# Velocity S-wave (km/s) = 3.21584 3.81261 3.52687
# Velocity P-wave (km/s) = 4.45383 5.82479 5.18482
#
# Compressibility (1/GPa) = 0.07536038
#
# Stress axis : x y z
#
# Youngs Moduli (GPa) = 21.32555 43.75827 100.04975
#
# Poissons Ratio (x) = -0.44869 0.94217
# Poissons Ratio (y) = -0.21867 0.30280
# Poissons Ratio (z) = 0.20082 0.13243
#
# Static dielectric constant tensor:
#      x y z
#    x 1.784500 0.004460 0.014180 
#    y 0.004460 1.826920 -0.018160 
#    z 0.014180 -0.018160 1.813610 
# 
# From -- ./inp_files/434222.got.cif
#   From: 2010.05.17/outbox.cif.g08.bks.cpg/sg2_218_cif.got.tgz:434222.got - 2010.06.03 11:33:40.
