data_PCOD9002103
_publ_section_title
;
Structure prediction by ZEFSAII (Michael W. Deem and Ramdas Pophale) SiO2 
 PCOD9002103
Probable space group: P -1
;
_chemical_formula_sum "Si O2"
_cell_formula_units_Z 16
_cell_length_a 16.921199
_cell_length_b 8.737029
_cell_length_c 7.712410
_cell_angle_alpha 71.974220
_cell_angle_beta 79.990647
_cell_angle_gamma 47.812938
_cell_volume 802.442923
_symmetry_space_group_name_H-M "P -1"
_symmetry_group_IT_number 2
_symmetry_cell_setting 'triclinic'
loop_
_space_group_symop_operation_xyz
x,y,z
-x,-y,-z
loop_
_atom_site_type_symbol
_atom_site_label
_atom_site_fract_x
_atom_site_fract_y
_atom_site_fract_z
Si Si1 0.897445 0.317065 0.963734
Si Si2 0.854586 0.952173 0.613679
Si Si3 0.269210 0.178205 0.145627
Si Si4 0.946114 0.462711 0.381978
Si Si5 0.262152 0.079960 0.811040
Si Si6 0.802629 0.370186 0.623304
Si Si7 0.125590 0.987916 0.812457
Si Si8 0.375905 0.145475 0.461529
O O1 0.832758 0.566889 0.927839
O O2 0.831661 0.321477 0.830217
O O3 0.019502 0.170385 0.902215
O O4 0.884547 0.191503 0.151574
O O5 0.822668 0.169778 0.609792
O O6 0.769598 0.934384 0.710816
O O7 0.871800 0.940668 0.405331
O O8 0.966671 0.728197 0.712926
O O9 0.347733 0.150649 0.268368
O O10 0.310385 0.078621 0.973986
O O11 0.855242 0.685269 0.246047
O O12 0.886199 0.391076 0.514217
O O13 0.000000 0.500000 0.500000
O O14 0.231449 0.930995 0.874452
O O15 0.328107 0.065337 0.629272
O O16 0.689042 0.605414 0.553815
O O17 0.500000 0.000000 0.500000
#
# Coordination Sequence:
#
# PCOD9002103 Si02
#       8
#     2   2   2   2   2   2   2   2
#     4  10  22  35  53  90 130 171 206 241 288 368
#     4  12  21  35  60  90 132 167 206 246 297 369
#     4  11  24  40  64  90 123 164 206 252 315 373
#     4  11  19  34  57  88 130 173 206 239 293 356
#     4  11  22  39  62  90 124 166 208 252 307 367
#     4  10  21  36  57  88 122 159 206 255 305 362
#     4  11  21  34  57  88 134 170 204 244 294 355
#     4  10  23  46  69  89 117 154 206 273 326 371
#
# _framework density 19.939112999999999
#
# number of rings (size 3 to 8) (size 9 to 14) (size 15 to 20)
#    0.000    1.250    3.750    3.375    3.500    3.500 
#    0.000    0.625    0.000    3.750    0.000    0.000 
#    0.000    0.000    0.000    0.000    0.000    0.000 
#
# Total GULP energy -89269.924321 kJ/mol
# GULP energy per Si atom -5579.370270 kJ/mol
# Density = 1.989373 g / cm^3
# Si number density = 19.939113 Si / 1000 Ang^3
#
#
#
# Elastic Constant Matrix: (Units=GPa)
#
#
# Indices 1 2 3 4 5 6 
#
# 1 101.6630 58.6879 21.1178 -8.3796 0.4326 6.8049
# 2 58.6879 72.9309 -0.8429 -2.6683 5.8369 8.0362
# 3 21.1178 -0.8429 68.0201 6.2656 -0.2686 6.6390
# 4 -8.3796 -2.6683 6.2656 21.7004 10.0064 0.5546
# 5 0.4326 5.8369 -0.2686 10.0064 26.3794 -7.9164
# 6 6.8049 8.0362 6.6390 0.5546 -7.9164 40.2761
#
#
#
# Elastic Compliance Matrix: (Units=1/GPa)
#
#
# Indices 1 2 3 4 5 6 
#
# 1 0.022657 -0.018199 -0.008155 0.008518 0.000691 0.001166
# 2 -0.018199 0.029501 0.006683 -0.001971 -0.006992 -0.005260
# 3 -0.008155 0.006683 0.018321 -0.008059 0.001104 -0.002648
# 4 0.008518 -0.001971 -0.008059 0.063357 -0.025500 -0.005602
# 5 0.000691 -0.006992 0.001104 -0.025500 0.052669 0.011800
# 6 0.001166 -0.005260 -0.002648 -0.005602 0.011800 0.028514
#
#
# Mechanical properties :
#
#
# Convention : Reuss Voigt Hill
#
# Bulk Modulus (GPa) = 32.11638 44.50440 38.31039
# Shear Modulus (GPa) = 18.88634 28.58125 23.73380
#
# Velocity S-wave (km/s) = 3.08100 3.79017 3.45384
# Velocity P-wave (km/s) = 5.36647 6.44379 5.92965
#
# Compressibility (1/GPa) = 0.03113676
#
# Stress axis : x y z
#
# Youngs Moduli (GPa) = 44.13552 33.89744 54.58089
#
# Poissons Ratio (x) = 0.61690 0.44513
# Poissons Ratio (y) = 0.80322 -0.36477
# Poissons Ratio (z) = 0.35995 -0.22654
#
# Static dielectric constant tensor:
#      x y z
#    x 1.736320 0.048860 0.004680 
#    y 0.048860 1.748240 -0.027950 
#    z 0.004680 -0.027950 1.800360 
# 
# From -- ./inp_files/297873.got.cif
#   From: 2010.05.17/outbox.cif.g08.bks.cpg/sg2_149_cif.got.tgz:297873.got - 2010.06.03 11:33:40.
