data_PCOD9002024
_publ_section_title
;
Structure prediction by ZEFSAII (Michael W. Deem and Ramdas Pophale) SiO2 
 PCOD9002024
Probable space group: P -1
;
_chemical_formula_sum "Si O2"
_cell_formula_units_Z 16
_cell_length_a 14.687668
_cell_length_b 15.738501
_cell_length_c 9.247063
_cell_angle_alpha 30.859187
_cell_angle_beta 44.134856
_cell_angle_gamma 35.832462
_cell_volume 640.179352
_symmetry_space_group_name_H-M "P -1"
_symmetry_group_IT_number 2
_symmetry_cell_setting 'triclinic'
loop_
_space_group_symop_operation_xyz
x,y,z
-x,-y,-z
loop_
_atom_site_type_symbol
_atom_site_label
_atom_site_fract_x
_atom_site_fract_y
_atom_site_fract_z
Si Si1 0.299924 0.011390 0.811857
Si Si2 0.498053 0.305631 0.172398
Si Si3 0.696059 0.282483 0.230327
Si Si4 0.016687 0.308539 0.496377
Si Si5 0.918619 0.862146 0.625274
Si Si6 0.227646 0.259421 0.800952
Si Si7 0.735297 0.282255 0.514101
Si Si8 0.322478 0.518250 0.442584
O O1 0.304083 0.157344 0.710520
O O2 0.151244 0.146232 0.681608
O O3 0.448985 0.866821 0.751528
O O4 0.271303 0.871738 0.149579
O O5 0.326524 0.506472 0.091373
O O6 0.579651 0.415134 0.851742
O O7 0.589570 0.236146 0.319953
O O8 0.669286 0.294354 0.415113
O O9 0.862815 0.080638 0.314031
O O10 0.941021 0.529819 0.321925
O O11 0.858365 0.312364 0.642136
O O12 0.081902 0.267270 0.318039
O O13 0.089335 0.772758 0.624721
O O14 0.806957 0.870465 0.865378
O O15 0.332554 0.321600 0.672563
O O16 0.654547 0.478460 0.417249
#
# Coordination Sequence:
#
# PCOD9002024 Si02
#       8
#     2   2   2   2   2   2   2   2
#     4  11  20  36  58  88 113 155 186 237 281 336
#     4  10  23  40  61  80 115 150 198 232 280 332
#     4  11  22  39  61  84 111 154 190 240 282 331
#     4   9  20  34  58  82 123 146 187 228 287 336
#     4  11  20  37  58  89 118 147 186 238 283 340
#     4  10  21  36  56  87 119 151 184 228 295 335
#     4  10  22  35  61  89 113 142 194 238 290 324
#     4   8  21  37  56  85 114 149 186 232 280 336
#
# _framework density 24.992996999999999
#
# number of rings (size 3 to 8) (size 9 to 14) (size 15 to 20)
#    0.750    1.250    2.500    1.125    1.750    3.500 
#    0.000    0.625    0.000    1.500    0.000    0.000 
#    0.000    0.000    0.000    0.000    0.000    0.000 
#
# Total GULP energy -89276.914374 kJ/mol
# GULP energy per Si atom -5579.807148 kJ/mol
# Density = 2.493611 g / cm^3
# Si number density = 24.992997 Si / 1000 Ang^3
#
#
#
# Elastic Constant Matrix: (Units=GPa)
#
#
# Indices 1 2 3 4 5 6 
#
# 1 59.2619 36.6062 39.0248 -1.0775 11.4813 32.2266
# 2 36.6062 161.3538 22.7925 -14.6832 5.7893 48.3103
# 3 39.0248 22.7925 68.0662 -7.5977 7.3589 16.0146
# 4 -1.0775 -14.6832 -7.5977 37.6322 5.4029 -1.5586
# 5 11.4813 5.7893 7.3589 5.4029 36.9611 3.4345
# 6 32.2266 48.3103 16.0146 -1.5586 3.4345 49.6358
#
#
#
# Elastic Compliance Matrix: (Units=1/GPa)
#
#
# Indices 1 2 3 4 5 6 
#
# 1 0.041664 -0.000912 -0.018482 -0.002727 -0.006880 -0.019810
# 2 -0.000912 0.009199 -0.000181 0.003311 -0.000849 -0.008140
# 3 -0.018482 -0.000181 0.024880 0.004640 -0.000263 0.004312
# 4 -0.002727 0.003311 0.004640 0.029332 -0.004725 -0.001702
# 5 -0.006880 -0.000849 -0.000263 -0.004725 0.029774 0.003170
# 6 -0.019810 -0.008140 0.004312 -0.001702 0.003170 0.039268
#
#
# Mechanical properties :
#
#
# Convention : Reuss Voigt Hill
#
# Bulk Modulus (GPa) = 27.32654 53.94765 40.63709
# Shear Modulus (GPa) = 22.17653 37.52972 29.85313
#
# Velocity S-wave (km/s) = 2.98201 3.87926 3.45985
# Velocity P-wave (km/s) = 4.77639 6.45731 5.67938
#
# Compressibility (1/GPa) = 0.03659446
#
# Stress axis : x y z
#
# Youngs Moduli (GPa) = 24.00157 108.70727 40.19248
#
# Poissons Ratio (x) = 0.09910 0.74283
# Poissons Ratio (y) = 0.02188 0.00728
# Poissons Ratio (z) = 0.44359 0.01968
#
# Static dielectric constant tensor:
#      x y z
#    x 1.972400 -0.020820 -0.013760 
#    y -0.020820 2.187560 -0.077750 
#    z -0.013760 -0.077750 1.989680 
# 
# From -- ./inp_files/334632.got.cif
#   From: 2010.05.17/outbox.cif.g08.bks.cpg/sg2_168_cif.got.tgz:334632.got - 2010.06.03 11:33:40.
