data_PCOD9002338
_publ_section_title
;
Structure prediction by ZEFSAII (Michael W. Deem and Ramdas Pophale) SiO2 
 PCOD9002338
Probable space group: P -1
;
_chemical_formula_sum "Si O2"
_cell_formula_units_Z 16
_cell_length_a 9.644863
_cell_length_b 16.158158
_cell_length_c 18.026085
_cell_angle_alpha 23.694990
_cell_angle_beta 35.727183
_cell_angle_gamma 33.388837
_cell_volume 606.939148
_symmetry_space_group_name_H-M "P -1"
_symmetry_group_IT_number 2
_symmetry_cell_setting 'triclinic'
loop_
_space_group_symop_operation_xyz
x,y,z
-x,-y,-z
loop_
_atom_site_type_symbol
_atom_site_label
_atom_site_fract_x
_atom_site_fract_y
_atom_site_fract_z
Si Si1 0.946709 0.426315 0.501336
Si Si2 0.634792 0.086226 0.044818
Si Si3 0.756739 0.472994 0.830893
Si Si4 0.715269 0.111740 0.825206
Si Si5 0.145561 0.975484 0.330169
Si Si6 0.687412 0.031560 0.231862
Si Si7 0.717306 0.434246 0.136473
Si Si8 0.116512 0.300950 0.268282
O O1 0.019983 0.573376 0.289283
O O2 0.000000 0.500000 0.500000
O O3 0.699376 0.370471 0.630116
O O4 0.168678 0.175302 0.609046
O O5 0.768740 0.003631 0.133071
O O6 0.420535 0.982819 0.217205
O O7 0.785659 0.043498 0.937076
O O8 0.469338 0.356801 0.904479
O O9 0.487930 0.605684 0.796374
O O10 0.836208 0.591958 0.764624
O O11 0.714234 0.259463 0.056559
O O12 0.873439 0.038896 0.739491
O O13 0.500000 0.000000 0.000000
O O14 0.111624 0.776240 0.552510
O O15 0.917266 0.202842 0.270204
O O16 0.383145 0.088373 0.314619
O O17 0.892056 0.530898 0.931760
#
# Coordination Sequence:
#
# PCOD9002338 Si02
#       8
#     2   2   2   2   2   2   2   2
#     4  12  24  40  67  95 120 169 219 251 312 383
#     4   9  21  43  59  87 127 168 205 256 316 369
#     4  10  21  37  60  93 129 152 205 259 312 372
#     4  10  23  41  62  89 127 166 206 257 316 370
#     4  11  21  38  65  89 124 166 210 255 307 378
#     4  10  23  40  64  90 128 161 200 267 313 366
#     4  10  21  36  62  92 123 163 204 259 312 370
#     4  10  21  36  59  97 124 156 204 255 314 374
#
# _framework density 26.361784
#
# number of rings (size 3 to 8) (size 9 to 14) (size 15 to 20)
#    0.000    2.000    1.250    4.125    3.500    5.000 
#    0.000    5.000    0.000    6.000    0.000    0.000 
#    0.000    0.000    0.000    0.000    0.000    0.000 
#
# Total GULP energy -89387.270508 kJ/mol
# GULP energy per Si atom -5586.704407 kJ/mol
# Density = 2.630178 g / cm^3
# Si number density = 26.361784 Si / 1000 Ang^3
#
#
#
# Elastic Constant Matrix: (Units=GPa)
#
#
# Indices 1 2 3 4 5 6 
#
# 1 102.9082 24.0710 19.6994 -3.1387 -20.3945 33.7285
# 2 24.0710 55.7451 20.4720 20.4381 5.2241 18.2970
# 3 19.6994 20.4720 150.6170 21.8840 -17.7296 1.0771
# 4 -3.1387 20.4381 21.8840 22.6140 3.9615 11.4404
# 5 -20.3945 5.2241 -17.7296 3.9615 40.9027 -0.0852
# 6 33.7285 18.2970 1.0771 11.4404 -0.0852 52.1629
#
#
#
# Elastic Compliance Matrix: (Units=1/GPa)
#
#
# Indices 1 2 3 4 5 6 
#
# 1 0.019544 -0.011573 -0.003097 0.021492 0.007772 -0.013215
# 2 -0.011573 0.034863 0.000981 -0.034322 -0.006468 0.002751
# 3 -0.003097 0.000981 0.009197 -0.013037 0.003589 0.004333
# 4 0.021492 -0.034322 -0.013037 0.103198 -0.000596 -0.024223
# 5 0.007772 -0.006468 0.003589 -0.000596 0.030757 -0.002649
# 6 -0.013215 0.002751 0.004333 -0.024223 -0.002649 0.031969
#
#
# Mechanical properties :
#
#
# Convention : Reuss Voigt Hill
#
# Bulk Modulus (GPa) = 27.60406 48.63944 38.12175
# Shear Modulus (GPa) = 18.58872 39.47112 29.02992
#
# Velocity S-wave (km/s) = 2.65833 3.87368 3.32205
# Velocity P-wave (km/s) = 4.46276 6.20467 5.40436
#
# Compressibility (1/GPa) = 0.03622655
#
# Stress axis : x y z
#
# Youngs Moduli (GPa) = 51.16648 28.68403 108.73405
#
# Poissons Ratio (x) = 0.33195 0.33671
# Poissons Ratio (y) = 0.59213 -0.10666
# Poissons Ratio (z) = 0.15845 -0.02814
#
# Static dielectric constant tensor:
#      x y z
#    x 2.096120 -0.026640 -0.061950 
#    y -0.026640 2.128790 -0.014270 
#    z -0.061950 -0.014270 2.062350 
# 
# From -- ./inp_files/595912.got.cif
#   From: 2010.05.17/outbox.cif.g08.bks.cpg/sg2_298_cif.got.tgz:595912.got - 2010.06.03 11:33:40.
