data_PCOD9002410
_publ_section_title
;
Structure prediction by ZEFSAII (Michael W. Deem and Ramdas Pophale) SiO2 
 PCOD9002410
Probable space group: P -1
;
_chemical_formula_sum "Si O2"
_cell_formula_units_Z 16
_cell_length_a 13.921470
_cell_length_b 9.606917
_cell_length_c 5.451018
_cell_angle_alpha 74.520077
_cell_angle_beta 75.362790
_cell_angle_gamma 97.832053
_cell_volume 663.362041
_symmetry_space_group_name_H-M "P -1"
_symmetry_group_IT_number 2
_symmetry_cell_setting 'triclinic'
loop_
_space_group_symop_operation_xyz
x,y,z
-x,-y,-z
loop_
_atom_site_type_symbol
_atom_site_label
_atom_site_fract_x
_atom_site_fract_y
_atom_site_fract_z
Si Si1 0.395969 0.763205 0.481005
Si Si2 0.249494 0.560303 0.028505
Si Si3 0.097402 0.132614 0.818726
Si Si4 0.193344 0.740059 0.340146
Si Si5 0.436216 0.069445 0.217598
Si Si6 0.201101 0.064601 0.275832
Si Si7 0.090804 0.445683 0.839125
Si Si8 0.447303 0.620491 0.087959
O O1 0.332494 0.635697 0.745894
O O2 0.312447 0.780729 0.314582
O O3 0.414080 0.931141 0.484922
O O4 0.473932 0.689233 0.310542
O O5 0.169598 0.432958 0.014015
O O6 0.326980 0.535841 0.200571
O O7 0.192633 0.690416 0.082086
O O8 0.149802 0.114867 0.530589
O O9 0.067687 0.292881 0.779196
O O10 0.172362 0.124404 0.004168
O O11 0.000000 0.000000 0.000000
O O12 0.140995 0.587010 0.574826
O O13 0.156797 0.885699 0.367165
O O14 0.324289 0.095907 0.208294
O O15 0.506173 0.228469 0.168251
O O16 0.500000 0.000000 0.000000
O O17 0.000000 0.500000 0.000000
O O18 0.500000 0.500000 0.000000
#
# Coordination Sequence:
#
# PCOD9002410 Si02
#       8
#     2   2   2   2   2   2   2   2
#     4   8  18  38  58  90 127 173 230 279 337 417
#     4  10  22  40  68  93 131 179 232 291 351 429
#     4  12  29  50  74 110 150 190 244 309 378 433
#     4   9  21  41  71  96 134 179 236 283 353 431
#     4   9  20  42  64 102 137 186 245 283 355 431
#     4  11  26  48  77 107 154 191 240 312 366 427
#     4  11  26  45  72 100 136 185 244 295 371 446
#     4  10  21  36  60  91 136 172 229 284 351 419
#
# _framework density 24.119561999999998
#
# number of rings (size 3 to 8) (size 9 to 14) (size 15 to 20)
#    0.000    2.000    0.000    1.875   10.500    3.500 
#    4.500    0.000    0.000    0.000    0.000    0.000 
#    0.000    0.000    0.000    0.000    0.000    0.000 
#
# Total GULP energy -89108.509777 kJ/mol
# GULP energy per Si atom -5569.281861 kJ/mol
# Density = 2.406466 g / cm^3
# Si number density = 24.119562 Si / 1000 Ang^3
#
#
#
# Elastic Constant Matrix: (Units=GPa)
#
#
# Indices 1 2 3 4 5 6 
#
# 1 83.5096 29.7309 20.4700 7.0194 -19.9102 7.0251
# 2 29.7309 172.8471 17.7721 18.3853 -18.3794 -11.0397
# 3 20.4700 17.7721 71.9660 11.2500 -18.5201 -15.4578
# 4 7.0194 18.3853 11.2500 40.9068 -3.2308 -7.1669
# 5 -19.9102 -18.3794 -18.5201 -3.2308 34.2776 2.8558
# 6 7.0251 -11.0397 -15.4578 -7.1669 2.8558 36.1990
#
#
#
# Elastic Compliance Matrix: (Units=1/GPa)
#
#
# Indices 1 2 3 4 5 6 
#
# 1 0.015645 -0.001863 -0.003305 -0.001433 0.006653 -0.005824
# 2 -0.001863 0.006680 0.000209 -0.002235 0.002246 0.001868
# 3 -0.003305 0.000209 0.018758 -0.002770 0.007435 0.007580
# 4 -0.001433 -0.002235 -0.002770 0.027033 -0.001302 0.003868
# 5 0.006653 0.002246 0.007435 -0.001302 0.038195 -0.000702
# 6 -0.005824 0.001868 0.007580 0.003868 -0.000702 0.033383
#
#
# Mechanical properties :
#
#
# Convention : Reuss Voigt Hill
#
# Bulk Modulus (GPa) = 32.08653 51.58541 41.83597
# Shear Modulus (GPa) = 31.24964 39.63334 35.44149
#
# Velocity S-wave (km/s) = 3.60337 4.05804 3.83745
# Velocity P-wave (km/s) = 5.53573 6.58716 6.08420
#
# Compressibility (1/GPa) = 0.03116573
#
# Stress axis : x y z
#
# Youngs Moduli (GPa) = 63.91964 149.69067 53.30925
#
# Poissons Ratio (x) = 0.27892 0.17617
# Poissons Ratio (y) = 0.11910 -0.01115
# Poissons Ratio (z) = 0.21124 -0.03130
#
# Static dielectric constant tensor:
#      x y z
#    x 2.111420 0.038760 0.198850 
#    y 0.038760 2.052720 -0.003390 
#    z 0.198850 -0.003390 2.394950 
# 
# From -- ./inp_files/90353.got.cif
#   From: 2010.05.17/outbox.cif.g08.bks.cpg/sg2_46_cif.got.tgz:90353.got - 2010.06.03 11:33:40.
