data_PCOD9002382
_publ_section_title
;
Structure prediction by ZEFSAII (Michael W. Deem and Ramdas Pophale) SiO2 
 PCOD9002382
Probable space group: P -1
;
_chemical_formula_sum "Si O2"
_cell_formula_units_Z 14
_cell_length_a 11.851493
_cell_length_b 10.469496
_cell_length_c 10.617388
_cell_angle_alpha 93.533988
_cell_angle_beta 57.815923
_cell_angle_gamma 47.323249
_cell_volume 601.527193
_symmetry_space_group_name_H-M "P -1"
_symmetry_group_IT_number 2
_symmetry_cell_setting 'triclinic'
loop_
_space_group_symop_operation_xyz
x,y,z
-x,-y,-z
loop_
_atom_site_type_symbol
_atom_site_label
_atom_site_fract_x
_atom_site_fract_y
_atom_site_fract_z
Si Si1 0.982326 0.767400 0.327484
Si Si2 0.983054 0.804834 0.048295
Si Si3 0.420626 0.340385 0.220389
Si Si4 0.267887 0.782496 0.155748
Si Si5 0.268862 0.136590 0.017124
Si Si6 0.601572 0.352264 0.306218
Si Si7 0.355062 0.973695 0.233848
O O1 0.212397 0.523641 0.252410
O O2 0.033977 0.880297 0.307277
O O3 0.974133 0.742380 0.184205
O O4 0.755480 0.909119 0.556797
O O5 0.927404 0.756621 0.960135
O O6 0.780456 0.083810 0.200043
O O7 0.242196 0.666138 0.861141
O O8 0.375380 0.472924 0.369351
O O9 0.484060 0.142646 0.190612
O O10 0.685264 0.178162 0.998537
O O11 0.307096 0.861037 0.238414
O O12 0.500000 0.500000 0.000000
O O13 0.364798 0.203152 0.950186
O O14 0.233011 0.133893 0.187465
O O15 0.500000 0.500000 0.500000
#
# Coordination Sequence:
#
# PCOD9002382 Si02
#       7
#     2   2   2   2   2   2   2
#     4  11  21  34  61  95 115 150 201 255 304 351
#     4  10  22  39  58  90 126 156 201 254 304 358
#     4   9  19  37  58  86 121 153 196 248 302 355
#     4   9  18  34  54  84 119 141 186 254 299 337
#     4   9  21  42  58  80 122 166 200 241 295 368
#     4  10  21  36  60  88 124 165 198 245 310 365
#     4  10  21  36  62  85 112 164 208 237 296 371
#
# _framework density 23.274094000000002
#
# number of rings (size 3 to 8) (size 9 to 14) (size 15 to 20)
#    0.000    2.286    1.429    0.429    4.000    3.429 
#    2.571    0.000    0.000   13.714    0.000    0.000 
#    0.000    0.000    0.000    0.000    0.000    0.000 
#
# Total GULP energy -78030.274628 kJ/mol
# GULP energy per Si atom -5573.591045 kJ/mol
# Density = 2.322112 g / cm^3
# Si number density = 23.274094 Si / 1000 Ang^3
#
#
#
# Elastic Constant Matrix: (Units=GPa)
#
#
# Indices 1 2 3 4 5 6 
#
# 1 104.8106 19.2732 26.5442 -14.7971 19.3128 -10.5145
# 2 19.2732 46.8992 21.3536 -17.6044 6.0156 -12.1681
# 3 26.5442 21.3536 124.0554 -23.8663 15.9396 -2.8005
# 4 -14.7971 -17.6044 -23.8663 17.4670 -3.2204 6.4961
# 5 19.3128 6.0156 15.9396 -3.2204 42.2791 -12.8154
# 6 -10.5145 -12.1681 -2.8005 6.4961 -12.8154 27.2108
#
#
#
# Elastic Compliance Matrix: (Units=1/GPa)
#
#
# Indices 1 2 3 4 5 6 
#
# 1 0.011729 -0.001348 -0.000287 0.007346 -0.004488 0.000032
# 2 -0.001348 0.036050 0.000620 0.033158 0.000148 0.007817
# 3 -0.000287 0.000620 0.011887 0.017629 -0.004608 -0.004989
# 4 0.007346 0.033158 0.017629 0.124719 -0.009729 -0.014876
# 5 -0.004488 0.000148 -0.004608 -0.009729 0.031184 0.014867
# 6 0.000032 0.007817 -0.004989 -0.014876 0.014867 0.050298
#
#
# Mechanical properties :
#
#
# Convention : Reuss Voigt Hill
#
# Bulk Modulus (GPa) = 17.35046 45.56747 31.45896
# Shear Modulus (GPa) = 17.41501 31.29768 24.35634
#
# Velocity S-wave (km/s) = 2.73840 3.67105 3.23848
# Velocity P-wave (km/s) = 4.17965 6.13106 5.24688
#
# Compressibility (1/GPa) = 0.05763537
#
# Stress axis : x y z
#
# Youngs Moduli (GPa) = 85.25929 27.73939 84.12852
#
# Poissons Ratio (x) = 0.03739 0.02414
# Poissons Ratio (y) = 0.11491 -0.05214
# Poissons Ratio (z) = 0.02447 -0.01719
#
# Static dielectric constant tensor:
#      x y z
#    x 2.013300 0.057730 0.020430 
#    y 0.057730 1.982970 -0.026810 
#    z 0.020430 -0.026810 1.936570 
# 
# From -- ./inp_files/187018.got.cif
#   From: 2010.05.17/outbox.cif.g08.bks.cpg/sg2_94_cif.got.tgz:187018.got - 2010.06.03 11:33:40.
