data_PCOD9002648
_publ_section_title
;
Structure prediction by ZEFSAII (Michael W. Deem and Ramdas Pophale) SiO2 
 PCOD9002648
Probable space group: P -1
;
_chemical_formula_sum "Si O2"
_cell_formula_units_Z 14
_cell_length_a 7.984268
_cell_length_b 5.121246
_cell_length_c 12.170531
_cell_angle_alpha 94.469780
_cell_angle_beta 96.891411
_cell_angle_gamma 89.809817
_cell_volume 492.538634
_symmetry_space_group_name_H-M "P -1"
_symmetry_group_IT_number 2
_symmetry_cell_setting 'triclinic'
loop_
_space_group_symop_operation_xyz
x,y,z
-x,-y,-z
loop_
_atom_site_type_symbol
_atom_site_label
_atom_site_fract_x
_atom_site_fract_y
_atom_site_fract_z
Si Si1 0.317918 0.530904 0.539628
Si Si2 0.204920 0.509884 0.853164
Si Si3 0.270032 0.076769 0.019661
Si Si4 0.197002 0.023791 0.539822
Si Si5 0.959963 0.050161 0.166510
Si Si6 0.810908 0.250549 0.667411
Si Si7 0.579748 0.383846 0.858105
O O1 0.500000 0.500000 0.500000
O O2 0.259485 0.292738 0.598889
O O3 0.184384 0.548444 0.427704
O O4 0.284588 0.798422 0.608878
O O5 0.346960 0.378521 0.053932
O O6 0.056278 0.643621 0.777562
O O7 0.388686 0.460505 0.822774
O O8 0.209149 0.806970 0.924670
O O9 0.153204 0.229262 0.897008
O O10 0.118291 0.065035 0.097040
O O11 0.416861 0.895344 0.087375
O O12 0.279386 0.978143 0.422613
O O13 0.000000 0.000000 0.500000
O O14 0.028149 0.889344 0.272621
O O15 0.692094 0.353178 0.757803
#
# Coordination Sequence:
#
# PCOD9002648 Si02
#       7
#     2   2   2   2   2   2   2
#     4  10  23  47  71 100 129 165 213 271 336 401
#     4  10  21  39  58  86 119 179 222 256 310 370
#     4  10  21  36  63  85 126 177 221 255 314 367
#     4  10  23  46  73  96 128 173 208 266 334 408
#     4  10  22  40  57  89 129 168 220 258 308 381
#     4  10  28  40  64  97 136 158 216 272 331 378
#     4  12  22  38  61  90 129 169 217 271 310 366
#
# _framework density 28.424163
#
# number of rings (size 3 to 8) (size 9 to 14) (size 15 to 20)
#    1.714    0.000    1.429    2.571    4.000    1.143 
#    5.143    0.000    0.000    0.000    0.000    0.000 
#    0.000    0.000    0.000    0.000    0.000    0.000 
#
# Total GULP energy -78046.208634 kJ/mol
# GULP energy per Si atom -5574.729188 kJ/mol
# Density = 2.835947 g / cm^3
# Si number density = 28.424163 Si / 1000 Ang^3
#
#
#
# Elastic Constant Matrix: (Units=GPa)
#
#
# Indices 1 2 3 4 5 6 
#
# 1 137.4813 89.1121 13.8323 -15.1332 -1.7446 -18.9540
# 2 89.1121 312.5121 44.9935 -51.7714 6.6550 -17.9586
# 3 13.8323 44.9935 124.9747 4.6595 14.9448 2.4052
# 4 -15.1332 -51.7714 4.6595 34.2174 1.6967 2.9998
# 5 -1.7446 6.6550 14.9448 1.6967 39.1364 -0.7956
# 6 -18.9540 -17.9586 2.4052 2.9998 -0.7956 64.1723
#
#
#
# Elastic Compliance Matrix: (Units=1/GPa)
#
#
# Indices 1 2 3 4 5 6 
#
# 1 0.009211 -0.002460 -0.000296 0.000165 0.000976 0.002048
# 2 -0.002460 0.005441 -0.001898 0.007389 -0.000620 0.000514
# 3 -0.000296 -0.001898 0.009250 -0.004039 -0.003064 -0.000815
# 4 0.000165 0.007389 -0.004039 0.041072 -0.001481 0.000330
# 5 0.000976 -0.000620 -0.003064 -0.001481 0.026948 0.000633
# 6 0.002048 0.000514 -0.000815 0.000330 0.000633 0.016355
#
#
# Mechanical properties :
#
#
# Convention : Reuss Voigt Hill
#
# Bulk Modulus (GPa) = 68.51819 96.76044 82.63931
# Shear Modulus (GPa) = 40.83309 55.97389 48.40349
#
# Velocity S-wave (km/s) = 3.79431 4.44242 4.13110
# Velocity P-wave (km/s) = 6.58435 7.77361 7.20356
#
# Compressibility (1/GPa) = 0.01459466
#
# Stress axis : x y z
#
# Youngs Moduli (GPa) = 108.57086 183.77790 108.10291
#
# Poissons Ratio (x) = 0.45202 0.03202
# Poissons Ratio (y) = 0.26704 0.20518
# Poissons Ratio (z) = 0.03216 0.34881
#
# Static dielectric constant tensor:
#      x y z
#    x 2.246790 0.085540 0.092550 
#    y 0.085540 2.500650 -0.011260 
#    z 0.092550 -0.011260 2.395780 
# 
# From -- ./inp_files/486459.got.cif
#   From: 2010.05.17/outbox.cif.g08.bks.cpg/sg2_244_cif.got.tgz:486459.got - 2010.06.03 11:33:40.
