data_PCOD9002081
_publ_section_title
;
Structure prediction by ZEFSAII (Michael W. Deem and Ramdas Pophale) SiO2 
 PCOD9002081
Probable space group: P -1
;
_chemical_formula_sum "Si O2"
_cell_formula_units_Z 14
_cell_length_a 12.508568
_cell_length_b 5.584881
_cell_length_c 17.989595
_cell_angle_alpha 131.164367
_cell_angle_beta 143.068781
_cell_angle_gamma 45.724527
_cell_volume 525.792245
_symmetry_space_group_name_H-M "P -1"
_symmetry_group_IT_number 2
_symmetry_cell_setting 'triclinic'
loop_
_space_group_symop_operation_xyz
x,y,z
-x,-y,-z
loop_
_atom_site_type_symbol
_atom_site_label
_atom_site_fract_x
_atom_site_fract_y
_atom_site_fract_z
Si Si1 0.337124 0.709041 0.330258
Si Si2 0.090291 0.629886 0.288696
Si Si3 0.741524 0.585132 0.499678
Si Si4 0.124199 0.546500 0.666400
Si Si5 0.497747 0.556264 0.848925
Si Si6 0.288570 0.375044 0.888874
Si Si7 0.895735 0.254468 0.926537
O O1 0.252906 0.480471 0.285846
O O2 0.544968 0.519946 0.369801
O O3 0.170891 0.890931 0.214860
O O4 0.338427 0.998675 0.449852
O O5 0.185766 0.547317 0.404722
O O6 0.906952 0.534699 0.154790
O O7 0.985229 0.044756 0.313841
O O8 0.941720 0.430681 0.532170
O O9 0.326803 0.420109 0.708464
O O10 0.206959 0.471207 0.780774
O O11 0.684067 0.461905 0.883515
O O12 0.396794 0.966596 0.870453
O O13 0.581707 0.460649 0.960607
O O14 0.000000 0.500000 0.000000
O O15 0.000000 0.000000 0.000000
#
# Coordination Sequence:
#
# PCOD9002081 Si02
#       7
#     2   2   2   2   2   2   2
#     4  10  21  38  61  89 128 171 211 262 318 382
#     4   9  17  31  57  90 120 154 206 269 319 363
#     4   9  19  36  63  95 121 160 218 270 316 369
#     4   9  18  32  57  89 117 150 208 270 316 362
#     4  10  21  36  57  85 120 169 207 257 314 373
#     4   9  18  33  58  84 118 156 214 263 307 367
#     4  12  30  46  64  94 136 178 210 255 324 399
#
# _framework density 26.626487999999998
#
# number of rings (size 3 to 8) (size 9 to 14) (size 15 to 20)
#    0.000    2.286    0.000    1.714   10.000    1.143 
#    0.000    0.714    0.000    7.714    0.000    0.000 
#    0.000    0.000    0.000    0.000    0.000    0.000 
#
# Total GULP energy -78099.541092 kJ/mol
# GULP energy per Si atom -5578.538649 kJ/mol
# Density = 2.656589 g / cm^3
# Si number density = 26.626488 Si / 1000 Ang^3
#
#
#
# Elastic Constant Matrix: (Units=GPa)
#
#
# Indices 1 2 3 4 5 6 
#
# 1 182.3210 22.2770 47.1384 -22.4919 68.1142 -23.8268
# 2 22.2770 52.0812 27.4195 -26.0700 9.0452 -3.2933
# 3 47.1384 27.4195 165.6071 -38.3192 38.3834 2.3758
# 4 -22.4919 -26.0700 -38.3192 32.1327 -11.3701 -3.1493
# 5 68.1142 9.0452 38.3834 -11.3701 59.0107 -18.9109
# 6 -23.8268 -3.2933 2.3758 -3.1493 -18.9109 35.4494
#
#
#
# Elastic Compliance Matrix: (Units=1/GPa)
#
#
# Indices 1 2 3 4 5 6 
#
# 1 0.010051 -0.001100 0.000518 0.003038 -0.010828 0.001112
# 2 -0.001100 0.033862 0.000564 0.029310 0.003563 0.006873
# 3 0.000518 0.000564 0.009419 0.009805 -0.005689 -0.002395
# 4 0.003038 0.029310 0.009805 0.071039 0.003196 0.012124
# 5 -0.010828 0.003563 -0.005689 0.003196 0.037635 0.013796
# 6 0.001112 0.006873 -0.002395 0.012124 0.013796 0.038192
#
#
# Mechanical properties :
#
#
# Convention : Reuss Voigt Hill
#
# Bulk Modulus (GPa) = 18.76342 65.96433 42.36388
# Shear Modulus (GPa) = 22.93580 45.53019 34.23299
#
# Velocity S-wave (km/s) = 2.93813 4.13965 3.58952
# Velocity P-wave (km/s) = 4.30956 6.90483 5.75539
#
# Compressibility (1/GPa) = 0.05329518
#
# Stress axis : x y z
#
# Youngs Moduli (GPa) = 99.49668 29.53196 106.16471
#
# Poissons Ratio (x) = 0.03249 -0.05498
# Poissons Ratio (y) = 0.10948 -0.05991
# Poissons Ratio (z) = -0.05152 -0.01666
#
# Static dielectric constant tensor:
#      x y z
#    x 2.301520 0.053220 0.029910 
#    y 0.053220 2.043500 0.055140 
#    z 0.029910 0.055140 2.108270 
# 
# From -- ./inp_files/60680.got.cif
#   From: 2010.05.17/outbox.cif.g08.bks.cpg/sg2_31_cif.got.tgz:60680.got - 2010.06.03 11:33:40.
