data_PCOD9002243
_publ_section_title
;
Structure prediction by ZEFSAII (Michael W. Deem and Ramdas Pophale) SiO2 
 PCOD9002243
Probable space group: P -1
;
_chemical_formula_sum "Si O2"
_cell_formula_units_Z 16
_cell_length_a 19.567592
_cell_length_b 5.354223
_cell_length_c 9.552427
_cell_angle_alpha 130.068310
_cell_angle_beta 93.782756
_cell_angle_gamma 78.863495
_cell_volume 749.195521
_symmetry_space_group_name_H-M "P -1"
_symmetry_group_IT_number 2
_symmetry_cell_setting 'triclinic'
loop_
_space_group_symop_operation_xyz
x,y,z
-x,-y,-z
loop_
_atom_site_type_symbol
_atom_site_label
_atom_site_fract_x
_atom_site_fract_y
_atom_site_fract_z
Si Si1 0.875199 0.109899 0.896242
Si Si2 0.626567 0.305181 0.177718
Si Si3 0.380653 0.386526 0.407376
Si Si4 0.607946 0.587997 0.878991
Si Si5 0.495867 0.149979 0.710401
Si Si6 0.922106 0.735438 0.061679
Si Si7 0.998174 0.880871 0.615504
Si Si8 0.282668 0.877011 0.122620
O O1 0.798889 0.038658 0.833989
O O2 0.926673 0.031487 0.742413
O O3 0.872150 0.510674 0.044301
O O4 0.905352 0.891721 0.959822
O O5 0.629300 0.408112 0.377181
O O6 0.582237 0.635852 0.215089
O O7 0.698627 0.178397 0.059258
O O8 0.590019 0.986827 0.034591
O O9 0.371947 0.579376 0.331249
O O10 0.460650 0.176210 0.325164
O O11 0.326127 0.138748 0.289816
O O12 0.543468 0.419882 0.846725
O O13 0.678946 0.468221 0.929821
O O14 0.500000 0.000000 0.500000
O O15 0.933936 0.034720 0.268951
O O16 0.000000 0.500000 0.000000
O O17 0.000000 0.500000 0.500000
O O18 0.000000 0.000000 0.500000
#
# Coordination Sequence:
#
# PCOD9002243 Si02
#       8
#     2   2   2   2   2   2   2   2
#     4  11  23  42  68  89 136 171 211 252 324 386
#     4  10  21  38  60  86 120 156 218 255 315 384
#     4   9  21  40  59  84 122 157 209 264 315 376
#     4  10  21  36  59  85 119 160 211 258 320 367
#     4   9  19  35  59  87 116 159 202 271 322 367
#     4  10  21  41  69  95 125 173 206 257 311 381
#     4  11  21  40  66 103 128 156 209 269 311 364
#     4  10  24  41  57  85 126 170 199 253 316 384
#
# _framework density 21.356241000000001
#
# number of rings (size 3 to 8) (size 9 to 14) (size 15 to 20)
#    0.000    2.000    0.000    4.125    3.500   10.500 
#    4.500    0.000    0.000    0.000    0.000    0.000 
#    0.000    0.000    0.000    0.000    0.000    0.000 
#
# Total GULP energy -89069.583959 kJ/mol
# GULP energy per Si atom -5566.848997 kJ/mol
# Density = 2.130763 g / cm^3
# Si number density = 21.356241 Si / 1000 Ang^3
#
#
#
# Elastic Constant Matrix: (Units=GPa)
#
#
# Indices 1 2 3 4 5 6 
#
# 1 94.5638 28.3817 38.4432 -9.2436 -1.8181 -2.5647
# 2 28.3817 101.6761 38.3767 -22.2525 2.3136 8.9699
# 3 38.4432 38.3767 136.1935 -17.3355 0.3079 3.2272
# 4 -9.2436 -22.2525 -17.3355 42.8585 7.8431 5.1803
# 5 -1.8181 2.3136 0.3079 7.8431 24.5219 -0.1293
# 6 -2.5647 8.9699 3.2272 5.1803 -0.1293 23.1338
#
#
#
# Elastic Compliance Matrix: (Units=1/GPa)
#
#
# Indices 1 2 3 4 5 6 
#
# 1 0.012676 -0.002863 -0.002919 -0.000567 0.001444 0.003058
# 2 -0.002863 0.013653 -0.001945 0.007228 -0.003825 -0.006980
# 3 -0.002919 -0.001945 0.009048 0.002351 -0.000906 -0.001363
# 4 -0.000567 0.007228 0.002351 0.031119 -0.010761 -0.010222
# 5 0.001444 -0.003825 -0.000906 -0.010761 0.044724 0.004429
# 6 0.003058 -0.006980 -0.001363 -0.010222 0.004429 0.048776
#
#
# Mechanical properties :
#
#
# Convention : Reuss Voigt Hill
#
# Bulk Modulus (GPa) = 50.19418 60.31519 55.25469
# Shear Modulus (GPa) = 27.45855 33.25164 30.35510
#
# Velocity S-wave (km/s) = 3.58961 3.95016 3.77419
# Velocity P-wave (km/s) = 6.38238 7.00777 6.70237
#
# Compressibility (1/GPa) = 0.01992263
#
# Stress axis : x y z
#
# Youngs Moduli (GPa) = 78.88754 73.24245 110.52026
#
# Poissons Ratio (x) = 0.20972 0.32263
# Poissons Ratio (y) = 0.22589 0.21495
# Poissons Ratio (z) = 0.23029 0.14245
#
# Static dielectric constant tensor:
#      x y z
#    x 1.779360 0.037000 -0.001270 
#    y 0.037000 1.904930 0.042800 
#    z -0.001270 0.042800 1.884900 
# 
# From -- ./inp_files/340016.got.cif
#   From: 2010.05.17/outbox.cif.g08.bks.cpg/sg2_171_cif.got.tgz:340016.got - 2010.06.03 11:33:40.
