data_PCOD9002995
_publ_section_title
;
Structure prediction by ZEFSAII (Michael W. Deem and Ramdas Pophale) SiO2 
 PCOD9002995
Probable space group: P -1
;
_chemical_formula_sum "Si O2"
_cell_formula_units_Z 16
_cell_length_a 7.057520
_cell_length_b 13.725509
_cell_length_c 10.885613
_cell_angle_alpha 126.079142
_cell_angle_beta 101.758366
_cell_angle_gamma 105.177268
_cell_volume 730.773917
_symmetry_space_group_name_H-M "P -1"
_symmetry_group_IT_number 2
_symmetry_cell_setting 'triclinic'
loop_
_space_group_symop_operation_xyz
x,y,z
-x,-y,-z
loop_
_atom_site_type_symbol
_atom_site_label
_atom_site_fract_x
_atom_site_fract_y
_atom_site_fract_z
Si Si1 0.728342 0.470764 0.070809
Si Si2 0.510079 0.005597 0.801301
Si Si3 0.365591 0.181279 0.747265
Si Si4 0.176017 0.461105 0.153156
Si Si5 0.935335 0.083148 0.223093
Si Si6 0.978512 0.824905 0.964634
Si Si7 0.398165 0.762488 0.441935
Si Si8 0.938628 0.763546 0.390635
O O1 0.753510 0.602378 0.245971
O O2 0.930158 0.444485 0.113718
O O3 0.507954 0.326375 0.942768
O O4 0.763153 0.517569 0.967272
O O5 0.400835 0.067277 0.736450
O O6 0.758580 0.119901 0.944796
O O7 0.319916 0.948393 0.836517
O O8 0.519215 0.876006 0.645688
O O9 0.472153 0.197034 0.638219
O O10 0.125685 0.162187 0.669735
O O11 0.334617 0.606095 0.347140
O O12 0.160153 0.325707 0.109545
O O13 0.040654 0.167332 0.423601
O O14 0.056965 0.164771 0.177345
O O15 0.929991 0.936822 0.108314
O O16 0.165475 0.762397 0.390732
#
# Coordination Sequence:
#
# PCOD9002995 Si02
#       8
#     2   2   2   2   2   2   2   2
#     4   9  18  35  56  91 122 149 187 242 294 351
#     4  11  22  37  62  89 117 150 202 242 289 347
#     4  11  20  33  60  92 118 160 185 232 312 343
#     4   9  18  36  62  84 118 157 191 233 298 348
#     4  10  25  41  59  87 114 160 200 243 284 339
#     4  11  22  43  66  77 119 159 202 239 287 347
#     4   9  21  37  53  88 127 148 183 242 295 349
#     4  10  21  37  56  85 126 146 195 241 287 348
#
# _framework density 21.894596
#
# number of rings (size 3 to 8) (size 9 to 14) (size 15 to 20)
#    0.000    2.000    1.250    2.625    1.750    2.000 
#    0.000    5.625    0.000    4.500    0.000    0.000 
#    0.000    0.000    0.000    0.000    0.000    0.000 
#
# Total GULP energy -89457.759719 kJ/mol
# GULP energy per Si atom -5591.109982 kJ/mol
# Density = 2.184476 g / cm^3
# Si number density = 21.894596 Si / 1000 Ang^3
#
#
#
# Elastic Constant Matrix: (Units=GPa)
#
#
# Indices 1 2 3 4 5 6 
#
# 1 53.1615 -0.5935 19.4270 0.4641 -12.4228 -3.1104
# 2 -0.5935 116.2577 53.5724 27.2001 -12.5802 -4.1480
# 3 19.4270 53.5724 101.1251 23.1121 -8.0459 -6.7142
# 4 0.4641 27.2001 23.1121 28.6591 -4.3176 2.0575
# 5 -12.4228 -12.5802 -8.0459 -4.3176 28.7250 1.1929
# 6 -3.1104 -4.1480 -6.7142 2.0575 1.1929 23.5883
#
#
#
# Elastic Compliance Matrix: (Units=1/GPa)
#
#
# Indices 1 2 3 4 5 6 
#
# 1 0.023527 0.003440 -0.006057 0.002709 0.010341 0.001224
# 2 0.003440 0.013597 -0.005580 -0.007887 0.004623 0.001710
# 3 -0.006057 -0.005580 0.015914 -0.007989 -0.001954 0.003545
# 4 0.002709 -0.007887 -0.007989 0.049834 0.003295 -0.007817
# 5 0.010341 0.004623 -0.001954 0.003295 0.041289 -0.000755
# 6 0.001224 0.001710 0.003545 -0.007817 -0.000755 0.044585
#
#
# Mechanical properties :
#
#
# Convention : Reuss Voigt Hill
#
# Bulk Modulus (GPa) = 27.28966 46.15069 36.72018
# Shear Modulus (GPa) = 23.00367 29.40371 26.20369
#
# Velocity S-wave (km/s) = 3.24490 3.66863 3.46325
# Velocity P-wave (km/s) = 5.15076 6.25055 5.72712
#
# Compressibility (1/GPa) = 0.03664391
#
# Stress axis : x y z
#
# Youngs Moduli (GPa) = 42.50419 73.54532 62.83616
#
# Poissons Ratio (x) = -0.25302 0.38062
# Poissons Ratio (y) = -0.14623 0.35064
# Poissons Ratio (z) = 0.25746 0.41040
#
# Static dielectric constant tensor:
#      x y z
#    x 1.858210 -0.005240 0.020500 
#    y -0.005240 1.774500 0.015250 
#    z 0.020500 0.015250 1.818310 
# 
# From -- ./inp_files/388273.got.cif
#   From: 2010.05.17/outbox.cif.g08.bks.cpg/sg2_195_cif.got.tgz:388273.got - 2010.06.03 11:33:40.
