data_PCOD9002077
_publ_section_title
;
Structure prediction by ZEFSAII (Michael W. Deem and Ramdas Pophale) SiO2 
 PCOD9002077
Probable space group: P -1
;
_chemical_formula_sum "Si O2"
_cell_formula_units_Z 16
_cell_length_a 4.973400
_cell_length_b 25.268253
_cell_length_c 5.688215
_cell_angle_alpha 83.661517
_cell_angle_beta 98.873052
_cell_angle_gamma 78.950988
_cell_volume 685.928130
_symmetry_space_group_name_H-M "P -1"
_symmetry_group_IT_number 2
_symmetry_cell_setting 'triclinic'
loop_
_space_group_symop_operation_xyz
x,y,z
-x,-y,-z
loop_
_atom_site_type_symbol
_atom_site_label
_atom_site_fract_x
_atom_site_fract_y
_atom_site_fract_z
Si Si1 0.701912 0.040732 0.961565
Si Si2 0.276507 0.526312 0.266008
Si Si3 0.376060 0.307361 0.164743
Si Si4 0.505368 0.777115 0.395628
Si Si5 0.153859 0.936810 0.533998
Si Si6 0.042339 0.165360 0.463529
Si Si7 0.922114 0.249993 0.027119
Si Si8 0.698485 0.571850 0.048034
O O1 0.678250 0.069423 0.687996
O O2 0.695294 0.075626 0.184647
O O3 0.500000 0.000000 0.000000
O O4 0.000000 0.000000 0.000000
O O5 0.500000 0.500000 0.500000
O O6 0.408703 0.572680 0.137193
O O7 0.959087 0.553423 0.269673
O O8 0.273817 0.476804 0.111380
O O9 0.701522 0.288729 0.150668
O O10 0.293431 0.371832 0.102558
O O11 0.166137 0.281487 0.984435
O O12 0.351926 0.278736 0.425729
O O13 0.283354 0.813542 0.525016
O O14 0.291999 0.764099 0.182480
O O15 0.743597 0.810588 0.355703
O O16 0.930761 0.898652 0.506471
O O17 0.000000 0.000000 0.500000
O O18 0.068470 0.194507 0.205205
#
# Coordination Sequence:
#
# PCOD9002077 Si02
#       8
#     2   2   2   2   2   2   2   2
#     4  10  22  40  62  88 127 161 206 258 309 371
#     4  10  21  38  56  83 122 161 199 241 302 360
#     4  10  21  37  59  89 116 152 204 252 306 362
#     4  10  22  41  61  87 120 156 202 254 315 372
#     4  10  23  43  64  98 129 170 215 265 322 394
#     4  10  23  39  62  89 121 160 202 253 312 378
#     4  10  21  40  60  86 119 155 198 256 310 372
#     4  10  21  36  57  85 119 155 201 253 292 363
#
# _framework density 23.326058
#
# number of rings (size 3 to 8) (size 9 to 14) (size 15 to 20)
#    0.000    2.000    0.000    2.250    1.750    6.000 
#    0.000    0.000    0.000    0.000    0.000    0.000 
#    0.000    0.000    0.000    0.000    0.000    0.000 
#
# Total GULP energy -89271.156895 kJ/mol
# GULP energy per Si atom -5579.447306 kJ/mol
# Density = 2.327297 g / cm^3
# Si number density = 23.326058 Si / 1000 Ang^3
#
#
#
# Elastic Constant Matrix: (Units=GPa)
#
#
# Indices 1 2 3 4 5 6 
#
# 1 128.0517 64.6247 28.0283 -2.3598 17.1445 25.9975
# 2 64.6247 70.9677 14.9991 -33.3509 -4.3103 39.8755
# 3 28.0283 14.9991 109.9618 8.2896 5.3375 16.6361
# 4 -2.3598 -33.3509 8.2896 23.9167 4.9192 3.7248
# 5 17.1445 -4.3103 5.3375 4.9192 32.8127 -0.8498
# 6 25.9975 39.8755 16.6361 3.7248 -0.8498 39.1564
#
#
#
# Elastic Compliance Matrix: (Units=1/GPa)
#
#
# Indices 1 2 3 4 5 6 
#
# 1 0.008310 0.007516 -0.001912 0.015306 -0.005699 -0.013939
# 2 0.007516 -0.027148 0.000987 -0.041372 -0.000774 0.026156
# 3 -0.001912 0.000987 0.010182 -0.001654 -0.000381 -0.003912
# 4 0.015306 -0.041372 -0.001654 -0.017107 -0.009716 0.034089
# 5 -0.005699 -0.000774 -0.000381 -0.009716 0.035037 0.006419
# 6 -0.013939 0.026156 -0.003912 0.034089 0.006419 0.006715
#
#
# Mechanical properties :
#
#
# Convention : Reuss Voigt Hill
#
# Bulk Modulus (GPa) = 220.99910 58.25392 139.62651
# Shear Modulus (GPa) = 1159.07084 32.59911 595.83497
#
# Velocity S-wave (km/s) = 22.31543 3.74242 15.99975
# Velocity P-wave (km/s) = 27.54851 6.61077 20.03275
#
# Compressibility (1/GPa) = 0.00452491
#
# Stress axis : x y z
#
# Youngs Moduli (GPa) = 120.34280 -36.83453 98.21385
#
# Poissons Ratio (x) = 0.27685 0.18776
# Poissons Ratio (y) = -0.90450 -0.09690
# Poissons Ratio (z) = 0.23006 0.03634
#
# Static dielectric constant tensor:
#      x y z
#    x 1.894450 -0.002720 -0.001150 
#    y -0.002720 1.860660 0.027720 
#    z -0.001150 0.027720 1.992070 
# 
# From -- ./inp_files/13158.got.cif
#   From: 2010.05.17/outbox.cif.g08.bks.cpg/sg2_7_cif.got.tgz:13158.got - 2010.06.03 11:33:40.
