data_PCOD9002770
_publ_section_title
;
Structure prediction by ZEFSAII (Michael W. Deem and Ramdas Pophale) SiO2 
 PCOD9002770
Probable space group: P -1
;
_chemical_formula_sum "Si O2"
_cell_formula_units_Z 16
_cell_length_a 15.167017
_cell_length_b 8.254047
_cell_length_c 13.603384
_cell_angle_alpha 132.047383
_cell_angle_beta 71.760573
_cell_angle_gamma 71.309226
_cell_volume 792.275678
_symmetry_space_group_name_H-M "P -1"
_symmetry_group_IT_number 2
_symmetry_cell_setting 'triclinic'
loop_
_space_group_symop_operation_xyz
x,y,z
-x,-y,-z
loop_
_atom_site_type_symbol
_atom_site_label
_atom_site_fract_x
_atom_site_fract_y
_atom_site_fract_z
Si Si1 0.940795 0.309836 0.517367
Si Si2 0.183605 0.925835 0.882602
Si Si3 0.255191 0.092608 0.498565
Si Si4 0.286838 0.228480 0.904071
Si Si5 0.446386 0.139924 0.464630
Si Si6 0.982061 0.718367 0.725332
Si Si7 0.916515 0.457648 0.068163
Si Si8 0.224383 0.673358 0.274984
O O1 0.916033 0.610732 0.662052
O O2 0.816179 0.393257 0.641925
O O3 0.972164 0.215911 0.354840
O O4 0.079135 0.002968 0.406422
O O5 0.311875 0.535690 0.667826
O O6 0.235302 0.082712 0.903853
O O7 0.129122 0.002090 0.043787
O O8 0.045014 0.116670 0.943156
O O9 0.387973 0.009664 0.397740
O O10 0.192771 0.248230 0.693593
O O11 0.123634 0.400087 0.603146
O O12 0.290990 0.780473 0.332769
O O13 0.174839 0.491740 0.965013
O O14 0.433935 0.969692 0.690308
O O15 0.293411 0.391192 0.056378
O O16 0.500000 0.000000 0.500000
O O17 0.000000 0.500000 0.000000
#
# Coordination Sequence:
#
# PCOD9002770 Si02
#       8
#     2   2   2   2   2   2   2   2
#     4   9  18  33  60  98 129 162 192 266 323 379
#     4  10  22  41  65  96 128 164 215 269 310 379
#     4  10  22  42  57  96 128 164 210 261 314 382
#     4  11  22  43  67  95 125 175 212 258 320 376
#     4  12  26  43  62  89 131 176 215 257 316 379
#     4   9  18  36  63  95 128 154 212 262 321 364
#     4   9  20  38  67  97 125 161 211 263 319 371
#     4  10  21  36  64  93 131 162 207 255 322 383
#
# _framework density 20.194990000000001
#
# number of rings (size 3 to 8) (size 9 to 14) (size 15 to 20)
#    0.000    2.000    2.500    0.375    7.000    3.500 
#    2.250    0.000    0.000    1.500    0.000    0.000 
#    0.000    0.000    0.000    0.000    0.000    0.000 
#
# Total GULP energy -89285.351437 kJ/mol
# GULP energy per Si atom -5580.334465 kJ/mol
# Density = 2.014903 g / cm^3
# Si number density = 20.194990 Si / 1000 Ang^3
#
#
#
# Elastic Constant Matrix: (Units=GPa)
#
#
# Indices 1 2 3 4 5 6 
#
# 1 100.0388 29.9684 49.3375 -9.7713 9.8843 12.4971
# 2 29.9684 101.9482 58.3488 -28.1297 10.3130 4.2970
# 3 49.3375 58.3488 104.4589 -16.6332 5.2414 1.8286
# 4 -9.7713 -28.1297 -16.6332 35.0445 5.0729 -4.6995
# 5 9.8843 10.3130 5.2414 5.0729 27.4563 -0.5040
# 6 12.4971 4.2970 1.8286 -4.6995 -0.5040 13.6556
#
#
#
# Elastic Compliance Matrix: (Units=1/GPa)
#
#
# Indices 1 2 3 4 5 6 
#
# 1 0.015533 0.000710 -0.007197 0.000366 -0.004800 -0.013526
# 2 0.000710 0.018590 -0.008372 0.012087 -0.007901 -0.001510
# 3 -0.007197 -0.008372 0.017418 0.000118 0.002517 0.007022
# 4 0.000366 0.012087 0.000118 0.041454 -0.012176 0.009662
# 5 -0.004800 -0.007901 0.002517 -0.012176 0.042959 0.003937
# 6 -0.013526 -0.001510 0.007022 0.009662 0.003937 0.088613
#
#
# Mechanical properties :
#
#
# Convention : Reuss Voigt Hill
#
# Bulk Modulus (GPa) = 45.82298 64.63950 55.23124
# Shear Modulus (GPa) = 19.11623 26.48403 22.80013
#
# Velocity S-wave (km/s) = 3.08000 3.62528 3.36370
# Velocity P-wave (km/s) = 5.94878 7.04278 6.51877
#
# Compressibility (1/GPa) = 0.02182311
#
# Stress axis : x y z
#
# Youngs Moduli (GPa) = 64.38100 53.79321 57.41175
#
# Poissons Ratio (x) = -0.03818 0.41318
# Poissons Ratio (y) = -0.04569 0.48062
# Poissons Ratio (z) = 0.46334 0.45033
#
# Static dielectric constant tensor:
#      x y z
#    x 1.733620 0.013290 0.047280 
#    y 0.013290 1.728910 0.010140 
#    z 0.047280 0.010140 1.724330 
# 
# From -- ./inp_files/516064.got.cif
#   From: 2010.05.17/outbox.cif.g08.bks.cpg/sg2_259_cif.got.tgz:516064.got - 2010.06.03 11:33:40.
