data_PCOD9002239
_publ_section_title
;
Structure prediction by ZEFSAII (Michael W. Deem and Ramdas Pophale) SiO2 
 PCOD9002239
Probable space group: P -1
;
_chemical_formula_sum "Si O2"
_cell_formula_units_Z 16
_cell_length_a 12.395576
_cell_length_b 14.135853
_cell_length_c 9.450839
_cell_angle_alpha 72.370699
_cell_angle_beta 75.311787
_cell_angle_gamma 136.931550
_cell_volume 737.056806
_symmetry_space_group_name_H-M "P -1"
_symmetry_group_IT_number 2
_symmetry_cell_setting 'triclinic'
loop_
_space_group_symop_operation_xyz
x,y,z
-x,-y,-z
loop_
_atom_site_type_symbol
_atom_site_label
_atom_site_fract_x
_atom_site_fract_y
_atom_site_fract_z
Si Si1 0.156998 0.533249 0.377115
Si Si2 0.898410 0.842609 0.448730
Si Si3 0.928888 0.597206 0.050557
Si Si4 0.909815 0.689479 0.303680
Si Si5 0.127792 0.366464 0.238570
Si Si6 0.382863 0.302311 0.158717
Si Si7 0.384292 0.834849 0.729769
Si Si8 0.581718 0.964578 0.908354
O O1 0.032751 0.381772 0.357418
O O2 0.000000 0.500000 0.500000
O O3 0.217941 0.499382 0.488625
O O4 0.394642 0.747970 0.134571
O O5 0.914171 0.765711 0.596622
O O6 0.703686 0.761650 0.620011
O O7 0.839086 0.740675 0.368650
O O8 0.146895 0.090337 0.251582
O O9 0.726300 0.354936 0.209410
O O10 0.891518 0.645216 0.167917
O O11 0.972734 0.700047 0.852291
O O12 0.164009 0.717162 0.930663
O O13 0.169341 0.874025 0.192346
O O14 0.401521 0.594550 0.009264
O O15 0.500000 0.500000 0.000000
O O16 0.551915 0.945280 0.757592
O O17 0.500000 0.000000 0.500000
O O18 0.500000 0.000000 0.000000
#
# Coordination Sequence:
#
# PCOD9002239 Si02
#       8
#     2   2   2   2   2   2   2   2
#     4  11  21  35  56  82 116 159 200 242 282 340
#     4   9  20  37  65  91 112 147 199 243 298 359
#     4  11  24  40  53  86 124 159 200 248 297 344
#     4  11  24  37  60  87 120 154 201 248 295 346
#     4  10  21  36  59  84 119 156 193 244 293 350
#     4   9  18  39  65  92 112 145 195 246 297 358
#     4  11  26  38  55  78 119 169 209 245 286 342
#     4  12  22  37  54  80 111 161 207 243 283 339
#
# _framework density 21.70796
#
# number of rings (size 3 to 8) (size 9 to 14) (size 15 to 20)
#    0.000    1.500    3.750    0.750    7.000    0.000 
#    0.000    0.625    0.000    6.750    0.000    0.000 
#    0.000    0.000    0.000    0.000    0.000    0.000 
#
# Total GULP energy -89152.345256 kJ/mol
# GULP energy per Si atom -5572.021579 kJ/mol
# Density = 2.165855 g / cm^3
# Si number density = 21.707960 Si / 1000 Ang^3
#
#
#
# Elastic Constant Matrix: (Units=GPa)
#
#
# Indices 1 2 3 4 5 6 
#
# 1 20.6233 19.7118 18.8012 0.7802 -11.4023 -12.9001
# 2 19.7118 112.5499 41.2665 29.3617 -4.2658 -20.2185
# 3 18.8012 41.2665 87.0279 -2.8284 3.1174 -3.4531
# 4 0.7802 29.3617 -2.8284 54.7979 -1.2419 -9.3724
# 5 -11.4023 -4.2658 3.1174 -1.2419 39.7067 11.4701
# 6 -12.9001 -20.2185 -3.4531 -9.3724 11.4701 34.9827
#
#
#
# Elastic Compliance Matrix: (Units=1/GPa)
#
#
# Indices 1 2 3 4 5 6 
#
# 1 0.098995 -0.007216 -0.017550 0.006341 0.021980 0.025094
# 2 -0.007216 0.014721 -0.005465 -0.007455 -0.001382 0.003763
# 3 -0.017550 -0.005465 0.017959 0.003084 -0.005423 -0.005253
# 4 0.006341 -0.007455 0.003084 0.023077 0.000215 0.004447
# 5 0.021980 -0.001382 -0.005423 0.000215 0.032926 -0.003967
# 6 0.025094 0.003763 -0.005253 0.004447 -0.003967 0.041988
#
#
# Mechanical properties :
#
#
# Convention : Reuss Voigt Hill
#
# Bulk Modulus (GPa) = 14.04251 42.19559 28.11905
# Shear Modulus (GPa) = 15.93032 35.25889 25.59461
#
# Velocity S-wave (km/s) = 2.71190 4.03456 3.43744
# Velocity P-wave (km/s) = 4.03593 6.41744 5.36061
#
# Compressibility (1/GPa) = 0.07121236
#
# Stress axis : x y z
#
# Youngs Moduli (GPa) = 10.10154 67.93066 55.68125
#
# Poissons Ratio (x) = 0.49021 0.97722
# Poissons Ratio (y) = 0.07290 0.30428
# Poissons Ratio (z) = 0.17729 0.37122
#
# Static dielectric constant tensor:
#      x y z
#    x 1.939980 -0.139950 0.087430 
#    y -0.139950 2.167330 -0.151020 
#    z 0.087430 -0.151020 1.928110 
# 
# From -- ./inp_files/215330.got.cif
#   From: 2010.05.17/outbox.cif.g08.bks.cpg/sg2_108_cif.got.tgz:215330.got - 2010.06.03 11:33:40.
