data_PCOD9002977
_publ_section_title
;
Structure prediction by ZEFSAII (Michael W. Deem and Ramdas Pophale) SiO2 
 PCOD9002977
Probable space group: P -1
;
_chemical_formula_sum "Si O2"
_cell_formula_units_Z 16
_cell_length_a 5.710739
_cell_length_b 5.043503
_cell_length_c 26.386848
_cell_angle_alpha 122.930404
_cell_angle_beta 116.220735
_cell_angle_gamma 85.933378
_cell_volume 557.602249
_symmetry_space_group_name_H-M "P -1"
_symmetry_group_IT_number 2
_symmetry_cell_setting 'triclinic'
loop_
_space_group_symop_operation_xyz
x,y,z
-x,-y,-z
loop_
_atom_site_type_symbol
_atom_site_label
_atom_site_fract_x
_atom_site_fract_y
_atom_site_fract_z
Si Si1 0.760149 0.023095 0.862010
Si Si2 0.268821 0.299284 0.642931
Si Si3 0.251942 0.158479 0.262589
Si Si4 0.223213 0.638628 0.890476
Si Si5 0.213724 0.477143 0.766699
Si Si6 0.597746 0.789522 0.608653
Si Si7 0.745540 0.837143 0.517617
Si Si8 0.233920 0.812212 0.014982
O O1 0.779526 0.110525 0.812920
O O2 0.477380 0.765750 0.814572
O O3 0.984611 0.822377 0.875903
O O4 0.771917 0.279869 0.935465
O O5 0.431667 0.666314 0.690876
O O6 0.220178 0.260369 0.694942
O O7 0.484027 0.105475 0.624536
O O8 0.005602 0.125698 0.569768
O O9 0.215123 0.134933 0.316828
O O10 0.051505 0.380544 0.249526
O O11 0.222404 0.384526 0.817741
O O12 0.492875 0.916198 0.937548
O O13 0.226170 0.553883 0.941883
O O14 0.740468 0.726722 0.564368
O O15 0.334400 0.493550 0.556220
O O16 0.500000 0.000000 0.500000
O O17 0.000000 0.000000 0.000000
#
# Coordination Sequence:
#
# PCOD9002977 Si02
#       8
#     2   2   2   2   2   2   2   2
#     4   8  15  26  45  71 104 143 180 225 271 313
#     4  11  22  38  59  82 110 142 179 223 273 325
#     4  10  21  37  56  80 111 144 182 226 273 325
#     4   8  13  22  39  68 105 143 182 222 266 316
#     4   9  17  31  50  74 108 144 178 223 273 318
#     4  11  24  39  59  84 107 140 181 221 272 331
#     4  11  25  43  60  81 110 140 176 223 274 328
#     4   8  12  20  37  66 105 143 182 225 265 311
#
# _framework density 28.694284
#
# number of rings (size 3 to 8) (size 9 to 14) (size 15 to 20)
#    0.000    2.500    0.000    2.625    0.000    6.000 
#    0.000    0.000    0.000    0.000    0.000    0.875 
#    0.000  206.000    0.000   63.250    0.000   25.000 
#
# Total GULP energy -89538.256724 kJ/mol
# GULP energy per Si atom -5596.141045 kJ/mol
# Density = 2.862897 g / cm^3
# Si number density = 28.694284 Si / 1000 Ang^3
#
#
#
# Elastic Constant Matrix: (Units=GPa)
#
#
# Indices 1 2 3 4 5 6 
#
# 1 109.2617 13.8258 47.5771 -10.1400 12.8564 11.7822
# 2 13.8258 65.4233 24.5008 -6.3867 -0.8821 0.8921
# 3 47.5771 24.5008 275.3640 -5.3885 -18.5511 7.6037
# 4 -10.1400 -6.3867 -5.3885 41.7521 17.2613 -9.3095
# 5 12.8564 -0.8821 -18.5511 17.2613 87.8972 -13.5051
# 6 11.7822 0.8921 7.6037 -9.3095 -13.5051 34.6542
#
#
#
# Elastic Compliance Matrix: (Units=1/GPa)
#
#
# Indices 1 2 3 4 5 6 
#
# 1 0.011180 -0.001391 -0.001862 0.002710 -0.003168 -0.003863
# 2 -0.001391 0.016234 -0.001197 0.002263 -0.000200 0.000847
# 3 -0.001862 -0.001197 0.004131 -0.000605 0.001264 0.000088
# 4 0.002710 0.002263 -0.000605 0.028105 -0.005309 0.004634
# 5 -0.003168 -0.000200 0.001264 -0.005309 0.013884 0.004789
# 6 -0.003863 0.000847 0.000088 0.004634 0.004789 0.033240
#
#
# Mechanical properties :
#
#
# Convention : Reuss Voigt Hill
#
# Bulk Modulus (GPa) = 44.15817 69.09514 56.62665
# Shear Modulus (GPa) = 40.57767 57.13705 48.85736
#
# Velocity S-wave (km/s) = 3.76458 4.46717 4.13084
# Velocity P-wave (km/s) = 5.85822 7.12316 6.52143
#
# Compressibility (1/GPa) = 0.02264587
#
# Stress axis : x y z
#
# Youngs Moduli (GPa) = 89.44659 61.59977 242.09557
#
# Poissons Ratio (x) = 0.08568 0.45068
# Poissons Ratio (y) = 0.12441 0.28972
# Poissons Ratio (z) = 0.16651 0.07372
#
# Static dielectric constant tensor:
#      x y z
#    x 2.331380 0.165890 -0.041190 
#    y 0.165890 2.219970 -0.011620 
#    z -0.041190 -0.011620 2.267200 
# 
# From -- ./inp_files/11021.got.cif
#   From: 2010.05.17/outbox.cif.g08.bks.cpg/sg2_6_cif.got.tgz:11021.got - 2010.06.03 11:33:40.
