data_PCOD9002121
_publ_section_title
;
Structure prediction by ZEFSAII (Michael W. Deem and Ramdas Pophale) SiO2 
 PCOD9002121
Probable space group: P -1
;
_chemical_formula_sum "Si O2"
_cell_formula_units_Z 10
_cell_length_a 7.801505
_cell_length_b 10.640688
_cell_length_c 9.015184
_cell_angle_alpha 30.694144
_cell_angle_beta 83.571689
_cell_angle_gamma 75.610757
_cell_volume 362.113687
_symmetry_space_group_name_H-M "P -1"
_symmetry_group_IT_number 2
_symmetry_cell_setting 'triclinic'
loop_
_space_group_symop_operation_xyz
x,y,z
-x,-y,-z
loop_
_atom_site_type_symbol
_atom_site_label
_atom_site_fract_x
_atom_site_fract_y
_atom_site_fract_z
Si Si1 0.633091 0.494293 0.633904
Si Si2 0.188859 0.973676 0.705913
Si Si3 0.399148 0.987306 0.180101
Si Si4 0.877940 0.741457 0.860407
Si Si5 0.088210 0.755709 0.342559
O O1 0.500000 0.500000 0.500000
O O2 0.557280 0.752212 0.476994
O O3 0.817387 0.471186 0.549283
O O4 0.669097 0.234343 0.993342
O O5 0.034700 0.836451 0.823555
O O6 0.237019 0.056287 0.456815
O O7 0.069625 0.232074 0.540020
O O8 0.246133 0.842836 0.319150
O O9 0.279395 0.245300 0.015259
O O10 0.500000 0.000000 0.000000
O O11 0.000000 0.500000 0.000000
O O12 0.000000 0.000000 0.000000
#
# Coordination Sequence:
#
# PCOD9002121 Si02
#       5
#     2   2   2   2   2
#     4   9  18  36  61  87 119 158 195 255 315 351
#     4   9  19  39  62  86 120 161 216 243 296 386
#     4  10  21  36  57  93 126 150 204 263 306 360
#     4  10  22  40  61  87 123 170 203 249 307 369
#     4   8  16  35  60  84 109 162 203 238 303 363
#
# _framework density 27.615638000000001
#
# number of rings (size 3 to 8) (size 9 to 14) (size 15 to 20)
#    0.000    2.800    0.000    0.000    2.800    0.800 
#   14.400    4.000    0.000    0.000    0.000    0.000 
#    0.000    0.000    0.000    0.000    0.000    0.000 
#
# Total GULP energy -55724.498504 kJ/mol
# GULP energy per Si atom -5572.449850 kJ/mol
# Density = 2.755278 g / cm^3
# Si number density = 27.615638 Si / 1000 Ang^3
#
#
#
# Elastic Constant Matrix: (Units=GPa)
#
#
# Indices 1 2 3 4 5 6 
#
# 1 102.4618 42.2256 9.5333 -0.4952 15.8277 -12.5145
# 2 42.2256 199.4086 45.1805 -31.6243 0.9114 -35.7300
# 3 9.5333 45.1805 138.8435 25.1208 18.9661 -12.8993
# 4 -0.4952 -31.6243 25.1208 60.2686 1.1519 7.7909
# 5 15.8277 0.9114 18.9661 1.1519 37.1988 -0.6274
# 6 -12.5145 -35.7300 -12.8993 7.7909 -0.6274 54.1942
#
#
#
# Elastic Compliance Matrix: (Units=1/GPa)
#
#
# Indices 1 2 3 4 5 6 
#
# 1 0.011838 -0.002872 0.001388 -0.002063 -0.005587 0.001403
# 2 -0.002872 0.007658 -0.003270 0.004929 0.002598 0.002929
# 3 0.001388 -0.003270 0.010131 -0.006000 -0.005467 0.001376
# 4 -0.002063 0.004929 -0.006000 0.021831 0.003111 -0.001757
# 5 -0.005587 0.002598 -0.005467 0.003111 0.031871 -0.000957
# 6 0.001403 0.002929 0.001376 -0.001757 -0.000957 0.021276
#
#
# Mechanical properties :
#
#
# Convention : Reuss Voigt Hill
#
# Bulk Modulus (GPa) = 49.69589 70.51030 60.10309
# Shear Modulus (GPa) = 41.38405 53.25062 47.31733
#
# Velocity S-wave (km/s) = 3.87534 4.39598 4.14384
# Velocity P-wave (km/s) = 6.16920 7.16620 6.68630
#
# Compressibility (1/GPa) = 0.02012239
#
# Stress axis : x y z
#
# Youngs Moduli (GPa) = 84.47067 130.57459 98.70473
#
# Poissons Ratio (x) = 0.37496 -0.13704
# Poissons Ratio (y) = 0.24257 0.32272
# Poissons Ratio (z) = -0.11727 0.42692
#
# Static dielectric constant tensor:
#      x y z
#    x 2.065550 0.077630 0.110460 
#    y 0.077630 2.330640 -0.139570 
#    z 0.110460 -0.139570 2.251380 
# 
# From -- ./inp_files/181108.got.cif
#   From: 2010.05.17/outbox.cif.g08.bks.cpg/sg2_91_cif.got.tgz:181108.got - 2010.06.03 11:33:40.
