data_PCOD9002655
_publ_section_title
;
Structure prediction by ZEFSAII (Michael W. Deem and Ramdas Pophale) SiO2 
 PCOD9002655
Probable space group: P -1
;
_chemical_formula_sum "Si O2"
_cell_formula_units_Z 16
_cell_length_a 11.345274
_cell_length_b 10.858795
_cell_length_c 14.453794
_cell_angle_alpha 98.325383
_cell_angle_beta 98.424462
_cell_angle_gamma 25.210297
_cell_volume 749.952660
_symmetry_space_group_name_H-M "P -1"
_symmetry_group_IT_number 2
_symmetry_cell_setting 'triclinic'
loop_
_space_group_symop_operation_xyz
x,y,z
-x,-y,-z
loop_
_atom_site_type_symbol
_atom_site_label
_atom_site_fract_x
_atom_site_fract_y
_atom_site_fract_z
Si Si1 0.041809 0.942604 0.724899
Si Si2 0.342426 0.339744 0.294069
Si Si3 0.240754 0.234394 0.429385
Si Si4 0.090400 0.196999 0.259487
Si Si5 0.871679 0.872397 0.176600
Si Si6 0.567057 0.477801 0.607932
Si Si7 0.626469 0.719009 0.147649
Si Si8 0.872557 0.747066 0.973600
O O1 0.288785 0.736197 0.661677
O O2 0.069157 0.783436 0.757482
O O3 0.039336 0.066446 0.803200
O O4 0.772819 0.195606 0.657016
O O5 0.296023 0.271613 0.351555
O O6 0.313195 0.495416 0.366173
O O7 0.125369 0.551876 0.208695
O O8 0.634740 0.067294 0.245752
O O9 0.178716 0.160402 0.366795
O O10 0.000000 0.500000 0.500000
O O11 0.500000 0.000000 0.500000
O O12 0.868952 0.510153 0.230399
O O13 0.371057 0.907576 0.201207
O O14 0.793931 0.906750 0.068586
O O15 0.500000 0.500000 0.500000
O O16 0.857420 0.449122 0.071030
O O17 0.411764 0.004767 0.091584
O O18 0.000000 0.500000 0.000000
#
# Coordination Sequence:
#
# PCOD9002655 Si02
#       8
#     2   2   2   2   2   2   2   2
#     4  10  22  40  62  90 118 170 203 249 320 360
#     4  10  23  39  61  90 126 160 206 258 314 355
#     4  12  27  41  62  90 124 172 213 253 307 366
#     4  11  24  43  66  86 136 165 207 253 307 386
#     4  10  22  42  64  94 123 161 202 263 311 365
#     4  10  21  36  63  87 120 156 212 264 303 359
#     4  10  24  42  61  99 119 167 207 248 321 361
#     4  11  23  39  68  93 127 158 213 256 306 381
#
# _framework density 21.334681
#
# number of rings (size 3 to 8) (size 9 to 14) (size 15 to 20)
#    0.000    1.500    0.000    3.750    8.750    0.000 
#    0.000    3.750    0.000    0.000    0.000    0.000 
#    0.000    0.000    0.000    0.000    0.000    0.000 
#
# Total GULP energy -89079.989505 kJ/mol
# GULP energy per Si atom -5567.499344 kJ/mol
# Density = 2.128612 g / cm^3
# Si number density = 21.334681 Si / 1000 Ang^3
#
#
#
# Elastic Constant Matrix: (Units=GPa)
#
#
# Indices 1 2 3 4 5 6 
#
# 1 88.3469 17.7679 30.8583 2.1298 -0.9047 1.3945
# 2 17.7679 129.8067 26.4436 -19.5238 0.8155 -17.3784
# 3 30.8583 26.4436 66.9319 -2.4385 1.3177 4.8148
# 4 2.1298 -19.5238 -2.4385 45.4442 -7.7257 -2.0356
# 5 -0.9047 0.8155 1.3177 -7.7257 15.8505 9.6184
# 6 1.3945 -17.3784 4.8148 -2.0356 9.6184 24.1509
#
#
#
# Elastic Compliance Matrix: (Units=1/GPa)
#
#
# Indices 1 2 3 4 5 6 
#
# 1 0.013634 -0.000977 -0.005902 -0.001196 0.001302 -0.000933
# 2 -0.000977 0.010867 -0.004392 0.004133 -0.004955 0.011074
# 3 -0.005902 -0.004392 0.019898 -0.000412 0.002866 -0.007962
# 4 -0.001196 0.004133 -0.000412 0.025888 0.012068 0.000501
# 5 0.001302 -0.004955 0.002866 0.012068 0.093629 -0.040484
# 6 -0.000933 0.011074 -0.007962 0.000501 -0.040484 0.067182
#
#
# Mechanical properties :
#
#
# Convention : Reuss Voigt Hill
#
# Bulk Modulus (GPa) = 45.74888 48.35834 47.05361
# Shear Modulus (GPa) = 19.16261 31.09017 25.12639
#
# Velocity S-wave (km/s) = 3.00023 3.82155 3.43552
# Velocity P-wave (km/s) = 5.78722 6.49523 6.15142
#
# Compressibility (1/GPa) = 0.02185846
#
# Stress axis : x y z
#
# Youngs Moduli (GPa) = 73.34709 92.01884 50.25635
#
# Poissons Ratio (x) = 0.08989 0.29661
# Poissons Ratio (y) = 0.07165 0.22071
# Poissons Ratio (z) = 0.43289 0.40411
#
# Static dielectric constant tensor:
#      x y z
#    x 1.837560 0.046750 -0.019170 
#    y 0.046750 1.783190 -0.017860 
#    z -0.019170 -0.017860 1.805030 
# 
# From -- ./inp_files/519769.got.cif
#   From: 2010.05.17/outbox.cif.g08.bks.cpg/sg2_260_cif.got.tgz:519769.got - 2010.06.03 11:33:40.
