data_PCOD9002675
_publ_section_title
;
Structure prediction by ZEFSAII (Michael W. Deem and Ramdas Pophale) SiO2 
 PCOD9002675
Probable space group: P -1
;
_chemical_formula_sum "Si O2"
_cell_formula_units_Z 16
_cell_length_a 14.063799
_cell_length_b 9.885347
_cell_length_c 9.350884
_cell_angle_alpha 108.949487
_cell_angle_beta 139.578664
_cell_angle_gamma 78.128026
_cell_volume 795.422531
_symmetry_space_group_name_H-M "P -1"
_symmetry_group_IT_number 2
_symmetry_cell_setting 'triclinic'
loop_
_space_group_symop_operation_xyz
x,y,z
-x,-y,-z
loop_
_atom_site_type_symbol
_atom_site_label
_atom_site_fract_x
_atom_site_fract_y
_atom_site_fract_z
Si Si1 0.484546 0.142413 0.623626
Si Si2 0.250407 0.268951 0.588721
Si Si3 0.159954 0.075311 0.694568
Si Si4 0.544217 0.617635 0.912384
Si Si5 0.329081 0.802014 0.856025
Si Si6 0.594974 0.587696 0.522265
Si Si7 0.815760 0.649271 0.020155
Si Si8 0.917763 0.466620 0.545242
O O1 0.329747 0.164744 0.536095
O O2 0.483898 0.268670 0.550396
O O3 0.500000 0.000000 0.500000
O O4 0.604128 0.173143 0.898427
O O5 0.182902 0.172869 0.611101
O O6 0.141294 0.377749 0.434047
O O7 0.375543 0.378780 0.842732
O O8 0.174537 0.181171 0.882983
O O9 0.268274 0.949048 0.784561
O O10 0.000000 0.000000 0.500000
O O11 0.458376 0.761502 0.881294
O O12 0.422972 0.503618 0.673108
O O13 0.681336 0.604424 0.958998
O O14 0.204929 0.667597 0.663645
O O15 0.500000 0.500000 0.500000
O O16 0.756327 0.612227 0.782122
O O17 0.962771 0.583207 0.221015
O O18 0.000000 0.500000 0.500000
#
# Coordination Sequence:
#
# PCOD9002675 Si02
#       8
#     2   2   2   2   2   2   2   2
#     4  11  24  42  62  92 127 168 210 263 317 364
#     4  10  22  38  65  93 125 160 214 262 306 371
#     4  11  20  39  61  94 124 160 205 253 311 380
#     4   9  19  38  59  95 114 153 205 264 304 364
#     4  11  23  36  67  91 119 158 214 260 310 372
#     4  10  21  38  61  88 126 158 206 256 311 367
#     4  10  21  36  63  90 124 162 201 254 315 371
#     4  12  20  38  63  93 123 159 207 257 316 370
#
# _framework density 20.115095
#
# number of rings (size 3 to 8) (size 9 to 14) (size 15 to 20)
#    0.000    1.500    3.750    2.250    1.750    8.500 
#    0.000    2.500    0.000    3.750    0.000    0.000 
#    0.000    0.000    0.000    0.000    0.000    0.000 
#
# Total GULP energy -89108.509235 kJ/mol
# GULP energy per Si atom -5569.281827 kJ/mol
# Density = 2.006931 g / cm^3
# Si number density = 20.115095 Si / 1000 Ang^3
#
#
#
# Elastic Constant Matrix: (Units=GPa)
#
#
# Indices 1 2 3 4 5 6 
#
# 1 85.1038 41.6585 39.8274 1.3999 -4.4454 0.2069
# 2 41.6585 166.8743 81.4606 -18.0059 -2.3798 -15.4384
# 3 39.8274 81.4606 125.7674 1.9399 -1.5584 -16.5093
# 4 1.3999 -18.0059 1.9399 36.5776 -6.5243 1.6715
# 5 -4.4454 -2.3798 -1.5584 -6.5243 23.8899 -4.5977
# 6 0.2069 -15.4384 -16.5093 1.6715 -4.5977 40.3952
#
#
#
# Elastic Compliance Matrix: (Units=1/GPa)
#
#
# Indices 1 2 3 4 5 6 
#
# 1 0.014548 -0.002282 -0.003368 -0.001129 0.001547 -0.002100
# 2 -0.002282 0.010127 -0.005695 0.005671 0.002061 0.001555
# 3 -0.003368 -0.005695 0.013188 -0.003649 -0.000695 0.003302
# 4 -0.001129 0.005671 -0.003649 0.031940 0.008912 0.000375
# 5 0.001547 0.002061 -0.000695 0.008912 0.045767 0.005336
# 6 -0.002100 0.001555 0.003302 0.000375 0.005336 0.027302
#
#
# Mechanical properties :
#
#
# Convention : Reuss Voigt Hill
#
# Bulk Modulus (GPa) = 65.90479 78.18205 72.04342
# Shear Modulus (GPa) = 29.30502 34.49247 31.89875
#
# Velocity S-wave (km/s) = 3.82103 4.14545 3.98654
# Velocity P-wave (km/s) = 7.23201 7.86542 7.55536
#
# Compressibility (1/GPa) = 0.01517340
#
# Stress axis : x y z
#
# Youngs Moduli (GPa) = 68.73782 98.74388 75.82887
#
# Poissons Ratio (x) = 0.22530 0.25541
# Poissons Ratio (y) = 0.15683 0.43183
# Poissons Ratio (z) = 0.23153 0.56233
#
# Static dielectric constant tensor:
#      x y z
#    x 1.780730 0.001550 0.010950 
#    y 0.001550 1.739440 -0.003120 
#    z 0.010950 -0.003120 1.764840 
# 
# From -- ./inp_files/299389.got.cif
#   From: 2010.05.17/outbox.cif.g08.bks.cpg/sg2_150_cif.got.tgz:299389.got - 2010.06.03 11:33:40.
