data_PCOD9002406
_publ_section_title
;
Structure prediction by ZEFSAII (Michael W. Deem and Ramdas Pophale) SiO2 
 PCOD9002406
Probable space group: P -1
;
_chemical_formula_sum "Si O2"
_cell_formula_units_Z 16
_cell_length_a 15.371632
_cell_length_b 20.856995
_cell_length_c 10.491294
_cell_angle_alpha 138.526849
_cell_angle_beta 30.658504
_cell_angle_gamma 156.579276
_cell_volume 668.274533
_symmetry_space_group_name_H-M "P -1"
_symmetry_group_IT_number 2
_symmetry_cell_setting 'triclinic'
loop_
_space_group_symop_operation_xyz
x,y,z
-x,-y,-z
loop_
_atom_site_type_symbol
_atom_site_label
_atom_site_fract_x
_atom_site_fract_y
_atom_site_fract_z
Si Si1 0.183481 0.329526 0.363691
Si Si2 0.756337 0.809163 0.521921
Si Si3 0.418153 0.314488 0.710060
Si Si4 0.292156 0.549429 0.193457
Si Si5 0.787719 0.288913 0.587914
Si Si6 0.875833 0.042476 0.150334
Si Si7 0.847529 0.651395 0.279113
Si Si8 0.839446 0.432869 0.965686
O O1 0.396529 0.504385 0.284672
O O2 0.070061 0.300009 0.603577
O O3 0.936949 0.163638 0.343915
O O4 0.438921 0.365978 0.101188
O O5 0.584809 0.738498 0.499734
O O6 0.906244 0.772669 0.299912
O O7 0.506619 0.713851 0.797723
O O8 0.000000 0.000000 0.500000
O O9 0.570933 0.346270 0.692065
O O10 0.083912 0.158832 0.941508
O O11 0.180443 0.584382 0.302282
O O12 0.037642 0.361814 0.287271
O O13 0.459351 0.112570 0.702375
O O14 0.866522 0.343917 0.719618
O O15 0.000000 0.000000 0.000000
O O16 0.500000 0.500000 0.500000
O O17 0.937894 0.586044 0.021548
O O18 0.000000 0.500000 0.000000
#
# Coordination Sequence:
#
# PCOD9002406 Si02
#       8
#     2   2   2   2   2   2   2   2
#     4  11  21  40  63  89 124 163 219 258 314 390
#     4  11  23  37  66  99 124 167 220 270 316 381
#     4  11  21  38  61  89 125 162 217 255 316 389
#     4  10  21  36  60  91 122 167 207 255 321 377
#     4  11  22  37  61  94 129 162 209 263 327 375
#     4  11  22  36  62  92 126 162 208 270 313 370
#     4  10  21  39  68  94 123 174 216 266 315 380
#     4  11  23  43  67  93 130 173 216 259 320 394
#
# _framework density 23.942256
#
# number of rings (size 3 to 8) (size 9 to 14) (size 15 to 20)
#    0.000    1.250    5.000    4.500    1.750    0.000 
#    0.000    3.125    2.750    0.000    0.000    0.000 
#    0.000    0.000    0.000    0.000    0.000    0.000 
#
# Total GULP energy -89108.231486 kJ/mol
# GULP energy per Si atom -5569.264468 kJ/mol
# Density = 2.388776 g / cm^3
# Si number density = 23.942256 Si / 1000 Ang^3
#
#
#
# Elastic Constant Matrix: (Units=GPa)
#
#
# Indices 1 2 3 4 5 6 
#
# 1 60.6460 23.1414 -12.1993 -1.0802 11.8372 9.5619
# 2 23.1414 158.3546 40.0830 -11.8473 5.5846 8.3637
# 3 -12.1993 40.0830 68.8329 -13.5066 14.2030 7.6555
# 4 -1.0802 -11.8473 -13.5066 42.9892 8.6850 -7.3448
# 5 11.8372 5.5846 14.2030 8.6850 31.1386 8.5224
# 6 9.5619 8.3637 7.6555 -7.3448 8.5224 37.3145
#
#
#
# Elastic Compliance Matrix: (Units=1/GPa)
#
#
# Indices 1 2 3 4 5 6 
#
# 1 0.024320 -0.005488 0.011797 0.005134 -0.014207 -0.003167
# 2 -0.005488 0.008697 -0.006990 -0.000769 0.003975 -0.000168
# 3 0.011797 -0.006990 0.026472 0.010174 -0.017927 -0.000790
# 4 0.005134 -0.000769 0.010174 0.030944 -0.016926 0.006726
# 5 -0.014207 0.003975 -0.017927 -0.016926 0.052110 -0.008806
# 6 -0.003167 -0.000168 -0.000790 0.006726 -0.008806 0.031146
#
#
# Mechanical properties :
#
#
# Convention : Reuss Voigt Hill
#
# Bulk Modulus (GPa) = 17.20310 43.32042 30.26176
# Shear Modulus (GPa) = 25.71671 38.07569 31.89620
#
# Velocity S-wave (km/s) = 3.28092 3.99220 3.65391
# Velocity P-wave (km/s) = 4.64257 6.27560 5.51981
#
# Compressibility (1/GPa) = 0.05812905
#
# Stress axis : x y z
#
# Youngs Moduli (GPa) = 41.11855 114.97838 37.77543
#
# Poissons Ratio (x) = 0.63097 -0.44564
# Poissons Ratio (y) = 0.22565 0.26403
# Poissons Ratio (z) = -0.48508 0.80365
#
# Static dielectric constant tensor:
#      x y z
#    x 2.031210 -0.005380 0.029440 
#    y -0.005380 1.977370 0.065850 
#    z 0.029440 0.065850 2.090380 
# 
# From -- ./inp_files/467358.got.cif
#   From: 2010.05.17/outbox.cif.g08.bks.cpg/sg2_234_cif.got.tgz:467358.got - 2010.06.03 11:33:40.
