data_PCOD9002552
_publ_section_title
;
Structure prediction by ZEFSAII (Michael W. Deem and Ramdas Pophale) SiO2 
 PCOD9002552
Probable space group: P -1
;
_chemical_formula_sum "Si O2"
_cell_formula_units_Z 16
_cell_length_a 8.262915
_cell_length_b 8.390075
_cell_length_c 15.895426
_cell_angle_alpha 125.991501
_cell_angle_beta 62.975549
_cell_angle_gamma 80.608775
_cell_volume 637.270258
_symmetry_space_group_name_H-M "P -1"
_symmetry_group_IT_number 2
_symmetry_cell_setting 'triclinic'
loop_
_space_group_symop_operation_xyz
x,y,z
-x,-y,-z
loop_
_atom_site_type_symbol
_atom_site_label
_atom_site_fract_x
_atom_site_fract_y
_atom_site_fract_z
Si Si1 0.355768 0.616493 0.757309
Si Si2 0.470765 0.267172 0.752799
Si Si3 0.197698 0.078765 0.296661
Si Si4 0.095241 0.474773 0.685478
Si Si5 0.273899 0.594030 0.519276
Si Si6 0.791393 0.893809 0.321517
Si Si7 0.588606 0.798319 0.845332
Si Si8 0.745102 0.338715 0.936107
O O1 0.515687 0.349939 0.681418
O O2 0.131864 0.635916 0.793030
O O3 0.483040 0.603438 0.639138
O O4 0.390433 0.771361 0.862475
O O5 0.357058 0.135636 0.716926
O O6 0.686273 0.100859 0.708568
O O7 0.294080 0.520051 0.924621
O O8 0.357913 0.136558 0.236680
O O9 0.949811 0.306012 0.452131
O O10 0.182428 0.936867 0.176017
O O11 0.217254 0.490908 0.580116
O O12 0.220423 0.207382 0.616098
O O13 0.839657 0.579333 0.753291
O O14 0.261560 0.842477 0.598181
O O15 0.055255 0.687660 0.170663
O O16 0.500000 0.000000 0.000000
O O17 0.500000 0.500000 0.000000
#
# Coordination Sequence:
#
# PCOD9002552 Si02
#       8
#     2   2   2   2   2   2   2   2
#     4  11  25  44  66  97 133 177 218 275 333 384
#     4  10  21  36  61  99 123 169 225 261 329 400
#     4   9  21  38  60  95 121 170 219 262 328 388
#     4  10  25  44  67 103 130 173 229 268 327 398
#     4  10  23  46  64  94 137 174 222 275 320 391
#     4  10  22  40  67  94 133 175 212 277 335 378
#     4  11  25  43  68  94 133 172 214 279 336 390
#     4   9  18  35  63  87 129 165 214 270 318 391
#
# _framework density 25.107088000000001
#
# number of rings (size 3 to 8) (size 9 to 14) (size 15 to 20)
#    0.000    2.000    0.000    1.500   10.500    5.000 
#    4.500    0.000    0.000    0.000    0.000    0.000 
#    0.000    0.000    0.000    0.000    0.000    0.000 
#
# Total GULP energy -89221.528058 kJ/mol
# GULP energy per Si atom -5576.345504 kJ/mol
# Density = 2.504994 g / cm^3
# Si number density = 25.107088 Si / 1000 Ang^3
#
#
#
# Elastic Constant Matrix: (Units=GPa)
#
#
# Indices 1 2 3 4 5 6 
#
# 1 73.6788 13.1453 23.4041 -0.0561 11.4703 2.0021
# 2 13.1453 119.0407 17.0985 -13.7469 7.9689 -6.1116
# 3 23.4041 17.0985 69.0000 1.2989 1.6560 3.3075
# 4 -0.0561 -13.7469 1.2989 22.6496 6.0412 7.1199
# 5 11.4703 7.9689 1.6560 6.0412 29.3597 10.7806
# 6 2.0021 -6.1116 3.3075 7.1199 10.7806 45.6278
#
#
#
# Elastic Compliance Matrix: (Units=1/GPa)
#
#
# Indices 1 2 3 4 5 6 
#
# 1 0.016357 -0.000352 -0.005377 0.001617 -0.006673 0.000949
# 2 -0.000352 0.009956 -0.002443 0.006885 -0.004390 0.001489
# 3 -0.005377 -0.002443 0.016979 -0.002759 0.002958 -0.001590
# 4 0.001617 0.006885 -0.002759 0.052994 -0.011605 -0.004476
# 5 -0.006673 -0.004390 0.002958 -0.011605 0.043365 -0.008945
# 6 0.000949 0.001489 -0.001590 -0.004476 -0.008945 0.025001
#
#
# Mechanical properties :
#
#
# Convention : Reuss Voigt Hill
#
# Bulk Modulus (GPa) = 37.10819 41.00169 39.05494
# Shear Modulus (GPa) = 26.31865 33.39886 29.85876
#
# Velocity S-wave (km/s) = 3.24119 3.65122 3.45230
# Velocity P-wave (km/s) = 5.36835 5.84307 5.61073
#
# Compressibility (1/GPa) = 0.02694823
#
# Stress axis : x y z
#
# Youngs Moduli (GPa) = 61.13417 100.44515 58.89566
#
# Poissons Ratio (x) = 0.03534 0.31667
# Poissons Ratio (y) = 0.02151 0.14390
# Poissons Ratio (z) = 0.32871 0.24542
#
# Static dielectric constant tensor:
#      x y z
#    x 2.045450 0.019220 0.065820 
#    y 0.019220 2.009790 0.004520 
#    z 0.065820 0.004520 2.097010 
# 
# From -- ./inp_files/556502.got.cif
#   From: 2010.05.17/outbox.cif.g08.bks.cpg/sg2_279_cif.got.tgz:556502.got - 2010.06.03 11:33:40.
