data_PCOD9002014
_publ_section_title
;
Structure prediction by ZEFSAII (Michael W. Deem and Ramdas Pophale) SiO2 
 PCOD9002014
Probable space group: P -1
;
_chemical_formula_sum "Si O2"
_cell_formula_units_Z 14
_cell_length_a 17.609574
_cell_length_b 6.758248
_cell_length_c 8.404301
_cell_angle_alpha 123.146444
_cell_angle_beta 135.973890
_cell_angle_gamma 60.721387
_cell_volume 574.048466
_symmetry_space_group_name_H-M "P -1"
_symmetry_group_IT_number 2
_symmetry_cell_setting 'triclinic'
loop_
_space_group_symop_operation_xyz
x,y,z
-x,-y,-z
loop_
_atom_site_type_symbol
_atom_site_label
_atom_site_fract_x
_atom_site_fract_y
_atom_site_fract_z
Si Si1 0.500787 0.202004 0.455713
Si Si2 0.095298 0.109341 0.022846
Si Si3 0.121139 0.858417 0.651334
Si Si4 0.692972 0.858419 0.444618
Si Si5 0.134748 0.613310 0.244104
Si Si6 0.381302 0.565971 0.645585
Si Si7 0.327298 0.061044 0.908884
O O1 0.480843 0.449881 0.630947
O O2 0.500000 0.000000 0.500000
O O3 0.607473 0.097662 0.468373
O O4 0.391359 0.202211 0.187449
O O5 0.186895 0.109633 0.295450
O O6 0.115002 0.347327 0.055567
O O7 0.125610 0.871081 0.855262
O O8 0.963346 0.189205 0.890038
O O9 0.127527 0.640631 0.440066
O O10 0.217044 0.995154 0.791436
O O11 0.000000 0.000000 0.500000
O O12 0.646517 0.640907 0.367516
O O13 0.695847 0.818638 0.243606
O O14 0.260788 0.638945 0.410767
O O15 0.402836 0.801041 0.873401
#
# Coordination Sequence:
#
# PCOD9002014 Si02
#       7
#     2   2   2   2   2   2   2
#     4  10  21  38  59  83 112 149 189 226 275 336
#     4   9  16  32  54  74 110 144 174 228 274 317
#     4   9  17  31  53  77 103 142 182 217 270 330
#     4  10  21  36  56  86 113 144 190 230 273 331
#     4   8  15  29  54  77  98 141 184 215 267 323
#     4   9  20  38  57  80 111 148 188 224 276 335
#     4  11  21  37  59  81 113 149 182 233 283 319
#
# _framework density 24.388186000000001
#
# number of rings (size 3 to 8) (size 9 to 14) (size 15 to 20)
#    0.000    2.571    0.000    3.000    0.000    2.857 
#    0.000   15.000    0.000   36.857    0.000    0.000 
#    0.000    0.000    0.000    0.000    0.000    0.000 
#
# Total GULP energy -78181.688786 kJ/mol
# GULP energy per Si atom -5584.406342 kJ/mol
# Density = 2.433268 g / cm^3
# Si number density = 24.388186 Si / 1000 Ang^3
#
#
#
# Elastic Constant Matrix: (Units=GPa)
#
#
# Indices 1 2 3 4 5 6 
#
# 1 64.0542 10.3883 18.3464 -7.2289 6.8610 -11.5406
# 2 10.3883 71.8520 14.1620 4.5346 -7.5238 -13.6951
# 3 18.3464 14.1620 105.4697 -14.7505 -13.4044 4.2184
# 4 -7.2289 4.5346 -14.7505 47.6439 -4.4927 -2.7450
# 5 6.8610 -7.5238 -13.4044 -4.4927 31.1912 4.7145
# 6 -11.5406 -13.6951 4.2184 -2.7450 4.7145 40.0785
#
#
#
# Elastic Compliance Matrix: (Units=1/GPa)
#
#
# Indices 1 2 3 4 5 6 
#
# 1 0.019092 -0.001593 -0.004048 0.001493 -0.007063 0.006312
# 2 -0.001593 0.015809 -0.002004 -0.001875 0.002314 0.004754
# 3 -0.004048 -0.002004 0.011959 0.003695 0.006628 -0.003636
# 4 0.001493 -0.001875 0.003695 0.022947 0.004037 0.000497
# 5 -0.007063 0.002314 0.006628 0.004037 0.038539 -0.006197
# 6 0.006312 0.004754 -0.003636 0.000497 -0.006197 0.029539
#
#
# Mechanical properties :
#
#
# Convention : Reuss Voigt Hill
#
# Bulk Modulus (GPa) = 31.67570 36.35215 34.01392
# Shear Modulus (GPa) = 30.54375 37.01467 33.77921
#
# Velocity S-wave (km/s) = 3.54276 3.90003 3.72568
# Velocity P-wave (km/s) = 5.45447 5.93450 5.69954
#
# Compressibility (1/GPa) = 0.03156994
#
# Stress axis : x y z
#
# Youngs Moduli (GPa) = 52.37809 63.25312 83.61727
#
# Poissons Ratio (x) = 0.10076 0.33852
# Poissons Ratio (y) = 0.08344 0.16757
# Poissons Ratio (z) = 0.21205 0.12676
#
# Static dielectric constant tensor:
#      x y z
#    x 1.974910 0.013740 -0.042550 
#    y 0.013740 2.000930 0.001600 
#    z -0.042550 0.001600 1.928490 
# 
# From -- ./inp_files/202432.got.cif
#   From: 2010.05.17/outbox.cif.g08.bks.cpg/sg2_102_cif.got.tgz:202432.got - 2010.06.03 11:33:40.
