data_PCOD9002229
_publ_section_title
;
Structure prediction by ZEFSAII (Michael W. Deem and Ramdas Pophale) SiO2 
 PCOD9002229
Probable space group: P -1
;
_chemical_formula_sum "Si O2"
_cell_formula_units_Z 14
_cell_length_a 7.648003
_cell_length_b 8.302931
_cell_length_c 15.785692
_cell_angle_alpha 136.347398
_cell_angle_beta 107.770578
_cell_angle_gamma 79.945520
_cell_volume 657.296240
_symmetry_space_group_name_H-M "P -1"
_symmetry_group_IT_number 2
_symmetry_cell_setting 'triclinic'
loop_
_space_group_symop_operation_xyz
x,y,z
-x,-y,-z
loop_
_atom_site_type_symbol
_atom_site_label
_atom_site_fract_x
_atom_site_fract_y
_atom_site_fract_z
Si Si1 0.148521 0.977742 0.222590
Si Si2 0.455592 0.554813 0.375994
Si Si3 0.799544 0.132666 0.620361
Si Si4 0.221864 0.889836 0.863334
Si Si5 0.766186 0.483799 0.511690
Si Si6 0.910604 0.650735 0.390405
Si Si7 0.624001 0.964945 0.878891
O O1 0.200827 0.248653 0.355268
O O2 0.296162 0.913025 0.148543
O O3 0.948812 0.981467 0.151196
O O4 0.153467 0.858628 0.269727
O O5 0.391511 0.748220 0.376664
O O6 0.657364 0.486283 0.408909
O O7 0.373310 0.633503 0.483777
O O8 0.356817 0.312211 0.236474
O O9 0.957278 0.271059 0.639732
O O10 0.794369 0.870441 0.480642
O O11 0.174530 0.608616 0.744113
O O12 0.408241 0.976399 0.873289
O O13 0.261466 0.949080 0.989636
O O14 0.953828 0.365791 0.513844
#
# Coordination Sequence:
#
# PCOD9002229 Si02
#       7
#     2   2   2   2   2   2   2
#     4  10  21  37  62  93 121 161 203 259 309 364
#     4   9  18  35  56  88 123 155 196 255 298 363
#     4  10  21  36  58  98 130 159 193 253 337 358
#     4  10  22  42  67  86 117 170 213 253 297 362
#     4   8  17  33  58  85 114 161 206 240 300 353
#     4   9  20  39  60  90 126 163 204 250 305 380
#     4  10  22  41  64  92 117 161 221 253 291 371
#
# _framework density 21.299375999999999
#
# number of rings (size 3 to 8) (size 9 to 14) (size 15 to 20)
#    0.000    2.571    0.000    1.286    4.000    1.714 
#    2.571    2.857    0.000    3.429    0.000    0.000 
#    0.000    0.000    0.000    0.000    0.000    0.000 
#
# Total GULP energy -78046.637446 kJ/mol
# GULP energy per Si atom -5574.759818 kJ/mol
# Density = 2.125090 g / cm^3
# Si number density = 21.299376 Si / 1000 Ang^3
#
#
#
# Elastic Constant Matrix: (Units=GPa)
#
#
# Indices 1 2 3 4 5 6 
#
# 1 109.7254 56.4075 71.9993 -29.3840 -2.3890 9.7871
# 2 56.4075 103.9067 51.3795 -31.0041 6.3366 -0.2735
# 3 71.9993 51.3795 124.3514 -21.8374 7.4060 -8.1806
# 4 -29.3840 -31.0041 -21.8374 30.8889 2.6045 -7.2363
# 5 -2.3890 6.3366 7.4060 2.6045 34.9343 -12.4863
# 6 9.7871 -0.2735 -8.1806 -7.2363 -12.4863 30.0444
#
#
#
# Elastic Compliance Matrix: (Units=1/GPa)
#
#
# Indices 1 2 3 4 5 6 
#
# 1 0.019525 -0.004464 -0.008913 0.006082 0.001115 -0.006900
# 2 -0.004464 0.016784 -0.001850 0.012202 -0.002845 0.002860
# 3 -0.008913 -0.001850 0.014810 0.001846 -0.001080 0.006915
# 4 0.006082 0.012202 0.001846 0.054432 -0.002407 0.010742
# 5 0.001115 -0.002845 -0.001080 -0.002407 0.034264 0.012977
# 6 -0.006900 0.002860 0.006915 0.010742 0.012977 0.045421
#
#
# Mechanical properties :
#
#
# Convention : Reuss Voigt Hill
#
# Bulk Modulus (GPa) = 48.38853 77.50623 62.94738
# Shear Modulus (GPa) = 22.46396 29.71998 26.09197
#
# Velocity S-wave (km/s) = 3.25110 3.73948 3.50381
# Velocity P-wave (km/s) = 6.07128 7.42381 6.78135
#
# Compressibility (1/GPa) = 0.02066606
#
# Stress axis : x y z
#
# Youngs Moduli (GPa) = 51.21535 59.58072 67.52177
#
# Poissons Ratio (x) = 0.26595 0.60183
# Poissons Ratio (y) = 0.22861 0.12491
# Poissons Ratio (z) = 0.45649 0.11022
#
# Static dielectric constant tensor:
#      x y z
#    x 1.935080 0.039650 0.006950 
#    y 0.039650 1.781740 -0.018880 
#    z 0.006950 -0.018880 1.745250 
# 
# From -- ./inp_files/491653.got.cif
#   From: 2010.05.17/outbox.cif.g08.bks.cpg/sg2_246_cif.got.tgz:491653.got - 2010.06.03 11:33:40.
