data_PCOD9002076
_publ_section_title
;
Structure prediction by ZEFSAII (Michael W. Deem and Ramdas Pophale) SiO2 
 PCOD9002076
Probable space group: P -1
;
_chemical_formula_sum "Si O2"
_cell_formula_units_Z 16
_cell_length_a 12.448536
_cell_length_b 9.953717
_cell_length_c 11.244384
_cell_angle_alpha 105.010142
_cell_angle_beta 50.486901
_cell_angle_gamma 131.328734
_cell_volume 775.301047
_symmetry_space_group_name_H-M "P -1"
_symmetry_group_IT_number 2
_symmetry_cell_setting 'triclinic'
loop_
_space_group_symop_operation_xyz
x,y,z
-x,-y,-z
loop_
_atom_site_type_symbol
_atom_site_label
_atom_site_fract_x
_atom_site_fract_y
_atom_site_fract_z
Si Si1 0.962586 0.961909 0.259800
Si Si2 0.507458 0.782348 0.013974
Si Si3 0.877725 0.527869 0.662792
Si Si4 0.744367 0.728693 0.709535
Si Si5 0.695674 0.349898 0.101763
Si Si6 0.974370 0.743779 0.873196
Si Si7 0.157204 0.842580 0.003541
Si Si8 0.424121 0.317073 0.440917
O O1 0.748508 0.859460 0.404439
O O2 0.051192 0.118510 0.130339
O O3 0.077312 0.063998 0.323652
O O4 0.987249 0.818273 0.173013
O O5 0.313539 0.658520 0.191213
O O6 0.662983 0.966930 0.019914
O O7 0.588087 0.682084 0.902099
O O8 0.458560 0.803350 0.920871
O O9 0.808974 0.614268 0.655341
O O10 0.000000 0.500000 0.500000
O O11 0.995981 0.666040 0.722108
O O12 0.665993 0.699485 0.626759
O O13 0.836214 0.315665 0.009467
O O14 0.589159 0.322280 0.289790
O O15 0.800358 0.554471 0.020267
O O16 0.138984 0.850167 0.876969
O O17 0.500000 0.500000 0.500000
#
# Coordination Sequence:
#
# PCOD9002076 Si02
#       8
#     2   2   2   2   2   2   2   2
#     4  10  22  40  61  86 116 155 196 236 287 349
#     4   9  20  37  58  84 115 154 194 234 288 354
#     4  10  21  36  57  85 118 154 194 240 289 340
#     4   9  20  38  58  80 115 160 194 229 287 356
#     4  10  22  40  60  86 119 154 193 239 289 345
#     4  10  22  40  60  85 118 156 194 235 287 352
#     4  11  21  36  63  89 112 150 197 244 287 337
#     4  11  23  37  58  89 120 151 191 243 292 339
#
# _framework density 20.637146000000001
#
# number of rings (size 3 to 8) (size 9 to 14) (size 15 to 20)
#    0.000    2.000    0.000    2.625    0.000    9.000 
#    0.000    2.500    0.000    1.500    0.000    0.000 
#    0.000    0.000    0.000    0.000    0.000    0.000 
#
# Total GULP energy -89227.042076 kJ/mol
# GULP energy per Si atom -5576.690130 kJ/mol
# Density = 2.059017 g / cm^3
# Si number density = 20.637146 Si / 1000 Ang^3
#
#
#
# Elastic Constant Matrix: (Units=GPa)
#
#
# Indices 1 2 3 4 5 6 
#
# 1 86.0504 41.4041 18.2573 11.8582 8.9810 5.3054
# 2 41.4041 71.7464 42.1670 8.0722 -6.0430 12.2374
# 3 18.2573 42.1670 107.0990 10.6054 -28.1502 -16.2855
# 4 11.8582 8.0722 10.6054 21.1549 -3.8944 0.3103
# 5 8.9810 -6.0430 -28.1502 -3.8944 29.1353 13.6344
# 6 5.3054 12.2374 -16.2855 0.3103 13.6344 37.2218
#
#
#
# Elastic Compliance Matrix: (Units=1/GPa)
#
#
# Indices 1 2 3 4 5 6 
#
# 1 0.019820 -0.012560 0.000013 -0.008750 -0.012694 0.006033
# 2 -0.012560 0.030320 -0.010356 0.002318 0.007749 -0.015567
# 3 0.000013 -0.010356 0.017750 -0.002978 0.011298 0.007055
# 4 -0.008750 0.002318 -0.002978 0.054678 0.009903 -0.004901
# 5 -0.012694 0.007749 0.011298 0.009903 0.060529 -0.018049
# 6 0.006033 -0.015567 0.007055 -0.004901 -0.018049 0.040863
#
#
# Mechanical properties :
#
#
# Convention : Reuss Voigt Hill
#
# Bulk Modulus (GPa) = 45.28127 52.06140 48.67134
# Shear Modulus (GPa) = 18.04231 28.37356 23.20794
#
# Velocity S-wave (km/s) = 2.96000 3.71196 3.35710
# Velocity P-wave (km/s) = 5.80271 6.60706 6.21791
#
# Compressibility (1/GPa) = 0.02208419
#
# Stress axis : x y z
#
# Youngs Moduli (GPa) = 50.45361 32.98179 56.33949
#
# Poissons Ratio (x) = 0.41424 -0.00075
# Poissons Ratio (y) = 0.63368 0.58347
# Poissons Ratio (z) = -0.00068 0.34157
#
# Static dielectric constant tensor:
#      x y z
#    x 1.763720 0.004410 -0.008500 
#    y 0.004410 1.765380 -0.016510 
#    z -0.008500 -0.016510 1.749060 
# 
# From -- ./inp_files/419526.got.cif
#   From: 2010.05.17/outbox.cif.g08.bks.cpg/sg2_210_cif.got.tgz:419526.got - 2010.06.03 11:33:40.
