data_PCOD9002392
_publ_section_title
;
Structure prediction by ZEFSAII (Michael W. Deem and Ramdas Pophale) SiO2 
 PCOD9002392
Probable space group: P -1
;
_chemical_formula_sum "Si O2"
_cell_formula_units_Z 16
_cell_length_a 19.731983
_cell_length_b 5.896043
_cell_length_c 8.211054
_cell_angle_alpha 118.925355
_cell_angle_beta 116.977189
_cell_angle_gamma 52.794454
_cell_volume 647.893892
_symmetry_space_group_name_H-M "P -1"
_symmetry_group_IT_number 2
_symmetry_cell_setting 'triclinic'
loop_
_space_group_symop_operation_xyz
x,y,z
-x,-y,-z
loop_
_atom_site_type_symbol
_atom_site_label
_atom_site_fract_x
_atom_site_fract_y
_atom_site_fract_z
Si Si1 0.061167 0.716088 0.692811
Si Si2 0.726602 0.471251 0.486619
Si Si3 0.527574 0.736045 0.808243
Si Si4 0.871599 0.571652 0.019074
Si Si5 0.430311 0.898355 0.432218
Si Si6 0.717034 0.410691 0.791439
Si Si7 0.770817 0.227034 0.131584
Si Si8 0.919304 0.384986 0.667858
O O1 0.054888 0.636640 0.845000
O O2 0.160072 0.660201 0.781393
O O3 0.060350 0.544113 0.466891
O O4 0.993051 0.056829 0.692205
O O5 0.716500 0.294175 0.568104
O O6 0.701186 0.415222 0.259644
O O7 0.827485 0.385731 0.553073
O O8 0.665358 0.816860 0.582971
O O9 0.452910 0.818556 0.619830
O O10 0.551698 0.392799 0.752766
O O11 0.619703 0.680063 0.812360
O O12 0.500000 0.000000 0.000000
O O13 0.825257 0.901153 0.153215
O O14 0.795283 0.486905 0.889702
O O15 0.905584 0.584689 0.880405
O O16 0.500000 0.000000 0.500000
O O17 0.737639 0.219520 0.912149
#
# Coordination Sequence:
#
# PCOD9002392 Si02
#       8
#     2   2   2   2   2   2   2   2
#     4   9  19  39  56  84 125 162 211 258 320 373
#     4  10  21  42  61  87 127 164 206 266 322 381
#     4  11  25  43  68  97 130 171 217 274 332 395
#     4  10  21  36  60  89 121 165 210 261 317 381
#     4  11  24  44  66  97 131 168 218 272 330 396
#     4  10  22  40  60  91 124 163 208 256 322 382
#     4  10  22  37  60  92 124 162 215 262 315 385
#     4   9  19  36  61  82 122 167 201 267 314 379
#
# _framework density 24.695401
#
# number of rings (size 3 to 8) (size 9 to 14) (size 15 to 20)
#    0.000    2.000    1.250    1.125    3.500    3.000 
#    4.500    5.625    0.000    0.000    0.000    0.000 
#    0.000    0.000    0.000    0.000    0.000    0.000 
#
# Total GULP energy -89198.611965 kJ/mol
# GULP energy per Si atom -5574.913248 kJ/mol
# Density = 2.463919 g / cm^3
# Si number density = 24.695401 Si / 1000 Ang^3
#
#
#
# Elastic Constant Matrix: (Units=GPa)
#
#
# Indices 1 2 3 4 5 6 
#
# 1 80.9663 2.8336 53.8883 -6.0731 -9.2465 -9.5196
# 2 2.8336 78.0229 53.2332 -15.6227 -19.9109 -6.2265
# 3 53.8883 53.2332 109.0146 8.3688 -19.4712 5.0236
# 4 -6.0731 -15.6227 8.3688 48.8799 0.2542 2.8517
# 5 -9.2465 -19.9109 -19.4712 0.2542 46.1693 0.6880
# 6 -9.5196 -6.2265 5.0236 2.8517 0.6880 26.1797
#
#
#
# Elastic Compliance Matrix: (Units=1/GPa)
#
#
# Indices 1 2 3 4 5 6 
#
# 1 0.043139 0.033431 -0.039555 0.021108 0.005831 0.028776
# 2 0.033431 0.051105 -0.043057 0.026088 0.009994 0.029469
# 3 -0.039555 -0.043057 0.052532 -0.025796 -0.003720 -0.031796
# 4 0.021108 0.026088 -0.025796 0.034944 0.004185 0.014914
# 5 0.005831 0.009994 -0.003720 0.004185 0.025484 0.004085
# 6 0.028776 0.029469 -0.031796 0.014914 0.004085 0.060040
#
#
# Mechanical properties :
#
#
# Convention : Reuss Voigt Hill
#
# Bulk Modulus (GPa) = 20.65419 54.21267 37.43343
# Shear Modulus (GPa) = 13.09781 34.78236 23.94008
#
# Velocity S-wave (km/s) = 2.30548 3.75701 3.11692
# Velocity P-wave (km/s) = 3.93303 6.38908 5.30514
#
# Compressibility (1/GPa) = 0.04841633
#
# Stress axis : x y z
#
# Youngs Moduli (GPa) = 23.18064 19.56752 19.03598
#
# Poissons Ratio (x) = -0.65417 0.75296
# Poissons Ratio (y) = -0.77496 0.81963
# Poissons Ratio (z) = 0.91690 0.84252
#
# Static dielectric constant tensor:
#      x y z
#    x 1.980350 0.032850 -0.033980 
#    y 0.032850 1.987210 -0.067570 
#    z -0.033980 -0.067570 2.047970 
# 
# From -- ./inp_files/340676.got.cif
#   From: 2010.05.17/outbox.cif.g08.bks.cpg/sg2_171_cif.got.tgz:340676.got - 2010.06.03 11:33:40.
