data_PCOD9002087
_publ_section_title
;
Structure prediction by ZEFSAII (Michael W. Deem and Ramdas Pophale) SiO2 
 PCOD9002087
Probable space group: P -1
;
_chemical_formula_sum "Si O2"
_cell_formula_units_Z 14
_cell_length_a 28.938091
_cell_length_b 15.659850
_cell_length_c 6.572318
_cell_angle_alpha 132.574764
_cell_angle_beta 46.596493
_cell_angle_gamma 162.766238
_cell_volume 638.243042
_symmetry_space_group_name_H-M "P -1"
_symmetry_group_IT_number 2
_symmetry_cell_setting 'triclinic'
loop_
_space_group_symop_operation_xyz
x,y,z
-x,-y,-z
loop_
_atom_site_type_symbol
_atom_site_label
_atom_site_fract_x
_atom_site_fract_y
_atom_site_fract_z
Si Si1 0.381966 0.765807 0.793807
Si Si2 0.159399 0.894060 0.668467
Si Si3 0.046154 0.075292 0.714860
Si Si4 0.919342 0.433217 0.956041
Si Si5 0.595040 0.986867 0.196723
Si Si6 0.812886 0.839724 0.283230
Si Si7 0.522433 0.661569 0.584403
O O1 0.205695 0.421949 0.826344
O O2 0.471060 0.820035 0.471255
O O3 0.372169 0.859822 0.824633
O O4 0.500000 0.000000 0.000000
O O5 0.121107 0.730068 0.356372
O O6 0.034537 0.708083 0.923002
O O7 0.167720 0.020266 0.702706
O O8 0.314509 0.095604 0.631746
O O9 0.092025 0.024186 0.577520
O O10 0.000000 0.000000 0.500000
O O11 0.889404 0.861176 0.959301
O O12 0.000000 0.500000 0.000000
O O13 0.763315 0.236423 0.187121
O O14 0.539229 0.782370 0.908935
O O15 0.626347 0.538633 0.412756
O O16 0.500000 0.500000 0.500000
#
# Coordination Sequence:
#
# PCOD9002087 Si02
#       7
#     2   2   2   2   2   2   2
#     4  11  24  41  65  92 126 170 213 265 319 374
#     4   9  20  37  58  85 116 155 199 250 310 371
#     4  11  24  39  60  90 124 164 211 264 316 373
#     4  10  21  36  57  86 119 154 198 251 308 372
#     4  10  22  39  61  92 126 163 215 263 316 383
#     4  10  21  38  60  84 119 159 203 252 314 375
#     4   9  18  38  64  89 123 167 211 263 319 379
#
# _framework density 21.935217000000002
#
# number of rings (size 3 to 8) (size 9 to 14) (size 15 to 20)
#    0.000    2.000    0.000    2.571    0.000   11.429 
#    0.000    0.000    0.000   12.000    0.000    0.000 
#    0.000    0.000    0.000    0.000    0.000    0.000 
#
# Total GULP energy -78006.732390 kJ/mol
# GULP energy per Si atom -5571.909456 kJ/mol
# Density = 2.188529 g / cm^3
# Si number density = 21.935217 Si / 1000 Ang^3
#
#
#
# Elastic Constant Matrix: (Units=GPa)
#
#
# Indices 1 2 3 4 5 6 
#
# 1 154.7377 49.0979 30.4575 -12.2776 -2.5292 28.3661
# 2 49.0979 64.0189 13.3674 -9.4553 -11.9820 11.3592
# 3 30.4575 13.3674 43.6155 -5.0955 -24.7227 -1.0434
# 4 -12.2776 -9.4553 -5.0955 17.4744 2.4779 -5.8403
# 5 -2.5292 -11.9820 -24.7227 2.4779 33.1699 -6.4193
# 6 28.3661 11.3592 -1.0434 -5.8403 -6.4193 41.9633
#
#
#
# Elastic Compliance Matrix: (Units=1/GPa)
#
#
# Indices 1 2 3 4 5 6 
#
# 1 0.014094 -0.008681 -0.016934 -0.000804 -0.016606 -0.010251
# 2 -0.008681 0.023955 0.007290 0.008004 0.013354 0.002722
# 3 -0.016934 0.007290 0.063642 0.010055 0.051975 0.020406
# 4 -0.000804 0.008004 0.010055 0.065885 0.007122 0.008886
# 5 -0.016606 0.013354 0.051975 0.007122 0.076080 0.021532
# 6 -0.010251 0.002722 0.020406 0.008886 0.021532 0.035061
#
#
# Mechanical properties :
#
#
# Convention : Reuss Voigt Hill
#
# Bulk Modulus (GPa) = 15.37469 49.80195 32.58832
# Shear Modulus (GPa) = 14.83476 29.81813 22.32644
#
# Velocity S-wave (km/s) = 2.60340 3.69097 3.19381
# Velocity P-wave (km/s) = 4.00765 6.39669 5.33755
#
# Compressibility (1/GPa) = 0.06504194
#
# Stress axis : x y z
#
# Youngs Moduli (GPa) = 70.95161 41.74550 15.71278
#
# Poissons Ratio (x) = 0.36241 0.26607
# Poissons Ratio (y) = 0.61596 -0.11455
# Poissons Ratio (z) = 1.20146 -0.30434
#
# Static dielectric constant tensor:
#      x y z
#    x 1.663660 0.018420 -0.142620 
#    y 0.018420 1.975840 0.026890 
#    z -0.142620 0.026890 1.638690 
# 
# From -- ./inp_files/68877.got.cif
#   From: 2010.05.17/outbox.cif.g08.bks.cpg/sg2_35_cif.got.tgz:68877.got - 2010.06.03 11:33:40.
