data_PCOD9002932
_publ_section_title
;
Structure prediction by ZEFSAII (Michael W. Deem and Ramdas Pophale) SiO2 
 PCOD9002932
Probable space group: P -1
;
_chemical_formula_sum "Si O2"
_cell_formula_units_Z 12
_cell_length_a 5.430106
_cell_length_b 19.510148
_cell_length_c 11.065749
_cell_angle_alpha 150.726029
_cell_angle_beta 122.167697
_cell_angle_gamma 66.337354
_cell_volume 479.591182
_symmetry_space_group_name_H-M "P -1"
_symmetry_group_IT_number 2
_symmetry_cell_setting 'triclinic'
loop_
_space_group_symop_operation_xyz
x,y,z
-x,-y,-z
loop_
_atom_site_type_symbol
_atom_site_label
_atom_site_fract_x
_atom_site_fract_y
_atom_site_fract_z
Si Si1 0.815207 0.593232 0.278618
Si Si2 0.216395 0.162982 0.670805
Si Si3 0.685220 0.320862 0.602173
Si Si4 0.601880 0.048435 0.410559
Si Si5 0.205451 0.879706 0.861188
Si Si6 0.670060 0.537311 0.726146
O O1 0.480038 0.619299 0.238040
O O2 0.964053 0.626677 0.236491
O O3 0.985179 0.735180 0.610977
O O4 0.977689 0.473845 0.200493
O O5 0.355606 0.132327 0.531660
O O6 0.862545 0.150215 0.567265
O O7 0.275843 0.031784 0.568791
O O8 0.360677 0.309169 0.994127
O O9 0.650357 0.163399 0.293926
O O10 0.562028 0.414440 0.606391
O O11 0.457827 0.927136 0.095976
O O12 0.000000 0.000000 0.000000
O O13 0.500000 0.500000 0.500000
#
# Coordination Sequence:
#
# PCOD9002932 Si02
#       6
#     2   2   2   2   2   2
#     4   8  19  32  50  77 105 132 176 224 265 311
#     4  10  21  37  54  79 117 145 176 218 278 335
#     4   8  19  32  50  77 105 132 176 224 265 311
#     4  10  22  36  53  83 113 146 176 222 276 334
#     4   9  20  37  60  83 108 142 187 232 271 320
#     4   9  19  34  55  81 103 145 184 228 265 319
#
# _framework density 25.021312999999999
#
# number of rings (size 3 to 8) (size 9 to 14) (size 15 to 20)
#    2.000    0.667    0.000    2.000    4.667    1.333 
#    6.000    0.000    0.000    8.000    0.000    0.000 
#    0.000    0.000    0.000    0.000    0.000    0.000 
#
# Total GULP energy -66906.303335 kJ/mol
# GULP energy per Si atom -5575.525278 kJ/mol
# Density = 2.496436 g / cm^3
# Si number density = 25.021313 Si / 1000 Ang^3
#
#
#
# Elastic Constant Matrix: (Units=GPa)
#
#
# Indices 1 2 3 4 5 6 
#
# 1 145.5664 27.1251 20.6772 10.7327 -42.7969 -27.3226
# 2 27.1251 60.1269 4.0922 -3.5103 -15.7177 -8.4094
# 3 20.6772 4.0922 98.1160 15.5290 -42.2493 -0.1596
# 4 10.7327 -3.5103 15.5290 49.4027 -7.6570 -6.5419
# 5 -42.7969 -15.7177 -42.2493 -7.6570 47.7304 10.9164
# 6 -27.3226 -8.4094 -0.1596 -6.5419 10.9164 36.3532
#
#
#
# Elastic Compliance Matrix: (Units=1/GPa)
#
#
# Indices 1 2 3 4 5 6 
#
# 1 0.010679 -0.001864 0.002168 -0.001036 0.009682 0.004510
# 2 -0.001864 0.019398 0.002024 0.002366 0.006531 0.001560
# 3 0.002168 0.002024 0.018630 -0.003737 0.019496 -0.004348
# 4 -0.001036 0.002366 -0.003737 0.022213 -0.000807 0.003992
# 5 0.009682 0.006531 0.019496 -0.000807 0.050374 -0.006398
# 6 0.004510 0.001560 -0.004348 0.003992 -0.006398 0.033879
#
#
# Mechanical properties :
#
#
# Convention : Reuss Voigt Hill
#
# Bulk Modulus (GPa) = 18.73925 45.28871 32.01398
# Shear Modulus (GPa) = 29.70794 43.49158 36.59976
#
# Velocity S-wave (km/s) = 3.44947 4.17367 3.82873
# Velocity P-wave (km/s) = 4.83432 6.43159 5.68929
#
# Compressibility (1/GPa) = 0.05336392
#
# Stress axis : x y z
#
# Youngs Moduli (GPa) = 93.64460 51.55149 53.67608
#
# Poissons Ratio (x) = 0.09607 -0.11636
# Poissons Ratio (y) = 0.17452 -0.10865
# Poissons Ratio (z) = -0.20301 -0.10435
#
# Static dielectric constant tensor:
#      x y z
#    x 2.179480 -0.016410 0.070480 
#    y -0.016410 2.017260 0.037390 
#    z 0.070480 0.037390 1.991580 
# 
# From -- ./inp_files/124355.got.cif
#   From: 2010.05.17/outbox.cif.g08.bks.cpg/sg2_63_cif.got.tgz:124355.got - 2010.06.03 11:33:40.
