data_PCOD9002893
_publ_section_title
;
Structure prediction by ZEFSAII (Michael W. Deem and Ramdas Pophale) SiO2 
 PCOD9002893
Probable space group: P -1
;
_chemical_formula_sum "Si O2"
_cell_formula_units_Z 16
_cell_length_a 14.706841
_cell_length_b 12.432258
_cell_length_c 8.410471
_cell_angle_alpha 51.617424
_cell_angle_beta 81.316804
_cell_angle_gamma 47.559812
_cell_volume 788.336667
_symmetry_space_group_name_H-M "P -1"
_symmetry_group_IT_number 2
_symmetry_cell_setting 'triclinic'
loop_
_space_group_symop_operation_xyz
x,y,z
-x,-y,-z
loop_
_atom_site_type_symbol
_atom_site_label
_atom_site_fract_x
_atom_site_fract_y
_atom_site_fract_z
Si Si1 0.659353 0.591512 0.532297
Si Si2 0.441039 0.015666 0.832148
Si Si3 0.027945 0.818294 0.085829
Si Si4 0.342879 0.735262 0.837008
Si Si5 0.331797 0.450064 0.798605
Si Si6 0.388080 0.714830 0.504349
Si Si7 0.104251 0.791398 0.762842
Si Si8 0.742544 0.024099 0.034752
O O1 0.811445 0.396376 0.737134
O O2 0.688271 0.573936 0.353610
O O3 0.545354 0.598242 0.570974
O O4 0.592426 0.807928 0.414292
O O5 0.550774 0.782173 0.949198
O O6 0.305158 0.079129 0.848345
O O7 0.500000 0.000000 0.000000
O O8 0.011846 0.832657 0.887582
O O9 0.000000 0.000000 0.000000
O O10 0.907528 0.858589 0.149871
O O11 0.324721 0.835701 0.580279
O O12 0.225408 0.749294 0.847598
O O13 0.500000 0.500000 0.000000
O O14 0.318791 0.837230 0.916618
O O15 0.374216 0.564383 0.663218
O O16 0.191937 0.597400 0.801400
O O17 0.319061 0.841954 0.238342
O O18 0.000000 0.000000 0.500000
#
# Coordination Sequence:
#
# PCOD9002893 Si02
#       8
#     2   2   2   2   2   2   2   2
#     4  11  23  41  65  93 131 172 213 265 326 390
#     4  10  22  42  67  92 125 178 220 262 324 388
#     4  12  24  38  63  98 130 165 211 266 327 394
#     4  11  24  36  59 100 131 160 215 276 320 376
#     4  10  21  36  68  93 122 171 217 266 320 372
#     4  11  22  39  68  96 126 166 223 268 324 378
#     4  11  22  40  60  96 140 164 206 270 335 385
#     4  12  23  42  66  92 135 173 213 269 332 381
#
# _framework density 20.295898999999999
#
# number of rings (size 3 to 8) (size 9 to 14) (size 15 to 20)
#    0.000    1.000    3.750    5.625    3.500    0.500 
#    0.000    2.500    0.000    3.000    0.000    0.000 
#    0.000    0.000    0.000    0.000    0.000    0.000 
#
# Total GULP energy -89219.925464 kJ/mol
# GULP energy per Si atom -5576.245342 kJ/mol
# Density = 2.024970 g / cm^3
# Si number density = 20.295899 Si / 1000 Ang^3
#
#
#
# Elastic Constant Matrix: (Units=GPa)
#
#
# Indices 1 2 3 4 5 6 
#
# 1 83.7084 19.0928 7.1519 -8.9368 4.3208 -7.9660
# 2 19.0928 108.8186 38.7716 14.5645 -8.7023 -17.1869
# 3 7.1519 38.7716 81.6926 -7.7119 8.9235 4.5649
# 4 -8.9368 14.5645 -7.7119 43.0341 1.7715 4.0092
# 5 4.3208 -8.7023 8.9235 1.7715 27.3564 -4.6615
# 6 -7.9660 -17.1869 4.5649 4.0092 -4.6615 27.0324
#
#
#
# Elastic Compliance Matrix: (Units=1/GPa)
#
#
# Indices 1 2 3 4 5 6 
#
# 1 0.013384 -0.003884 0.001571 0.004566 -0.004190 -0.000191
# 2 -0.003884 0.020430 -0.013255 -0.012462 0.015410 0.018588
# 3 0.001571 -0.013255 0.021946 0.010842 -0.015030 -0.015870
# 4 0.004566 -0.012462 0.010842 0.032317 -0.012945 -0.015434
# 5 -0.004190 0.015410 -0.015030 -0.012945 0.051594 0.021918
# 6 -0.000191 0.018588 -0.015870 -0.015434 0.021918 0.057503
#
#
# Mechanical properties :
#
#
# Convention : Reuss Voigt Hill
#
# Bulk Modulus (GPa) = 40.61036 44.91692 42.76364
# Shear Modulus (GPa) = 21.14012 33.43148 27.28580
#
# Velocity S-wave (km/s) = 3.23088 4.06298 3.67058
# Velocity P-wave (km/s) = 5.82844 6.64752 6.25141
#
# Compressibility (1/GPa) = 0.02462426
#
# Stress axis : x y z
#
# Youngs Moduli (GPa) = 74.71864 48.94794 45.56617
#
# Poissons Ratio (x) = 0.19013 -0.07160
# Poissons Ratio (y) = 0.29023 0.60396
# Poissons Ratio (z) = -0.11740 0.64878
#
# Static dielectric constant tensor:
#      x y z
#    x 1.751140 -0.027190 -0.010120 
#    y -0.027190 1.701560 0.073120 
#    z -0.010120 0.073120 1.816970 
# 
# From -- ./inp_files/306510.got.cif
#   From: 2010.05.17/outbox.cif.g08.bks.cpg/sg2_154_cif.got.tgz:306510.got - 2010.06.03 11:33:40.
