data_PCOD9002070
_publ_section_title
;
Structure prediction by ZEFSAII (Michael W. Deem and Ramdas Pophale) SiO2 
 PCOD9002070
Probable space group: P -1
;
_chemical_formula_sum "Si O2"
_cell_formula_units_Z 14
_cell_length_a 6.017807
_cell_length_b 11.873460
_cell_length_c 16.030959
_cell_angle_alpha 133.046539
_cell_angle_beta 105.423725
_cell_angle_gamma 99.159663
_cell_volume 706.285376
_symmetry_space_group_name_H-M "P -1"
_symmetry_group_IT_number 2
_symmetry_cell_setting 'triclinic'
loop_
_space_group_symop_operation_xyz
x,y,z
-x,-y,-z
loop_
_atom_site_type_symbol
_atom_site_label
_atom_site_fract_x
_atom_site_fract_y
_atom_site_fract_z
Si Si1 0.668371 0.698324 0.533483
Si Si2 0.578749 0.257868 0.021502
Si Si3 0.183501 0.450378 0.933288
Si Si4 0.129843 0.481153 0.418927
Si Si5 0.397967 0.625688 0.746588
Si Si6 0.035935 0.079847 0.791012
Si Si7 0.790394 0.993926 0.908468
O O1 0.374834 0.660935 0.504438
O O2 0.765731 0.648919 0.604477
O O3 0.625668 0.550506 0.385580
O O4 0.881487 0.895474 0.634510
O O5 0.790839 0.436172 0.088660
O O6 0.475622 0.320055 0.122412
O O7 0.339001 0.143328 0.876744
O O8 0.689688 0.129029 0.994006
O O9 0.038849 0.239519 0.820751
O O10 0.500000 0.500000 0.000000
O O11 0.000000 0.500000 0.000000
O O12 0.000000 0.500000 0.500000
O O13 0.899789 0.407263 0.292160
O O14 0.553341 0.794574 0.789134
O O15 0.896241 0.046163 0.851070
O O16 0.000000 0.000000 0.000000
#
# Coordination Sequence:
#
# PCOD9002070 Si02
#       7
#     2   2   2   2   2   2   2
#     4  10  21  36  57  84 125 163 204 249 310 389
#     4  11  24  40  63  91 127 162 213 269 315 378
#     4  10  22  45  67  94 124 173 222 273 317 374
#     4   9  18  34  53  80 123 166 198 235 311 379
#     4  11  23  36  56  91 129 162 195 257 327 380
#     4  11  22  40  65  91 120 167 218 261 312 381
#     4  12  23  34  61  94 127 158 207 259 325 380
#
# _framework density 19.822016000000001
#
# number of rings (size 3 to 8) (size 9 to 14) (size 15 to 20)
#    0.000    1.429    2.857    3.857    4.000    1.143 
#    0.000    0.714    0.000    0.857    0.000    0.000 
#    0.000    0.000    0.000    0.000    0.000    0.000 
#
# Total GULP energy -77956.412390 kJ/mol
# GULP energy per Si atom -5568.315171 kJ/mol
# Density = 1.977690 g / cm^3
# Si number density = 19.822016 Si / 1000 Ang^3
#
#
#
# Elastic Constant Matrix: (Units=GPa)
#
#
# Indices 1 2 3 4 5 6 
#
# 1 74.6088 29.3509 36.7953 8.6568 2.8969 0.9157
# 2 29.3509 91.1526 57.9390 40.6866 -2.2859 15.1787
# 3 36.7953 57.9390 131.2815 34.6557 -2.3824 -1.0339
# 4 8.6568 40.6866 34.6557 33.4331 5.5158 2.9153
# 5 2.8969 -2.2859 -2.3824 5.5158 35.8631 -1.0345
# 6 0.9157 15.1787 -1.0339 2.9153 -1.0345 35.3553
#
#
#
# Elastic Compliance Matrix: (Units=1/GPa)
#
#
# Indices 1 2 3 4 5 6 
#
# 1 0.017423 -0.007618 -0.004048 0.009382 -0.003552 0.001823
# 2 -0.007618 0.033393 -0.003113 -0.035747 0.007716 -0.011056
# 3 -0.004048 -0.003113 0.012495 -0.008734 0.002377 0.002596
# 4 0.009382 -0.035747 -0.008734 0.082015 -0.016011 0.007617
# 5 -0.003552 0.007716 0.002377 -0.016011 0.031257 -0.000916
# 6 0.001823 -0.011056 0.002596 0.007617 -0.000916 0.032405
#
#
# Mechanical properties :
#
#
# Convention : Reuss Voigt Hill
#
# Bulk Modulus (GPa) = 29.62650 60.57924 45.10287
# Shear Modulus (GPa) = 20.01635 32.46083 26.23859
#
# Velocity S-wave (km/s) = 3.18119 4.05114 3.64223
# Velocity P-wave (km/s) = 5.33592 7.24639 6.36326
#
# Compressibility (1/GPa) = 0.03375356
#
# Stress axis : x y z
#
# Youngs Moduli (GPa) = 57.39385 29.94665 80.03311
#
# Poissons Ratio (x) = 0.22812 0.32400
# Poissons Ratio (y) = 0.43721 0.24912
# Poissons Ratio (z) = 0.23235 0.09322
#
# Static dielectric constant tensor:
#      x y z
#    x 1.814430 -0.017480 0.020620 
#    y -0.017480 1.693460 -0.011580 
#    z 0.020620 -0.011580 1.741730 
# 
# From -- ./inp_files/65556.got.cif
#   From: 2010.05.17/outbox.cif.g08.bks.cpg/sg2_33_cif.got.tgz:65556.got - 2010.06.03 11:33:40.
