data_PCOD9002292
_publ_section_title
;
Structure prediction by ZEFSAII (Michael W. Deem and Ramdas Pophale) SiO2 
 PCOD9002292
Probable space group: P -1
;
_chemical_formula_sum "Si O2"
_cell_formula_units_Z 14
_cell_length_a 12.998779
_cell_length_b 7.439979
_cell_length_c 11.090584
_cell_angle_alpha 115.533820
_cell_angle_beta 49.877405
_cell_angle_gamma 138.502511
_cell_volume 540.602925
_symmetry_space_group_name_H-M "P -1"
_symmetry_group_IT_number 2
_symmetry_cell_setting 'triclinic'
loop_
_space_group_symop_operation_xyz
x,y,z
-x,-y,-z
loop_
_atom_site_type_symbol
_atom_site_label
_atom_site_fract_x
_atom_site_fract_y
_atom_site_fract_z
Si Si1 0.840912 0.650130 0.944621
Si Si2 0.235222 0.776903 0.936254
Si Si3 0.923364 0.620585 0.255071
Si Si4 0.124149 0.927523 0.417065
Si Si5 0.500570 0.464560 0.713674
Si Si6 0.801830 0.916875 0.342473
Si Si7 0.420158 0.634345 0.144401
O O1 0.758902 0.503939 0.835221
O O2 0.831469 0.469407 0.999710
O O3 0.681505 0.635300 0.110917
O O4 0.045391 0.921401 0.831746
O O5 0.202951 0.678002 0.794782
O O6 0.435781 0.046598 0.895868
O O7 0.099819 0.817433 0.088852
O O8 0.814742 0.714926 0.342206
O O9 0.020263 0.682213 0.327985
O O10 0.340213 0.205055 0.312529
O O11 0.135620 0.880550 0.534999
O O12 0.000000 0.000000 0.500000
O O13 0.403188 0.276796 0.613781
O O14 0.593622 0.396149 0.710239
O O15 0.500000 0.500000 0.000000
#
# Coordination Sequence:
#
# PCOD9002292 Si02
#       7
#     2   2   2   2   2   2   2
#     4  11  22  38  65 100 130 164 214 269 321 378
#     4  11  22  36  65  96 132 164 212 273 323 370
#     4  10  21  38  62  90 130 169 215 255 321 371
#     4  10  22  42  65  90 128 176 219 259 314 387
#     4  11  21  38  67  96 128 167 224 263 313 379
#     4  11  22  40  66  96 132 172 215 257 321 387
#     4  10  21  36  59  90 125 159 208 261 318 372
#
# _framework density 25.897012
#
# number of rings (size 3 to 8) (size 9 to 14) (size 15 to 20)
#    0.000    1.429    1.429    6.429    4.000    0.000 
#    0.000    0.714    0.000    7.714    0.000    0.000 
#    0.000    0.000    0.000    0.000    0.000    0.000 
#
# Total GULP energy -78112.526985 kJ/mol
# GULP energy per Si atom -5579.466213 kJ/mol
# Density = 2.583807 g / cm^3
# Si number density = 25.897012 Si / 1000 Ang^3
#
#
#
# Elastic Constant Matrix: (Units=GPa)
#
#
# Indices 1 2 3 4 5 6 
#
# 1 121.5076 57.2299 19.1750 9.7504 28.9967 42.8802
# 2 57.2299 120.5253 45.8480 -15.8258 10.7589 60.8914
# 3 19.1750 45.8480 71.2958 -6.4040 21.0279 21.6880
# 4 9.7504 -15.8258 -6.4040 51.1972 7.9810 8.1201
# 5 28.9967 10.7589 21.0279 7.9810 32.1102 6.9150
# 6 42.8802 60.8914 21.6880 8.1201 6.9150 52.6086
#
#
#
# Elastic Compliance Matrix: (Units=1/GPa)
#
#
# Indices 1 2 3 4 5 6 
#
# 1 0.015654 -0.003580 0.005035 0.000184 -0.014378 -0.008830
# 2 -0.003580 0.031018 -0.008592 0.013956 0.001854 -0.031840
# 3 0.005035 -0.008592 0.024354 0.002560 -0.017766 -0.002260
# 4 0.000184 0.013956 0.002560 0.028840 -0.009252 -0.020594
# 5 -0.014378 0.001854 -0.017766 -0.009252 0.055051 0.011090
# 6 -0.008830 -0.031840 -0.002260 -0.020594 0.011090 0.065711
#
#
# Mechanical properties :
#
#
# Convention : Reuss Voigt Hill
#
# Bulk Modulus (GPa) = 17.61989 61.98161 39.80075
# Shear Modulus (GPa) = 19.69909 39.92159 29.81034
#
# Velocity S-wave (km/s) = 2.76102 3.93052 3.39648
# Velocity P-wave (km/s) = 4.12103 6.67716 5.54831
#
# Compressibility (1/GPa) = 0.05675405
#
# Stress axis : x y z
#
# Youngs Moduli (GPa) = 63.88141 32.23925 41.06084
#
# Poissons Ratio (x) = 0.11541 -0.20675
# Poissons Ratio (y) = 0.22867 0.35278
# Poissons Ratio (z) = -0.32165 0.27699
#
# Static dielectric constant tensor:
#      x y z
#    x 2.084250 -0.025790 -0.022350 
#    y -0.025790 2.047340 0.109110 
#    z -0.022350 0.109110 2.236500 
# 
# From -- ./inp_files/241113.got.cif
#   From: 2010.05.17/outbox.cif.g08.bks.cpg/sg2_121_cif.got.tgz:241113.got - 2010.06.03 11:33:40.
