data_PCOD9002336
_publ_section_title
;
Structure prediction by ZEFSAII (Michael W. Deem and Ramdas Pophale) SiO2 
 PCOD9002336
Probable space group: P -1
;
_chemical_formula_sum "Si O2"
_cell_formula_units_Z 10
_cell_length_a 8.788705
_cell_length_b 16.742961
_cell_length_c 16.963543
_cell_angle_alpha 17.268613
_cell_angle_beta 40.456287
_cell_angle_gamma 40.746682
_cell_volume 474.537815
_symmetry_space_group_name_H-M "P -1"
_symmetry_group_IT_number 2
_symmetry_cell_setting 'triclinic'
loop_
_space_group_symop_operation_xyz
x,y,z
-x,-y,-z
loop_
_atom_site_type_symbol
_atom_site_label
_atom_site_fract_x
_atom_site_fract_y
_atom_site_fract_z
Si Si1 0.879267 0.248463 0.259775
Si Si2 0.001964 0.943107 0.960044
Si Si3 0.858344 0.841697 0.530371
Si Si4 0.780261 0.430730 0.470765
Si Si5 0.534860 0.001651 0.356871
O O1 0.599929 0.241257 0.391241
O O2 0.000000 0.000000 0.500000
O O3 0.920717 0.129403 0.266858
O O4 0.000000 0.500000 0.000000
O O5 0.139051 0.814533 0.267487
O O6 0.280231 0.899921 0.866764
O O7 0.000000 0.000000 0.000000
O O8 0.884873 0.683084 0.228417
O O9 0.088289 0.649229 0.589714
O O10 0.692112 0.890190 0.474418
O O11 0.680436 0.775091 0.733135
O O12 0.500000 0.500000 0.500000
#
# Coordination Sequence:
#
# PCOD9002336 Si02
#       5
#     2   2   2   2   2
#     4  10  21  36  59  96 130 154 200 270 333 368
#     4  11  24  44  69  96 132 180 222 271 327 391
#     4   8  19  42  65  93 126 169 219 261 327 394
#     4  11  24  44  69  96 132 180 222 271 327 391
#     4   8  19  42  65  93 126 169 219 261 327 394
#
# _framework density 21.073135000000001
#
# number of rings (size 3 to 8) (size 9 to 14) (size 15 to 20)
#    1.200    1.200    0.000    1.200    0.000    8.800 
#    0.000    4.000    0.000    0.000    0.000    0.000 
#    0.000    0.000    0.000    0.000    0.000    0.000 
#
# Total GULP energy -55675.345634 kJ/mol
# GULP energy per Si atom -5567.534563 kJ/mol
# Density = 2.102517 g / cm^3
# Si number density = 21.073135 Si / 1000 Ang^3
#
#
#
# Elastic Constant Matrix: (Units=GPa)
#
#
# Indices 1 2 3 4 5 6 
#
# 1 104.1220 41.9627 51.7115 3.3243 -30.4141 -17.7893
# 2 41.9627 179.0814 32.2773 16.5264 -18.1189 -26.3923
# 3 51.7115 32.2773 150.7621 -10.8915 -34.6387 -10.7510
# 4 3.3243 16.5264 -10.8915 22.4575 -0.8363 3.6152
# 5 -30.4141 -18.1189 -34.6387 -0.8363 52.5096 2.7990
# 6 -17.7893 -26.3923 -10.7510 3.6152 2.7990 21.5733
#
#
#
# Elastic Compliance Matrix: (Units=1/GPa)
#
#
# Indices 1 2 3 4 5 6 
#
# 1 0.015037 -0.000326 -0.003399 -0.005099 0.005718 0.010419
# 2 -0.000326 0.008328 -0.001255 -0.008342 0.001162 0.010540
# 3 -0.003399 -0.001255 0.009335 0.006302 0.003923 -0.001251
# 4 -0.005099 -0.008342 0.006302 0.057875 0.000367 -0.021016
# 5 0.005718 0.001162 0.003923 0.000367 0.025096 0.004774
# 6 0.010419 0.010540 -0.001251 -0.021016 0.004774 0.070119
#
#
# Mechanical properties :
#
#
# Convention : Reuss Voigt Hill
#
# Bulk Modulus (GPa) = 43.97919 76.20759 60.09339
# Shear Modulus (GPa) = 24.59052 39.84234 32.21643
#
# Velocity S-wave (km/s) = 3.41972 4.35290 3.91422
# Velocity P-wave (km/s) = 6.04216 7.84255 7.00047
#
# Compressibility (1/GPa) = 0.02273803
#
# Stress axis : x y z
#
# Youngs Moduli (GPa) = 66.50266 120.08391 107.12343
#
# Poissons Ratio (x) = 0.03918 0.36417
# Poissons Ratio (y) = 0.02170 0.13444
# Poissons Ratio (z) = 0.22608 0.15071
#
# Static dielectric constant tensor:
#      x y z
#    x 1.807570 -0.122090 -0.212060 
#    y -0.122090 2.232930 0.955790 
#    z -0.212060 0.955790 4.361020 
# 
# From -- ./inp_files/58320.got.cif
#   From: 2010.05.17/outbox.cif.g08.bks.cpg/sg2_30_cif.got.tgz:58320.got - 2010.06.03 11:33:40.
