data_PCOD9002397
_publ_section_title
;
Structure prediction by ZEFSAII (Michael W. Deem and Ramdas Pophale) SiO2 
 PCOD9002397
Probable space group: P -1
;
_chemical_formula_sum "Si O2"
_cell_formula_units_Z 16
_cell_length_a 10.370041
_cell_length_b 12.102808
_cell_length_c 17.784342
_cell_angle_alpha 116.956305
_cell_angle_beta 26.496568
_cell_angle_gamma 124.318947
_cell_volume 814.457805
_symmetry_space_group_name_H-M "P -1"
_symmetry_group_IT_number 2
_symmetry_cell_setting 'triclinic'
loop_
_space_group_symop_operation_xyz
x,y,z
-x,-y,-z
loop_
_atom_site_type_symbol
_atom_site_label
_atom_site_fract_x
_atom_site_fract_y
_atom_site_fract_z
Si Si1 0.723881 0.386512 0.337712
Si Si2 0.480330 0.878602 0.230017
Si Si3 0.342099 0.414659 0.177350
Si Si4 0.577267 0.505310 0.590213
Si Si5 0.114465 0.820821 0.902020
Si Si6 0.684244 0.360579 0.857289
Si Si7 0.262211 0.389338 0.856327
Si Si8 0.873198 0.313005 0.526175
O O1 0.619179 0.391974 0.480056
O O2 0.470988 0.391207 0.411049
O O3 0.834070 0.270249 0.219128
O O4 0.009333 0.533723 0.229243
O O5 0.299216 0.772468 0.226832
O O6 0.272478 0.830527 0.399366
O O7 0.595409 0.035580 0.200775
O O8 0.799939 0.849538 0.062085
O O9 0.348649 0.544028 0.164343
O O10 0.631793 0.483376 0.104220
O O11 0.051258 0.336042 0.360433
O O12 0.406833 0.325433 0.051861
O O13 0.274875 0.438329 0.780397
O O14 0.869300 0.586018 0.518411
O O15 0.037352 0.729947 0.989633
O O16 0.566739 0.348169 0.688125
#
# Coordination Sequence:
#
# PCOD9002397 Si02
#       8
#     2   2   2   2   2   2   2   2
#     4  11  20  35  52  81 109 136 175 214 259 314
#     4  10  20  33  56  76 109 140 173 211 262 313
#     4  10  17  27  53  82 101 127 176 220 260 296
#     4  10  21  32  56  80 106 135 174 220 265 300
#     4  10  20  35  52  81 106 140 173 213 262 309
#     4  11  17  31  52  79 103 136 170 218 255 307
#     4  10  17  33  53  80 105 133 170 225 263 301
#     4  10  18  33  52  82 105 133 172 223 262 304
#
# _framework density 19.644971000000002
#
# number of rings (size 3 to 8) (size 9 to 14) (size 15 to 20)
#    0.000    1.750    5.000    3.000    0.000    0.500 
#    0.000    1.875    0.000    6.000    0.000    0.000 
#    0.000    0.000    0.000    0.000    0.000    0.000 
#
# Total GULP energy -89119.580526 kJ/mol
# GULP energy per Si atom -5569.973783 kJ/mol
# Density = 1.960026 g / cm^3
# Si number density = 19.644971 Si / 1000 Ang^3
#
#
#
# Elastic Constant Matrix: (Units=GPa)
#
#
# Indices 1 2 3 4 5 6 
#
# 1 63.6017 14.5957 36.0020 0.9116 19.2154 2.7846
# 2 14.5957 88.2542 46.7372 -21.9453 7.7144 10.4445
# 3 36.0020 46.7372 137.4983 -12.2276 40.8838 1.8024
# 4 0.9116 -21.9453 -12.2276 27.5354 -1.6116 1.5606
# 5 19.2154 7.7144 40.8838 -1.6116 33.5512 -0.6451
# 6 2.7846 10.4445 1.8024 1.5606 -0.6451 13.3670
#
#
#
# Elastic Compliance Matrix: (Units=1/GPa)
#
#
# Indices 1 2 3 4 5 6 
#
# 1 0.020242 -0.001964 -0.002431 -0.003674 -0.008401 -0.002331
# 2 -0.001964 0.019947 -0.006056 0.014423 0.004307 -0.015836
# 3 -0.002431 -0.006056 0.014331 0.000620 -0.014600 0.002529
# 4 -0.003674 0.014423 0.000620 0.049138 0.000080 -0.016320
# 5 -0.008401 0.004307 -0.014600 0.000080 0.051475 0.002829
# 6 -0.002331 -0.015836 0.002529 -0.016320 0.002829 0.089371
#
#
# Mechanical properties :
#
#
# Convention : Reuss Voigt Hill
#
# Bulk Modulus (GPa) = 29.74590 53.78045 41.76317
# Shear Modulus (GPa) = 18.07576 27.69201 22.88388
#
# Velocity S-wave (km/s) = 3.03664 3.75857 3.41673
# Velocity P-wave (km/s) = 5.24114 6.80231 6.07211
#
# Compressibility (1/GPa) = 0.03361808
#
# Stress axis : x y z
#
# Youngs Moduli (GPa) = 49.40141 50.13282 69.77850
#
# Poissons Ratio (x) = 0.09845 0.16963
# Poissons Ratio (y) = 0.09702 0.42260
# Poissons Ratio (z) = 0.12009 0.30362
#
# Static dielectric constant tensor:
#      x y z
#    x 1.761480 -0.017950 -0.028370 
#    y -0.017950 1.685850 0.013990 
#    z -0.028370 0.013990 1.808460 
# 
# From -- ./inp_files/568775.got.cif
#   From: 2010.05.17/outbox.cif.g08.bks.cpg/sg2_285_cif.got.tgz:568775.got - 2010.06.03 11:33:40.
