data_PCOD9002505
_publ_section_title
;
Structure prediction by ZEFSAII (Michael W. Deem and Ramdas Pophale) SiO2 
 PCOD9002505
Probable space group: P -1
;
_chemical_formula_sum "Si O2"
_cell_formula_units_Z 16
_cell_length_a 9.799932
_cell_length_b 8.663562
_cell_length_c 13.646744
_cell_angle_alpha 130.404348
_cell_angle_beta 131.487044
_cell_angle_gamma 68.986344
_cell_volume 655.819970
_symmetry_space_group_name_H-M "P -1"
_symmetry_group_IT_number 2
_symmetry_cell_setting 'triclinic'
loop_
_space_group_symop_operation_xyz
x,y,z
-x,-y,-z
loop_
_atom_site_type_symbol
_atom_site_label
_atom_site_fract_x
_atom_site_fract_y
_atom_site_fract_z
Si Si1 0.764874 0.968914 0.265249
Si Si2 0.794407 0.320384 0.123140
Si Si3 0.206714 0.421325 0.377684
Si Si4 0.783354 0.961385 0.857639
Si Si5 0.374212 0.472488 0.027279
Si Si6 0.830871 0.153757 0.565429
Si Si7 0.649561 0.170523 0.689265
Si Si8 0.217164 0.589363 0.639710
O O1 0.979208 0.936972 0.364390
O O2 0.711792 0.995218 0.367256
O O3 0.753682 0.176186 0.285226
O O4 0.670451 0.770019 0.081798
O O5 0.711463 0.417850 0.218835
O O6 0.002311 0.304836 0.248446
O O7 0.804513 0.452527 0.083340
O O8 0.698173 0.098040 0.954855
O O9 0.294315 0.276456 0.284247
O O10 0.168937 0.639923 0.411703
O O11 0.302012 0.455901 0.542186
O O12 0.747529 0.053145 0.772460
O O13 0.000000 0.000000 0.000000
O O14 0.402795 0.628777 0.196036
O O15 0.500000 0.500000 0.000000
O O16 0.770821 0.218072 0.670339
O O17 0.500000 0.000000 0.500000
O O18 0.000000 0.500000 0.500000
#
# Coordination Sequence:
#
# PCOD9002505 Si02
#       8
#     2   2   2   2   2   2   2   2
#     4  10  21  37  59  96 124 166 208 269 316 367
#     4   9  18  35  53  86 118 154 208 252 312 369
#     4   9  17  34  54  90 119 153 199 257 316 363
#     4   9  20  36  59  86 123 159 203 257 314 370
#     4  11  23  41  61  85 126 170 214 263 318 376
#     4  10  21  36  61  90 130 154 212 265 316 380
#     4  11  25  42  61  94 126 172 216 256 321 388
#     4   9  19  31  56  88 124 150 202 253 317 374
#
# _framework density 24.396939
#
# number of rings (size 3 to 8) (size 9 to 14) (size 15 to 20)
#    0.000    2.250    1.250    0.750    7.000    2.500 
#    0.000    1.250    0.000    0.000    0.000    0.000 
#    0.000    0.000    0.000    0.000    0.000    0.000 
#
# Total GULP energy -89136.067915 kJ/mol
# GULP energy per Si atom -5571.004245 kJ/mol
# Density = 2.434141 g / cm^3
# Si number density = 24.396939 Si / 1000 Ang^3
#
#
#
# Elastic Constant Matrix: (Units=GPa)
#
#
# Indices 1 2 3 4 5 6 
#
# 1 47.3047 -0.3788 45.4094 -1.4122 -24.1665 -4.5384
# 2 -0.3788 66.5583 56.7721 5.8973 -9.2373 -3.6296
# 3 45.4094 56.7721 211.4187 6.9793 -39.8528 -2.4844
# 4 -1.4122 5.8973 6.9793 53.0231 -4.1961 -6.4873
# 5 -24.1665 -9.2373 -39.8528 -4.1961 42.8806 4.1813
# 6 -4.5384 -3.6296 -2.4844 -6.4873 4.1813 20.6482
#
#
#
# Elastic Compliance Matrix: (Units=1/GPa)
#
#
# Indices 1 2 3 4 5 6 
#
# 1 0.036933 0.008750 -0.007385 0.003013 0.015490 0.006577
# 2 0.008750 0.021848 -0.007213 -0.000535 0.002469 0.004228
# 3 -0.007385 -0.007213 0.008732 -0.000653 0.002586 -0.002570
# 4 0.003013 -0.000535 -0.000653 0.020042 0.002321 0.006317
# 5 0.015490 0.002469 0.002586 0.002321 0.035437 -0.002297
# 6 0.006577 0.004228 -0.002570 0.006317 -0.002297 0.052760
#
#
# Mechanical properties :
#
#
# Convention : Reuss Voigt Hill
#
# Bulk Modulus (GPa) = 17.91567 58.76522 38.34045
# Shear Modulus (GPa) = 24.26579 38.20898 31.23739
#
# Velocity S-wave (km/s) = 3.15719 3.96174 3.58212
# Velocity P-wave (km/s) = 4.54420 6.71317 5.73221
#
# Compressibility (1/GPa) = 0.05581707
#
# Stress axis : x y z
#
# Youngs Moduli (GPa) = 27.07640 45.77145 114.52180
#
# Poissons Ratio (x) = -0.40052 0.84570
# Poissons Ratio (y) = -0.23693 0.82609
# Poissons Ratio (z) = 0.19995 0.33017
#
# Static dielectric constant tensor:
#      x y z
#    x 2.246140 -0.067780 0.017770 
#    y -0.067780 2.031210 -0.020210 
#    z 0.017770 -0.020210 1.974450 
# 
# From -- ./inp_files/420104.got.cif
#   From: 2010.05.17/outbox.cif.g08.bks.cpg/sg2_211_cif.got.tgz:420104.got - 2010.06.03 11:33:40.
