data_PCOD9002670
_publ_section_title
;
Structure prediction by ZEFSAII (Michael W. Deem and Ramdas Pophale) SiO2 
 PCOD9002670
Probable space group: P -1
;
_chemical_formula_sum "Si O2"
_cell_formula_units_Z 14
_cell_length_a 9.379153
_cell_length_b 11.732518
_cell_length_c 7.575436
_cell_angle_alpha 124.532611
_cell_angle_beta 89.712491
_cell_angle_gamma 105.288494
_cell_volume 651.390024
_symmetry_space_group_name_H-M "P -1"
_symmetry_group_IT_number 2
_symmetry_cell_setting 'triclinic'
loop_
_space_group_symop_operation_xyz
x,y,z
-x,-y,-z
loop_
_atom_site_type_symbol
_atom_site_label
_atom_site_fract_x
_atom_site_fract_y
_atom_site_fract_z
Si Si1 0.154326 0.604035 0.008638
Si Si2 0.239519 0.773168 0.518446
Si Si3 0.920745 0.209872 0.141531
Si Si4 0.567456 0.410921 0.555214
Si Si5 0.356285 0.032924 0.952557
Si Si6 0.246250 0.276966 0.060934
Si Si7 0.652747 0.605212 0.182504
O O1 0.225842 0.711649 0.267510
O O2 0.121730 0.688568 0.914316
O O3 0.255116 0.503601 0.864777
O O4 0.000000 0.500000 0.000000
O O5 0.089070 0.736045 0.608348
O O6 0.346165 0.704460 0.573141
O O7 0.314076 0.946760 0.690123
O O8 0.789033 0.054738 0.007039
O O9 0.084077 0.206554 0.084447
O O10 0.500000 0.500000 0.500000
O O11 0.699765 0.549172 0.756937
O O12 0.421111 0.332801 0.605221
O O13 0.500000 0.000000 0.000000
O O14 0.359998 0.197819 0.068566
O O15 0.251977 0.273152 0.845541
O O16 0.500000 0.500000 0.000000
#
# Coordination Sequence:
#
# PCOD9002670 Si02
#       7
#     2   2   2   2   2   2   2
#     4  12  21  41  65  99 128 164 210 264 327 374
#     4  10  23  40  63  96 126 162 218 258 317 370
#     4  10  24  41  68  88 135 166 215 261 322 380
#     4  11  21  37  64  95 126 162 218 263 315 376
#     4  10  24  43  66  90 129 175 212 260 324 378
#     4  11  21  43  63  90 130 172 204 261 328 370
#     4  10  21  36  63  89 130 160 208 265 318 362
#
# _framework density 21.492502000000002
#
# number of rings (size 3 to 8) (size 9 to 14) (size 15 to 20)
#    0.857    0.571    4.286    2.143    4.000    3.429 
#    0.000    5.000    0.000    0.000    0.000    0.000 
#    0.000    0.000    0.000    0.000    0.000    0.000 
#
# Total GULP energy -77963.121356 kJ/mol
# GULP energy per Si atom -5568.794383 kJ/mol
# Density = 2.144358 g / cm^3
# Si number density = 21.492502 Si / 1000 Ang^3
#
#
#
# Elastic Constant Matrix: (Units=GPa)
#
#
# Indices 1 2 3 4 5 6 
#
# 1 88.4966 2.6237 5.2932 4.2283 -23.1683 -3.0098
# 2 2.6237 58.6516 5.3710 13.0129 -15.5542 -12.6726
# 3 5.2932 5.3710 37.4255 3.6028 -5.7948 10.0698
# 4 4.2283 13.0129 3.6028 29.9838 3.5352 -4.5555
# 5 -23.1683 -15.5542 -5.7948 3.5352 28.0838 -5.6109
# 6 -3.0098 -12.6726 10.0698 -4.5555 -5.6109 39.7446
#
#
#
# Elastic Compliance Matrix: (Units=1/GPa)
#
#
# Indices 1 2 3 4 5 6 
#
# 1 0.016891 0.007460 -0.001339 -0.006887 0.019858 0.006011
# 2 0.007460 0.030261 -0.003353 -0.014939 0.026725 0.013124
# 3 -0.001339 -0.003353 0.030474 -0.003623 0.001979 -0.009027
# 4 -0.006887 -0.014939 -0.003623 0.043321 -0.020618 -0.002312
# 5 0.019858 0.026725 0.001979 -0.020618 0.073293 0.017507
# 6 0.006011 0.013124 -0.009027 -0.002312 0.017507 0.034294
#
#
# Mechanical properties :
#
#
# Convention : Reuss Voigt Hill
#
# Bulk Modulus (GPa) = 12.02475 23.46105 17.74290
# Shear Modulus (GPa) = 19.94266 30.98150 25.46208
#
# Velocity S-wave (km/s) = 3.04943 3.80083 3.44568
# Velocity P-wave (km/s) = 4.24331 5.49558 4.90954
#
# Compressibility (1/GPa) = 0.08316184
#
# Stress axis : x y z
#
# Youngs Moduli (GPa) = 59.20283 33.04633 32.81444
#
# Poissons Ratio (x) = -0.24653 0.04395
# Poissons Ratio (y) = -0.44166 0.11002
# Poissons Ratio (z) = 0.07929 0.11080
#
# Static dielectric constant tensor:
#      x y z
#    x 1.795430 -0.008610 0.044390 
#    y -0.008610 1.773790 -0.065730 
#    z 0.044390 -0.065730 1.929160 
# 
# From -- ./inp_files/182389.got.cif
#   From: 2010.05.17/outbox.cif.g08.bks.cpg/sg2_92_cif.got.tgz:182389.got - 2010.06.03 11:33:40.
