data_PCOD9002226
_publ_section_title
;
Structure prediction by ZEFSAII (Michael W. Deem and Ramdas Pophale) SiO2 
 PCOD9002226
Probable space group: P -1
;
_chemical_formula_sum "Si O2"
_cell_formula_units_Z 14
_cell_length_a 11.920285
_cell_length_b 15.443089
_cell_length_c 8.620787
_cell_angle_alpha 114.476174
_cell_angle_beta 125.523664
_cell_angle_gamma 31.695129
_cell_volume 666.600558
_symmetry_space_group_name_H-M "P -1"
_symmetry_group_IT_number 2
_symmetry_cell_setting 'triclinic'
loop_
_space_group_symop_operation_xyz
x,y,z
-x,-y,-z
loop_
_atom_site_type_symbol
_atom_site_label
_atom_site_fract_x
_atom_site_fract_y
_atom_site_fract_z
Si Si1 0.030431 0.550702 0.260321
Si Si2 0.149361 0.274439 0.446790
Si Si3 0.779296 0.362178 0.642561
Si Si4 0.353452 0.208480 0.109410
Si Si5 0.898258 0.812942 0.942843
Si Si6 0.126363 0.017081 0.530320
Si Si7 0.321198 0.969416 0.351411
O O1 0.169152 0.557787 0.292871
O O2 0.172079 0.377380 0.191775
O O3 0.012700 0.582392 0.450628
O O4 0.757190 0.712618 0.091579
O O5 0.018016 0.310603 0.213604
O O6 0.260649 0.110058 0.476444
O O7 0.388860 0.199524 0.546475
O O8 0.500000 0.500000 0.500000
O O9 0.932647 0.211407 0.535639
O O10 0.890029 0.277995 0.838743
O O11 0.301181 0.131288 0.072810
O O12 0.625227 0.090395 0.265299
O O13 0.785093 0.960868 0.856017
O O14 0.202879 0.963289 0.371524
O O15 0.000000 0.000000 0.500000
#
# Coordination Sequence:
#
# PCOD9002226 Si02
#       7
#     2   2   2   2   2   2   2
#     4  10  21  36  61  89 126 150 198 251 296 351
#     4   9  16  34  61  85 120 148 187 251 293 347
#     4  11  23  39  60  86 120 163 202 241 302 355
#     4  10  21  36  58  97 116 154 202 244 296 351
#     4   9  19  36  64  86 119 149 201 247 295 356
#     4  12  23  39  61  82 122 161 200 246 299 355
#     4   9  18  36  55  93 114 150 197 245 296 355
#
# _framework density 21.002081
#
# number of rings (size 3 to 8) (size 9 to 14) (size 15 to 20)
#    0.857    1.143    2.857    0.857    2.000    1.714 
#    0.000    3.571    0.000    0.000    0.000    0.000 
#    0.000    0.000    0.000    0.000    0.000    0.000 
#
# Total GULP energy -78093.564223 kJ/mol
# GULP energy per Si atom -5578.111730 kJ/mol
# Density = 2.095428 g / cm^3
# Si number density = 21.002081 Si / 1000 Ang^3
#
#
#
# Elastic Constant Matrix: (Units=GPa)
#
#
# Indices 1 2 3 4 5 6 
#
# 1 103.6347 9.3216 23.4499 -23.5509 -5.7795 -6.2618
# 2 9.3216 61.3200 14.0990 -14.4511 6.4127 -14.1546
# 3 23.4499 14.0990 86.6882 -25.8368 -5.3189 -21.2424
# 4 -23.5509 -14.4511 -25.8368 41.8957 -9.0843 4.0137
# 5 -5.7795 6.4127 -5.3189 -9.0843 25.2855 -0.3477
# 6 -6.2618 -14.1546 -21.2424 4.0137 -0.3477 28.7649
#
#
#
# Elastic Compliance Matrix: (Units=1/GPa)
#
#
# Indices 1 2 3 4 5 6 
#
# 1 0.011798 -0.000252 -0.000310 0.007399 0.005371 0.001248
# 2 -0.000252 0.020002 0.000628 0.005623 -0.002848 0.009432
# 3 -0.000310 0.000628 0.018703 0.012172 0.008248 0.012455
# 4 0.007399 0.005623 0.012172 0.040506 0.017487 0.007926
# 5 0.005371 -0.002848 0.008248 0.017487 0.049571 0.004018
# 6 0.001248 0.009432 0.012455 0.007926 0.004018 0.047818
#
#
# Mechanical properties :
#
#
# Convention : Reuss Voigt Hill
#
# Bulk Modulus (GPa) = 19.74931 38.37599 29.06265
# Shear Modulus (GPa) = 24.37284 32.84073 28.60678
#
# Velocity S-wave (km/s) = 3.41030 3.95864 3.69466
# Velocity P-wave (km/s) = 4.99307 6.26152 5.66292
#
# Compressibility (1/GPa) = 0.05063467
#
# Stress axis : x y z
#
# Youngs Moduli (GPa) = 84.75661 49.99421 53.46732
#
# Poissons Ratio (x) = 0.01261 0.01657
# Poissons Ratio (y) = 0.02137 -0.03355
# Poissons Ratio (z) = 0.02627 -0.03138
#
# Static dielectric constant tensor:
#      x y z
#    x 1.820730 0.045150 -0.046890 
#    y 0.045150 1.761430 0.004470 
#    z -0.046890 0.004470 1.792880 
# 
# From -- ./inp_files/211684.got.cif
#   From: 2010.05.17/outbox.cif.g08.bks.cpg/sg2_106_cif.got.tgz:211684.got - 2010.06.03 11:33:40.
