data_PCOD9002359
_publ_section_title
;
Structure prediction by ZEFSAII (Michael W. Deem and Ramdas Pophale) SiO2 
 PCOD9002359
Probable space group: P -1
;
_chemical_formula_sum "Si O2"
_cell_formula_units_Z 16
_cell_length_a 19.732711
_cell_length_b 22.976545
_cell_length_c 8.065706
_cell_angle_alpha 141.575833
_cell_angle_beta 144.488008
_cell_angle_gamma 22.989160
_cell_volume 820.203377
_symmetry_space_group_name_H-M "P -1"
_symmetry_group_IT_number 2
_symmetry_cell_setting 'triclinic'
loop_
_space_group_symop_operation_xyz
x,y,z
-x,-y,-z
loop_
_atom_site_type_symbol
_atom_site_label
_atom_site_fract_x
_atom_site_fract_y
_atom_site_fract_z
Si Si1 0.744964 0.229146 0.089563
Si Si2 0.371766 0.883838 0.899705
Si Si3 0.548063 0.680568 0.101083
Si Si4 0.027929 0.198081 0.018263
Si Si5 0.085112 0.914119 0.247427
Si Si6 0.078332 0.542243 0.464622
Si Si7 0.286073 0.559977 0.337141
Si Si8 0.240496 0.403426 0.113549
O O1 0.676475 0.375215 0.328485
O O2 0.575255 0.264197 0.861041
O O3 0.821239 0.180172 0.946700
O O4 0.909611 0.088148 0.225654
O O5 0.236846 0.882847 0.573494
O O6 0.550879 0.771056 0.883290
O O7 0.454838 0.813300 0.090475
O O8 0.232445 0.058716 0.031556
O O9 0.758361 0.573521 0.332322
O O10 0.553520 0.581762 0.780648
O O11 0.980620 0.132192 0.876388
O O12 0.880847 0.305989 0.818585
O O13 0.003061 0.302469 0.322395
O O14 0.177685 0.465543 0.313709
O O15 0.911293 0.572940 0.210085
O O16 0.237998 0.501111 0.223303
#
# Coordination Sequence:
#
# PCOD9002359 Si02
#       8
#     2   2   2   2   2   2   2   2
#     4  11  20  35  56  89 120 156 188 231 287 350
#     4  11  21  38  61  88 120 154 191 237 288 346
#     4  10  21  36  60  86 116 154 193 237 287 344
#     4  11  21  38  61  88 120 154 191 237 288 346
#     4  11  22  34  58  86 126 152 185 236 292 342
#     4  10  23  43  62  83 115 153 196 245 291 338
#     4  10  21  36  60  86 116 154 193 237 287 344
#     4  10  23  43  62  83 115 153 196 245 291 338
#
# _framework density 19.507358
#
# number of rings (size 3 to 8) (size 9 to 14) (size 15 to 20)
#    0.000    1.500    2.500    3.000    0.000    8.000 
#    0.000    6.250    0.000    3.000    0.000    0.000 
#    0.000    0.000    0.000    0.000    0.000    0.000 
#
# Total GULP energy -89330.947518 kJ/mol
# GULP energy per Si atom -5583.184220 kJ/mol
# Density = 1.946296 g / cm^3
# Si number density = 19.507358 Si / 1000 Ang^3
#
#
#
# Elastic Constant Matrix: (Units=GPa)
#
#
# Indices 1 2 3 4 5 6 
#
# 1 59.8659 11.1791 1.8377 -1.1390 4.1188 -9.7304
# 2 11.1791 74.6946 2.7232 -6.1867 -1.3831 -13.5275
# 3 1.8377 2.7232 65.2371 -13.6423 0.1506 -11.5271
# 4 -1.1390 -6.1867 -13.6423 22.0390 -4.9610 -6.6217
# 5 4.1188 -1.3831 0.1506 -4.9610 20.4264 -3.8978
# 6 -9.7304 -13.5275 -11.5271 -6.6217 -3.8978 30.1611
#
#
#
# Elastic Compliance Matrix: (Units=1/GPa)
#
#
# Indices 1 2 3 4 5 6 
#
# 1 0.018095 -0.001514 0.001123 0.002515 -0.002027 0.005878
# 2 -0.001514 0.016819 0.004056 0.012329 0.006733 0.012182
# 3 0.001123 0.004056 0.022739 0.022250 0.008501 0.016855
# 4 0.002515 0.012329 0.022250 0.079359 0.026242 0.035659
# 5 -0.002027 0.006733 0.008501 0.026242 0.059777 0.019101
# 6 0.005878 0.012182 0.016855 0.035659 0.019101 0.057255
#
#
# Mechanical properties :
#
#
# Convention : Reuss Voigt Hill
#
# Bulk Modulus (GPa) = 15.38880 25.69751 20.54316
# Shear Modulus (GPa) = 18.63067 26.79579 22.71323
#
# Velocity S-wave (km/s) = 3.09375 3.71027 3.41595
# Velocity P-wave (km/s) = 4.54616 5.61753 5.11000
#
# Compressibility (1/GPa) = 0.06498232
#
# Stress axis : x y z
#
# Youngs Moduli (GPa) = 55.26410 59.45783 43.97672
#
# Poissons Ratio (x) = 0.09001 -0.04937
# Poissons Ratio (y) = 0.08366 -0.17836
# Poissons Ratio (z) = -0.06204 -0.24115
#
# Static dielectric constant tensor:
#      x y z
#    x 1.676010 -0.023820 -0.016560 
#    y -0.023820 1.689940 0.004340 
#    z -0.016560 0.004340 1.679820 
# 
# From -- ./inp_files/184075.got.cif
#   From: 2010.05.17/outbox.cif.g08.bks.cpg/sg2_93_cif.got.tgz:184075.got - 2010.06.03 11:33:40.
