data_PCOD9002789
_publ_section_title
;
Structure prediction by ZEFSAII (Michael W. Deem and Ramdas Pophale) SiO2 
 PCOD9002789
Probable space group: P -1
;
_chemical_formula_sum "Si O2"
_cell_formula_units_Z 16
_cell_length_a 12.162838
_cell_length_b 9.659357
_cell_length_c 17.673835
_cell_angle_alpha 28.284998
_cell_angle_beta 133.573596
_cell_angle_gamma 131.515343
_cell_volume 703.352180
_symmetry_space_group_name_H-M "P -1"
_symmetry_group_IT_number 2
_symmetry_cell_setting 'triclinic'
loop_
_space_group_symop_operation_xyz
x,y,z
-x,-y,-z
loop_
_atom_site_type_symbol
_atom_site_label
_atom_site_fract_x
_atom_site_fract_y
_atom_site_fract_z
Si Si1 0.991454 0.639324 0.683750
Si Si2 0.426912 0.736267 0.521604
Si Si3 0.465896 0.283872 0.894024
Si Si4 0.743321 0.212630 0.154942
Si Si5 0.667938 0.622654 0.491410
Si Si6 0.022976 0.840653 0.825844
Si Si7 0.258556 0.964124 0.452763
Si Si8 0.865516 0.672249 0.238872
O O1 0.807484 0.552539 0.642881
O O2 0.107315 0.596964 0.826939
O O3 0.054117 0.447798 0.738362
O O4 0.000000 0.000000 0.500000
O O5 0.458393 0.522453 0.708906
O O6 0.325613 0.552012 0.499900
O O7 0.331679 0.966108 0.403363
O O8 0.592774 0.905447 0.489989
O O9 0.305782 0.234139 0.889520
O O10 0.606618 0.358617 0.984234
O O11 0.500000 0.000000 0.000000
O O12 0.820562 0.066875 0.191207
O O13 0.682391 0.964730 0.307858
O O14 0.500000 0.500000 0.500000
O O15 0.878814 0.857213 0.695689
O O16 0.031134 0.067954 0.790189
O O17 0.000000 0.500000 0.000000
O O18 0.176908 0.632636 0.588220
#
# Coordination Sequence:
#
# PCOD9002789 Si02
#       8
#     2   2   2   2   2   2   2   2
#     4  10  24  44  67 101 142 186 239 289 359 429
#     4  10  21  37  64 100 132 174 238 301 342 430
#     4  11  20  41  68 101 139 185 239 300 366 416
#     4  11  23  43  67 101 145 185 233 299 353 431
#     4  11  23  39  68  98 137 186 235 288 354 420
#     4  12  24  40  72 103 141 188 239 298 365 427
#     4  10  21  36  64  99 133 174 236 296 356 417
#     4  11  23  42  71  99 139 191 236 297 362 429
#
# _framework density 22.748207000000001
#
# number of rings (size 3 to 8) (size 9 to 14) (size 15 to 20)
#    0.000    1.250    2.500    4.125    5.250    0.500 
#    0.000    0.625    2.750    0.000    0.000    0.000 
#    0.000    0.000    0.000    0.000    0.000    0.000 
#
# Total GULP energy -89232.598080 kJ/mol
# GULP energy per Si atom -5577.037380 kJ/mol
# Density = 2.269643 g / cm^3
# Si number density = 22.748207 Si / 1000 Ang^3
#
#
#
# Elastic Constant Matrix: (Units=GPa)
#
#
# Indices 1 2 3 4 5 6 
#
# 1 105.1890 26.3198 22.2137 4.5284 22.2733 12.6298
# 2 26.3198 140.9932 27.7319 19.9654 8.2014 9.7238
# 3 22.2137 27.7319 55.2653 4.4253 3.5182 12.0920
# 4 4.5284 19.9654 4.4253 42.8345 10.1217 10.0388
# 5 22.2733 8.2014 3.5182 10.1217 29.8448 2.4729
# 6 12.6298 9.7238 12.0920 10.0388 2.4729 42.6796
#
#
#
# Elastic Compliance Matrix: (Units=1/GPa)
#
#
# Indices 1 2 3 4 5 6 
#
# 1 0.012757 -0.001316 -0.003517 0.002428 -0.009360 -0.002507
# 2 -0.001316 0.008506 -0.003530 -0.003587 0.000254 0.000280
# 3 -0.003517 -0.003530 0.022175 0.000532 0.001184 -0.004631
# 4 0.002428 -0.003587 0.000532 0.028530 -0.010052 -0.006180
# 5 -0.009360 0.000254 0.001184 -0.010052 0.043508 0.002220
# 6 -0.002507 0.000280 -0.004631 -0.006180 0.002220 0.026746
#
#
# Mechanical properties :
#
#
# Convention : Reuss Voigt Hill
#
# Bulk Modulus (GPa) = 37.43589 50.44205 43.93897
# Shear Modulus (GPa) = 29.78822 38.08394 33.93608
#
# Velocity S-wave (km/s) = 3.62259 4.09608 3.86659
# Velocity P-wave (km/s) = 5.83009 6.67778 6.26828
#
# Compressibility (1/GPa) = 0.02671234
#
# Stress axis : x y z
#
# Youngs Moduli (GPa) = 78.38680 117.56038 45.09614
#
# Poissons Ratio (x) = 0.15471 0.15861
# Poissons Ratio (y) = 0.10316 0.15918
# Poissons Ratio (z) = 0.27571 0.41496
#
# Static dielectric constant tensor:
#      x y z
#    x 1.935240 -0.029640 0.003820 
#    y -0.029640 1.947150 -0.007540 
#    z 0.003820 -0.007540 1.860540 
# 
# From -- ./inp_files/566387.got.cif
#   From: 2010.05.17/outbox.cif.g08.bks.cpg/sg2_284_cif.got.tgz:566387.got - 2010.06.03 11:33:40.
