data_PCOD9002250
_publ_section_title
;
Structure prediction by ZEFSAII (Michael W. Deem and Ramdas Pophale) SiO2 
 PCOD9002250
Probable space group: P -1
;
_chemical_formula_sum "Si O2"
_cell_formula_units_Z 16
_cell_length_a 23.359610
_cell_length_b 11.489860
_cell_length_c 20.018393
_cell_angle_alpha 36.468818
_cell_angle_beta 16.516190
_cell_angle_gamma 44.050081
_cell_volume 863.366208
_symmetry_space_group_name_H-M "P -1"
_symmetry_group_IT_number 2
_symmetry_cell_setting 'triclinic'
loop_
_space_group_symop_operation_xyz
x,y,z
-x,-y,-z
loop_
_atom_site_type_symbol
_atom_site_label
_atom_site_fract_x
_atom_site_fract_y
_atom_site_fract_z
Si Si1 0.117762 0.995129 0.276641
Si Si2 0.248437 0.106440 0.680492
Si Si3 0.286650 0.437896 0.929114
Si Si4 0.681661 0.550543 0.829095
Si Si5 0.498194 0.429382 0.835388
Si Si6 0.137357 0.830453 0.183626
Si Si7 0.432810 0.124299 0.614389
Si Si8 0.164498 0.778567 0.458068
O O1 0.894525 0.043355 0.516367
O O2 0.138020 0.911056 0.220801
O O3 0.145331 0.842666 0.373440
O O4 0.285446 0.219087 0.001070
O O5 0.328891 0.344074 0.458362
O O6 0.313899 0.097972 0.688503
O O7 0.386734 0.987721 0.540943
O O8 0.000000 0.000000 0.000000
O O9 0.343974 0.444507 0.940453
O O10 0.445716 0.633656 0.625791
O O11 0.039219 0.420980 0.207505
O O12 0.750947 0.347993 0.859992
O O13 0.892517 0.723299 0.487753
O O14 0.500000 0.500000 0.000000
O O15 0.607525 0.616679 0.952542
O O16 0.619999 0.269777 0.750725
O O17 0.265441 0.014476 0.908082
#
# Coordination Sequence:
#
# PCOD9002250 Si02
#       8
#     2   2   2   2   2   2   2   2
#     4   9  20  40  59  86 120 160 189 244 294 340
#     4  10  21  36  59  86 117 152 199 241 291 347
#     4   9  20  37  59  89 114 152 201 237 292 341
#     4  11  25  39  59  89 117 159 193 246 306 351
#     4  11  20  36  62  87 111 151 200 246 295 341
#     4  11  23  42  58  84 128 151 198 241 297 363
#     4  10  21  37  59  87 117 160 191 241 295 351
#     4   9  19  37  58  86 117 146 200 246 282 338
#
# _framework density 18.532112000000001
#
# number of rings (size 3 to 8) (size 9 to 14) (size 15 to 20)
#    0.750    1.250    1.250    2.250    1.750    2.000 
#    2.250    0.000    0.000    1.500    0.000    0.000 
#    0.000    0.000    0.000    0.000    0.000    0.000 
#
# Total GULP energy -89234.122012 kJ/mol
# GULP energy per Si atom -5577.132626 kJ/mol
# Density = 1.848993 g / cm^3
# Si number density = 18.532112 Si / 1000 Ang^3
#
#
#
# Elastic Constant Matrix: (Units=GPa)
#
#
# Indices 1 2 3 4 5 6 
#
# 1 35.6647 -1.2187 23.1364 3.5951 6.9563 10.8535
# 2 -1.2187 32.0557 14.1363 -0.0225 0.9926 -0.9480
# 3 23.1364 14.1363 111.6596 -13.4054 7.1807 -1.8334
# 4 3.5951 -0.0225 -13.4054 35.3849 -0.0447 -2.0062
# 5 6.9563 0.9926 7.1807 -0.0447 33.5776 -1.3518
# 6 10.8535 -0.9480 -1.8334 -2.0062 -1.3518 22.2778
#
#
#
# Elastic Compliance Matrix: (Units=1/GPa)
#
#
# Indices 1 2 3 4 5 6 
#
# 1 0.045689 0.006280 -0.011375 -0.010339 -0.008213 -0.024358
# 2 0.006280 0.034013 -0.005935 -0.003005 -0.001140 -0.002440
# 3 -0.011375 -0.005935 0.012949 0.006451 0.000051 0.006939
# 4 -0.010339 -0.003005 0.006451 0.032232 0.001233 0.008417
# 5 -0.008213 -0.001140 0.000051 0.001233 0.031749 0.005994
# 6 -0.024358 -0.002440 0.006939 0.008417 0.005994 0.058343
#
#
# Mechanical properties :
#
#
# Convention : Reuss Voigt Hill
#
# Bulk Modulus (GPa) = 14.16603 27.94314 21.05458
# Shear Modulus (GPa) = 19.18900 27.80314 23.49607
#
# Velocity S-wave (km/s) = 3.22133 3.87753 3.56456
# Velocity P-wave (km/s) = 4.63644 5.92942 5.32234
#
# Compressibility (1/GPa) = 0.07059140
#
# Stress axis : x y z
#
# Youngs Moduli (GPa) = 21.88693 29.40082 77.22419
#
# Poissons Ratio (x) = -0.18464 0.87844
# Poissons Ratio (y) = -0.13745 0.45831
# Poissons Ratio (z) = 0.24897 0.17449
#
# Static dielectric constant tensor:
#      x y z
#    x 1.595620 0.000930 -0.017580 
#    y 0.000930 1.651840 -0.014820 
#    z -0.017580 -0.014820 1.661710 
# 
# From -- ./inp_files/577779.got.cif
#   From: 2010.05.17/outbox.cif.g08.bks.cpg/sg2_289_cif.got.tgz:577779.got - 2010.06.03 11:33:40.
