data_PCOD9002582
_publ_section_title
;
Structure prediction by ZEFSAII (Michael W. Deem and Ramdas Pophale) SiO2 
 PCOD9002582
Probable space group: P -1
;
_chemical_formula_sum "Si O2"
_cell_formula_units_Z 16
_cell_length_a 13.144115
_cell_length_b 11.044995
_cell_length_c 10.542046
_cell_angle_alpha 126.075371
_cell_angle_beta 47.491107
_cell_angle_gamma 134.545599
_cell_volume 784.618094
_symmetry_space_group_name_H-M "P -1"
_symmetry_group_IT_number 2
_symmetry_cell_setting 'triclinic'
loop_
_space_group_symop_operation_xyz
x,y,z
-x,-y,-z
loop_
_atom_site_type_symbol
_atom_site_label
_atom_site_fract_x
_atom_site_fract_y
_atom_site_fract_z
Si Si1 0.140931 0.908008 0.604760
Si Si2 0.512059 0.975911 0.706419
Si Si3 0.312931 0.723931 0.062726
Si Si4 0.054656 0.700602 0.089605
Si Si5 0.492681 0.335373 0.335733
Si Si6 0.171729 0.808968 0.785943
Si Si7 0.992289 0.442524 0.614923
Si Si8 0.138579 0.151844 0.556678
O O1 0.104363 0.865104 0.757452
O O2 0.026058 0.745407 0.508587
O O3 0.319990 0.938786 0.457205
O O4 0.149489 0.074247 0.635816
O O5 0.477252 0.790039 0.674713
O O6 0.359611 0.940078 0.731556
O O7 0.553150 0.110721 0.870809
O O8 0.390081 0.632042 0.860625
O O9 0.170293 0.597439 0.200443
O O10 0.218202 0.783854 0.084517
O O11 0.088005 0.789803 0.979807
O O12 0.000000 0.500000 0.000000
O O13 0.500000 0.500000 0.500000
O O14 0.305444 0.221270 0.387764
O O15 0.915392 0.710024 0.285681
O O16 0.135121 0.612535 0.665811
O O17 0.000000 0.500000 0.500000
O O18 0.000000 0.000000 0.500000
#
# Coordination Sequence:
#
# PCOD9002582 Si02
#       8
#     2   2   2   2   2   2   2   2
#     4   9  21  41  57  91 124 164 199 260 313 365
#     4  10  21  36  62  88 124 161 207 254 307 369
#     4  11  21  40  61  91 126 156 211 255 307 367
#     4  12  23  37  64  96 119 160 212 255 303 372
#     4  11  23  37  58  92 128 159 199 258 317 362
#     4  11  21  34  65  90 120 161 214 248 302 374
#     4   9  19  36  61  90 117 161 205 254 300 366
#     4  11  25  40  62  90 127 160 201 259 318 364
#
# _framework density 20.392087
#
# number of rings (size 3 to 8) (size 9 to 14) (size 15 to 20)
#    0.000    1.500    2.500    3.750    1.750    0.500 
#    0.000    0.000    0.000    0.000    0.000    9.625 
#    0.000    0.000    0.000    0.000    0.000    0.000 
#
# Total GULP energy -89244.724270 kJ/mol
# GULP energy per Si atom -5577.795267 kJ/mol
# Density = 2.034567 g / cm^3
# Si number density = 20.392087 Si / 1000 Ang^3
#
#
#
# Elastic Constant Matrix: (Units=GPa)
#
#
# Indices 1 2 3 4 5 6 
#
# 1 65.1081 16.9909 40.0565 5.9328 -0.7010 12.3765
# 2 16.9909 68.7230 16.7052 10.1328 8.0832 7.5387
# 3 40.0565 16.7052 123.4671 -10.7502 6.4462 -6.4589
# 4 5.9328 10.1328 -10.7502 37.8057 -3.4026 4.7178
# 5 -0.7010 8.0832 6.4462 -3.4026 33.0800 7.7862
# 6 12.3765 7.5387 -6.4589 4.7178 7.7862 33.4245
#
#
#
# Elastic Compliance Matrix: (Units=1/GPa)
#
#
# Indices 1 2 3 4 5 6 
#
# 1 0.023583 -0.002686 -0.008401 -0.003638 0.004859 -0.010368
# 2 -0.002686 0.016978 -0.001715 -0.004782 -0.003996 -0.001560
# 3 -0.008401 -0.001715 0.011886 0.004146 -0.003042 0.005918
# 4 -0.003638 -0.004782 0.004146 0.030065 0.003825 -0.001908
# 5 0.004859 -0.003996 -0.003042 0.003825 0.034673 -0.010103
# 6 -0.010368 -0.001560 0.005918 -0.001908 -0.010103 0.037875
#
#
# Mechanical properties :
#
#
# Convention : Reuss Voigt Hill
#
# Bulk Modulus (GPa) = 37.25239 44.97814 41.11527
# Shear Modulus (GPa) = 26.36954 33.09842 29.73398
#
# Velocity S-wave (km/s) = 3.59991 4.03314 3.82267
# Velocity P-wave (km/s) = 5.96547 6.61762 6.29999
#
# Compressibility (1/GPa) = 0.02684391
#
# Stress axis : x y z
#
# Youngs Moduli (GPa) = 42.40318 58.89836 84.13220
#
# Poissons Ratio (x) = 0.15822 0.70675
# Poissons Ratio (y) = 0.11391 0.14428
# Poissons Ratio (z) = 0.35621 0.10101
#
# Static dielectric constant tensor:
#      x y z
#    x 1.717820 0.000880 0.014970 
#    y 0.000880 1.793770 0.010670 
#    z 0.014970 0.010670 1.763030 
# 
# From -- ./inp_files/423777.got.cif
#   From: 2010.05.17/outbox.cif.g08.bks.cpg/sg2_212_cif.got.tgz:423777.got - 2010.06.03 11:33:40.
