data_PCOD9002318
_publ_section_title
;
Structure prediction by ZEFSAII (Michael W. Deem and Ramdas Pophale) SiO2 
 PCOD9002318
Probable space group: P -1
;
_chemical_formula_sum "Si O2"
_cell_formula_units_Z 15
_cell_length_a 7.949361
_cell_length_b 7.819109
_cell_length_c 17.238497
_cell_angle_alpha 115.378204
_cell_angle_beta 71.004697
_cell_angle_gamma 142.733720
_cell_volume 585.960498
_symmetry_space_group_name_H-M "P -1"
_symmetry_group_IT_number 2
_symmetry_cell_setting 'triclinic'
loop_
_space_group_symop_operation_xyz
x,y,z
-x,-y,-z
loop_
_atom_site_type_symbol
_atom_site_label
_atom_site_fract_x
_atom_site_fract_y
_atom_site_fract_z
Si Si1 0.362492 0.682685 0.780544
Si Si2 0.407129 0.556767 0.442052
Si Si3 0.425287 0.430773 0.140724
Si Si4 0.000000 0.000000 0.500000
Si Si5 0.162487 0.500396 0.308241
Si Si6 0.578608 0.162942 0.363667
Si Si7 0.171667 0.672010 0.123309
Si Si8 0.957660 0.783913 0.042987
O O1 0.481753 0.623475 0.809646
O O2 0.422163 0.701919 0.685147
O O3 0.039251 0.447247 0.799763
O O4 0.521044 0.006761 0.841888
O O5 0.740373 0.819013 0.442490
O O6 0.292874 0.509939 0.366018
O O7 0.339316 0.670544 0.536254
O O8 0.234528 0.246635 0.447161
O O9 0.272304 0.482152 0.212420
O O10 0.703563 0.690106 0.100795
O O11 0.217820 0.134100 0.062223
O O12 0.831615 0.230137 0.315771
O O13 0.290787 0.817413 0.350882
O O14 0.063565 0.718997 0.079040
O O15 0.139850 0.432085 0.053250
#
# Coordination Sequence:
#
# PCOD9002318 Si02
#       8
#     2   2   2   1   2   2   2   2
#     4  10  21  36  59  93 120 158 208 262 308 360
#     4  11  24  45  66  97 123 172 206 258 311 371
#     4  10  21  36  59  93 120 158 208 262 308 360
#     4  10  24  40  68 100 124 146 204 282 304 352
#     4  12  25  43  65  90 130 171 211 254 307 380
#     4  12  25  43  65  90 130 171 211 254 307 380
#     4   9  17  33  58  88 121 156 202 258 313 365
#     4   9  17  33  58  88 121 156 202 258 313 365
#
# _framework density 25.598994999999999
#
# number of rings (size 3 to 8) (size 9 to 14) (size 15 to 20)
#    0.000    1.600    0.000    4.800    3.733    3.200 
#    4.800    0.000    0.000   16.000    0.000    0.000 
#    0.000    0.000    0.000    0.000    0.000    0.000 
#
# Total GULP energy -83818.644822 kJ/mol
# GULP energy per Si atom -5587.909655 kJ/mol
# Density = 2.554073 g / cm^3
# Si number density = 25.598995 Si / 1000 Ang^3
#
#
#
# Elastic Constant Matrix: (Units=GPa)
#
#
# Indices 1 2 3 4 5 6 
#
# 1 67.9162 18.5107 13.5360 7.3708 7.6139 8.9417
# 2 18.5107 87.7318 -6.6361 -8.9838 12.8906 15.5432
# 3 13.5360 -6.6361 105.9096 -8.2138 1.2098 -1.1509
# 4 7.3708 -8.9838 -8.2138 17.6458 1.4099 7.3474
# 5 7.6139 12.8906 1.2098 1.4099 39.0965 3.2144
# 6 8.9417 15.5432 -1.1509 7.3474 3.2144 44.3714
#
#
#
# Elastic Compliance Matrix: (Units=1/GPa)
#
#
# Indices 1 2 3 4 5 6 
#
# 1 0.018260 -0.005156 -0.003559 -0.011841 -0.001327 0.000091
# 2 -0.005156 0.016014 0.002780 0.014704 -0.004348 -0.006618
# 3 -0.003559 0.002780 0.010725 0.008510 -0.000753 -0.001333
# 4 -0.011841 0.014704 0.008510 0.079848 -0.004415 -0.015446
# 5 -0.001327 -0.004348 -0.000753 -0.004415 0.027410 0.000516
# 6 0.000091 -0.006618 -0.001333 -0.015446 0.000516 0.027323
#
#
# Mechanical properties :
#
#
# Convention : Reuss Voigt Hill
#
# Bulk Modulus (GPa) = 30.18363 34.70875 32.44619
# Shear Modulus (GPa) = 24.69237 35.96588 30.32912
#
# Velocity S-wave (km/s) = 3.10914 3.75236 3.44579
# Velocity P-wave (km/s) = 4.97047 5.68873 5.34169
#
# Compressibility (1/GPa) = 0.03313054
#
# Stress axis : x y z
#
# Youngs Moduli (GPa) = 54.76343 62.44721 93.23856
#
# Poissons Ratio (x) = 0.32195 0.33184
# Poissons Ratio (y) = 0.28234 -0.25924
# Poissons Ratio (z) = 0.19490 -0.17363
#
# Static dielectric constant tensor:
#      x y z
#    x 2.079960 -0.065490 -0.004320 
#    y -0.065490 1.881570 0.011410 
#    z -0.004320 0.011410 2.007620 
# 
# From -- ./inp_files/326920.got.cif
#   From: 2010.05.17/outbox.cif.g08.bks.cpg/sg2_164_cif.got.tgz:326920.got - 2010.06.03 11:33:40.
