data_PCOD9002896
_publ_section_title
;
Structure prediction by ZEFSAII (Michael W. Deem and Ramdas Pophale) SiO2 
 PCOD9002896
Probable space group: P -1
;
_chemical_formula_sum "Si O2"
_cell_formula_units_Z 14
_cell_length_a 19.837533
_cell_length_b 10.952728
_cell_length_c 5.991361
_cell_angle_alpha 80.041821
_cell_angle_beta 70.234153
_cell_angle_gamma 137.928971
_cell_volume 607.634650
_symmetry_space_group_name_H-M "P -1"
_symmetry_group_IT_number 2
_symmetry_cell_setting 'triclinic'
loop_
_space_group_symop_operation_xyz
x,y,z
-x,-y,-z
loop_
_atom_site_type_symbol
_atom_site_label
_atom_site_fract_x
_atom_site_fract_y
_atom_site_fract_z
Si Si1 0.282752 0.564143 0.273464
Si Si2 0.122560 0.095800 0.738918
Si Si3 0.121175 0.839977 0.083345
Si Si4 0.543312 0.816004 0.861212
Si Si5 0.444448 0.276153 0.618843
Si Si6 0.832361 0.372720 0.335116
Si Si7 0.945440 0.686646 0.714550
O O1 0.249724 0.380488 0.474070
O O2 0.230492 0.603347 0.462247
O O3 0.171818 0.404553 0.245195
O O4 0.449187 0.801961 0.961182
O O5 0.055346 0.935755 0.645530
O O6 0.150189 0.019586 0.887860
O O7 0.000000 0.000000 0.000000
O O8 0.992804 0.585627 0.169698
O O9 0.043624 0.750930 0.428591
O O10 0.273176 0.006189 0.881294
O O11 0.504984 0.695311 0.698167
O O12 0.712948 0.091306 0.573086
O O13 0.523206 0.731057 0.164656
O O14 0.500000 0.500000 0.500000
O O15 0.853200 0.458016 0.040965
#
# Coordination Sequence:
#
# PCOD9002896 Si02
#       7
#     2   2   2   2   2   2   2
#     4  11  23  40  67 103 143 179 226 290 350 419
#     4  11  19  36  63 107 133 173 227 288 356 401
#     4  10  24  42  71  98 140 177 237 293 337 411
#     4  12  30  47  74 101 144 191 232 280 354 423
#     4  12  30  52  72 102 138 189 239 289 344 416
#     4  10  24  45  68 107 137 179 233 288 354 411
#     4  10  21  36  68  97 140 173 227 287 351 397
#
# _framework density 23.040161999999999
#
# number of rings (size 3 to 8) (size 9 to 14) (size 15 to 20)
#    0.000    1.143    4.286    2.143   12.000    1.714 
#    0.000    0.000    0.000    0.000    0.000    0.000 
#    0.000    0.000    0.000    0.000    0.000    0.000 
#
# Total GULP energy -78060.120518 kJ/mol
# GULP energy per Si atom -5575.722894 kJ/mol
# Density = 2.298772 g / cm^3
# Si number density = 23.040162 Si / 1000 Ang^3
#
#
#
# Elastic Constant Matrix: (Units=GPa)
#
#
# Indices 1 2 3 4 5 6 
#
# 1 95.7770 -8.4864 50.0454 11.0393 12.9963 14.5964
# 2 -8.4864 109.4103 36.8449 10.0447 -22.6020 -17.3125
# 3 50.0454 36.8449 66.0273 11.0426 8.3975 33.2267
# 4 11.0393 10.0447 11.0426 47.3935 5.5385 -5.1119
# 5 12.9963 -22.6020 8.3975 5.5385 63.8583 -11.4141
# 6 14.5964 -17.3125 33.2267 -5.1119 -11.4141 18.9470
#
#
#
# Elastic Compliance Matrix: (Units=1/GPa)
#
#
# Indices 1 2 3 4 5 6 
#
# 1 0.014392 -0.001617 -0.001273 -0.003640 -0.005649 -0.014717
# 2 -0.001617 0.002041 0.010817 -0.004233 -0.003410 -0.019055
# 3 -0.001273 0.010817 -0.009577 0.002705 0.011416 0.035266
# 4 -0.003640 -0.004233 0.002705 0.022416 -0.003378 -0.001794
# 5 -0.005649 -0.003410 0.011416 -0.003378 0.012186 -0.012353
# 6 -0.014717 -0.019055 0.035266 -0.001794 -0.012353 -0.023065
#
#
# Mechanical properties :
#
#
# Convention : Reuss Voigt Hill
#
# Bulk Modulus (GPa) = 44.03264 47.55803 45.79534
# Shear Modulus (GPa) = 494.63743 38.89381 266.76562
#
# Velocity S-wave (km/s) = 14.66802 4.11309 10.77192
# Velocity P-wave (km/s) = 17.49345 6.57593 13.21483
#
# Compressibility (1/GPa) = 0.02271042
#
# Stress axis : x y z
#
# Youngs Moduli (GPa) = 69.48455 489.93482 -104.41511
#
# Poissons Ratio (x) = 0.79202 -0.13289
# Poissons Ratio (y) = 0.11233 1.12942
# Poissons Ratio (z) = 0.08843 -5.29946
#
# Static dielectric constant tensor:
#      x y z
#    x 1.528940 0.485200 -1.026210 
#    y 0.485200 1.138150 1.662330 
#    z -1.026210 1.662330 -1.752920 
# 
# From -- ./inp_files/67083.got.cif
#   From: 2010.05.17/outbox.cif.g08.bks.cpg/sg2_34_cif.got.tgz:67083.got - 2010.06.03 11:33:40.
