data_PCOD9002263
_publ_section_title
;
Structure prediction by ZEFSAII (Michael W. Deem and Ramdas Pophale) SiO2 
 PCOD9002263
Probable space group: P -1
;
_chemical_formula_sum "Si O2"
_cell_formula_units_Z 15
_cell_length_a 7.974265
_cell_length_b 14.321047
_cell_length_c 9.915213
_cell_angle_alpha 125.069302
_cell_angle_beta 98.886688
_cell_angle_gamma 121.412279
_cell_volume 601.136224
_symmetry_space_group_name_H-M "P -1"
_symmetry_group_IT_number 2
_symmetry_cell_setting 'triclinic'
loop_
_space_group_symop_operation_xyz
x,y,z
-x,-y,-z
loop_
_atom_site_type_symbol
_atom_site_label
_atom_site_fract_x
_atom_site_fract_y
_atom_site_fract_z
Si Si1 0.872567 0.687368 0.254264
Si Si2 0.230196 0.557581 0.154659
Si Si3 0.215142 0.090066 0.893445
Si Si4 0.434363 0.881855 0.513523
Si Si5 0.000000 0.000000 0.500000
Si Si6 0.704619 0.476922 0.582551
Si Si7 0.610749 0.479787 0.303721
Si Si8 0.288659 0.059952 0.158353
O O1 0.724017 0.615836 0.316059
O O2 0.133002 0.752778 0.384839
O O3 0.924393 0.832013 0.306757
O O4 0.723391 0.530857 0.999658
O O5 0.468486 0.768242 0.367734
O O6 0.143333 0.489436 0.240463
O O7 0.000000 0.500000 0.000000
O O8 0.115040 0.004920 0.663800
O O9 0.472770 0.296758 0.080798
O O10 0.267408 0.024847 0.966710
O O11 0.986923 0.048060 0.901198
O O12 0.584159 0.964567 0.741293
O O13 0.500000 0.000000 0.500000
O O14 0.809654 0.545518 0.501984
O O15 0.602559 0.548113 0.676060
O O16 0.470649 0.266240 0.361980
#
# Coordination Sequence:
#
# PCOD9002263 Si02
#       8
#     2   2   2   2   1   2   2   2
#     4  11  24  40  61  91 123 158 207 259 306 365
#     4   9  20  40  62  87 119 159 202 247 303 367
#     4  10  21  36  59  87 119 157 202 252 304 360
#     4  10  21  40  65  91 122 164 208 253 309 369
#     4  12  24  38  58  90 124 158 198 258 316 358
#     4   9  18  36  60  85 119 161 200 244 304 367
#     4  10  21  36  59  90 120 155 201 255 309 359
#     4   9  19  39  61  84 116 161 208 246 294 365
#
# _framework density 24.952746000000001
#
# number of rings (size 3 to 8) (size 9 to 14) (size 15 to 20)
#    0.000    2.133    0.000    2.400    0.000    8.533 
#    0.000   11.333    0.000    0.000    0.000    0.000 
#    0.000    0.000    0.000    0.000    0.000    0.000 
#
# Total GULP energy -83570.330115 kJ/mol
# GULP energy per Si atom -5571.355341 kJ/mol
# Density = 2.489595 g / cm^3
# Si number density = 24.952746 Si / 1000 Ang^3
#
#
#
# Elastic Constant Matrix: (Units=GPa)
#
#
# Indices 1 2 3 4 5 6 
#
# 1 30.3553 18.3417 23.0073 -12.1126 7.9773 -21.5875
# 2 18.3417 101.4588 61.2289 -28.4726 9.6596 -36.0555
# 3 23.0073 61.2289 138.4798 -55.1368 13.7900 -20.6655
# 4 -12.1126 -28.4726 -55.1368 51.9606 -25.0771 9.0800
# 5 7.9773 9.6596 13.7900 -25.0771 43.1142 -5.3009
# 6 -21.5875 -36.0555 -20.6655 9.0800 -5.3009 33.2219
#
#
#
# Elastic Compliance Matrix: (Units=1/GPa)
#
#
# Indices 1 2 3 4 5 6 
#
# 1 0.071997 0.011839 -0.007143 0.004075 -0.004764 0.053315
# 2 0.011839 0.021989 -0.006306 0.003579 0.000264 0.026698
# 3 -0.007143 -0.006306 0.016196 0.015898 0.006215 -0.004764
# 4 0.004075 0.003579 0.015898 0.048726 0.022524 0.006698
# 5 -0.004764 0.000264 0.006215 0.022524 0.035193 0.000517
# 6 0.053315 0.026698 -0.004764 0.006698 0.000517 0.089008
#
#
# Mechanical properties :
#
#
# Convention : Reuss Voigt Hill
#
# Bulk Modulus (GPa) = 9.34923 52.82777 31.08850
# Shear Modulus (GPa) = 15.52873 36.84041 26.18457
#
# Velocity S-wave (km/s) = 2.49735 3.84657 3.24291
# Velocity P-wave (km/s) = 3.47428 6.39885 5.14858
#
# Compressibility (1/GPa) = 0.10696066
#
# Stress axis : x y z
#
# Youngs Moduli (GPa) = 13.88947 45.47773 61.74282
#
# Poissons Ratio (x) = -0.53840 0.44104
# Poissons Ratio (y) = -0.16443 0.38937
# Poissons Ratio (z) = 0.09921 0.28680
#
# Static dielectric constant tensor:
#      x y z
#    x 2.051050 0.044670 0.016750 
#    y 0.044670 2.128920 0.024510 
#    z 0.016750 0.024510 2.008710 
# 
# From -- ./inp_files/208784.got.cif
#   From: 2010.05.17/outbox.cif.g08.bks.cpg/sg2_105_cif.got.tgz:208784.got - 2010.06.03 11:33:40.
