data_PCOD9002894
_publ_section_title
;
Structure prediction by ZEFSAII (Michael W. Deem and Ramdas Pophale) SiO2 
 PCOD9002894
Probable space group: P -1
;
_chemical_formula_sum "Si O2"
_cell_formula_units_Z 16
_cell_length_a 12.179327
_cell_length_b 19.323107
_cell_length_c 9.467620
_cell_angle_alpha 58.142826
_cell_angle_beta 130.304554
_cell_angle_gamma 155.958055
_cell_volume 677.918644
_symmetry_space_group_name_H-M "P -1"
_symmetry_group_IT_number 2
_symmetry_cell_setting 'triclinic'
loop_
_space_group_symop_operation_xyz
x,y,z
-x,-y,-z
loop_
_atom_site_type_symbol
_atom_site_label
_atom_site_fract_x
_atom_site_fract_y
_atom_site_fract_z
Si Si1 0.443728 0.070612 0.191779
Si Si2 0.499013 0.785634 0.383181
Si Si3 0.096942 0.891871 0.492615
Si Si4 0.280255 0.573360 0.658293
Si Si5 0.169186 0.503554 0.947870
Si Si6 0.875867 0.226984 0.605130
Si Si7 0.309919 0.155207 0.826484
Si Si8 0.824401 0.189995 0.133259
O O1 0.624187 0.161794 0.392728
O O2 0.700108 0.186228 0.159901
O O3 0.243779 0.888985 0.241239
O O4 0.259881 0.057038 0.001433
O O5 0.525112 0.727319 0.582873
O O6 0.693534 0.876756 0.303970
O O7 0.151027 0.612623 0.226770
O O8 0.578356 0.907551 0.402905
O O9 0.074011 0.814742 0.432002
O O10 0.002920 0.797366 0.658580
O O11 0.909799 0.877534 0.310921
O O12 0.367986 0.608945 0.856590
O O13 0.000000 0.500000 0.500000
O O14 0.151171 0.421803 0.666545
O O15 0.357719 0.641522 0.077596
O O16 0.056165 0.356733 0.051375
O O17 0.500000 0.000000 0.000000
#
# Coordination Sequence:
#
# PCOD9002894 Si02
#       8
#     2   2   2   2   2   2   2   2
#     4  10  21  36  68  93 132 172 233 268 328 391
#     4  11  23  43  69  99 131 180 228 279 326 407
#     4  11  26  42  69  99 141 177 221 281 346 395
#     4  10  23  40  67 100 134 169 224 279 335 390
#     4  11  23  39  70  96 130 174 230 276 330 396
#     4  10  23  41  67 101 135 180 226 279 329 400
#     4  12  25  43  67 103 137 179 220 281 348 396
#     4  11  20  39  66  96 128 174 234 279 319 397
#
# _framework density 23.601651
#
# number of rings (size 3 to 8) (size 9 to 14) (size 15 to 20)
#    0.000    1.250    2.500    3.000   14.000    1.000 
#    0.000    0.625    0.000    0.000    0.000    0.000 
#    0.000    0.000    0.000    0.000    0.000    0.000 
#
# Total GULP energy -89344.541993 kJ/mol
# GULP energy per Si atom -5584.033875 kJ/mol
# Density = 2.354793 g / cm^3
# Si number density = 23.601651 Si / 1000 Ang^3
#
#
#
# Elastic Constant Matrix: (Units=GPa)
#
#
# Indices 1 2 3 4 5 6 
#
# 1 82.9917 21.5518 51.0361 -2.2097 -11.7403 -27.0288
# 2 21.5518 94.7913 42.9092 -26.0373 -13.6048 -23.5635
# 3 51.0361 42.9092 150.8301 -42.4980 7.0027 -4.4552
# 4 -2.2097 -26.0373 -42.4980 50.3263 -3.3054 -5.7041
# 5 -11.7403 -13.6048 7.0027 -3.3054 37.8297 0.3152
# 6 -27.0288 -23.5635 -4.4552 -5.7041 0.3152 27.0777
#
#
#
# Elastic Compliance Matrix: (Units=1/GPa)
#
#
# Indices 1 2 3 4 5 6 
#
# 1 0.033451 0.011961 -0.013744 0.001901 0.017046 0.041740
# 2 0.011961 0.025626 -0.007474 0.012484 0.015107 0.035464
# 3 -0.013744 -0.007474 0.014945 0.005688 -0.009086 -0.016461
# 4 0.001901 0.012484 0.005688 0.034020 0.006826 0.020784
# 5 0.017046 0.015107 -0.009086 0.006826 0.039188 0.029648
# 6 0.041740 0.035464 -0.016461 0.020784 0.029648 0.110782
#
#
# Mechanical properties :
#
#
# Convention : Reuss Voigt Hill
#
# Bulk Modulus (GPa) = 18.01559 62.17860 40.09709
# Shear Modulus (GPa) = 16.94741 37.25445 27.10093
#
# Velocity S-wave (km/s) = 2.68257 3.97730 3.39228
# Velocity P-wave (km/s) = 4.15267 6.89160 5.68941
#
# Compressibility (1/GPa) = 0.05550749
#
# Stress axis : x y z
#
# Youngs Moduli (GPa) = 29.89405 39.02250 66.91181
#
# Poissons Ratio (x) = -0.46673 0.91967
# Poissons Ratio (y) = -0.35755 0.50008
# Poissons Ratio (z) = 0.41088 0.29164
#
# Static dielectric constant tensor:
#      x y z
#    x 1.931600 0.035040 0.004380 
#    y 0.035040 1.906010 -0.021770 
#    z 0.004380 -0.021770 1.943010 
# 
# From -- ./inp_files/263450.got.cif
#   From: 2010.05.17/outbox.cif.g08.bks.cpg/sg2_132_cif.got.tgz:263450.got - 2010.06.03 11:33:40.
