data_PCOD9002240
_publ_section_title
;
Structure prediction by ZEFSAII (Michael W. Deem and Ramdas Pophale) SiO2 
 PCOD9002240
Probable space group: P -1
;
_chemical_formula_sum "Si O2"
_cell_formula_units_Z 16
_cell_length_a 12.987780
_cell_length_b 13.833354
_cell_length_c 12.935182
_cell_angle_alpha 36.566076
_cell_angle_beta 74.290673
_cell_angle_gamma 47.396823
_cell_volume 797.647485
_symmetry_space_group_name_H-M "P -1"
_symmetry_group_IT_number 2
_symmetry_cell_setting 'triclinic'
loop_
_space_group_symop_operation_xyz
x,y,z
-x,-y,-z
loop_
_atom_site_type_symbol
_atom_site_label
_atom_site_fract_x
_atom_site_fract_y
_atom_site_fract_z
Si Si1 0.526146 0.849714 0.778737
Si Si2 0.692292 0.583306 0.740994
Si Si3 0.380970 0.672599 0.982776
Si Si4 0.029164 0.809492 0.360793
Si Si5 0.226265 0.259782 0.818618
Si Si6 0.654820 0.394285 0.615095
Si Si7 0.455340 0.961436 0.202987
Si Si8 0.050060 0.164636 0.877978
O O1 0.653202 0.655435 0.812713
O O2 0.383974 0.158414 0.511517
O O3 0.616412 0.841778 0.853428
O O4 0.434710 0.793232 0.894891
O O5 0.599108 0.521986 0.792880
O O6 0.894916 0.320220 0.870262
O O7 0.500000 0.500000 0.000000
O O8 0.175151 0.915834 0.794090
O O9 0.103877 0.563198 0.610060
O O10 0.184896 0.750795 0.381997
O O11 0.021538 0.790178 0.254602
O O12 0.396300 0.108395 0.835279
O O13 0.106117 0.281479 0.770613
O O14 0.304152 0.099549 0.042430
O O15 0.500000 0.500000 0.500000
O O16 0.565284 0.665225 0.453509
O O17 0.764209 0.153683 0.874007
#
# Coordination Sequence:
#
# PCOD9002240 Si02
#       8
#     2   2   2   2   2   2   2   2
#     4  10  21  39  61  88 126 160 208 253 307 370
#     4  10  21  37  62  91 121 161 203 265 301 359
#     4  10  21  38  60  90 124 161 207 255 306 358
#     4  11  22  36  61  92 120 156 207 260 300 368
#     4  10  21  36  59  84 122 158 197 257 308 361
#     4  11  22  37  58  88 127 158 193 251 310 365
#     4  10  21  39  56  87 122 165 201 243 316 375
#     4  12  21  37  62  93 120 152 211 255 308 359
#
# _framework density 20.058986999999998
#
# number of rings (size 3 to 8) (size 9 to 14) (size 15 to 20)
#    0.000    1.500    2.500    3.750    1.750    0.000 
#    0.000    0.625    0.000    3.000    0.000    0.000 
#    0.000    0.000    0.000    0.000    0.000    0.000 
#
# Total GULP energy -89139.581834 kJ/mol
# GULP energy per Si atom -5571.223865 kJ/mol
# Density = 2.001333 g / cm^3
# Si number density = 20.058987 Si / 1000 Ang^3
#
#
#
# Elastic Constant Matrix: (Units=GPa)
#
#
# Indices 1 2 3 4 5 6 
#
# 1 100.2008 33.7614 7.0211 -2.1676 -0.6563 -8.1809
# 2 33.7614 96.2086 23.9945 -18.9376 7.5278 0.4584
# 3 7.0211 23.9945 86.7119 -2.6277 0.2781 1.0214
# 4 -2.1676 -18.9376 -2.6277 24.7547 -3.9473 1.5316
# 5 -0.6563 7.5278 0.2781 -3.9473 36.9056 -2.3088
# 6 -8.1809 0.4584 1.0214 1.5316 -2.3088 25.3538
#
#
#
# Elastic Compliance Matrix: (Units=1/GPa)
#
#
# Indices 1 2 3 4 5 6 
#
# 1 0.011901 -0.004892 0.000254 -0.002745 0.001176 0.004191
# 2 -0.004892 0.015263 -0.003466 0.010689 -0.002191 -0.002560
# 3 0.000254 -0.003466 0.012435 -0.001219 0.000472 -0.000240
# 4 -0.002745 0.010689 -0.001219 0.048877 0.002774 -0.003730
# 5 0.001176 -0.002191 0.000472 0.002774 0.028031 0.002785
# 6 0.004191 -0.002560 -0.000240 -0.003730 0.002785 0.041329
#
#
# Mechanical properties :
#
#
# Convention : Reuss Voigt Hill
#
# Bulk Modulus (GPa) = 42.75266 45.85281 44.30273
# Shear Modulus (GPa) = 27.49634 31.95911 29.72772
#
# Velocity S-wave (km/s) = 3.70641 3.99589 3.85387
# Velocity P-wave (km/s) = 6.29892 6.64817 6.47590
#
# Compressibility (1/GPa) = 0.02339036
#
# Stress axis : x y z
#
# Youngs Moduli (GPa) = 84.02687 65.51848 80.41543
#
# Poissons Ratio (x) = 0.32051 -0.02040
# Poissons Ratio (y) = 0.41105 0.27874
# Poissons Ratio (z) = -0.02132 0.22710
#
# Static dielectric constant tensor:
#      x y z
#    x 1.736880 0.011330 -0.063140 
#    y 0.011330 1.710590 0.020640 
#    z -0.063140 0.020640 1.760910 
# 
# From -- ./inp_files/521317.got.cif
#   From: 2010.05.17/outbox.cif.g08.bks.cpg/sg2_261_cif.got.tgz:521317.got - 2010.06.03 11:33:40.
