data_PCOD9002878
_publ_section_title
;
Structure prediction by ZEFSAII (Michael W. Deem and Ramdas Pophale) SiO2 
 PCOD9002878
Probable space group: P -1
;
_chemical_formula_sum "Si O2"
_cell_formula_units_Z 16
_cell_length_a 9.108875
_cell_length_b 5.246497
_cell_length_c 29.628939
_cell_angle_alpha 112.909972
_cell_angle_beta 28.981282
_cell_angle_gamma 109.963882
_cell_volume 631.945595
_symmetry_space_group_name_H-M "P -1"
_symmetry_group_IT_number 2
_symmetry_cell_setting 'triclinic'
loop_
_space_group_symop_operation_xyz
x,y,z
-x,-y,-z
loop_
_atom_site_type_symbol
_atom_site_label
_atom_site_fract_x
_atom_site_fract_y
_atom_site_fract_z
Si Si1 0.624226 0.333433 0.263749
Si Si2 0.218873 0.917383 0.195127
Si Si3 0.652872 0.573323 0.095978
Si Si4 0.664337 0.576070 0.742480
Si Si5 0.333749 0.135853 0.615174
Si Si6 0.722552 0.857259 0.894980
Si Si7 0.354231 0.957543 0.389722
Si Si8 0.749587 0.370369 0.455514
O O1 0.549186 0.283480 0.227704
O O2 0.489251 0.643417 0.328828
O O3 0.981294 0.280542 0.172312
O O4 0.448724 0.127789 0.331384
O O5 0.560195 0.842059 0.111082
O O6 0.972131 0.728557 0.274284
O O7 0.177250 0.210823 0.250824
O O8 0.162670 0.922271 0.157890
O O9 0.524068 0.604241 0.183797
O O10 0.478986 0.345069 0.096223
O O11 0.000000 0.500000 0.000000
O O12 0.943094 0.472648 0.629292
O O13 0.463604 0.948284 0.607702
O O14 0.605058 0.338042 0.541337
O O15 0.224739 0.951760 0.589366
O O16 0.500000 0.000000 0.000000
O O17 0.000000 0.000000 0.500000
O O18 0.500000 0.500000 0.500000
#
# Coordination Sequence:
#
# PCOD9002878 Si02
#       8
#     2   2   2   2   2   2   2   2
#     4  12  28  48  74 112 154 201 253 322 386 459
#     4  10  22  46  69  98 142 189 248 303 383 445
#     4  11  26  45  74 101 141 196 250 322 382 463
#     4  10  25  42  67 104 141 187 244 313 372 450
#     4  10  21  39  63  97 132 189 234 299 354 454
#     4  11  27  46  74 108 147 200 255 319 393 462
#     4  12  27  45  74 106 156 200 251 309 388 455
#     4  10  21  36  67  94 135 180 243 289 364 440
#
# _framework density 25.318636000000001
#
# number of rings (size 3 to 8) (size 9 to 14) (size 15 to 20)
#    0.000    1.250    1.250    2.625    8.750    1.500 
#    0.000    0.000    0.000    0.000    0.000    0.000 
#    0.000    0.000    0.000    0.000    0.000    0.000 
#
# Total GULP energy -89353.242120 kJ/mol
# GULP energy per Si atom -5584.577633 kJ/mol
# Density = 2.526101 g / cm^3
# Si number density = 25.318636 Si / 1000 Ang^3
#
#
#
# Elastic Constant Matrix: (Units=GPa)
#
#
# Indices 1 2 3 4 5 6 
#
# 1 163.9594 31.2046 71.8433 -2.0287 -12.5233 -23.6079
# 2 31.2046 85.1038 46.1235 7.4899 6.5507 -23.1499
# 3 71.8433 46.1235 177.8016 2.8219 -22.0593 -4.8333
# 4 -2.0287 7.4899 2.8219 24.2665 -3.7378 -0.5400
# 5 -12.5233 6.5507 -22.0593 -3.7378 63.1851 -0.7727
# 6 -23.6079 -23.1499 -4.8333 -0.5400 -0.7727 37.4192
#
#
#
# Elastic Compliance Matrix: (Units=1/GPa)
#
#
# Indices 1 2 3 4 5 6 
#
# 1 0.008237 -0.000262 -0.003064 0.001342 0.000726 0.004673
# 2 -0.000262 0.017870 -0.004630 -0.005345 -0.003713 0.010138
# 3 -0.003064 -0.004630 0.008297 0.000551 0.002757 -0.003661
# 4 0.001342 -0.005345 0.000551 0.043418 0.003560 -0.001689
# 5 0.000726 -0.003713 0.002757 0.003560 0.017516 -0.001070
# 6 0.004673 0.010138 -0.003661 -0.001689 -0.001070 0.035425
#
#
# Mechanical properties :
#
#
# Convention : Reuss Voigt Hill
#
# Bulk Modulus (GPa) = 54.08079 80.57862 67.32971
# Shear Modulus (GPa) = 32.71428 43.48706 38.10067
#
# Velocity S-wave (km/s) = 3.59848 4.14888 3.88344
# Velocity P-wave (km/s) = 6.21867 7.40580 6.83804
#
# Compressibility (1/GPa) = 0.01849085
#
# Stress axis : x y z
#
# Youngs Moduli (GPa) = 121.40993 55.96039 120.52193
#
# Poissons Ratio (x) = 0.01468 0.36931
# Poissons Ratio (y) = 0.03184 0.55800
# Poissons Ratio (z) = 0.37203 0.25909
#
# Static dielectric constant tensor:
#      x y z
#    x 2.021820 0.077320 0.018480 
#    y 0.077320 2.236310 -0.002460 
#    z 0.018480 -0.002460 2.061300 
# 
# From -- ./inp_files/106776.got.cif
#   From: 2010.05.17/outbox.cif.g08.bks.cpg/sg2_54_cif.got.tgz:106776.got - 2010.06.03 11:33:40.
