data_PCOD9002477
_publ_section_title
;
Structure prediction by ZEFSAII (Michael W. Deem and Ramdas Pophale) SiO2 
 PCOD9002477
Probable space group: P -1
;
_chemical_formula_sum "Si O2"
_cell_formula_units_Z 16
_cell_length_a 22.493878
_cell_length_b 9.076165
_cell_length_c 16.384805
_cell_angle_alpha 114.098217
_cell_angle_beta 159.799700
_cell_angle_gamma 56.827215
_cell_volume 900.494070
_symmetry_space_group_name_H-M "P -1"
_symmetry_group_IT_number 2
_symmetry_cell_setting 'triclinic'
loop_
_space_group_symop_operation_xyz
x,y,z
-x,-y,-z
loop_
_atom_site_type_symbol
_atom_site_label
_atom_site_fract_x
_atom_site_fract_y
_atom_site_fract_z
Si Si1 0.809858 0.627290 0.661127
Si Si2 0.524792 0.295607 0.476964
Si Si3 0.168532 0.171016 0.427365
Si Si4 0.807920 0.749437 0.869609
Si Si5 0.095722 0.536667 0.709523
Si Si6 0.810082 0.113997 0.932937
Si Si7 0.478130 0.225557 0.214064
Si Si8 0.554649 0.423713 0.804665
O O1 0.849199 0.717569 0.653408
O O2 0.804855 0.727459 0.762696
O O3 0.600245 0.634501 0.378749
O O4 0.989076 0.414177 0.863427
O O5 0.500000 0.500000 0.500000
O O6 0.369100 0.274542 0.328302
O O7 0.743641 0.147442 0.760929
O O8 0.488183 0.250610 0.329067
O O9 0.072557 0.316641 0.411608
O O10 0.392727 0.994114 0.690254
O O11 0.029647 0.080399 0.217923
O O12 0.784016 0.950178 0.899496
O O13 0.000000 0.500000 0.500000
O O14 0.249138 0.343092 0.912369
O O15 0.248703 0.610297 0.899925
O O16 0.657567 0.308164 0.828017
O O17 0.563001 0.351901 0.313770
#
# Coordination Sequence:
#
# PCOD9002477 Si02
#       8
#     2   2   2   2   2   2   2   2
#     4  11  21  37  51  87 122 152 206 236 279 337
#     4  12  19  34  54  84 125 163 200 236 279 332
#     4  11  23  38  61  90 115 155 196 250 290 348
#     4  11  23  31  55  79 124 175 195 229 277 339
#     4   9  21  44  65  84 111 148 195 248 311 362
#     4  11  21  35  52  82 123 163 204 222 284 338
#     4  10  21  36  61  87 115 153 196 237 296 338
#     4   9  20  38  56  84 117 154 189 244 287 344
#
# _framework density 17.768022999999999
#
# number of rings (size 3 to 8) (size 9 to 14) (size 15 to 20)
#    0.750    0.750    2.500    3.375    1.750    4.500 
#    0.000    0.625    0.000    0.750    0.000    0.000 
#    0.000    0.000    0.000    0.000    0.000    0.000 
#
# Total GULP energy -89155.132155 kJ/mol
# GULP energy per Si atom -5572.195760 kJ/mol
# Density = 1.772758 g / cm^3
# Si number density = 17.768023 Si / 1000 Ang^3
#
#
#
# Elastic Constant Matrix: (Units=GPa)
#
#
# Indices 1 2 3 4 5 6 
#
# 1 67.8414 47.5563 34.3063 4.3555 -5.9852 -6.8192
# 2 47.5563 95.1249 50.2701 -9.2172 -9.0339 3.2549
# 3 34.3063 50.2701 86.6459 0.4215 -16.0890 -20.9527
# 4 4.3555 -9.2172 0.4215 31.9321 -0.6216 4.3333
# 5 -5.9852 -9.0339 -16.0890 -0.6216 22.0585 6.6389
# 6 -6.8192 3.2549 -20.9527 4.3333 6.6389 23.8538
#
#
#
# Elastic Compliance Matrix: (Units=1/GPa)
#
#
# Indices 1 2 3 4 5 6 
#
# 1 0.027028 -0.016017 0.001504 -0.010254 -0.002576 0.013812
# 2 -0.016017 0.030574 -0.017446 0.015127 0.004311 -0.028023
# 3 0.001504 -0.017446 0.029037 -0.009377 0.005613 0.028457
# 4 -0.010254 0.015127 -0.009377 0.040236 0.004245 -0.021723
# 5 -0.002576 0.004311 0.005613 0.004245 0.054310 -0.012281
# 6 0.013812 -0.028023 0.028457 -0.021723 -0.012281 0.082055
#
#
# Mechanical properties :
#
#
# Convention : Reuss Voigt Hill
#
# Bulk Modulus (GPa) = 44.01666 57.09751 50.55709
# Shear Modulus (GPa) = 14.93734 23.40086 19.16910
#
# Velocity S-wave (km/s) = 2.90260 3.63302 3.28815
# Velocity P-wave (km/s) = 6.00502 7.05713 6.55223
#
# Compressibility (1/GPa) = 0.02271867
#
# Stress axis : x y z
#
# Youngs Moduli (GPa) = 36.99926 32.70785 34.43865
#
# Poissons Ratio (x) = 0.52390 -0.05178
# Poissons Ratio (y) = 0.59263 0.60081
# Poissons Ratio (z) = -0.05563 0.57062
#
# Static dielectric constant tensor:
#      x y z
#    x 1.591690 -0.000980 0.012480 
#    y -0.000980 1.620600 -0.023380 
#    z 0.012480 -0.023380 1.644190 
# 
# From -- ./inp_files/217169.got.cif
#   From: 2010.05.17/outbox.cif.g08.bks.cpg/sg2_109_cif.got.tgz:217169.got - 2010.06.03 11:33:40.
