data_PCOD9002415
_publ_section_title
;
Structure prediction by ZEFSAII (Michael W. Deem and Ramdas Pophale) SiO2 
 PCOD9002415
Probable space group: P -1
;
_chemical_formula_sum "Si O2"
_cell_formula_units_Z 14
_cell_length_a 14.538120
_cell_length_b 12.064211
_cell_length_c 11.843107
_cell_angle_alpha 63.095031
_cell_angle_beta 139.255582
_cell_angle_gamma 150.084286
_cell_volume 526.603713
_symmetry_space_group_name_H-M "P -1"
_symmetry_group_IT_number 2
_symmetry_cell_setting 'triclinic'
loop_
_space_group_symop_operation_xyz
x,y,z
-x,-y,-z
loop_
_atom_site_type_symbol
_atom_site_label
_atom_site_fract_x
_atom_site_fract_y
_atom_site_fract_z
Si Si1 0.727855 0.048707 0.448483
Si Si2 0.375886 0.545815 0.028546
Si Si3 0.691443 0.487655 0.768653
Si Si4 0.473466 0.830000 0.555774
Si Si5 0.263886 0.741993 0.809182
Si Si6 0.407167 0.539343 0.738455
Si Si7 0.891845 0.795806 0.616699
O O1 0.705611 0.171514 0.326186
O O2 0.082192 0.289200 0.625312
O O3 0.423663 0.743922 0.242889
O O4 0.667710 0.958162 0.561973
O O5 0.210930 0.412066 0.059172
O O6 0.367867 0.397552 0.044648
O O7 0.281130 0.607003 0.867457
O O8 0.764925 0.877021 0.249869
O O9 0.925793 0.723008 0.781952
O O10 0.350218 0.290071 0.525388
O O11 0.565079 0.800271 0.749857
O O12 0.085822 0.506962 0.347922
O O13 0.500000 0.000000 0.500000
O O14 0.500000 0.000000 0.000000
O O15 0.287325 0.408972 0.560790
#
# Coordination Sequence:
#
# PCOD9002415 Si02
#       7
#     2   2   2   2   2   2   2
#     4  11  20  38  61  85 122 162 205 241 300 357
#     4  11  19  34  53  91 130 149 187 246 309 360
#     4  10  17  27  53  86 123 158 186 237 297 359
#     4  11  26  45  63  83 117 167 216 248 288 359
#     4  11  24  39  60  95 130 159 187 247 312 363
#     4  10  19  34  61  86 113 158 203 251 289 355
#     4  10  17  28  51  89 125 149 190 238 302 353
#
# _framework density 26.585457000000002
#
# number of rings (size 3 to 8) (size 9 to 14) (size 15 to 20)
#    0.000    1.429    5.714    1.714    0.000    4.000 
#    0.000    0.714    0.000    1.714    0.000    0.000 
#    0.000    0.000    0.000    0.000    0.000    0.000 
#
# Total GULP energy -78235.781811 kJ/mol
# GULP energy per Si atom -5588.270129 kJ/mol
# Density = 2.652495 g / cm^3
# Si number density = 26.585457 Si / 1000 Ang^3
#
#
#
# Elastic Constant Matrix: (Units=GPa)
#
#
# Indices 1 2 3 4 5 6 
#
# 1 81.9017 45.0190 5.0201 -13.9583 5.0738 11.4362
# 2 45.0190 217.1988 58.7379 -19.5559 7.8232 9.0485
# 3 5.0201 58.7379 65.5756 -18.2699 5.4581 -10.8660
# 4 -13.9583 -19.5559 -18.2699 59.7029 -4.2640 10.7045
# 5 5.0738 7.8232 5.4581 -4.2640 26.8501 -13.2028
# 6 11.4362 9.0485 -10.8660 10.7045 -13.2028 53.4793
#
#
#
# Elastic Compliance Matrix: (Units=1/GPa)
#
#
# Indices 1 2 3 4 5 6 
#
# 1 0.015207 -0.003160 0.002356 0.003672 -0.003768 -0.003904
# 2 -0.003160 0.007116 -0.006402 -0.000075 -0.001228 -0.002117
# 3 0.002356 -0.006402 0.022830 0.004660 -0.000425 0.004180
# 4 0.003672 -0.000075 0.004660 0.019674 -0.000393 -0.003861
# 5 -0.003768 -0.001228 -0.000425 -0.000393 0.044198 0.011917
# 6 -0.003904 -0.002117 0.004180 -0.003861 0.011917 0.024456
#
#
# Mechanical properties :
#
#
# Convention : Reuss Voigt Hill
#
# Bulk Modulus (GPa) = 32.52917 64.69222 48.61069
# Shear Modulus (GPa) = 31.61806 45.06639 38.34222
#
# Velocity S-wave (km/s) = 3.45236 4.12169 3.80178
# Velocity P-wave (km/s) = 5.30604 6.85840 6.13154
#
# Compressibility (1/GPa) = 0.03074164
#
# Stress axis : x y z
#
# Youngs Moduli (GPa) = 65.76038 140.52975 43.80268
#
# Poissons Ratio (x) = 0.44410 -0.10322
# Poissons Ratio (y) = 0.20782 0.28040
# Poissons Ratio (z) = -0.15496 0.89960
#
# Static dielectric constant tensor:
#      x y z
#    x 2.147660 -0.076580 -0.076770 
#    y -0.076580 2.084500 -0.061910 
#    z -0.076770 -0.061910 2.188920 
# 
# From -- ./inp_files/427727.got.cif
#   From: 2010.05.17/outbox.cif.g08.bks.cpg/sg2_214_cif.got.tgz:427727.got - 2010.06.03 11:33:40.
