data_PCOD9002361
_publ_section_title
;
Structure prediction by ZEFSAII (Michael W. Deem and Ramdas Pophale) SiO2 
 PCOD9002361
Probable space group: P -1
;
_chemical_formula_sum "Si O2"
_cell_formula_units_Z 12
_cell_length_a 8.472476
_cell_length_b 7.238582
_cell_length_c 9.323573
_cell_angle_alpha 76.250814
_cell_angle_beta 86.217174
_cell_angle_gamma 95.179809
_cell_volume 550.885925
_symmetry_space_group_name_H-M "P -1"
_symmetry_group_IT_number 2
_symmetry_cell_setting 'triclinic'
loop_
_space_group_symop_operation_xyz
x,y,z
-x,-y,-z
loop_
_atom_site_type_symbol
_atom_site_label
_atom_site_fract_x
_atom_site_fract_y
_atom_site_fract_z
Si Si1 0.380696 0.698290 0.078024
Si Si2 0.251299 0.763047 0.794614
Si Si3 0.036294 0.072482 0.325683
Si Si4 0.813607 0.836964 0.188212
Si Si5 0.702935 0.894820 0.890782
Si Si6 0.444199 0.509827 0.663984
O O1 0.259543 0.644884 0.964053
O O2 0.544644 0.762391 0.969547
O O3 0.422951 0.550264 0.222368
O O4 0.332687 0.886957 0.125157
O O5 0.076858 0.763863 0.736778
O O6 0.378133 0.703095 0.685183
O O7 0.287723 0.985504 0.798729
O O8 0.217551 0.131093 0.261780
O O9 0.972885 0.895244 0.256566
O O10 0.000000 0.000000 0.500000
O O11 0.710462 0.645457 0.276127
O O12 0.829817 0.847459 0.014505
O O13 0.500000 0.500000 0.500000
#
# Coordination Sequence:
#
# PCOD9002361 Si02
#       6
#     2   2   2   2   2   2
#     4   9  19  35  61  88 113 149 198 235 277 351
#     4   9  21  39  58  85 115 150 196 230 288 344
#     4  10  21  36  60  86 119 151 190 240 290 340
#     4   8  20  38  57  83 112 154 191 232 281 348
#     4   9  17  36  63  85 111 157 193 230 290 341
#     4  11  22  36  59  89 120 148 192 242 288 338
#
# _framework density 21.783093999999998
#
# number of rings (size 3 to 8) (size 9 to 14) (size 15 to 20)
#    1.000    1.667    0.000    2.000    2.333    2.000 
#    0.000    4.167    3.667    0.000    0.000    0.000 
#    0.000    0.000    0.000    0.000    0.000    0.000 
#
# Total GULP energy -66908.132030 kJ/mol
# GULP energy per Si atom -5575.677669 kJ/mol
# Density = 2.173351 g / cm^3
# Si number density = 21.783094 Si / 1000 Ang^3
#
#
#
# Elastic Constant Matrix: (Units=GPa)
#
#
# Indices 1 2 3 4 5 6 
#
# 1 67.3992 10.1467 48.2783 -6.8756 2.8154 -18.2043
# 2 10.1467 50.7410 29.8235 7.5840 -0.8242 -12.4422
# 3 48.2783 29.8235 154.4029 10.2249 -16.7080 -27.1834
# 4 -6.8756 7.5840 10.2249 18.4800 -3.1428 -5.5534
# 5 2.8154 -0.8242 -16.7080 -3.1428 24.3282 -0.1840
# 6 -18.2043 -12.4422 -27.1834 -5.5534 -0.1840 32.5084
#
#
#
# Elastic Compliance Matrix: (Units=1/GPa)
#
#
# Indices 1 2 3 4 5 6 
#
# 1 0.024941 -0.000483 -0.007629 0.015692 -0.006039 0.010049
# 2 -0.000483 0.024025 -0.003424 -0.007093 -0.002361 0.004837
# 3 -0.007629 -0.003424 0.011246 -0.005445 0.007809 0.002935
# 4 0.015692 -0.007093 -0.005445 0.070539 0.003419 0.013589
# 5 -0.006039 -0.002361 0.007809 0.003419 0.047551 0.003098
# 6 0.010049 0.004837 0.002935 0.013589 0.003098 0.043033
#
#
# Mechanical properties :
#
#
# Convention : Reuss Voigt Hill
#
# Bulk Modulus (GPa) = 26.92452 49.89334 38.40893
# Shear Modulus (GPa) = 19.47141 27.34961 23.41051
#
# Velocity S-wave (km/s) = 2.99302 3.54721 3.28183
# Velocity P-wave (km/s) = 4.93268 6.30327 5.65962
#
# Compressibility (1/GPa) = 0.03714087
#
# Stress axis : x y z
#
# Youngs Moduli (GPa) = 40.09388 41.62394 88.92445
#
# Poissons Ratio (x) = 0.02010 0.67838
# Poissons Ratio (y) = 0.01936 0.30445
# Poissons Ratio (z) = 0.30586 0.14251
#
# Static dielectric constant tensor:
#      x y z
#    x 1.895530 0.017930 0.035400 
#    y 0.017930 1.841960 0.006120 
#    z 0.035400 0.006120 1.774250 
# 
# From -- ./inp_files/157164.got.cif
#   From: 2010.05.17/outbox.cif.g08.bks.cpg/sg2_79_cif.got.tgz:157164.got - 2010.06.03 11:33:40.
