data_PCOD9002728
_publ_section_title
;
Structure prediction by ZEFSAII (Michael W. Deem and Ramdas Pophale) SiO2 
 PCOD9002728
Probable space group: P -1
;
_chemical_formula_sum "Si O2"
_cell_formula_units_Z 16
_cell_length_a 10.061602
_cell_length_b 16.301343
_cell_length_c 9.584444
_cell_angle_alpha 109.576467
_cell_angle_beta 121.678189
_cell_angle_gamma 118.691257
_cell_volume 724.688020
_symmetry_space_group_name_H-M "P -1"
_symmetry_group_IT_number 2
_symmetry_cell_setting 'triclinic'
loop_
_space_group_symop_operation_xyz
x,y,z
-x,-y,-z
loop_
_atom_site_type_symbol
_atom_site_label
_atom_site_fract_x
_atom_site_fract_y
_atom_site_fract_z
Si Si1 0.504413 0.304675 0.489240
Si Si2 0.509050 0.925153 0.570896
Si Si3 0.906045 0.888737 0.592795
Si Si4 0.260716 0.667766 0.798393
Si Si5 0.923114 0.350456 0.017083
Si Si6 0.811978 0.811414 0.193816
Si Si7 0.520376 0.879272 0.826278
Si Si8 0.101155 0.236543 0.057077
O O1 0.334414 0.218746 0.489312
O O2 0.489290 0.213498 0.327284
O O3 0.813928 0.474174 0.778670
O O4 0.348983 0.309595 0.320002
O O5 0.433167 0.910278 0.680934
O O6 0.500000 0.000000 0.500000
O O7 0.296703 0.762203 0.291097
O O8 0.832178 0.055287 0.834345
O O9 0.848483 0.809021 0.374880
O O10 0.976669 0.017575 0.645132
O O11 0.175402 0.975328 0.865437
O O12 0.216071 0.674176 0.936420
O O13 0.328588 0.778672 0.795736
O O14 0.000000 0.500000 0.500000
O O15 0.520093 0.723185 0.963445
O O16 0.030252 0.302977 0.089565
O O17 0.842239 0.746228 0.066856
#
# Coordination Sequence:
#
# PCOD9002728 Si02
#       8
#     2   2   2   2   2   2   2   2
#     4  12  21  39  66  98 120 168 221 267 309 384
#     4  10  24  42  62  93 134 172 208 265 329 387
#     4  10  21  36  64 100 119 159 224 279 302 366
#     4  11  22  41  60  99 135 167 207 269 329 376
#     4  11  26  40  62  96 136 169 202 266 336 382
#     4  10  22  38  67  93 126 166 219 268 312 377
#     4  11  21  38  68  93 128 165 224 265 313 382
#     4  11  21  44  64  89 130 174 214 254 323 389
#
# _framework density 22.078465999999999
#
# number of rings (size 3 to 8) (size 9 to 14) (size 15 to 20)
#    0.000    1.250    5.000    1.500    7.000    1.500 
#    0.000    5.625    0.000    0.000    0.000    0.000 
#    0.000    0.000    0.000    0.000    0.000    0.000 
#
# Total GULP energy -89441.933076 kJ/mol
# GULP energy per Si atom -5590.120817 kJ/mol
# Density = 2.202821 g / cm^3
# Si number density = 22.078466 Si / 1000 Ang^3
#
#
#
# Elastic Constant Matrix: (Units=GPa)
#
#
# Indices 1 2 3 4 5 6 
#
# 1 42.5058 7.1321 4.8688 11.0823 -0.4849 18.9026
# 2 7.1321 105.2682 55.2601 -3.0395 5.9700 35.9953
# 3 4.8688 55.2601 134.7302 -2.7016 2.7756 25.8005
# 4 11.0823 -3.0395 -2.7016 46.4707 6.9356 2.8113
# 5 -0.4849 5.9700 2.7756 6.9356 19.1799 -2.9203
# 6 18.9026 35.9953 25.8005 2.8113 -2.9203 43.6844
#
#
#
# Elastic Compliance Matrix: (Units=1/GPa)
#
#
# Indices 1 2 3 4 5 6 
#
# 1 0.031778 0.002847 0.000646 -0.006331 -0.000337 -0.016093
# 2 0.002847 0.016340 -0.004160 0.001982 -0.007084 -0.012840
# 3 0.000646 -0.004160 0.009624 0.000383 -0.000616 -0.002601
# 4 -0.006331 0.001982 0.000383 0.024756 -0.009994 -0.001381
# 5 -0.000337 -0.007084 -0.000616 -0.009994 0.059709 0.010981
# 6 -0.016093 -0.012840 -0.002601 -0.001381 0.010981 0.042794
#
#
# Mechanical properties :
#
#
# Convention : Reuss Voigt Hill
#
# Bulk Modulus (GPa) = 17.72840 46.33625 32.03232
# Shear Modulus (GPa) = 24.37388 36.21657 30.29522
#
# Velocity S-wave (km/s) = 3.32620 4.05453 3.70829
# Velocity P-wave (km/s) = 4.77479 6.55374 5.73368
#
# Compressibility (1/GPa) = 0.05640668
#
# Stress axis : x y z
#
# Youngs Moduli (GPa) = 31.46841 61.19956 103.90991
#
# Poissons Ratio (x) = -0.17425 -0.06708
# Poissons Ratio (y) = -0.08960 0.43230
# Poissons Ratio (z) = -0.02032 0.25461
#
# Static dielectric constant tensor:
#      x y z
#    x 1.807730 -0.044440 0.001800 
#    y -0.044440 1.907540 -0.005180 
#    z 0.001800 -0.005180 1.797990 
# 
# From -- ./inp_files/279541.got.cif
#   From: 2010.05.17/outbox.cif.g08.bks.cpg/sg2_140_cif.got.tgz:279541.got - 2010.06.03 11:33:40.
