data_PCOD9002425
_publ_section_title
;
Structure prediction by ZEFSAII (Michael W. Deem and Ramdas Pophale) SiO2 
 PCOD9002425
Probable space group: P -1
;
_chemical_formula_sum "Si O2"
_cell_formula_units_Z 14
_cell_length_a 23.736607
_cell_length_b 12.532199
_cell_length_c 24.819987
_cell_angle_alpha 22.756985
_cell_angle_beta 12.252360
_cell_angle_gamma 21.741624
_cell_volume 570.511670
_symmetry_space_group_name_H-M "P -1"
_symmetry_group_IT_number 2
_symmetry_cell_setting 'triclinic'
loop_
_space_group_symop_operation_xyz
x,y,z
-x,-y,-z
loop_
_atom_site_type_symbol
_atom_site_label
_atom_site_fract_x
_atom_site_fract_y
_atom_site_fract_z
Si Si1 0.312199 0.794885 0.285447
Si Si2 0.546190 0.407406 0.062488
Si Si3 0.007145 0.307500 0.134782
Si Si4 0.544189 0.304468 0.388011
Si Si5 0.406220 0.804942 0.366450
Si Si6 0.152065 0.144304 0.897469
Si Si7 0.947315 0.354413 0.503759
O O1 0.451458 0.553256 0.313377
O O2 0.260538 0.621004 0.362864
O O3 0.000000 0.000000 0.500000
O O4 0.500000 0.000000 0.000000
O O5 0.804546 0.508675 0.794832
O O6 0.500000 0.500000 0.000000
O O7 0.250553 0.534449 0.311341
O O8 0.668715 0.066115 0.125394
O O9 0.326910 0.085485 0.938979
O O10 0.953528 0.522781 0.135990
O O11 0.000000 0.500000 0.000000
O O12 0.741377 0.195674 0.437801
O O13 0.532090 0.487476 0.369607
O O14 0.860115 0.091598 0.183061
O O15 0.330490 0.135090 0.681146
O O16 0.135636 0.011343 0.491705
#
# Coordination Sequence:
#
# PCOD9002425 Si02
#       7
#     2   2   2   2   2   2   2
#     4  12  24  42  74 109 143 173 217 287 367 416
#     4  12  28  49  68  95 139 199 236 283 325 401
#     4  10  21  36  60  93 125 168 224 282 345 394
#     4  10  21  42  67 100 135 172 209 286 354 403
#     4  10  21  36  62  95 133 162 209 285 343 403
#     4  10  23  42  65  91 136 180 231 273 338 407
#     4  12  26  44  70 102 139 176 243 276 341 419
#
# _framework density 24.539375
#
# number of rings (size 3 to 8) (size 9 to 14) (size 15 to 20)
#    0.000    1.143    1.429    4.286    8.000    0.000 
#    0.000    4.286    0.000    0.000    0.000    0.000 
#    0.000    0.000    0.000    0.000    0.000    0.000 
#
# Total GULP energy -78179.505773 kJ/mol
# GULP energy per Si atom -5584.250412 kJ/mol
# Density = 2.448352 g / cm^3
# Si number density = 24.539375 Si / 1000 Ang^3
#
#
#
# Elastic Constant Matrix: (Units=GPa)
#
#
# Indices 1 2 3 4 5 6 
#
# 1 81.3552 20.0172 26.0915 1.6623 2.6541 -27.4709
# 2 20.0172 88.9049 46.8232 15.0461 4.7520 -28.5296
# 3 26.0915 46.8232 209.7797 27.9493 7.4253 -15.5683
# 4 1.6623 15.0461 27.9493 39.0668 -3.1419 -3.9614
# 5 2.6541 4.7520 7.4253 -3.1419 30.6145 -6.8665
# 6 -27.4709 -28.5296 -15.5683 -3.9614 -6.8665 41.2758
#
#
#
# Elastic Compliance Matrix: (Units=1/GPa)
#
#
# Indices 1 2 3 4 5 6 
#
# 1 0.016304 0.000291 -0.001542 0.001521 0.001509 0.010867
# 2 0.000291 0.016357 -0.002458 -0.003519 -0.000035 0.010228
# 3 -0.001542 -0.002458 0.005944 -0.003471 -0.001523 -0.001070
# 4 0.001521 -0.003519 -0.003471 0.029824 0.004515 0.000884
# 5 0.001509 -0.000035 -0.001523 0.004515 0.034861 0.006638
# 6 0.010867 0.010228 -0.001070 0.000884 0.006638 0.039316
#
#
# Mechanical properties :
#
#
# Convention : Reuss Voigt Hill
#
# Bulk Modulus (GPa) = 32.06541 62.87817 47.47179
# Shear Modulus (GPa) = 31.16820 41.33194 36.25007
#
# Velocity S-wave (km/s) = 3.56776 4.10849 3.84763
# Velocity P-wave (km/s) = 5.48335 6.94156 6.25509
#
# Compressibility (1/GPa) = 0.03118625
#
# Stress axis : x y z
#
# Youngs Moduli (GPa) = 61.33422 61.13673 168.22754
#
# Poissons Ratio (x) = -0.01777 0.25945
# Poissons Ratio (y) = -0.01782 0.41347
# Poissons Ratio (z) = 0.09459 0.15026
#
# Static dielectric constant tensor:
#      x y z
#    x 1.962150 -0.005890 -0.013420 
#    y -0.005890 1.969880 -0.059280 
#    z -0.013420 -0.059280 2.164080 
# 
# From -- ./inp_files/615694.got.cif
#   From: 2010.05.17/outbox.cif.g08.bks.cpg/sg2_308_cif.got.tgz:615694.got - 2010.06.03 11:33:40.
