data_PCOD9002619
_publ_section_title
;
Structure prediction by ZEFSAII (Michael W. Deem and Ramdas Pophale) SiO2 
 PCOD9002619
Probable space group: P -1
;
_chemical_formula_sum "Si O2"
_cell_formula_units_Z 16
_cell_length_a 13.210730
_cell_length_b 10.750052
_cell_length_c 19.422613
_cell_angle_alpha 56.080244
_cell_angle_beta 16.074509
_cell_angle_gamma 53.216450
_cell_volume 609.809991
_symmetry_space_group_name_H-M "P -1"
_symmetry_group_IT_number 2
_symmetry_cell_setting 'triclinic'
loop_
_space_group_symop_operation_xyz
x,y,z
-x,-y,-z
loop_
_atom_site_type_symbol
_atom_site_label
_atom_site_fract_x
_atom_site_fract_y
_atom_site_fract_z
Si Si1 0.982944 0.422125 0.855157
Si Si2 0.319140 0.366056 0.794585
Si Si3 0.856630 0.983646 0.830197
Si Si4 0.980195 0.016355 0.590391
Si Si5 0.863795 0.529770 0.416556
Si Si6 0.478403 0.814986 0.752813
Si Si7 0.198174 0.843447 0.785225
Si Si8 0.250938 0.651427 0.238197
O O1 0.283604 0.405366 0.724574
O O2 0.081342 0.457732 0.703688
O O3 0.835407 0.268019 0.994691
O O4 0.616397 0.565029 0.069220
O O5 0.712051 0.376004 0.568479
O O6 0.000000 0.500000 0.000000
O O7 0.180784 0.212314 0.937776
O O8 0.039347 0.918246 0.656650
O O9 0.745335 0.173616 0.840103
O O10 0.134198 0.939161 0.727629
O O11 0.480420 0.927281 0.110853
O O12 0.327275 0.093705 0.350865
O O13 0.000000 0.000000 0.500000
O O14 0.529074 0.683710 0.606803
O O15 0.207884 0.545123 0.234153
O O16 0.315409 0.907261 0.760542
O O17 0.857005 0.678511 0.527447
#
# Coordination Sequence:
#
# PCOD9002619 Si02
#       8
#     2   2   2   2   2   2   2   2
#     4  11  21  38  62  95 127 159 210 267 317 374
#     4   9  20  38  61  87 121 165 209 252 313 378
#     4  10  23  44  67  93 132 175 211 263 323 387
#     4  10  23  43  64  95 131 169 221 263 318 386
#     4  10  21  36  62  94 127 161 206 271 316 372
#     4   9  21  39  66  92 122 172 213 263 319 380
#     4   9  20  43  65  90 127 169 214 256 324 388
#     4  10  22  39  62  90 126 170 208 252 322 386
#
# _framework density 26.237682
#
# number of rings (size 3 to 8) (size 9 to 14) (size 15 to 20)
#    0.000    2.250    0.000    1.875    1.750   11.500 
#    6.750    0.625    0.000    0.000    0.000    0.000 
#    0.000    0.000    0.000    0.000    0.000    0.000 
#
# Total GULP energy -89260.971069 kJ/mol
# GULP energy per Si atom -5578.810692 kJ/mol
# Density = 2.617796 g / cm^3
# Si number density = 26.237682 Si / 1000 Ang^3
#
#
#
# Elastic Constant Matrix: (Units=GPa)
#
#
# Indices 1 2 3 4 5 6 
#
# 1 222.2494 39.9241 53.4696 -18.7828 -11.6039 9.7356
# 2 39.9241 67.7639 37.7938 -3.1757 -15.3671 -3.1530
# 3 53.4696 37.7938 73.8425 -26.7484 -5.5904 21.0355
# 4 -18.7828 -3.1757 -26.7484 32.9814 2.3094 -6.0065
# 5 -11.6039 -15.3671 -5.5904 2.3094 54.8356 -1.3272
# 6 9.7356 -3.1530 21.0355 -6.0065 -1.3272 39.5862
#
#
#
# Elastic Compliance Matrix: (Units=1/GPa)
#
#
# Indices 1 2 3 4 5 6 
#
# 1 0.005567 -0.001318 -0.003264 0.000426 0.000466 0.000341
# 2 -0.001318 0.029397 -0.022321 -0.014190 0.006586 0.012594
# 3 -0.003264 -0.022321 0.042395 0.027114 -0.004238 -0.019531
# 4 0.000426 -0.014190 0.027114 0.049936 -0.003423 -0.008181
# 5 0.000466 0.006586 -0.004238 -0.003423 0.019961 0.002812
# 6 0.000341 0.012594 -0.019531 -0.008181 0.002812 0.035412
#
#
# Mechanical properties :
#
#
# Convention : Reuss Voigt Hill
#
# Bulk Modulus (GPa) = 42.45712 69.58120 56.01916
# Shear Modulus (GPa) = 20.46459 40.99187 30.72823
#
# Velocity S-wave (km/s) = 2.79582 3.95692 3.42592
# Velocity P-wave (km/s) = 5.16130 6.88864 6.08656
#
# Compressibility (1/GPa) = 0.02355317
#
# Stress axis : x y z
#
# Youngs Moduli (GPa) = 179.63488 34.01699 23.58779
#
# Poissons Ratio (x) = 0.04483 0.07699
# Poissons Ratio (y) = 0.23672 0.52650
# Poissons Ratio (z) = 0.58634 0.75929
#
# Static dielectric constant tensor:
#      x y z
#    x 2.090980 0.031800 0.034980 
#    y 0.031800 2.164740 0.036540 
#    z 0.034980 0.036540 2.104360 
# 
# From -- ./inp_files/569149.got.cif
#   From: 2010.05.17/outbox.cif.g08.bks.cpg/sg2_285_cif.got.tgz:569149.got - 2010.06.03 11:33:40.
