data_PCOD9002614
_publ_section_title
;
Structure prediction by ZEFSAII (Michael W. Deem and Ramdas Pophale) SiO2 
 PCOD9002614
Probable space group: P -1
;
_chemical_formula_sum "Si O2"
_cell_formula_units_Z 16
_cell_length_a 8.583905
_cell_length_b 11.567902
_cell_length_c 22.184833
_cell_angle_alpha 38.220783
_cell_angle_beta 134.645894
_cell_angle_gamma 106.639357
_cell_volume 773.031212
_symmetry_space_group_name_H-M "P -1"
_symmetry_group_IT_number 2
_symmetry_cell_setting 'triclinic'
loop_
_space_group_symop_operation_xyz
x,y,z
-x,-y,-z
loop_
_atom_site_type_symbol
_atom_site_label
_atom_site_fract_x
_atom_site_fract_y
_atom_site_fract_z
Si Si1 0.691538 0.674901 0.371235
Si Si2 0.311287 0.549460 0.871436
Si Si3 0.851227 0.634252 0.553539
Si Si4 0.745608 0.262997 0.340149
Si Si5 0.353585 0.734338 0.447909
Si Si6 0.896340 0.888197 0.171873
Si Si7 0.273085 0.959208 0.460571
Si Si8 0.630358 0.890391 0.983478
O O1 0.706496 0.784330 0.392819
O O2 0.588248 0.517447 0.422973
O O3 0.000000 0.500000 0.500000
O O4 0.504138 0.887445 0.187790
O O5 0.424890 0.598957 0.822158
O O6 0.500000 0.500000 0.000000
O O7 0.280304 0.343520 0.932183
O O8 0.013679 0.794202 0.702152
O O9 0.630340 0.696602 0.518414
O O10 0.098623 0.629449 0.644634
O O11 0.994581 0.373641 0.676503
O O12 0.627872 0.231215 0.381207
O O13 0.000000 0.000000 0.500000
O O14 0.244546 0.866556 0.427449
O O15 0.134173 0.881163 0.273654
O O16 0.608610 0.063030 0.055633
O O17 0.842592 0.893686 0.083423
O O18 0.500000 0.000000 0.500000
#
# Coordination Sequence:
#
# PCOD9002614 Si02
#       8
#     2   2   2   2   2   2   2   2
#     4  11  21  36  64  94 125 171 223 266 328 396
#     4  11  24  42  69 100 133 176 225 274 330 395
#     4  11  21  40  64  94 128 168 222 270 324 401
#     4  10  22  40  68  93 123 176 221 263 327 395
#     4  11  22  40  65  94 131 170 223 270 325 396
#     4  10  21  36  62  93 130 168 205 270 333 378
#     4  11  25  45  72  98 132 173 222 278 327 400
#     4  11  22  38  63  95 136 166 217 275 331 390
#
# _framework density 20.697742000000002
#
# number of rings (size 3 to 8) (size 9 to 14) (size 15 to 20)
#    0.000    1.250    3.750    4.500    3.500    0.000 
#    0.000    3.125    5.500    0.000    0.000    0.000 
#    0.000    0.000    0.000    0.000    0.000    0.000 
#
# Total GULP energy -89210.764543 kJ/mol
# GULP energy per Si atom -5575.672784 kJ/mol
# Density = 2.065063 g / cm^3
# Si number density = 20.697742 Si / 1000 Ang^3
#
#
#
# Elastic Constant Matrix: (Units=GPa)
#
#
# Indices 1 2 3 4 5 6 
#
# 1 101.9891 25.0976 38.1267 15.8912 -15.4582 -2.1644
# 2 25.0976 100.4076 49.3602 18.0568 -14.8693 -20.2469
# 3 38.1267 49.3602 123.4471 29.9664 -31.8977 -8.8495
# 4 15.8912 18.0568 29.9664 39.6113 -16.6489 1.2306
# 5 -15.4582 -14.8693 -31.8977 -16.6489 31.2499 4.7946
# 6 -2.1644 -20.2469 -8.8495 1.2306 4.7946 28.8417
#
#
#
# Elastic Compliance Matrix: (Units=1/GPa)
#
#
# Indices 1 2 3 4 5 6 
#
# 1 0.011493 -0.001482 -0.002128 -0.001334 0.002274 -0.001152
# 2 -0.001482 0.014771 -0.004230 -0.003870 -0.001524 0.009378
# 3 -0.002128 -0.004230 0.013649 -0.003803 0.008879 -0.000255
# 4 -0.001334 -0.003870 -0.003803 0.036721 0.014399 -0.007944
# 5 0.002274 -0.001524 0.008879 0.014399 0.050229 -0.007139
# 6 -0.001152 0.009378 -0.000255 -0.007944 -0.007139 0.042617
#
#
# Mechanical properties :
#
#
# Convention : Reuss Voigt Hill
#
# Bulk Modulus (GPa) = 41.26950 61.22366 51.24658
# Shear Modulus (GPa) = 25.87471 34.15785 30.01628
#
# Velocity S-wave (km/s) = 3.53954 4.06682 3.81231
# Velocity P-wave (km/s) = 6.05697 7.19000 6.64767
#
# Compressibility (1/GPa) = 0.02423097
#
# Stress axis : x y z
#
# Youngs Moduli (GPa) = 87.00672 67.70009 73.26752
#
# Poissons Ratio (x) = 0.10036 0.15594
# Poissons Ratio (y) = 0.12898 0.30994
# Poissons Ratio (z) = 0.18518 0.28639
#
# Static dielectric constant tensor:
#      x y z
#    x 1.777340 -0.045580 -0.029900 
#    y -0.045580 1.744270 0.049760 
#    z -0.029900 0.049760 1.788120 
# 
# From -- ./inp_files/319283.got.cif
#   From: 2010.05.17/outbox.cif.g08.bks.cpg/sg2_160_cif.got.tgz:319283.got - 2010.06.03 11:33:40.
