data_PCOD9002128
_publ_section_title
;
Structure prediction by ZEFSAII (Michael W. Deem and Ramdas Pophale) SiO2 
 PCOD9002128
Probable space group: P -1
;
_chemical_formula_sum "Si O2"
_cell_formula_units_Z 16
_cell_length_a 10.650653
_cell_length_b 14.091206
_cell_length_c 11.702698
_cell_angle_alpha 157.292571
_cell_angle_beta 103.561965
_cell_angle_gamma 87.497564
_cell_volume 585.184231
_symmetry_space_group_name_H-M "P -1"
_symmetry_group_IT_number 2
_symmetry_cell_setting 'triclinic'
loop_
_space_group_symop_operation_xyz
x,y,z
-x,-y,-z
loop_
_atom_site_type_symbol
_atom_site_label
_atom_site_fract_x
_atom_site_fract_y
_atom_site_fract_z
Si Si1 0.953157 0.213887 0.459171
Si Si2 0.473800 0.091567 0.721386
Si Si3 0.667168 0.961309 0.985383
Si Si4 0.235585 0.601288 0.238925
Si Si5 0.611934 0.461561 0.591104
Si Si6 0.329642 0.301633 0.770632
Si Si7 0.860349 0.017170 0.833647
Si Si8 0.796558 0.469784 0.287808
O O1 0.881097 0.292577 0.637241
O O2 0.000983 0.968330 0.189537
O O3 0.099482 0.480645 0.745304
O O4 0.836366 0.131837 0.241395
O O5 0.347927 0.168144 0.742802
O O6 0.500000 0.000000 0.500000
O O7 0.395360 0.856367 0.535209
O O8 0.628279 0.312616 0.045163
O O9 0.627570 0.734546 0.832630
O O10 0.555998 0.729141 0.615814
O O11 0.629424 0.221814 0.256424
O O12 0.264633 0.464799 0.205815
O O13 0.224443 0.430225 0.931849
O O14 0.264602 0.121972 0.444733
O O15 0.500000 0.500000 0.000000
O O16 0.836675 0.789271 0.673846
O O17 0.843410 0.280225 0.163680
#
# Coordination Sequence:
#
# PCOD9002128 Si02
#       8
#     2   2   2   2   2   2   2   2
#     4   9  23  37  60  89 119 151 188 248 298 352
#     4  12  22  39  57  79 115 166 207 244 285 338
#     4   9  18  37  62  83 124 148 185 231 309 360
#     4  11  24  36  60  88 119 151 202 252 287 344
#     4   9  20  36  58  92 114 152 186 243 293 353
#     4  12  21  37  57  79 117 165 204 243 286 341
#     4  10  21  36  58  80 116 154 200 233 289 351
#     4  10  21  38  59  80 114 156 200 235 295 348
#
# _framework density 27.341816000000001
#
# number of rings (size 3 to 8) (size 9 to 14) (size 15 to 20)
#    0.750    1.000    3.750    0.000    7.000    0.500 
#    0.000    1.250    0.000    0.750    0.000    6.125 
#    0.000    0.000    0.000    0.000    0.000    0.000 
#
# Total GULP energy -89080.318597 kJ/mol
# GULP energy per Si atom -5567.519912 kJ/mol
# Density = 2.727959 g / cm^3
# Si number density = 27.341816 Si / 1000 Ang^3
#
#
#
# Elastic Constant Matrix: (Units=GPa)
#
#
# Indices 1 2 3 4 5 6 
#
# 1 147.1437 37.1922 33.0264 2.3354 -20.4694 -4.7927
# 2 37.1922 87.0993 42.9999 23.9949 -24.4399 -19.7435
# 3 33.0264 42.9999 81.4497 13.2283 -21.9457 -3.1748
# 4 2.3354 23.9949 13.2283 35.9066 -5.0477 -13.0655
# 5 -20.4694 -24.4399 -21.9457 -5.0477 48.4026 8.2091
# 6 -4.7927 -19.7435 -3.1748 -13.0655 8.2091 50.4972
#
#
#
# Elastic Compliance Matrix: (Units=1/GPa)
#
#
# Indices 1 2 3 4 5 6 
#
# 1 0.008058 -0.002782 -0.001762 0.002146 0.001447 -0.000114
# 2 -0.002782 0.020874 -0.007062 -0.008930 0.004481 0.004414
# 3 -0.001762 -0.007062 0.018110 -0.002373 0.004176 -0.003082
# 4 0.002146 -0.008930 -0.002373 0.036589 -0.001938 0.006345
# 5 0.001447 0.004481 0.004176 -0.001938 0.025654 -0.002520
# 6 -0.000114 0.004414 -0.003082 0.006345 -0.002520 0.023376
#
#
# Mechanical properties :
#
#
# Convention : Reuss Voigt Hill
#
# Bulk Modulus (GPa) = 41.96221 60.23662 51.09941
# Shear Modulus (GPa) = 30.52213 40.45955 35.49084
#
# Velocity S-wave (km/s) = 3.34476 3.85095 3.60674
# Velocity P-wave (km/s) = 5.50428 6.46930 6.00620
#
# Compressibility (1/GPa) = 0.02383097
#
# Stress axis : x y z
#
# Youngs Moduli (GPa) = 124.09577 47.90697 55.21669
#
# Poissons Ratio (x) = 0.13328 0.09728
# Poissons Ratio (y) = 0.34525 0.38994
# Poissons Ratio (z) = 0.21863 0.33832
#
# Static dielectric constant tensor:
#      x y z
#    x 2.623650 -0.296770 -0.351420 
#    y -0.296770 2.596020 0.367040 
#    z -0.351420 0.367040 2.486060 
# 
# From -- ./inp_files/523369.got.cif
#   From: 2010.05.17/outbox.cif.g08.bks.cpg/sg2_262_cif.got.tgz:523369.got - 2010.06.03 11:33:40.
