data_PCOD9002864
_publ_section_title
;
Structure prediction by ZEFSAII (Michael W. Deem and Ramdas Pophale) SiO2 
 PCOD9002864
Probable space group: P -1
;
_chemical_formula_sum "Si O2"
_cell_formula_units_Z 14
_cell_length_a 23.061357
_cell_length_b 16.422350
_cell_length_c 13.913144
_cell_angle_alpha 145.075119
_cell_angle_beta 22.977803
_cell_angle_gamma 160.673376
_cell_volume 630.173856
_symmetry_space_group_name_H-M "P -1"
_symmetry_group_IT_number 2
_symmetry_cell_setting 'triclinic'
loop_
_space_group_symop_operation_xyz
x,y,z
-x,-y,-z
loop_
_atom_site_type_symbol
_atom_site_label
_atom_site_fract_x
_atom_site_fract_y
_atom_site_fract_z
Si Si1 0.411702 0.441222 0.907593
Si Si2 0.436007 0.861576 0.868096
Si Si3 0.274431 0.428665 0.615552
Si Si4 0.965062 0.598544 0.573100
Si Si5 0.832446 0.884039 0.847246
Si Si6 0.560576 0.169903 0.646047
Si Si7 0.165854 0.778637 0.034032
O O1 0.472773 0.405374 0.681304
O O2 0.694829 0.683253 0.774823
O O3 0.283573 0.489275 0.116780
O O4 0.200799 0.211728 0.089347
O O5 0.307274 0.598427 0.794773
O O6 0.258858 0.835532 0.054792
O O7 0.740451 0.087542 0.575511
O O8 0.500000 0.000000 0.000000
O O9 0.031390 0.262177 0.747298
O O10 0.140482 0.191231 0.651495
O O11 0.875691 0.462414 0.473378
O O12 0.000000 0.500000 0.500000
O O13 0.616854 0.841707 0.132886
O O14 0.500000 0.000000 0.500000
O O15 0.437326 0.011910 0.780849
O O16 0.000000 0.500000 0.000000
#
# Coordination Sequence:
#
# PCOD9002864 Si02
#       7
#     2   2   2   2   2   2   2
#     4  10  22  42  69  99 135 178 230 284 345 403
#     4  11  25  42  62 100 139 182 222 275 347 407
#     4  10  22  43  70  98 133 178 231 286 338 396
#     4  11  24  44  64  95 136 177 222 277 348 412
#     4   9  21  39  65 106 130 170 233 288 333 400
#     4  10  21  36  66  96 123 172 222 280 331 391
#     4   9  20  37  60  94 123 166 220 272 332 388
#
# _framework density 22.216090999999999
#
# number of rings (size 3 to 8) (size 9 to 14) (size 15 to 20)
#    0.000    2.000    1.429    0.429   10.000    2.857 
#    2.571    0.714    0.000    0.000    0.000    0.000 
#    0.000    0.000    0.000    0.000    0.000    0.000 
#
# Total GULP energy -77959.743321 kJ/mol
# GULP energy per Si atom -5568.553094 kJ/mol
# Density = 2.216553 g / cm^3
# Si number density = 22.216091 Si / 1000 Ang^3
#
#
#
# Elastic Constant Matrix: (Units=GPa)
#
#
# Indices 1 2 3 4 5 6 
#
# 1 111.1776 31.1224 33.0114 10.5100 10.5811 -1.4095
# 2 31.1224 90.5967 27.8001 -2.6112 22.8434 -6.0859
# 3 33.0114 27.8001 56.8259 12.0283 17.9905 0.5603
# 4 10.5100 -2.6112 12.0283 35.9779 9.8529 8.2743
# 5 10.5811 22.8434 17.9905 9.8529 23.6361 -8.1826
# 6 -1.4095 -6.0859 0.5603 8.2743 -8.1826 35.9801
#
#
#
# Elastic Compliance Matrix: (Units=1/GPa)
#
#
# Indices 1 2 3 4 5 6 
#
# 1 0.011552 -0.003261 -0.005828 -0.003261 0.004377 0.001737
# 2 -0.003261 0.017695 -0.002802 0.008985 -0.018412 -0.003345
# 3 -0.005828 -0.002802 0.028170 -0.002344 -0.016669 -0.004393
# 4 -0.003261 0.008985 -0.002344 0.040975 -0.027450 -0.014237
# 5 0.004377 -0.018412 -0.016669 -0.027450 0.090669 0.024249
# 6 0.001737 -0.003345 -0.004393 -0.014237 0.024249 0.036153
#
#
# Mechanical properties :
#
#
# Convention : Reuss Voigt Hill
#
# Bulk Modulus (GPa) = 29.73054 49.16312 39.44683
# Shear Modulus (GPa) = 19.21554 30.22990 24.72272
#
# Velocity S-wave (km/s) = 2.94417 3.69280 3.33953
# Velocity P-wave (km/s) = 4.99690 6.35294 5.71528
#
# Compressibility (1/GPa) = 0.03363544
#
# Stress axis : x y z
#
# Youngs Moduli (GPa) = 86.56808 56.51384 35.49819
#
# Poissons Ratio (x) = 0.18428 0.20688
# Poissons Ratio (y) = 0.28228 0.09947
# Poissons Ratio (z) = 0.50450 0.15835
#
# Static dielectric constant tensor:
#      x y z
#    x 1.779400 -0.067690 0.054160 
#    y -0.067690 1.841830 -0.006910 
#    z 0.054160 -0.006910 1.869090 
# 
# From -- ./inp_files/391127.got.cif
#   From: 2010.05.17/outbox.cif.g08.bks.cpg/sg2_196_cif.got.tgz:391127.got - 2010.06.03 11:33:40.
