data_PCOD9002836
_publ_section_title
;
Structure prediction by ZEFSAII (Michael W. Deem and Ramdas Pophale) SiO2 
 PCOD9002836
Probable space group: P -1
;
_chemical_formula_sum "Si O2"
_cell_formula_units_Z 14
_cell_length_a 22.891116
_cell_length_b 9.732673
_cell_length_c 9.702129
_cell_angle_alpha 147.904412
_cell_angle_beta 142.718257
_cell_angle_gamma 35.017165
_cell_volume 621.173219
_symmetry_space_group_name_H-M "P -1"
_symmetry_group_IT_number 2
_symmetry_cell_setting 'triclinic'
loop_
_space_group_symop_operation_xyz
x,y,z
-x,-y,-z
loop_
_atom_site_type_symbol
_atom_site_label
_atom_site_fract_x
_atom_site_fract_y
_atom_site_fract_z
Si Si1 0.677825 0.863313 0.237971
Si Si2 0.518370 0.657382 0.863760
Si Si3 0.537888 0.848795 0.588645
Si Si4 0.887947 0.822066 0.706560
Si Si5 0.966940 0.974665 0.720646
Si Si6 0.774909 0.616215 0.915182
Si Si7 0.033184 0.324663 0.772005
O O1 0.765022 0.880511 0.518471
O O2 0.575555 0.174761 0.283119
O O3 0.629265 0.645503 0.006074
O O4 0.735970 0.753580 0.107953
O O5 0.514990 0.363847 0.652960
O O6 0.488765 0.892127 0.131754
O O7 0.667406 0.653428 0.668563
O O8 0.500000 0.000000 0.500000
O O9 0.957374 0.551083 0.704426
O O10 0.930810 0.796261 0.608407
O O11 0.919734 0.057645 0.035038
O O12 0.866428 0.289587 0.822275
O O13 0.975285 0.945134 0.545295
O O14 0.840213 0.763208 0.086093
O O15 0.000000 0.500000 0.000000
#
# Coordination Sequence:
#
# PCOD9002836 Si02
#       7
#     2   2   2   2   2   2   2
#     4  10  21  41  68 102 141 174 236 302 358 408
#     4  10  24  43  68 105 141 177 239 299 355 415
#     4  11  24  45  70 100 139 189 233 288 355 440
#     4  10  21  36  65  98 129 175 231 282 345 418
#     4  10  21  38  67  96 130 178 236 286 348 420
#     4  10  23  39  68  93 131 181 225 287 363 409
#     4  11  24  42  60  96 141 177 229 281 352 432
#
# _framework density 22.537998000000002
#
# number of rings (size 3 to 8) (size 9 to 14) (size 15 to 20)
#    0.000    1.714    1.429    1.714    6.000    9.714 
#    0.000    0.000    0.000    0.000    0.000    0.000 
#    0.000    0.000    0.000    0.000    0.000    0.000 
#
# Total GULP energy -78081.129321 kJ/mol
# GULP energy per Si atom -5577.223523 kJ/mol
# Density = 2.248670 g / cm^3
# Si number density = 22.537998 Si / 1000 Ang^3
#
#
#
# Elastic Constant Matrix: (Units=GPa)
#
#
# Indices 1 2 3 4 5 6 
#
# 1 105.7331 18.3394 76.1258 -22.7979 -6.9010 -18.7126
# 2 18.3394 51.7348 35.4714 -5.6150 12.6485 3.0896
# 3 76.1258 35.4714 131.3353 -18.0472 18.1990 -8.2991
# 4 -22.7979 -5.6150 -18.0472 35.7910 -9.0878 5.8335
# 5 -6.9010 12.6485 18.1990 -9.0878 50.6400 -0.9253
# 6 -18.7126 3.0896 -8.2991 5.8335 -0.9253 28.6313
#
#
#
# Elastic Compliance Matrix: (Units=1/GPa)
#
#
# Indices 1 2 3 4 5 6 
#
# 1 0.023042 -0.001711 -0.012376 0.009009 0.009817 0.010139
# 2 -0.001711 0.025187 -0.005544 -0.000215 -0.004672 -0.005550
# 3 -0.012376 -0.005544 0.016839 -0.001548 -0.006677 -0.002510
# 4 0.009009 -0.000215 -0.001548 0.035160 0.008121 -0.001439
# 5 0.009817 -0.004672 -0.006677 0.008121 0.026185 0.004176
# 6 0.010139 -0.005550 -0.002510 -0.001439 0.004176 0.041853
#
#
# Mechanical properties :
#
#
# Convention : Reuss Voigt Hill
#
# Bulk Modulus (GPa) = 38.74875 60.96406 49.85640
# Shear Modulus (GPa) = 23.13420 33.60357 28.36888
#
# Velocity S-wave (km/s) = 3.20731 3.86550 3.55168
# Velocity P-wave (km/s) = 5.56289 6.85791 6.24407
#
# Compressibility (1/GPa) = 0.02580728
#
# Stress axis : x y z
#
# Youngs Moduli (GPa) = 43.39833 39.70266 59.38742
#
# Poissons Ratio (x) = 0.06793 0.73496
# Poissons Ratio (y) = 0.07425 0.32924
# Poissons Ratio (z) = 0.53708 0.22011
#
# Static dielectric constant tensor:
#      x y z
#    x 1.888120 0.030030 0.033660 
#    y 0.030030 1.919950 0.184200 
#    z 0.033660 0.184200 2.103120 
# 
# From -- ./inp_files/343932.got.cif
#   From: 2010.05.17/outbox.cif.g08.bks.cpg/sg2_172_cif.got.tgz:343932.got - 2010.06.03 11:33:40.
