data_PCOD9002343
_publ_section_title
;
Structure prediction by ZEFSAII (Michael W. Deem and Ramdas Pophale) SiO2 
 PCOD9002343
Probable space group: P -1
;
_chemical_formula_sum "Si O2"
_cell_formula_units_Z 16
_cell_length_a 11.132873
_cell_length_b 14.250388
_cell_length_c 8.414310
_cell_angle_alpha 63.644862
_cell_angle_beta 121.964934
_cell_angle_gamma 69.663813
_cell_volume 651.966757
_symmetry_space_group_name_H-M "P -1"
_symmetry_group_IT_number 2
_symmetry_cell_setting 'triclinic'
loop_
_space_group_symop_operation_xyz
x,y,z
-x,-y,-z
loop_
_atom_site_type_symbol
_atom_site_label
_atom_site_fract_x
_atom_site_fract_y
_atom_site_fract_z
Si Si1 0.904045 0.974529 0.576692
Si Si2 0.826184 0.712893 0.157411
Si Si3 0.179207 0.515095 0.775073
Si Si4 0.624940 0.221112 0.450375
Si Si5 0.515769 0.167558 0.926065
Si Si6 0.521052 0.609882 0.460175
Si Si7 0.018830 0.683018 0.869448
Si Si8 0.489951 0.084663 0.625407
O O1 0.841687 0.075602 0.612098
O O2 0.040724 0.793331 0.842647
O O3 0.689636 0.050958 0.276319
O O4 0.000000 0.000000 0.500000
O O5 0.853406 0.592749 0.164284
O O6 0.710933 0.735207 0.221902
O O7 0.063889 0.618840 0.454013
O O8 0.659049 0.895716 0.841853
O O9 0.065746 0.637013 0.751208
O O10 0.441644 0.376234 0.088789
O O11 0.625734 0.283401 0.567103
O O12 0.544753 0.152353 0.503689
O O13 0.534376 0.277488 0.802126
O O14 0.545102 0.084414 0.848305
O O15 0.500000 0.500000 0.500000
O O16 0.777373 0.490560 0.773140
O O17 0.771605 0.788409 0.657734
#
# Coordination Sequence:
#
# PCOD9002343 Si02
#       8
#     2   2   2   2   2   2   2   2
#     4  12  25  46  67  92 128 181 228 266 314 386
#     4  11  20  36  62  99 141 160 208 255 333 397
#     4  10  21  36  60 100 131 165 204 261 328 394
#     4  10  24  44  67  95 132 169 219 274 325 387
#     4  11  21  40  67  94 133 169 212 271 320 388
#     4  10  24  45  64  93 134 179 221 267 319 386
#     4  11  22  40  68  94 131 171 217 264 333 386
#     4  11  22  40  68  99 134 166 211 270 341 386
#
# _framework density 24.541129999999999
#
# number of rings (size 3 to 8) (size 9 to 14) (size 15 to 20)
#    0.000    1.250    3.750    1.875    1.750    3.500 
#    4.500    7.500    0.000    0.000    0.000    0.000 
#    0.000    0.000    0.000    0.000    0.000    0.000 
#
# Total GULP energy -89544.924779 kJ/mol
# GULP energy per Si atom -5596.557799 kJ/mol
# Density = 2.448527 g / cm^3
# Si number density = 24.541130 Si / 1000 Ang^3
#
#
#
# Elastic Constant Matrix: (Units=GPa)
#
#
# Indices 1 2 3 4 5 6 
#
# 1 54.3450 30.9723 -15.3778 -13.4644 -10.9937 -6.4066
# 2 30.9723 143.0127 13.2458 -29.8393 -3.1874 -14.5953
# 3 -15.3778 13.2458 93.7884 -8.3684 -0.7377 -7.9394
# 4 -13.4644 -29.8393 -8.3684 34.8900 -3.0171 3.8245
# 5 -10.9937 -3.1874 -0.7377 -3.0171 17.1680 3.0711
# 6 -6.4066 -14.5953 -7.9394 3.8245 3.0711 27.5603
#
#
#
# Elastic Compliance Matrix: (Units=1/GPa)
#
#
# Indices 1 2 3 4 5 6 
#
# 1 0.029789 -0.004016 0.006854 0.011110 0.020041 0.002998
# 2 -0.004016 0.009508 -0.001224 0.005934 -0.000346 0.002965
# 3 0.006854 -0.001224 0.012705 0.004699 0.004925 0.003405
# 4 0.011110 0.005934 0.004699 0.040530 0.015591 -0.000283
# 5 0.020041 -0.000346 0.004925 0.015591 0.074792 -0.004604
# 6 0.002998 0.002965 0.003405 -0.000283 -0.004604 0.040084
#
#
# Mechanical properties :
#
#
# Convention : Reuss Voigt Hill
#
# Bulk Modulus (GPa) = 18.10526 38.75851 28.43189
# Shear Modulus (GPa) = 22.46283 33.41072 27.93678
#
# Velocity S-wave (km/s) = 3.02870 3.69374 3.37763
# Velocity P-wave (km/s) = 4.42992 5.83260 5.17897
#
# Compressibility (1/GPa) = 0.05523258
#
# Stress axis : x y z
#
# Youngs Moduli (GPa) = 33.56920 105.17140 78.70853
#
# Poissons Ratio (x) = 0.42232 -0.53948
# Poissons Ratio (y) = 0.13480 0.09631
# Poissons Ratio (z) = -0.23009 0.12869
#
# Static dielectric constant tensor:
#      x y z
#    x 1.939450 0.023210 0.073090 
#    y 0.023210 1.933140 0.030580 
#    z 0.073090 0.030580 2.034220 
# 
# From -- ./inp_files/272213.got.cif
#   From: 2010.05.17/outbox.cif.g08.bks.cpg/sg2_137_cif.got.tgz:272213.got - 2010.06.03 11:33:40.
