data_PCOD9002851
_publ_section_title
;
Structure prediction by ZEFSAII (Michael W. Deem and Ramdas Pophale) SiO2 
 PCOD9002851
Probable space group: P -1
;
_chemical_formula_sum "Si O2"
_cell_formula_units_Z 12
_cell_length_a 8.873091
_cell_length_b 13.604381
_cell_length_c 5.834509
_cell_angle_alpha 120.596823
_cell_angle_beta 89.063477
_cell_angle_gamma 74.028445
_cell_volume 572.335499
_symmetry_space_group_name_H-M "P -1"
_symmetry_group_IT_number 2
_symmetry_cell_setting 'triclinic'
loop_
_space_group_symop_operation_xyz
x,y,z
-x,-y,-z
loop_
_atom_site_type_symbol
_atom_site_label
_atom_site_fract_x
_atom_site_fract_y
_atom_site_fract_z
Si Si1 0.147929 0.606603 0.187466
Si Si2 0.380133 0.983090 0.291403
Si Si3 0.336544 0.780267 0.290113
Si Si4 0.869894 0.567303 0.398459
Si Si5 0.588300 0.803780 0.691695
Si Si6 0.542672 0.543793 0.796395
O O1 0.202301 0.724275 0.307247
O O2 0.266951 0.513894 0.252556
O O3 0.968274 0.624816 0.288398
O O4 0.176149 0.534701 0.861352
O O5 0.274714 0.912689 0.334141
O O6 0.500000 0.000000 0.500000
O O7 0.316315 0.114166 0.332459
O O8 0.487200 0.889760 0.993112
O O9 0.459338 0.781644 0.492891
O O10 0.446995 0.685236 0.991142
O O11 0.714625 0.676074 0.607201
O O12 0.000000 0.500000 0.500000
O O13 0.500000 0.500000 0.500000
O O14 0.500000 0.500000 0.000000
#
# Coordination Sequence:
#
# PCOD9002851 Si02
#       6
#     2   2   2   2   2   2
#     4  10  24  39  54  97 126 163 208 249 322 386
#     4   9  21  37  64  88 115 156 208 272 316 361
#     4  10  21  36  66  88 120 158 213 266 311 370
#     4  11  25  38  59  86 135 171 197 252 322 392
#     4  10  21  41  60  92 119 158 215 258 315 382
#     4  10  22  35  61  96 130 161 209 269 320 376
#
# _framework density 20.966723999999999
#
# number of rings (size 3 to 8) (size 9 to 14) (size 15 to 20)
#    0.000    2.000    1.667    0.000   11.667    1.333 
#    0.000    0.833    0.000   10.000    0.000    0.000 
#    0.000    0.000    0.000    0.000    0.000    0.000 
#
# Total GULP energy -66887.360994 kJ/mol
# GULP energy per Si atom -5573.946750 kJ/mol
# Density = 2.091900 g / cm^3
# Si number density = 20.966724 Si / 1000 Ang^3
#
#
#
# Elastic Constant Matrix: (Units=GPa)
#
#
# Indices 1 2 3 4 5 6 
#
# 1 74.7419 20.1291 23.8047 3.6120 10.5205 19.4329
# 2 20.1291 120.0811 20.6667 5.8740 21.2161 20.5816
# 3 23.8047 20.6667 156.9950 -7.2789 23.8798 -14.2850
# 4 3.6120 5.8740 -7.2789 27.0586 -0.9993 12.2755
# 5 10.5205 21.2161 23.8798 -0.9993 33.9871 2.1543
# 6 19.4329 20.5816 -14.2850 12.2755 2.1543 42.4363
#
#
#
# Elastic Compliance Matrix: (Units=1/GPa)
#
#
# Indices 1 2 3 4 5 6 
#
# 1 0.016969 -0.000495 -0.002898 0.000900 -0.002333 -0.008648
# 2 -0.000495 0.010346 -0.000918 -0.000501 -0.005378 -0.004682
# 3 -0.002898 -0.000918 0.008047 0.000519 -0.004457 0.004557
# 4 0.000900 -0.000501 0.000519 0.042802 0.001718 -0.012463
# 5 -0.002333 -0.005378 -0.004457 0.001718 0.036696 -0.000184
# 6 -0.008648 -0.004682 0.004557 -0.012463 -0.000184 0.034944
#
#
# Mechanical properties :
#
#
# Convention : Reuss Voigt Hill
#
# Bulk Modulus (GPa) = 37.39932 53.44657 45.42294
# Shear Modulus (GPa) = 29.87930 39.84424 34.86177
#
# Velocity S-wave (km/s) = 3.77912 4.36404 4.08207
# Velocity P-wave (km/s) = 6.07606 7.13720 6.62790
#
# Compressibility (1/GPa) = 0.02673845
#
# Stress axis : x y z
#
# Youngs Moduli (GPa) = 58.93068 96.65639 124.27656
#
# Poissons Ratio (x) = 0.04788 0.36017
# Poissons Ratio (y) = 0.02919 0.11409
# Poissons Ratio (z) = 0.17079 0.08874
#
# Static dielectric constant tensor:
#      x y z
#    x 1.826580 0.097740 -0.024060 
#    y 0.097740 1.845560 -0.026060 
#    z -0.024060 -0.026060 1.746890 
# 
# From -- ./inp_files/24050.got.cif
#   From: 2010.05.17/outbox.cif.g08.bks.cpg/sg2_13_cif.got.tgz:24050.got - 2010.06.03 11:33:40.
