data_PCOD9002182
_publ_section_title
;
Structure prediction by ZEFSAII (Michael W. Deem and Ramdas Pophale) SiO2 
 PCOD9002182
Probable space group: P -1
;
_chemical_formula_sum "Si O2"
_cell_formula_units_Z 10
_cell_length_a 7.228958
_cell_length_b 11.090331
_cell_length_c 8.701261
_cell_angle_alpha 90.835334
_cell_angle_beta 77.736242
_cell_angle_gamma 38.186510
_cell_volume 401.949772
_symmetry_space_group_name_H-M "P -1"
_symmetry_group_IT_number 2
_symmetry_cell_setting 'triclinic'
loop_
_space_group_symop_operation_xyz
x,y,z
-x,-y,-z
loop_
_atom_site_type_symbol
_atom_site_label
_atom_site_fract_x
_atom_site_fract_y
_atom_site_fract_z
Si Si1 0.756872 0.341466 0.084104
Si Si2 0.794694 0.815950 0.245148
Si Si3 0.152847 0.051080 0.470320
Si Si4 0.650261 0.638423 0.709732
Si Si5 0.140454 0.578639 0.634338
O O1 0.676186 0.250974 0.165441
O O2 0.714921 0.460964 0.229001
O O3 0.500000 0.500000 0.000000
O O4 0.093901 0.190876 0.938332
O O5 0.768630 0.938918 0.373514
O O6 0.073455 0.586712 0.262451
O O7 0.472941 0.903046 0.309797
O O8 0.905332 0.272989 0.444216
O O9 0.000000 0.000000 0.500000
O O10 0.677162 0.601329 0.521204
O O11 0.788117 0.699619 0.720074
#
# Coordination Sequence:
#
# PCOD9002182 Si02
#       5
#     2   2   2   2   2
#     4  10  21  36  58  89 120 149 186 237 290 337
#     4   9  21  38  56  85 115 148 193 233 284 343
#     4  10  22  40  59  79 114 157 192 234 284 339
#     4   9  20  38  61  86 116 149 190 240 282 337
#     4  10  21  37  60  87 115 152 195 232 283 342
#
# _framework density 24.878730000000001
#
# number of rings (size 3 to 8) (size 9 to 14) (size 15 to 20)
#    0.000    2.400    0.000    0.600    0.000   16.800 
#    0.000    2.000    0.000    0.000    0.000    0.000 
#    0.000    0.000    0.000    0.000    0.000    0.000 
#
# Total GULP energy -55974.155473 kJ/mol
# GULP energy per Si atom -5597.415547 kJ/mol
# Density = 2.482210 g / cm^3
# Si number density = 24.878730 Si / 1000 Ang^3
#
#
#
# Elastic Constant Matrix: (Units=GPa)
#
#
# Indices 1 2 3 4 5 6 
#
# 1 233.7806 24.3717 82.3714 -9.0173 -26.3139 18.2032
# 2 24.3717 44.5073 14.4448 -0.4318 7.3510 0.8893
# 3 82.3714 14.4448 145.6753 -17.5248 -25.8346 -7.2411
# 4 -9.0173 -0.4318 -17.5248 29.1273 -15.4943 -0.6022
# 5 -26.3139 7.3510 -25.8346 -15.4943 60.0392 -6.4194
# 6 18.2032 0.8893 -7.2411 -0.6022 -6.4194 39.8523
#
#
#
# Elastic Compliance Matrix: (Units=1/GPa)
#
#
# Indices 1 2 3 4 5 6 
#
# 1 0.006009 -0.002547 -0.002902 0.000870 0.001607 -0.002943
# 2 -0.002547 0.026161 -0.003341 -0.006465 -0.007569 -0.001344
# 3 -0.002902 -0.003341 0.011540 0.009911 0.007174 0.004802
# 4 0.000870 -0.006465 0.009911 0.050746 0.019110 0.005392
# 5 0.001607 -0.007569 0.007174 0.019110 0.026878 0.005357
# 6 -0.002943 -0.001344 0.004802 0.005392 0.005357 0.028284
#
#
# Mechanical properties :
#
#
# Convention : Reuss Voigt Hill
#
# Bulk Modulus (GPa) = 38.26845 74.03765 56.15305
# Shear Modulus (GPa) = 28.42399 45.98877 37.20638
#
# Velocity S-wave (km/s) = 3.38376 4.30410 3.87138
# Velocity P-wave (km/s) = 5.53912 7.38407 6.52711
#
# Compressibility (1/GPa) = 0.02613119
#
# Stress axis : x y z
#
# Youngs Moduli (GPa) = 166.41434 38.22428 86.65563
#
# Poissons Ratio (x) = 0.09735 0.25147
# Poissons Ratio (y) = 0.42383 0.28950
# Poissons Ratio (z) = 0.48292 0.12770
#
# Static dielectric constant tensor:
#      x y z
#    x 1.985070 -0.025310 -0.047050 
#    y -0.025310 2.067100 0.039020 
#    z -0.047050 0.039020 1.958600 
# 
# From -- ./inp_files/16057.got.cif
#   From: 2010.05.17/outbox.cif.g08.bks.cpg/sg2_9_cif.got.tgz:16057.got - 2010.06.03 11:33:40.
