data_PCOD9002232
_publ_section_title
;
Structure prediction by ZEFSAII (Michael W. Deem and Ramdas Pophale) SiO2 
 PCOD9002232
Probable space group: P -1
;
_chemical_formula_sum "Si O2"
_cell_formula_units_Z 14
_cell_length_a 10.994005
_cell_length_b 12.124979
_cell_length_c 5.362457
_cell_angle_alpha 102.088522
_cell_angle_beta 116.139071
_cell_angle_gamma 111.191927
_cell_volume 537.155712
_symmetry_space_group_name_H-M "P -1"
_symmetry_group_IT_number 2
_symmetry_cell_setting 'triclinic'
loop_
_space_group_symop_operation_xyz
x,y,z
-x,-y,-z
loop_
_atom_site_type_symbol
_atom_site_label
_atom_site_fract_x
_atom_site_fract_y
_atom_site_fract_z
Si Si1 0.169131 0.161135 0.976229
Si Si2 0.546265 0.224978 0.899946
Si Si3 0.662125 0.178689 0.473772
Si Si4 0.932013 0.711761 0.682658
Si Si5 0.851106 0.447095 0.525691
Si Si6 0.634625 0.642109 0.102962
Si Si7 0.853846 0.087432 0.349626
O O1 0.326276 0.301458 0.116707
O O2 0.021439 0.124874 0.640699
O O3 0.204530 0.045726 0.916955
O O4 0.098254 0.180260 0.171274
O O5 0.548129 0.151507 0.119531
O O6 0.696711 0.369880 0.172084
O O7 0.579109 0.168773 0.654563
O O8 0.401857 0.250672 0.756720
O O9 0.742890 0.092265 0.463433
O O10 0.803448 0.332577 0.632351
O O11 0.888048 0.584825 0.747332
O O12 0.794140 0.648296 0.326139
O O13 0.102886 0.792784 0.747815
O O14 0.000000 0.500000 0.500000
O O15 0.500000 0.500000 0.000000
#
# Coordination Sequence:
#
# PCOD9002232 Si02
#       7
#     2   2   2   2   2   2   2
#     4  10  25  39  67  92 126 172 218 269 326 387
#     4  10  24  41  61  95 132 171 218 262 329 386
#     4  10  23  40  66  90 131 172 208 277 318 391
#     4  11  21  39  67  95 125 173 207 277 323 391
#     4  10  21  36  59 101 127 166 212 266 332 387
#     4  11  23  41  60  92 133 169 220 263 323 388
#     4  10  22  44  61  96 127 165 221 271 328 386
#
# _framework density 26.063206999999998
#
# number of rings (size 3 to 8) (size 9 to 14) (size 15 to 20)
#    0.857    0.857    2.857    0.429    8.000    1.143 
#    0.000    1.429    0.000    0.000    0.000    0.000 
#    0.000    0.000    0.000    0.000    0.000    0.000 
#
# Total GULP energy -78101.971230 kJ/mol
# GULP energy per Si atom -5578.712231 kJ/mol
# Density = 2.600389 g / cm^3
# Si number density = 26.063207 Si / 1000 Ang^3
#
#
#
# Elastic Constant Matrix: (Units=GPa)
#
#
# Indices 1 2 3 4 5 6 
#
# 1 114.6615 13.9643 18.6682 3.4040 -24.5006 -5.6375
# 2 13.9643 76.1075 28.6008 15.0917 1.3889 -13.9191
# 3 18.6682 28.6008 57.4225 -2.7460 -15.3905 8.0595
# 4 3.4040 15.0917 -2.7460 20.4649 1.6125 -6.6567
# 5 -24.5006 1.3889 -15.3905 1.6125 47.1059 9.5143
# 6 -5.6375 -13.9191 8.0595 -6.6567 9.5143 40.4908
#
#
#
# Elastic Compliance Matrix: (Units=1/GPa)
#
#
# Indices 1 2 3 4 5 6 
#
# 1 0.010191 -0.001107 -0.001511 -0.001486 0.004902 -0.000057
# 2 -0.001107 0.025020 -0.016700 -0.016234 -0.008454 0.011088
# 3 -0.001511 -0.016700 0.031988 0.011535 0.012459 -0.013350
# 4 -0.001486 -0.016234 0.011535 0.063247 0.000884 0.002106
# 5 0.004902 -0.008454 0.012459 0.000884 0.030433 -0.011709
# 6 -0.000057 0.011088 -0.013350 0.002106 -0.011709 0.034255
#
#
# Mechanical properties :
#
#
# Convention : Reuss Voigt Hill
#
# Bulk Modulus (GPa) = 35.01072 41.18423 38.09747
# Shear Modulus (GPa) = 20.55150 34.07621 27.31385
#
# Velocity S-wave (km/s) = 2.81112 3.61978 3.24077
# Velocity P-wave (km/s) = 4.89884 5.77117 5.35281
#
# Compressibility (1/GPa) = 0.02856268
#
# Stress axis : x y z
#
# Youngs Moduli (GPa) = 98.12692 39.96865 31.26126
#
# Poissons Ratio (x) = 0.04426 0.04723
# Poissons Ratio (y) = 0.10866 0.52206
# Poissons Ratio (z) = 0.14824 0.66748
#
# Static dielectric constant tensor:
#      x y z
#    x 2.023840 -0.010420 0.015810 
#    y -0.010420 2.176400 -0.015550 
#    z 0.015810 -0.015550 2.050680 
# 
# From -- ./inp_files/72049.got.cif
#   From: 2010.05.17/outbox.cif.g08.bks.cpg/sg2_37_cif.got.tgz:72049.got - 2010.06.03 11:33:40.
