data_PCOD9002666
_publ_section_title
;
Structure prediction by ZEFSAII (Michael W. Deem and Ramdas Pophale) SiO2 
 PCOD9002666
Probable space group: P -1
;
_chemical_formula_sum "Si O2"
_cell_formula_units_Z 14
_cell_length_a 6.918519
_cell_length_b 18.105365
_cell_length_c 5.336472
_cell_angle_alpha 117.890514
_cell_angle_beta 82.677384
_cell_angle_gamma 91.804778
_cell_volume 585.692441
_symmetry_space_group_name_H-M "P -1"
_symmetry_group_IT_number 2
_symmetry_cell_setting 'triclinic'
loop_
_space_group_symop_operation_xyz
x,y,z
-x,-y,-z
loop_
_atom_site_type_symbol
_atom_site_label
_atom_site_fract_x
_atom_site_fract_y
_atom_site_fract_z
Si Si1 0.729046 0.135482 0.756465
Si Si2 0.180466 0.293628 0.393427
Si Si3 0.607257 0.468662 0.684093
Si Si4 0.131437 0.390997 0.066542
Si Si5 0.372190 0.111015 0.062967
Si Si6 0.212220 0.687810 0.766523
Si Si7 0.224769 0.937702 0.864604
O O1 0.837904 0.109721 0.446467
O O2 0.506159 0.106016 0.781578
O O3 0.717627 0.233730 0.969033
O O4 0.843464 0.092375 0.902399
O O5 0.237196 0.340429 0.199432
O O6 0.285086 0.203664 0.259520
O O7 0.951185 0.280740 0.354474
O O8 0.193102 0.351608 0.727997
O O9 0.500000 0.500000 0.500000
O O10 0.814578 0.513398 0.754149
O O11 0.633200 0.369496 0.496287
O O12 0.500000 0.500000 0.000000
O O13 0.905159 0.372657 0.123428
O O14 0.543677 0.090615 0.201761
O O15 0.221880 0.037038 0.988434
#
# Coordination Sequence:
#
# PCOD9002666 Si02
#       7
#     2   2   2   2   2   2   2
#     4  10  21  36  63  89 123 162 211 258 299 364
#     4  10  24  39  67  88 126 169 207 245 320 366
#     4  12  28  43  70  96 123 159 214 258 307 369
#     4  10  25  44  64  90 130 165 200 255 317 374
#     4   9  21  37  63  89 125 163 213 254 305 360
#     4  10  27  42  65  92 131 163 205 255 317 371
#     4   9  21  34  62  90 126 160 211 259 305 349
#
# _framework density 23.903333
#
# number of rings (size 3 to 8) (size 9 to 14) (size 15 to 20)
#    1.714    0.286    0.000    1.714   10.000    0.571 
#    0.000    1.429    0.000    0.000    0.000    0.000 
#    0.000    0.000    0.000    0.000    0.000    0.000 
#
# Total GULP energy -78143.172905 kJ/mol
# GULP energy per Si atom -5581.655207 kJ/mol
# Density = 2.384893 g / cm^3
# Si number density = 23.903333 Si / 1000 Ang^3
#
#
#
# Elastic Constant Matrix: (Units=GPa)
#
#
# Indices 1 2 3 4 5 6 
#
# 1 30.6262 -4.9241 6.2340 -4.1066 -12.5602 -11.5113
# 2 -4.9241 44.5981 32.7552 1.1513 6.8668 2.8271
# 3 6.2340 32.7552 141.9826 -22.2143 6.1269 -18.2394
# 4 -4.1066 1.1513 -22.2143 44.6524 -1.3786 -2.8490
# 5 -12.5602 6.8668 6.1269 -1.3786 24.2894 7.4683
# 6 -11.5113 2.8271 -18.2394 -2.8490 7.4683 33.0686
#
#
#
# Elastic Compliance Matrix: (Units=1/GPa)
#
#
# Indices 1 2 3 4 5 6 
#
# 1 0.046543 0.001991 -0.001182 0.004990 0.020660 0.011144
# 2 0.001991 0.029952 -0.008457 -0.005304 -0.003715 -0.006150
# 3 -0.001182 -0.008457 0.011100 0.006026 -0.003027 0.007637
# 4 0.004990 -0.005304 0.006026 0.026516 0.001791 0.007394
# 5 0.020660 -0.003715 -0.003027 0.001791 0.055801 -0.006608
# 6 0.011144 -0.006150 0.007637 0.007394 -0.006608 0.040986
#
#
# Mechanical properties :
#
#
# Convention : Reuss Voigt Hill
#
# Bulk Modulus (GPa) = 13.83141 31.70410 22.76776
# Shear Modulus (GPa) = 19.97648 32.61155 26.29402
#
# Velocity S-wave (km/s) = 2.89402 3.69766 3.32024
# Velocity P-wave (km/s) = 4.11899 5.61449 4.92385
#
# Compressibility (1/GPa) = 0.07229921
#
# Stress axis : x y z
#
# Youngs Moduli (GPa) = 21.48556 33.38641 90.08698
#
# Poissons Ratio (x) = -0.06647 0.10649
# Poissons Ratio (y) = -0.04277 0.76186
# Poissons Ratio (z) = 0.02540 0.28235
#
# Static dielectric constant tensor:
#      x y z
#    x 2.000770 0.049060 -0.005260 
#    y 0.049060 1.926430 -0.017390 
#    z -0.005260 -0.017390 1.832570 
# 
# From -- ./inp_files/49267.got.cif
#   From: 2010.05.17/outbox.cif.g08.bks.cpg/sg2_25_cif.got.tgz:49267.got - 2010.06.03 11:33:40.
