data_PCOD9002753
_publ_section_title
;
Structure prediction by ZEFSAII (Michael W. Deem and Ramdas Pophale) SiO2 
 PCOD9002753
Probable space group: P -1
;
_chemical_formula_sum "Si O2"
_cell_formula_units_Z 16
_cell_length_a 8.797201
_cell_length_b 13.426998
_cell_length_c 19.087915
_cell_angle_alpha 34.510519
_cell_angle_beta 102.639665
_cell_angle_gamma 75.327319
_cell_volume 773.195095
_symmetry_space_group_name_H-M "P -1"
_symmetry_group_IT_number 2
_symmetry_cell_setting 'triclinic'
loop_
_space_group_symop_operation_xyz
x,y,z
-x,-y,-z
loop_
_atom_site_type_symbol
_atom_site_label
_atom_site_fract_x
_atom_site_fract_y
_atom_site_fract_z
Si Si1 0.568099 0.390678 0.149839
Si Si2 0.650288 0.027670 0.468227
Si Si3 0.966670 0.781878 0.155944
Si Si4 0.156194 0.749753 0.394108
Si Si5 0.277510 0.793661 0.236380
Si Si6 0.844279 0.532327 0.227271
Si Si7 0.139478 0.864863 0.481359
Si Si8 0.331094 0.911566 0.912878
O O1 0.531247 0.226842 0.271732
O O2 0.500000 0.500000 0.000000
O O3 0.430037 0.647988 0.037910
O O4 0.868823 0.144012 0.326360
O O5 0.926312 0.711616 0.659694
O O6 0.500000 0.000000 0.500000
O O7 0.674349 0.160184 0.451599
O O8 0.939816 0.598248 0.251017
O O9 0.226342 0.642970 0.286177
O O10 0.771526 0.015172 0.060957
O O11 0.886690 0.933617 0.985746
O O12 0.182777 0.860699 0.267273
O O13 0.430374 0.418875 0.615705
O O14 0.114613 0.887554 0.382331
O O15 0.923918 0.825424 0.309456
O O16 0.793289 0.394599 0.341923
O O17 0.579520 0.812600 0.000610
#
# Coordination Sequence:
#
# PCOD9002753 Si02
#       8
#     2   2   2   2   2   2   2   2
#     4  11  21  42  68  93 128 166 217 263 323 384
#     4  11  25  41  67  96 127 171 216 270 325 384
#     4  10  22  38  66  90 125 170 216 264 316 384
#     4  10  21  36  64  90 126 173 202 258 331 373
#     4   9  21  41  57  94 132 164 206 266 328 377
#     4  11  22  41  63  95 124 166 222 261 311 389
#     4  11  21  41  68  89 125 169 216 265 317 388
#     4  11  20  38  64  92 122 172 216 260 313 385
#
# _framework density 20.693356000000001
#
# number of rings (size 3 to 8) (size 9 to 14) (size 15 to 20)
#    0.000    1.500    3.750    1.875    1.750    2.000 
#    0.000    8.750    0.000    0.000    0.000    0.000 
#    0.000    0.000    0.000    0.000    0.000    0.000 
#
# Total GULP energy -89235.986971 kJ/mol
# GULP energy per Si atom -5577.249186 kJ/mol
# Density = 2.064626 g / cm^3
# Si number density = 20.693356 Si / 1000 Ang^3
#
#
#
# Elastic Constant Matrix: (Units=GPa)
#
#
# Indices 1 2 3 4 5 6 
#
# 1 109.2447 41.0615 40.0565 9.9706 -3.9896 17.2293
# 2 41.0615 109.3948 30.8317 11.9329 -11.4440 -4.8691
# 3 40.0565 30.8317 68.6039 19.4670 10.8129 5.9942
# 4 9.9706 11.9329 19.4670 30.2640 -3.8624 -2.1674
# 5 -3.9896 -11.4440 10.8129 -3.8624 30.3473 1.3797
# 6 17.2293 -4.8691 5.9942 -2.1674 1.3797 30.7399
#
#
#
# Elastic Compliance Matrix: (Units=1/GPa)
#
#
# Indices 1 2 3 4 5 6 
#
# 1 0.014158 -0.003423 -0.006966 0.001100 0.003520 -0.007200
# 2 -0.003423 0.012681 -0.005242 0.000611 0.006063 0.004720
# 3 -0.006966 -0.005242 0.028050 -0.015769 -0.014764 -0.002845
# 4 0.001100 0.000611 -0.015769 0.044409 0.011410 0.005174
# 5 0.003520 0.006063 -0.014764 0.011410 0.042379 0.000769
# 6 -0.007200 0.004720 -0.002845 0.005174 0.000769 0.038199
#
#
# Mechanical properties :
#
#
# Convention : Reuss Voigt Hill
#
# Bulk Modulus (GPa) = 42.32459 56.79365 49.55912
# Shear Modulus (GPa) = 22.82955 29.95649 26.39302
#
# Velocity S-wave (km/s) = 3.32510 3.80891 3.57520
# Velocity P-wave (km/s) = 5.93627 6.84461 6.40656
#
# Compressibility (1/GPa) = 0.02362693
#
# Stress axis : x y z
#
# Youngs Moduli (GPa) = 70.62953 78.85706 35.65098
#
# Poissons Ratio (x) = 0.26995 0.24835
# Poissons Ratio (y) = 0.24178 0.18688
# Poissons Ratio (z) = 0.49201 0.41336
#
# Static dielectric constant tensor:
#      x y z
#    x 1.751020 0.000030 0.024430 
#    y 0.000030 1.737770 0.024830 
#    z 0.024430 0.024830 1.814520 
# 
# From -- ./inp_files/205958.got.cif
#   From: 2010.05.17/outbox.cif.g08.bks.cpg/sg2_103_cif.got.tgz:205958.got - 2010.06.03 11:33:40.
