data_PCOD9002950
_publ_section_title
;
Structure prediction by ZEFSAII (Michael W. Deem and Ramdas Pophale) SiO2 
 PCOD9002950
Probable space group: P -1
;
_chemical_formula_sum "Si O2"
_cell_formula_units_Z 14
_cell_length_a 21.015416
_cell_length_b 4.961576
_cell_length_c 19.980188
_cell_angle_alpha 64.002738
_cell_angle_beta 160.216054
_cell_angle_gamma 107.242711
_cell_volume 585.888647
_symmetry_space_group_name_H-M "P -1"
_symmetry_group_IT_number 2
_symmetry_cell_setting 'triclinic'
loop_
_space_group_symop_operation_xyz
x,y,z
-x,-y,-z
loop_
_atom_site_type_symbol
_atom_site_label
_atom_site_fract_x
_atom_site_fract_y
_atom_site_fract_z
Si Si1 0.475690 0.957135 0.058590
Si Si2 0.327322 0.716809 0.394696
Si Si3 0.263739 0.229781 0.159816
Si Si4 0.673897 0.208009 0.340218
Si Si5 0.657823 0.900912 0.900762
Si Si6 0.895435 0.708513 0.808130
Si Si7 0.851080 0.157305 0.175552
O O1 0.614574 0.585534 0.255906
O O2 0.554646 0.181007 0.157810
O O3 0.247020 0.001210 0.848297
O O4 0.500000 0.000000 0.000000
O O5 0.550231 0.680848 0.639852
O O6 0.295168 0.391697 0.382780
O O7 0.263052 0.946822 0.240605
O O8 0.179470 0.919253 0.286117
O O9 0.295695 0.101043 0.130679
O O10 0.059421 0.548702 0.931095
O O11 0.571813 0.060108 0.312200
O O12 0.912242 0.024728 0.584793
O O13 0.794691 0.530562 0.098614
O O14 0.723088 0.140140 0.984621
O O15 0.000000 0.500000 0.000000
#
# Coordination Sequence:
#
# PCOD9002950 Si02
#       7
#     2   2   2   2   2   2   2
#     4  10  21  37  61  92 118 147 189 229 272 328
#     4  10  23  38  57  83 110 142 185 238 297 345
#     4  10  22  38  59  81 111 146 187 239 289 339
#     4  10  21  39  58  83 121 152 186 231 273 327
#     4  10  23  37  56  83 111 150 196 232 275 337
#     4  10  21  37  55  79 108 138 177 229 286 346
#     4  10  22  40  58  82 118 154 187 231 276 324
#
# _framework density 23.895325
#
# number of rings (size 3 to 8) (size 9 to 14) (size 15 to 20)
#    0.000    2.000    0.000    3.000    0.000   14.286 
#    0.000    0.000    0.000    0.000    0.000    0.000 
#    0.000    0.000    0.000    0.000    0.000    0.000 
#
# Total GULP energy -78436.009485 kJ/mol
# GULP energy per Si atom -5602.572106 kJ/mol
# Density = 2.384094 g / cm^3
# Si number density = 23.895325 Si / 1000 Ang^3
#
#
#
# Elastic Constant Matrix: (Units=GPa)
#
#
# Indices 1 2 3 4 5 6 
#
# 1 156.6618 4.7480 22.6976 4.7607 20.3052 -10.7204
# 2 4.7480 73.8684 5.9937 6.7403 0.0736 -15.5778
# 3 22.6976 5.9937 97.9172 -1.6164 45.3830 11.1667
# 4 4.7607 6.7403 -1.6164 25.5411 -6.8121 2.4687
# 5 20.3052 0.0736 45.3830 -6.8121 37.0210 -1.8264
# 6 -10.7204 -15.5778 11.1667 2.4687 -1.8264 26.8692
#
#
#
# Elastic Compliance Matrix: (Units=1/GPa)
#
#
# Indices 1 2 3 4 5 6 
#
# 1 0.007240 0.000522 -0.000284 -0.002889 -0.003992 0.003304
# 2 0.000522 0.017255 -0.005965 -0.004519 0.006830 0.013571
# 3 -0.000284 -0.005965 0.031268 -0.005260 -0.040059 -0.018806
# 4 -0.002889 -0.004519 -0.005260 0.045307 0.016149 -0.004651
# 5 -0.003992 0.006830 -0.040059 0.016149 0.082407 0.023133
# 6 0.003304 0.013571 -0.018806 -0.004651 0.023133 0.056219
#
#
# Mechanical properties :
#
#
# Convention : Reuss Voigt Hill
#
# Bulk Modulus (GPa) = 22.56891 43.92510 33.24700
# Shear Modulus (GPa) = 18.80255 37.55347 28.17801
#
# Velocity S-wave (km/s) = 2.80817 3.96862 3.43771
# Velocity P-wave (km/s) = 4.46988 6.27870 5.44986
#
# Compressibility (1/GPa) = 0.04430875
#
# Stress axis : x y z
#
# Youngs Moduli (GPa) = 138.12493 57.95274 31.98139
#
# Poissons Ratio (x) = -0.03025 0.00910
# Poissons Ratio (y) = -0.07210 0.19077
# Poissons Ratio (z) = 0.03928 0.34568
#
# Static dielectric constant tensor:
#      x y z
#    x 1.929410 0.034520 0.019470 
#    y 0.034520 1.869560 -0.012430 
#    z 0.019470 -0.012430 1.913230 
# 
# From -- ./inp_files/580721.got.cif
#   From: 2010.05.17/outbox.cif.g08.bks.cpg/sg2_291_cif.got.tgz:580721.got - 2010.06.03 11:33:40.
