data_PCOD9002993
_publ_section_title
;
Structure prediction by ZEFSAII (Michael W. Deem and Ramdas Pophale) SiO2 
 PCOD9002993
Probable space group: P -1
;
_chemical_formula_sum "Si O2"
_cell_formula_units_Z 14
_cell_length_a 6.384063
_cell_length_b 5.198337
_cell_length_c 22.747181
_cell_angle_alpha 113.952673
_cell_angle_beta 85.359089
_cell_angle_gamma 124.086156
_cell_volume 560.539888
_symmetry_space_group_name_H-M "P -1"
_symmetry_group_IT_number 2
_symmetry_cell_setting 'triclinic'
loop_
_space_group_symop_operation_xyz
x,y,z
-x,-y,-z
loop_
_atom_site_type_symbol
_atom_site_label
_atom_site_fract_x
_atom_site_fract_y
_atom_site_fract_z
Si Si1 0.345874 0.068346 0.404777
Si Si2 0.081908 0.448623 0.556930
Si Si3 0.582451 0.398129 0.714114
Si Si4 0.982032 0.052368 0.314671
Si Si5 0.597443 0.458502 0.056074
Si Si6 0.644148 0.311178 0.834299
Si Si7 0.169438 0.950243 0.097128
O O1 0.623202 0.425026 0.438009
O O2 0.177511 0.048608 0.353025
O O3 0.416821 0.802114 0.361671
O O4 0.148540 0.926204 0.449883
O O5 0.077049 0.694909 0.629040
O O6 0.000000 0.500000 0.500000
O O7 0.592517 0.232619 0.759511
O O8 0.851011 0.769905 0.731479
O O9 0.297429 0.316686 0.716943
O O10 0.583895 0.704761 0.127324
O O11 0.390871 0.085833 0.055292
O O12 0.500000 0.500000 0.000000
O O13 0.893363 0.605884 0.059396
O O14 0.853850 0.727923 0.870858
O O15 0.721468 0.104368 0.851328
#
# Coordination Sequence:
#
# PCOD9002993 Si02
#       7
#     2   2   2   2   2   2   2
#     4  10  21  37  57  83 113 154 190 241 298 351
#     4  10  21  37  56  85 115 147 195 241 290 359
#     4  10  23  37  59  83 118 149 197 246 293 363
#     4  10  22  39  57  85 114 153 194 241 300 353
#     4  10  24  43  65  94 127 166 210 260 312 372
#     4  10  26  41  65  94 126 166 211 257 315 370
#     4  10  25  41  65  93 127 162 212 254 317 368
#
# _framework density 24.975922000000001
#
# number of rings (size 3 to 8) (size 9 to 14) (size 15 to 20)
#    0.857    1.143    0.000    1.714    6.000    2.286 
#    0.000    0.000    0.000    0.000    0.000    0.000 
#    0.000    0.000    0.000    0.000    0.000    0.000 
#
# Total GULP energy -78141.796909 kJ/mol
# GULP energy per Si atom -5581.556922 kJ/mol
# Density = 2.491908 g / cm^3
# Si number density = 24.975922 Si / 1000 Ang^3
#
#
#
# Elastic Constant Matrix: (Units=GPa)
#
#
# Indices 1 2 3 4 5 6 
#
# 1 99.0124 67.2529 33.8485 -22.2627 8.9249 53.1058
# 2 67.2529 140.6008 53.5339 -34.6081 -0.3452 55.8419
# 3 33.8485 53.5339 106.8689 -41.7921 -0.4969 25.7179
# 4 -22.2627 -34.6081 -41.7921 50.3505 -13.2177 -1.0125
# 5 8.9249 -0.3452 -0.4969 -13.2177 46.7145 1.6442
# 6 53.1058 55.8419 25.7179 -1.0125 1.6442 60.6776
#
#
#
# Elastic Compliance Matrix: (Units=1/GPa)
#
#
# Indices 1 2 3 4 5 6 
#
# 1 0.023526 -0.001641 0.002266 0.010546 -0.000800 -0.019842
# 2 -0.001641 0.015733 0.000051 0.010913 0.003975 -0.012990
# 3 0.002266 0.000051 0.017278 0.016433 0.004725 -0.009207
# 4 0.010546 0.010913 0.016433 0.048527 0.012878 -0.025777
# 5 -0.000800 0.003975 0.004725 0.012878 0.025474 -0.005436
# 6 -0.019842 -0.012990 -0.009207 -0.025777 -0.005436 0.049421
#
#
# Mechanical properties :
#
#
# Convention : Reuss Voigt Hill
#
# Bulk Modulus (GPa) = 17.27468 72.86141 45.06805
# Shear Modulus (GPa) = 25.26474 44.33830 34.80152
#
# Velocity S-wave (km/s) = 3.18396 4.21793 3.73688
# Velocity P-wave (km/s) = 4.52199 7.27717 6.05828
#
# Compressibility (1/GPa) = 0.05788820
#
# Stress axis : x y z
#
# Youngs Moduli (GPa) = 42.50674 63.56006 57.87643
#
# Poissons Ratio (x) = 0.10432 -0.13116
# Poissons Ratio (y) = 0.06977 -0.00293
# Poissons Ratio (z) = -0.09633 -0.00322
#
# Static dielectric constant tensor:
#      x y z
#    x 1.975460 -0.020670 -0.066090 
#    y -0.020670 2.070660 0.055120 
#    z -0.066090 0.055120 1.958800 
# 
# From -- ./inp_files/9367.got.cif
#   From: 2010.05.17/outbox.cif.g08.bks.cpg/sg2_5_cif.got.tgz:9367.got - 2010.06.03 11:33:40.
