data_PCOD9002341
_publ_section_title
;
Structure prediction by ZEFSAII (Michael W. Deem and Ramdas Pophale) SiO2 
 PCOD9002341
Probable space group: P -1
;
_chemical_formula_sum "Si O2"
_cell_formula_units_Z 14
_cell_length_a 19.335360
_cell_length_b 5.817250
_cell_length_c 11.496964
_cell_angle_alpha 57.602365
_cell_angle_beta 143.227984
_cell_angle_gamma 114.954587
_cell_volume 653.568120
_symmetry_space_group_name_H-M "P -1"
_symmetry_group_IT_number 2
_symmetry_cell_setting 'triclinic'
loop_
_space_group_symop_operation_xyz
x,y,z
-x,-y,-z
loop_
_atom_site_type_symbol
_atom_site_label
_atom_site_fract_x
_atom_site_fract_y
_atom_site_fract_z
Si Si1 0.300620 0.469209 0.382625
Si Si2 0.612606 0.089662 0.019926
Si Si3 0.936529 0.736350 0.427844
Si Si4 0.613836 0.107278 0.332858
Si Si5 0.762717 0.592521 0.425296
Si Si6 0.270374 0.965630 0.059979
Si Si7 0.538704 0.664741 0.729513
O O1 0.240829 0.502405 0.419746
O O2 0.439266 0.543316 0.545353
O O3 0.243199 0.678044 0.159711
O O4 0.302970 0.145969 0.456055
O O5 0.599170 0.406602 0.942965
O O6 0.483933 0.970999 0.869824
O O7 0.661912 0.089003 0.954188
O O8 0.700967 0.890182 0.259004
O O9 0.875488 0.604782 0.494824
O O10 0.000000 0.500000 0.500000
O O11 0.840037 0.860766 0.176335
O O12 0.000000 0.000000 0.500000
O O13 0.679849 0.374809 0.312652
O O14 0.541536 0.179336 0.329868
O O15 0.357205 0.135326 0.214992
#
# Coordination Sequence:
#
# PCOD9002341 Si02
#       7
#     2   2   2   2   2   2   2
#     4  10  21  36  59  98 137 166 204 251 323 404
#     4   9  19  33  56  88 130 172 214 248 306 389
#     4  11  28  51  74  95 118 165 231 288 329 382
#     4   9  19  33  54  91 132 169 207 250 313 390
#     4  10  22  38  63  89 125 165 210 269 330 374
#     4  10  22  39  64  90 129 173 211 265 324 378
#     4   9  19  34  58  95 133 174 208 247 310 393
#
# _framework density 21.420876
#
# number of rings (size 3 to 8) (size 9 to 14) (size 15 to 20)
#    0.000    2.286    0.000    0.857    6.000   16.000 
#    0.000    1.429    0.000    0.000    0.000    0.000 
#    0.000    0.000    0.000    0.000    0.000    0.000 
#
# Total GULP energy -78065.118245 kJ/mol
# GULP energy per Si atom -5576.079875 kJ/mol
# Density = 2.137212 g / cm^3
# Si number density = 21.420876 Si / 1000 Ang^3
#
#
#
# Elastic Constant Matrix: (Units=GPa)
#
#
# Indices 1 2 3 4 5 6 
#
# 1 114.7537 40.9014 50.1017 -9.0477 13.2076 2.5680
# 2 40.9014 66.3356 29.3319 -19.1037 9.8084 -6.5131
# 3 50.1017 29.3319 72.8335 -23.7947 -0.5517 2.9514
# 4 -9.0477 -19.1037 -23.7947 27.3071 -0.3933 3.6234
# 5 13.2076 9.8084 -0.5517 -0.3933 31.5345 -10.2862
# 6 2.5680 -6.5131 2.9514 3.6234 -10.2862 28.8470
#
#
#
# Elastic Compliance Matrix: (Units=1/GPa)
#
#
# Indices 1 2 3 4 5 6 
#
# 1 0.016076 -0.007008 -0.011090 -0.008949 -0.005777 -0.002815
# 2 -0.007008 0.024495 -0.000729 0.013695 -0.003457 0.003276
# 3 -0.011090 -0.000729 0.028809 0.021406 0.004608 -0.003170
# 4 -0.008949 0.013695 0.021406 0.062760 -0.001552 -0.006738
# 5 -0.005777 -0.003457 0.004608 -0.001552 0.039709 0.013617
# 6 -0.002815 0.003276 -0.003170 -0.006738 0.013617 0.041682
#
#
# Mechanical properties :
#
#
# Convention : Reuss Voigt Hill
#
# Bulk Modulus (GPa) = 31.51938 54.95477 43.23708
# Shear Modulus (GPa) = 19.10142 26.44357 22.77250
#
# Velocity S-wave (km/s) = 2.98941 3.51732 3.26406
# Velocity P-wave (km/s) = 5.16350 6.49661 5.86803
#
# Compressibility (1/GPa) = 0.03172651
#
# Stress axis : x y z
#
# Youngs Moduli (GPa) = 62.20269 40.82481 34.71159
#
# Poissons Ratio (x) = 0.28611 0.38495
# Poissons Ratio (y) = 0.43593 0.02529
# Poissons Ratio (z) = 0.68983 0.02975
#
# Static dielectric constant tensor:
#      x y z
#    x 1.816570 -0.025080 -0.042590 
#    y -0.025080 1.840960 0.035940 
#    z -0.042590 0.035940 1.796350 
# 
# From -- ./inp_files/46191.got.cif
#   From: 2010.05.17/outbox.cif.g08.bks.cpg/sg2_24_cif.got.tgz:46191.got - 2010.06.03 11:33:40.
