data_PCOD9002472
_publ_section_title
;
Structure prediction by ZEFSAII (Michael W. Deem and Ramdas Pophale) SiO2 
 PCOD9002472
Probable space group: P -1
;
_chemical_formula_sum "Si O2"
_cell_formula_units_Z 16
_cell_length_a 9.269860
_cell_length_b 8.303615
_cell_length_c 11.542106
_cell_angle_alpha 87.419746
_cell_angle_beta 55.374333
_cell_angle_gamma 79.102225
_cell_volume 715.748328
_symmetry_space_group_name_H-M "P -1"
_symmetry_group_IT_number 2
_symmetry_cell_setting 'triclinic'
loop_
_space_group_symop_operation_xyz
x,y,z
-x,-y,-z
loop_
_atom_site_type_symbol
_atom_site_label
_atom_site_fract_x
_atom_site_fract_y
_atom_site_fract_z
Si Si1 0.095836 0.204053 0.483728
Si Si2 0.282601 0.671357 0.664291
Si Si3 0.595578 0.072938 0.557705
Si Si4 0.337507 0.444611 0.436939
Si Si5 0.502648 0.693101 0.218611
Si Si6 0.701353 0.493740 0.955604
Si Si7 0.907324 0.774993 0.786738
Si Si8 0.798855 0.153620 0.808764
O O1 0.175286 0.361526 0.480304
O O2 0.044133 0.222147 0.372558
O O3 0.946118 0.166159 0.641382
O O4 0.269291 0.057978 0.425156
O O5 0.290990 0.814503 0.564270
O O6 0.312623 0.505126 0.579117
O O7 0.460954 0.665211 0.658340
O O8 0.078113 0.710304 0.793612
O O9 0.458814 0.189180 0.700929
O O10 0.500000 0.000000 0.500000
O O11 0.357857 0.592757 0.338457
O O12 0.397185 0.804987 0.162301
O O13 0.667807 0.560530 0.099886
O O14 0.784939 0.637540 0.854069
O O15 0.801747 0.307201 0.889887
O O16 0.500000 0.500000 0.000000
O O17 0.830483 0.966439 0.845932
#
# Coordination Sequence:
#
# PCOD9002472 Si02
#       8
#     2   2   2   2   2   2   2   2
#     4  12  20  35  63  98 122 155 202 261 321 363
#     4  10  21  37  57  91 126 157 202 255 317 367
#     4  11  20  36  61  92 126 157 203 254 311 373
#     4  10  21  36  61  86 124 168 200 250 308 377
#     4  10  22  42  59  86 126 167 211 253 308 372
#     4  10  24  43  61  90 127 169 212 252 306 375
#     4  12  23  39  65  96 126 161 206 267 314 363
#     4  11  22  38  64  97 127 158 204 265 314 369
#
# _framework density 22.354227000000002
#
# number of rings (size 3 to 8) (size 9 to 14) (size 15 to 20)
#    0.000    1.250    3.750    4.125    0.000    3.500 
#    2.250    0.625    0.000    1.500    0.000    0.000 
#    0.000    0.000    0.000    0.000    0.000    0.000 
#
# Total GULP energy -89243.804619 kJ/mol
# GULP energy per Si atom -5577.737789 kJ/mol
# Density = 2.230335 g / cm^3
# Si number density = 22.354227 Si / 1000 Ang^3
#
#
#
# Elastic Constant Matrix: (Units=GPa)
#
#
# Indices 1 2 3 4 5 6 
#
# 1 92.7652 39.4714 5.9146 5.3478 -12.6428 12.6799
# 2 39.4714 127.0877 32.2013 19.0594 -10.6070 16.2237
# 3 5.9146 32.2013 59.5534 18.4484 -1.1109 21.6514
# 4 5.3478 19.0594 18.4484 31.8168 11.1166 8.4787
# 5 -12.6428 -10.6070 -1.1109 11.1166 24.3667 7.1200
# 6 12.6799 16.2237 21.6514 8.4787 7.1200 39.8193
#
#
#
# Elastic Compliance Matrix: (Units=1/GPa)
#
#
# Indices 1 2 3 4 5 6 
#
# 1 0.014452 -0.003132 0.004388 -0.005043 0.010542 -0.006523
# 2 -0.003132 0.011345 -0.003112 -0.006285 0.006556 -0.001767
# 3 0.004388 -0.003112 0.028813 -0.016571 0.014119 -0.014793
# 4 -0.005043 -0.006285 -0.016571 0.055404 -0.033540 0.007377
# 5 0.010542 0.006556 0.014119 -0.033540 0.070932 -0.019246
# 6 -0.006523 -0.001767 -0.014793 0.007377 -0.019246 0.037825
#
#
# Mechanical properties :
#
#
# Convention : Reuss Voigt Hill
#
# Bulk Modulus (GPa) = 19.64625 48.28677 33.96651
# Shear Modulus (GPa) = 20.88146 32.65516 26.76831
#
# Velocity S-wave (km/s) = 3.05965 3.82619 3.46419
# Velocity P-wave (km/s) = 4.61407 6.41618 5.58824
#
# Compressibility (1/GPa) = 0.05090029
#
# Stress axis : x y z
#
# Youngs Moduli (GPa) = 69.19613 88.14533 34.70634
#
# Poissons Ratio (x) = 0.27603 -0.15231
# Poissons Ratio (y) = 0.21669 0.10799
# Poissons Ratio (z) = -0.30366 0.27427
#
# Static dielectric constant tensor:
#      x y z
#    x 1.878480 -0.013870 0.010270 
#    y -0.013870 1.916560 0.051020 
#    z 0.010270 0.051020 1.899980 
# 
# From -- ./inp_files/382203.got.cif
#   From: 2010.05.17/outbox.cif.g08.bks.cpg/sg2_192_cif.got.tgz:382203.got - 2010.06.03 11:33:40.
