data_PCOD9002230
_publ_section_title
;
Structure prediction by ZEFSAII (Michael W. Deem and Ramdas Pophale) SiO2 
 PCOD9002230
Probable space group: P -1
;
_chemical_formula_sum "Si O2"
_cell_formula_units_Z 14
_cell_length_a 18.797143
_cell_length_b 5.210757
_cell_length_c 11.407082
_cell_angle_alpha 75.147195
_cell_angle_beta 36.432111
_cell_angle_gamma 90.489051
_cell_volume 594.773184
_symmetry_space_group_name_H-M "P -1"
_symmetry_group_IT_number 2
_symmetry_cell_setting 'triclinic'
loop_
_space_group_symop_operation_xyz
x,y,z
-x,-y,-z
loop_
_atom_site_type_symbol
_atom_site_label
_atom_site_fract_x
_atom_site_fract_y
_atom_site_fract_z
Si Si1 0.088309 0.314509 0.386501
Si Si2 0.734932 0.126042 0.001405
Si Si3 0.745890 0.809203 0.612326
Si Si4 0.578539 0.794920 0.045659
Si Si5 0.709933 0.678030 0.252493
Si Si6 0.711765 0.343674 0.510515
Si Si7 0.528414 0.281384 0.338851
O O1 0.161491 0.260961 0.409015
O O2 0.000000 0.500000 0.500000
O O3 0.189995 0.534157 0.135786
O O4 0.000000 0.000000 0.500000
O O5 0.589995 0.052651 0.252000
O O6 0.702737 0.023433 0.921984
O O7 0.793558 0.942166 0.026485
O O8 0.730774 0.587634 0.554048
O O9 0.782814 0.128904 0.474634
O O10 0.618589 0.777086 0.861781
O O11 0.444638 0.829673 0.251649
O O12 0.559253 0.494369 0.164338
O O13 0.754049 0.496587 0.309843
O O14 0.612919 0.456152 0.315688
O O15 0.622500 0.802055 0.433593
#
# Coordination Sequence:
#
# PCOD9002230 Si02
#       7
#     2   2   2   2   2   2   2
#     4  12  27  47  72  94 116 162 232 297 332 352
#     4  11  21  38  70  91 134 165 224 275 314 369
#     4  12  24  43  62  93 133 173 218 265 324 392
#     4  10  21  36  59 100 135 177 211 251 318 392
#     4   9  21  35  57  99 133 178 209 243 317 394
#     4  11  25  37  63  97 145 180 198 243 321 423
#     4   9  18  34  60  92 135 171 216 257 299 386
#
# _framework density 23.538383
#
# number of rings (size 3 to 8) (size 9 to 14) (size 15 to 20)
#    0.000    1.429    1.429    4.714    8.000    0.000 
#    0.000    0.000    0.000    5.143    0.000    0.000 
#    0.000    0.000    0.000    0.000    0.000    0.000 
#
# Total GULP energy -78109.197731 kJ/mol
# GULP energy per Si atom -5579.228409 kJ/mol
# Density = 2.348481 g / cm^3
# Si number density = 23.538383 Si / 1000 Ang^3
#
#
#
# Elastic Constant Matrix: (Units=GPa)
#
#
# Indices 1 2 3 4 5 6 
#
# 1 134.8731 58.1035 37.3004 -34.3390 37.6321 -27.7190
# 2 58.1035 129.6984 42.0527 -28.7872 20.8345 -16.7460
# 3 37.3004 42.0527 43.8036 -19.7391 6.0295 -11.0256
# 4 -34.3390 -28.7872 -19.7391 45.5722 -12.9671 5.2596
# 5 37.6321 20.8345 6.0295 -12.9671 30.0445 -5.9489
# 6 -27.7190 -16.7460 -11.0256 5.2596 -5.9489 56.5107
#
#
#
# Elastic Compliance Matrix: (Units=1/GPa)
#
#
# Indices 1 2 3 4 5 6 
#
# 1 0.016090 -0.000732 -0.008423 0.003036 -0.015837 0.004082
# 2 -0.000732 0.012434 -0.009722 0.001607 -0.004910 0.000762
# 3 -0.008423 -0.009722 0.042158 0.009328 0.013200 0.001734
# 4 0.003036 0.001607 0.009328 0.031075 0.006945 0.001624
# 5 -0.015837 -0.004910 0.013200 0.006945 0.056609 -0.001335
# 6 0.004082 0.000762 0.001734 0.001624 -0.001335 0.019971
#
#
# Mechanical properties :
#
#
# Convention : Reuss Voigt Hill
#
# Bulk Modulus (GPa) = 30.36915 64.80981 47.58948
# Shear Modulus (GPa) = 22.02007 37.82003 29.92005
#
# Velocity S-wave (km/s) = 3.06191 4.01276 3.56914
# Velocity P-wave (km/s) = 5.04285 7.00451 6.10301
#
# Compressibility (1/GPa) = 0.03292816
#
# Stress axis : x y z
#
# Youngs Moduli (GPa) = 62.15114 80.42350 23.72039
#
# Poissons Ratio (x) = 0.05889 0.19979
# Poissons Ratio (y) = 0.04551 0.23061
# Poissons Ratio (z) = 0.52348 0.78187
#
# Static dielectric constant tensor:
#      x y z
#    x 1.927800 -0.014060 -0.032690 
#    y -0.014060 1.890380 -0.108600 
#    z -0.032690 -0.108600 1.497710 
# 
# From -- ./inp_files/364596.got.cif
#   From: 2010.05.17/outbox.cif.g08.bks.cpg/sg2_183_cif.got.tgz:364596.got - 2010.06.03 11:33:40.
