data_PCOD9002620
_publ_section_title
;
Structure prediction by ZEFSAII (Michael W. Deem and Ramdas Pophale) SiO2 
 PCOD9002620
Probable space group: P -1
;
_chemical_formula_sum "Si O2"
_cell_formula_units_Z 14
_cell_length_a 8.890708
_cell_length_b 9.485596
_cell_length_c 13.636192
_cell_angle_alpha 91.754074
_cell_angle_beta 62.259456
_cell_angle_gamma 43.716437
_cell_volume 562.686652
_symmetry_space_group_name_H-M "P -1"
_symmetry_group_IT_number 2
_symmetry_cell_setting 'triclinic'
loop_
_space_group_symop_operation_xyz
x,y,z
-x,-y,-z
loop_
_atom_site_type_symbol
_atom_site_label
_atom_site_fract_x
_atom_site_fract_y
_atom_site_fract_z
Si Si1 0.514789 0.294151 0.390249
Si Si2 0.305821 0.051595 0.272797
Si Si3 0.860150 0.518070 0.661175
Si Si4 0.756443 0.823735 0.291956
Si Si5 0.632926 0.617835 0.024175
Si Si6 0.320666 0.722283 0.933982
Si Si7 0.759348 0.239223 0.505101
O O1 0.197104 0.465108 0.437698
O O2 0.588824 0.253947 0.482225
O O3 0.497231 0.473232 0.371344
O O4 0.726029 0.015001 0.289594
O O5 0.473203 0.945036 0.325854
O O6 0.528764 0.821085 0.123878
O O7 0.239690 0.258054 0.269972
O O8 0.995942 0.174969 0.371473
O O9 0.604113 0.588817 0.784148
O O10 0.170896 0.263402 0.618564
O O11 0.057471 0.569811 0.134376
O O12 0.677955 0.447303 0.072218
O O13 0.376847 0.743592 0.026735
O O14 0.000000 0.000000 0.000000
O O15 0.000000 0.000000 0.500000
#
# Coordination Sequence:
#
# PCOD9002620 Si02
#       7
#     2   2   2   2   2   2   2
#     4  10  23  44  68  91 129 162 223 267 318 387
#     4  11  25  41  65  96 134 166 220 263 323 384
#     4  10  23  41  65  95 131 174 206 266 324 381
#     4  10  22  42  66  96 137 170 208 262 324 385
#     4  10  23  38  62  99 134 170 214 260 305 394
#     4  10  21  36  62  94 128 175 213 253 317 373
#     4  11  26  44  68  95 124 170 218 279 322 376
#
# _framework density 24.880635000000002
#
# number of rings (size 3 to 8) (size 9 to 14) (size 15 to 20)
#    0.000    1.714    0.000    3.000   10.000    8.000 
#    0.000    4.286    0.000    0.000    0.000    0.000 
#    0.000    0.000    0.000    0.000    0.000    0.000 
#
# Total GULP energy -78231.859685 kJ/mol
# GULP energy per Si atom -5587.989978 kJ/mol
# Density = 2.482401 g / cm^3
# Si number density = 24.880635 Si / 1000 Ang^3
#
#
#
# Elastic Constant Matrix: (Units=GPa)
#
#
# Indices 1 2 3 4 5 6 
#
# 1 130.6650 54.4746 43.5373 4.0993 9.9682 -24.7316
# 2 54.4746 171.5440 35.6124 18.2999 25.3980 -32.0987
# 3 43.5373 35.6124 75.8348 19.7952 34.3992 -0.3053
# 4 4.0993 18.2999 19.7952 29.5606 8.7101 0.7574
# 5 9.9682 25.3980 34.3992 8.7101 42.1916 12.3458
# 6 -24.7316 -32.0987 -0.3053 0.7574 12.3458 52.2388
#
#
#
# Elastic Compliance Matrix: (Units=1/GPa)
#
#
# Indices 1 2 3 4 5 6 
#
# 1 0.011572 -0.002389 -0.008306 0.004266 0.003711 0.003023
# 2 -0.002389 0.008881 0.001439 -0.004271 -0.006833 0.006011
# 3 -0.008306 0.001439 0.030907 -0.014035 -0.021943 0.002522
# 4 0.004266 -0.004271 -0.014035 0.043976 0.004636 -0.002420
# 5 0.003711 -0.006833 -0.021943 0.004636 0.047959 -0.013971
# 6 0.003023 0.006011 0.002522 -0.002420 -0.013971 0.027619
#
#
# Mechanical properties :
#
#
# Convention : Reuss Voigt Hill
#
# Bulk Modulus (GPa) = 30.44377 71.69916 51.07147
# Shear Modulus (GPa) = 24.95310 41.09283 33.02296
#
# Velocity S-wave (km/s) = 3.17031 4.06840 3.64710
# Velocity P-wave (km/s) = 5.06593 7.13785 6.18921
#
# Compressibility (1/GPa) = 0.03284744
#
# Stress axis : x y z
#
# Youngs Moduli (GPa) = 86.41417 112.59527 32.35564
#
# Poissons Ratio (x) = 0.26902 0.26876
# Poissons Ratio (y) = 0.20647 -0.04657
# Poissons Ratio (z) = 0.71780 -0.16207
#
# Static dielectric constant tensor:
#      x y z
#    x 1.916970 -0.014430 0.006300 
#    y -0.014430 2.013260 -0.051280 
#    z 0.006300 -0.051280 2.037420 
# 
# From -- ./inp_files/495172.got.cif
#   From: 2010.05.17/outbox.cif.g08.bks.cpg/sg2_248_cif.got.tgz:495172.got - 2010.06.03 11:33:40.
