data_PCOD9002917
_publ_section_title
;
Structure prediction by ZEFSAII (Michael W. Deem and Ramdas Pophale) SiO2 
 PCOD9002917
Probable space group: P -1
;
_chemical_formula_sum "Si O2"
_cell_formula_units_Z 16
_cell_length_a 9.570629
_cell_length_b 18.399259
_cell_length_c 10.149124
_cell_angle_alpha 144.209831
_cell_angle_beta 43.516089
_cell_angle_gamma 118.834424
_cell_volume 694.303962
_symmetry_space_group_name_H-M "P -1"
_symmetry_group_IT_number 2
_symmetry_cell_setting 'triclinic'
loop_
_space_group_symop_operation_xyz
x,y,z
-x,-y,-z
loop_
_atom_site_type_symbol
_atom_site_label
_atom_site_fract_x
_atom_site_fract_y
_atom_site_fract_z
Si Si1 0.869248 0.556182 0.008552
Si Si2 0.038113 0.841520 0.759663
Si Si3 0.496355 0.744733 0.411535
Si Si4 0.798172 0.040700 0.610380
Si Si5 0.425981 0.153719 0.205466
Si Si6 0.677794 0.876373 0.245195
Si Si7 0.982043 0.220544 0.611131
Si Si8 0.315386 0.439647 0.587134
O O1 0.676707 0.609572 0.118538
O O2 0.943416 0.678293 0.198123
O O3 0.769301 0.502412 0.124651
O O4 0.102252 0.468037 0.685901
O O5 0.246667 0.772230 0.598151
O O6 0.073175 0.770062 0.490069
O O7 0.827799 0.819888 0.938622
O O8 0.000000 0.000000 0.000000
O O9 0.510254 0.816856 0.647514
O O10 0.576245 0.794555 0.293974
O O11 0.800474 0.174767 0.739123
O O12 0.823338 0.935133 0.326534
O O13 0.595431 0.055684 0.859200
O O14 0.000000 0.000000 0.500000
O O15 0.208064 0.114007 0.295004
O O16 0.391297 0.288924 0.347791
O O17 0.500000 0.000000 0.500000
O O18 0.500000 0.500000 0.500000
#
# Coordination Sequence:
#
# PCOD9002917 Si02
#       8
#     2   2   2   2   2   2   2   2
#     4   9  20  37  59  86 110 140 179 241 291 323
#     4  12  22  37  54  75 115 159 194 220 271 322
#     4  10  22  38  53  83 115 148 191 231 274 332
#     4  12  22  32  53  81 111 147 186 224 272 326
#     4  10  23  36  58  86 111 145 181 236 287 326
#     4  12  23  35  53  76 112 160 192 223 265 323
#     4  10  21  37  52  80 114 145 188 229 270 332
#     4   9  17  35  62  85 110 136 180 232 294 344
#
# _framework density 23.044661000000001
#
# number of rings (size 3 to 8) (size 9 to 14) (size 15 to 20)
#    0.000    1.750    2.500    3.750    0.000    3.000 
#    0.000    0.000    0.000   12.000    0.000   39.375 
#    0.000    0.000    0.000    0.000    0.000    0.000 
#
# Total GULP energy -89164.817570 kJ/mol
# GULP energy per Si atom -5572.801098 kJ/mol
# Density = 2.299221 g / cm^3
# Si number density = 23.044661 Si / 1000 Ang^3
#
#
#
# Elastic Constant Matrix: (Units=GPa)
#
#
# Indices 1 2 3 4 5 6 
#
# 1 101.0300 -1.0752 27.4075 1.4492 -26.8618 -27.3660
# 2 -1.0752 84.9809 35.3691 -20.9016 -29.3919 -9.1764
# 3 27.4075 35.3691 84.9784 -11.8518 -18.3449 -6.2899
# 4 1.4492 -20.9016 -11.8518 40.3468 3.9808 -5.5666
# 5 -26.8618 -29.3919 -18.3449 3.9808 46.6544 5.7066
# 6 -27.3660 -9.1764 -6.2899 -5.5666 5.7066 39.4481
#
#
#
# Elastic Compliance Matrix: (Units=1/GPa)
#
#
# Indices 1 2 3 4 5 6 
#
# 1 0.017899 0.008598 -0.005517 0.002708 0.011829 0.012208
# 2 0.008598 0.023408 -0.007280 0.009515 0.014868 0.009441
# 3 -0.005517 -0.007280 0.016273 0.000955 -0.001124 -0.002628
# 4 0.002708 0.009515 0.000955 0.030562 0.004352 0.007927
# 5 0.011829 0.014868 -0.001124 0.004352 0.035954 0.006898
# 6 0.012208 0.009441 -0.002628 0.007927 0.006898 0.035717
#
#
# Mechanical properties :
#
#
# Convention : Reuss Voigt Hill
#
# Bulk Modulus (GPa) = 20.33241 43.82134 32.07688
# Shear Modulus (GPa) = 27.08473 39.24240 33.16356
#
# Velocity S-wave (km/s) = 3.43201 4.13108 3.79766
# Velocity P-wave (km/s) = 4.95450 6.46618 5.76015
#
# Compressibility (1/GPa) = 0.04918255
#
# Stress axis : x y z
#
# Youngs Moduli (GPa) = 55.86839 42.71999 61.45110
#
# Poissons Ratio (x) = -0.36731 0.33900
# Poissons Ratio (y) = -0.48036 0.44739
# Poissons Ratio (z) = 0.30820 0.31102
#
# Static dielectric constant tensor:
#      x y z
#    x 1.889390 -0.055800 -0.024860 
#    y -0.055800 2.017830 0.063070 
#    z -0.024860 0.063070 1.947130 
# 
# From -- ./inp_files/215698.got.cif
#   From: 2010.05.17/outbox.cif.g08.bks.cpg/sg2_108_cif.got.tgz:215698.got - 2010.06.03 11:33:40.
