data_PCOD9002311
_publ_section_title
;
Structure prediction by ZEFSAII (Michael W. Deem and Ramdas Pophale) SiO2 
 PCOD9002311
Probable space group: P -1
;
_chemical_formula_sum "Si O2"
_cell_formula_units_Z 14
_cell_length_a 10.349254
_cell_length_b 11.611175
_cell_length_c 5.944705
_cell_angle_alpha 61.822737
_cell_angle_beta 69.811449
_cell_angle_gamma 58.689154
_cell_volume 533.253636
_symmetry_space_group_name_H-M "P -1"
_symmetry_group_IT_number 2
_symmetry_cell_setting 'triclinic'
loop_
_space_group_symop_operation_xyz
x,y,z
-x,-y,-z
loop_
_atom_site_type_symbol
_atom_site_label
_atom_site_fract_x
_atom_site_fract_y
_atom_site_fract_z
Si Si1 0.853873 0.764176 0.430469
Si Si2 0.433357 0.135724 0.246856
Si Si3 0.720409 0.329825 0.103121
Si Si4 0.880128 0.459644 0.249171
Si Si5 0.695196 0.992582 0.946510
Si Si6 0.849446 0.038581 0.423169
Si Si7 0.411915 0.446484 0.419943
O O1 0.706450 0.744376 0.640422
O O2 0.011974 0.631353 0.523117
O O3 0.851387 0.893580 0.465553
O O4 0.817821 0.850613 0.136155
O O5 0.500000 0.000000 0.500000
O O6 0.374713 0.090515 0.097408
O O7 0.593130 0.118383 0.067317
O O8 0.812125 0.377559 0.193629
O O9 0.824740 0.162438 0.148172
O O10 0.556700 0.340974 0.281870
O O11 0.682352 0.428876 0.816963
O O12 0.720567 0.580112 0.341869
O O13 0.000000 0.500000 0.000000
O O14 0.733087 0.086101 0.655137
O O15 0.000000 0.000000 0.500000
O O16 0.500000 0.500000 0.500000
#
# Coordination Sequence:
#
# PCOD9002311 Si02
#       7
#     2   2   2   2   2   2   2
#     4  10  21  36  59  92 124 156 201 256 317 377
#     4   8  16  35  54  79 121 163 198 233 296 376
#     4  10  22  45  66  91 129 166 217 261 315 382
#     4  11  24  41  64  94 126 165 212 263 320 379
#     4   9  19  34  56  86 124 164 195 244 312 376
#     4  11  22  36  60  93 123 156 199 259 315 367
#     4   9  22  44  68  90 122 173 219 263 309 376
#
# _framework density 26.253921999999999
#
# number of rings (size 3 to 8) (size 9 to 14) (size 15 to 20)
#    0.000    2.286    1.429    0.000    2.000    4.571 
#    0.000   24.286    0.000    0.000    0.000    0.000 
#    0.000    0.000    0.000    0.000    0.000    0.000 
#
# Total GULP energy -77982.960839 kJ/mol
# GULP energy per Si atom -5570.211488 kJ/mol
# Density = 2.619417 g / cm^3
# Si number density = 26.253922 Si / 1000 Ang^3
#
#
#
# Elastic Constant Matrix: (Units=GPa)
#
#
# Indices 1 2 3 4 5 6 
#
# 1 119.3383 30.6437 39.0279 -14.0602 11.1224 -17.8084
# 2 30.6437 59.4595 23.0590 -3.6338 -6.1015 -11.3974
# 3 39.0279 23.0590 101.1897 -16.4190 17.0094 -8.0832
# 4 -14.0602 -3.6338 -16.4190 38.0176 -12.0343 11.8766
# 5 11.1224 -6.1015 17.0094 -12.0343 59.9884 0.4090
# 6 -17.8084 -11.3974 -8.0832 11.8766 0.4090 28.5117
#
#
#
# Elastic Compliance Matrix: (Units=1/GPa)
#
#
# Indices 1 2 3 4 5 6 
#
# 1 0.011161 -0.004012 -0.002655 0.000736 -0.001606 0.004331
# 2 -0.004012 0.021751 -0.003842 -0.001702 0.003665 0.005756
# 3 -0.002655 -0.003842 0.012751 0.003601 -0.002785 -0.001039
# 4 0.000736 -0.001702 0.003601 0.033919 0.005565 -0.013409
# 5 -0.001606 0.003665 -0.002785 0.005565 0.019266 -0.002922
# 6 0.004331 0.005756 -0.001039 -0.013409 -0.002922 0.045412
#
#
# Mechanical properties :
#
#
# Convention : Reuss Voigt Hill
#
# Bulk Modulus (GPa) = 40.57452 51.71650 46.14551
# Shear Modulus (GPa) = 28.81961 37.78732 33.30347
#
# Velocity S-wave (km/s) = 3.31679 3.79793 3.56548
# Velocity P-wave (km/s) = 5.49148 6.24289 5.87920
#
# Compressibility (1/GPa) = 0.02464601
#
# Stress axis : x y z
#
# Youngs Moduli (GPa) = 89.59983 45.97466 78.42405
#
# Poissons Ratio (x) = 0.18445 0.20821
# Poissons Ratio (y) = 0.35948 0.30127
# Poissons Ratio (z) = 0.23788 0.17662
#
# Static dielectric constant tensor:
#      x y z
#    x 2.125790 -0.099730 -0.058890 
#    y -0.099730 2.080460 0.075330 
#    z -0.058890 0.075330 2.000230 
# 
# From -- ./inp_files/75437.got.cif
#   From: 2010.05.17/outbox.cif.g08.bks.cpg/sg2_38_cif.got.tgz:75437.got - 2010.06.03 11:33:40.
