data_PCOD9002324
_publ_section_title
;
Structure prediction by ZEFSAII (Michael W. Deem and Ramdas Pophale) SiO2 
 PCOD9002324
Probable space group: P -1
;
_chemical_formula_sum "Si O2"
_cell_formula_units_Z 16
_cell_length_a 11.903155
_cell_length_b 18.757398
_cell_length_c 9.202296
_cell_angle_alpha 121.669103
_cell_angle_beta 120.679544
_cell_angle_gamma 28.999640
_cell_volume 841.250836
_symmetry_space_group_name_H-M "P -1"
_symmetry_group_IT_number 2
_symmetry_cell_setting 'triclinic'
loop_
_space_group_symop_operation_xyz
x,y,z
-x,-y,-z
loop_
_atom_site_type_symbol
_atom_site_label
_atom_site_fract_x
_atom_site_fract_y
_atom_site_fract_z
Si Si1 0.520782 0.923842 0.300512
Si Si2 0.447632 0.784214 0.207538
Si Si3 0.319051 0.822471 0.840140
Si Si4 0.847301 0.911273 0.003916
Si Si5 0.424186 0.470923 0.301738
Si Si6 0.080902 0.021963 0.453506
Si Si7 0.386482 0.638944 0.996847
Si Si8 0.092265 0.202091 0.781209
O O1 0.576902 0.801043 0.267888
O O2 0.716476 0.847602 0.233759
O O3 0.500000 0.000000 0.500000
O O4 0.276879 0.051299 0.186455
O O5 0.314908 0.873366 0.364572
O O6 0.299973 0.846471 0.026892
O O7 0.540384 0.640434 0.132408
O O8 0.540579 0.646141 0.759479
O O9 0.108990 0.882300 0.696991
O O10 0.297105 0.927971 0.875404
O O11 0.118463 0.792947 0.034515
O O12 0.847667 0.841754 0.056153
O O13 0.500000 0.500000 0.500000
O O14 0.599169 0.386772 0.191517
O O15 0.164900 0.625661 0.237043
O O16 0.093154 0.107196 0.618301
O O17 0.000000 0.000000 0.500000
O O18 0.500000 0.500000 0.000000
#
# Coordination Sequence:
#
# PCOD9002324 Si02
#       8
#     2   2   2   2   2   2   2   2
#     4  11  25  40  66  90 122 175 215 255 297 378
#     4  10  22  38  59  91 121 158 213 250 309 365
#     4  10  21  36  59  94 120 161 198 260 319 357
#     4  11  23  42  66  91 123 165 216 259 309 376
#     4  11  24  34  59  98 131 154 199 264 319 370
#     4  12  20  33  63  94 123 150 206 270 310 358
#     4  11  22  40  66  95 125 160 201 267 334 357
#     4  12  23  41  60  94 133 163 208 255 315 375
#
# _framework density 19.019297999999999
#
# number of rings (size 3 to 8) (size 9 to 14) (size 15 to 20)
#    0.000    1.000    6.250    0.750    7.000    0.000 
#    0.000    5.625    0.000    0.750    0.000    0.000 
#    0.000    0.000    0.000    0.000    0.000    0.000 
#
# Total GULP energy -89157.681779 kJ/mol
# GULP energy per Si atom -5572.355111 kJ/mol
# Density = 1.897601 g / cm^3
# Si number density = 19.019298 Si / 1000 Ang^3
#
#
#
# Elastic Constant Matrix: (Units=GPa)
#
#
# Indices 1 2 3 4 5 6 
#
# 1 129.8731 36.8453 19.8756 15.0484 -1.3205 21.1392
# 2 36.8453 102.7202 25.6787 12.2139 5.8808 27.6148
# 3 19.8756 25.6787 85.7125 13.1354 9.1088 10.5548
# 4 15.0484 12.2139 13.1354 26.6977 -1.1608 3.5153
# 5 -1.3205 5.8808 9.1088 -1.1608 29.2190 7.4693
# 6 21.1392 27.6148 10.5548 3.5153 7.4693 25.9960
#
#
#
# Elastic Compliance Matrix: (Units=1/GPa)
#
#
# Indices 1 2 3 4 5 6 
#
# 1 0.009656 -0.001262 -0.000790 -0.003526 0.002436 -0.006414
# 2 -0.001262 0.014671 -0.002050 -0.003162 0.000975 -0.013578
# 3 -0.000790 -0.002050 0.013833 -0.005471 -0.003915 -0.000933
# 4 -0.003526 -0.003162 -0.005471 0.043531 0.003515 0.001551
# 5 0.002436 0.000975 -0.003915 0.003515 0.038837 -0.013061
# 6 -0.006414 -0.013578 -0.000933 0.001551 -0.013061 0.062029
#
#
# Mechanical properties :
#
#
# Convention : Reuss Voigt Hill
#
# Bulk Modulus (GPa) = 33.38060 53.67832 43.52946
# Shear Modulus (GPa) = 24.90722 32.10962 28.50842
#
# Velocity S-wave (km/s) = 3.62273 4.11331 3.87579
# Velocity P-wave (km/s) = 5.92351 7.13046 6.55482
#
# Compressibility (1/GPa) = 0.02995752
#
# Stress axis : x y z
#
# Youngs Moduli (GPa) = 103.56192 68.16291 72.28939
#
# Poissons Ratio (x) = 0.08603 0.05708
# Poissons Ratio (y) = 0.13070 0.14816
# Poissons Ratio (z) = 0.08178 0.13970
#
# Static dielectric constant tensor:
#      x y z
#    x 1.723270 0.048440 -0.013740 
#    y 0.048440 1.719230 0.000030 
#    z -0.013740 0.000030 1.672800 
# 
# From -- ./inp_files/262041.got.cif
#   From: 2010.05.17/outbox.cif.g08.bks.cpg/sg2_132_cif.got.tgz:262041.got - 2010.06.03 11:33:40.
