data_PCOD9002176
_publ_section_title
;
Structure prediction by ZEFSAII (Michael W. Deem and Ramdas Pophale) SiO2 
 PCOD9002176
Probable space group: P -1
;
_chemical_formula_sum "Si O2"
_cell_formula_units_Z 16
_cell_length_a 5.909968
_cell_length_b 16.684788
_cell_length_c 11.499179
_cell_angle_alpha 126.670162
_cell_angle_beta 55.873845
_cell_angle_gamma 109.754620
_cell_volume 752.865525
_symmetry_space_group_name_H-M "P -1"
_symmetry_group_IT_number 2
_symmetry_cell_setting 'triclinic'
loop_
_space_group_symop_operation_xyz
x,y,z
-x,-y,-z
loop_
_atom_site_type_symbol
_atom_site_label
_atom_site_fract_x
_atom_site_fract_y
_atom_site_fract_z
Si Si1 0.330929 0.474347 0.904632
Si Si2 0.254492 0.071125 0.500387
Si Si3 0.478938 0.302711 0.345558
Si Si4 0.966685 0.774864 0.882633
Si Si5 0.242875 0.050640 0.754524
Si Si6 0.545010 0.728767 0.412037
Si Si7 0.988741 0.151426 0.319435
Si Si8 0.264848 0.434131 0.329675
O O1 0.356331 0.355122 0.776407
O O2 0.518991 0.519874 0.784857
O O3 0.500000 0.500000 0.000000
O O4 0.000000 0.500000 0.000000
O O5 0.308764 0.080504 0.630180
O O6 0.233328 0.183167 0.557936
O O7 0.506865 0.012757 0.320919
O O8 0.000000 0.000000 0.500000
O O9 0.521171 0.319901 0.485554
O O10 0.394535 0.400152 0.384841
O O11 0.751263 0.259946 0.172698
O O12 0.252685 0.216633 0.327078
O O13 0.826231 0.672142 0.793325
O O14 0.040799 0.839567 0.803279
O O15 0.807865 0.849352 0.074839
O O16 0.008793 0.964368 0.745762
O O17 0.272733 0.788103 0.503087
O O18 0.000000 0.500000 0.500000
#
# Coordination Sequence:
#
# PCOD9002176 Si02
#       8
#     2   2   2   2   2   2   2   2
#     4  12  31  49  72 111 149 193 243 313 379 433
#     4  10  22  39  61  91 126 184 221 275 352 438
#     4  10  21  39  69  96 125 176 234 286 357 422
#     4  10  22  36  63  97 128 167 224 293 346 417
#     4  10  21  36  58  88 134 166 221 275 350 430
#     4  10  23  42  66  94 136 181 236 293 355 435
#     4   9  19  38  60  95 127 174 221 286 345 424
#     4  11  26  47  74  98 137 186 246 297 364 441
#
# _framework density 21.252134000000002
#
# number of rings (size 3 to 8) (size 9 to 14) (size 15 to 20)
#    0.000    1.750    0.000    3.375    7.000    4.500 
#    0.000    0.000    0.000    0.000    0.000    0.000 
#    0.000    0.000    0.000    0.000    0.000    0.000 
#
# Total GULP energy -89202.111891 kJ/mol
# GULP energy per Si atom -5575.131993 kJ/mol
# Density = 2.120376 g / cm^3
# Si number density = 21.252134 Si / 1000 Ang^3
#
#
#
# Elastic Constant Matrix: (Units=GPa)
#
#
# Indices 1 2 3 4 5 6 
#
# 1 76.8283 36.0080 47.6238 10.2355 -2.8692 6.1478
# 2 36.0080 131.5786 54.2027 3.2218 -0.2178 6.1605
# 3 47.6238 54.2027 156.8290 33.8940 -2.4066 6.5874
# 4 10.2355 3.2218 33.8940 38.9472 2.2596 1.8415
# 5 -2.8692 -0.2178 -2.4066 2.2596 17.8201 -5.1526
# 6 6.1478 6.1605 6.5874 1.8415 -5.1526 40.7627
#
#
#
# Elastic Compliance Matrix: (Units=1/GPa)
#
#
# Indices 1 2 3 4 5 6 
#
# 1 0.017123 -0.003006 -0.003878 -0.000933 0.001965 -0.001211
# 2 -0.003006 0.009621 -0.002984 0.002708 -0.001347 -0.000811
# 3 -0.003878 -0.002984 0.010298 -0.007792 0.001700 -0.000061
# 4 -0.000933 0.002708 -0.007792 0.032865 -0.005687 -0.001213
# 5 0.001965 -0.001347 0.001700 -0.005687 0.059510 0.007412
# 6 -0.001211 -0.000811 -0.000061 -0.001213 0.007412 0.025839
#
#
# Mechanical properties :
#
#
# Convention : Reuss Voigt Hill
#
# Bulk Modulus (GPa) = 57.78262 71.21164 64.49713
# Shear Modulus (GPa) = 27.66058 34.66608 31.16333
#
# Velocity S-wave (km/s) = 3.61160 4.04317 3.83347
# Velocity P-wave (km/s) = 6.68129 7.44157 7.07166
#
# Compressibility (1/GPa) = 0.01730624
#
# Stress axis : x y z
#
# Youngs Moduli (GPa) = 58.39979 103.93529 97.10456
#
# Poissons Ratio (x) = 0.31238 0.37661
# Poissons Ratio (y) = 0.17552 0.28980
# Poissons Ratio (z) = 0.22650 0.31019
#
# Static dielectric constant tensor:
#      x y z
#    x 1.867410 0.015410 -0.007660 
#    y 0.015410 1.820140 -0.003360 
#    z -0.007660 -0.003360 1.754090 
# 
# From -- ./inp_files/367710.got.cif
#   From: 2010.05.17/outbox.cif.g08.bks.cpg/sg2_184_cif.got.tgz:367710.got - 2010.06.03 11:33:40.
