data_PCOD9002912
_publ_section_title
;
Structure prediction by ZEFSAII (Michael W. Deem and Ramdas Pophale) SiO2 
 PCOD9002912
Probable space group: P -1
;
_chemical_formula_sum "Si O2"
_cell_formula_units_Z 16
_cell_length_a 8.599747
_cell_length_b 9.236204
_cell_length_c 16.938080
_cell_angle_alpha 129.896591
_cell_angle_beta 139.166530
_cell_angle_gamma 75.237666
_cell_volume 599.447523
_symmetry_space_group_name_H-M "P -1"
_symmetry_group_IT_number 2
_symmetry_cell_setting 'triclinic'
loop_
_space_group_symop_operation_xyz
x,y,z
-x,-y,-z
loop_
_atom_site_type_symbol
_atom_site_label
_atom_site_fract_x
_atom_site_fract_y
_atom_site_fract_z
Si Si1 0.933836 0.391643 0.520497
Si Si2 0.462484 0.209279 0.400097
Si Si3 0.310317 0.668803 0.900352
Si Si4 0.884977 0.337118 0.742527
Si Si5 0.439652 0.160724 0.714079
Si Si6 0.944713 0.952952 0.351343
Si Si7 0.241782 0.383555 0.027500
Si Si8 0.086433 0.983999 0.938117
O O1 0.659095 0.326193 0.442289
O O2 0.945332 0.175009 0.426761
O O3 0.000000 0.500000 0.500000
O O4 0.158306 0.551182 0.721122
O O5 0.617598 0.290632 0.572574
O O6 0.173657 0.196143 0.271242
O O7 0.384797 0.959894 0.268269
O O8 0.601098 0.687145 0.002961
O O9 0.120360 0.505572 0.836377
O O10 0.301402 0.891821 0.986424
O O11 0.907637 0.116548 0.681845
O O12 0.010011 0.420048 0.905499
O O13 0.544807 0.376581 0.782787
O O14 0.164026 0.974860 0.509715
O O15 0.348949 0.198346 0.778489
O O16 0.184232 0.211075 0.012973
O O17 0.000000 0.000000 0.000000
#
# Coordination Sequence:
#
# PCOD9002912 Si02
#       8
#     2   2   2   2   2   2   2   2
#     4  10  21  36  74 104 139 185 236 294 354 430
#     4   9  23  46  66 101 150 190 237 286 369 431
#     4  11  24  46  70 111 140 182 248 296 361 422
#     4  10  22  40  75 109 135 181 236 317 353 411
#     4   9  17  36  68  97 132 174 232 296 343 415
#     4   9  16  35  62 105 138 164 220 300 366 388
#     4  12  24  43  77 109 136 182 253 303 356 419
#     4  12  31  48  65  98 159 206 226 290 366 437
#
# _framework density 26.691244000000001
#
# number of rings (size 3 to 8) (size 9 to 14) (size 15 to 20)
#    0.000    1.750    2.500    2.250    5.250    4.000 
#    0.000    0.000    2.750    0.000    0.000    0.000 
#    0.000    0.000    0.000    0.000    0.000    0.000 
#
# Total GULP energy -89234.914037 kJ/mol
# GULP energy per Si atom -5577.182127 kJ/mol
# Density = 2.663049 g / cm^3
# Si number density = 26.691244 Si / 1000 Ang^3
#
#
#
# Elastic Constant Matrix: (Units=GPa)
#
#
# Indices 1 2 3 4 5 6 
#
# 1 66.2822 30.3492 19.1581 -11.2349 -3.6787 29.4011
# 2 30.3492 145.3327 13.2072 12.5250 4.0640 34.8771
# 3 19.1581 13.2072 83.9766 -19.9953 -1.1682 13.6202
# 4 -11.2349 12.5250 -19.9953 34.2776 -1.5900 2.2180
# 5 -3.6787 4.0640 -1.1682 -1.5900 40.2900 -9.5370
# 6 29.4011 34.8771 13.6202 2.2180 -9.5370 48.6360
#
#
#
# Elastic Compliance Matrix: (Units=1/GPa)
#
#
# Indices 1 2 3 4 5 6 
#
# 1 0.023644 -0.002599 -0.000777 0.009055 -0.000244 -0.012672
# 2 -0.002599 0.009207 -0.001206 -0.004716 -0.002566 -0.004981
# 3 -0.000777 -0.001206 0.014982 0.009140 0.000073 -0.003263
# 4 0.009055 -0.004716 0.009140 0.039671 0.001682 -0.006131
# 5 -0.000244 -0.002566 0.000073 0.001682 0.026817 0.007149
# 6 -0.012672 -0.004981 -0.003263 -0.006131 0.007149 0.034389
#
#
# Mechanical properties :
#
#
# Convention : Reuss Voigt Hill
#
# Bulk Modulus (GPa) = 25.86126 46.78005 36.32066
# Shear Modulus (GPa) = 29.28022 40.16585 34.72303
#
# Velocity S-wave (km/s) = 3.31569 3.88343 3.61073
# Velocity P-wave (km/s) = 4.93644 6.13778 5.56960
#
# Compressibility (1/GPa) = 0.03866787
#
# Stress axis : x y z
#
# Youngs Moduli (GPa) = 42.29352 108.61570 66.74880
#
# Poissons Ratio (x) = 0.28232 0.05189
# Poissons Ratio (y) = 0.10993 0.08048
# Poissons Ratio (z) = 0.03288 0.13096
#
# Static dielectric constant tensor:
#      x y z
#    x 2.465420 -0.255150 -0.029000 
#    y -0.255150 2.500010 -0.177760 
#    z -0.029000 -0.177760 2.335480 
# 
# From -- ./inp_files/557524.got.cif
#   From: 2010.05.17/outbox.cif.g08.bks.cpg/sg2_279_cif.got.tgz:557524.got - 2010.06.03 11:33:40.
