data_PCOD9002751
_publ_section_title
;
Structure prediction by ZEFSAII (Michael W. Deem and Ramdas Pophale) SiO2 
 PCOD9002751
Probable space group: P -1
;
_chemical_formula_sum "Si O2"
_cell_formula_units_Z 14
_cell_length_a 10.998705
_cell_length_b 14.237065
_cell_length_c 7.967598
_cell_angle_alpha 96.867965
_cell_angle_beta 114.533531
_cell_angle_gamma 41.320119
_cell_volume 709.973064
_symmetry_space_group_name_H-M "P -1"
_symmetry_group_IT_number 2
_symmetry_cell_setting 'triclinic'
loop_
_space_group_symop_operation_xyz
x,y,z
-x,-y,-z
loop_
_atom_site_type_symbol
_atom_site_label
_atom_site_fract_x
_atom_site_fract_y
_atom_site_fract_z
Si Si1 0.502324 0.625994 0.863913
Si Si2 0.757375 0.634722 0.840252
Si Si3 0.642756 0.092204 0.157464
Si Si4 0.749452 0.423047 0.295005
Si Si5 0.437620 0.934921 0.234372
Si Si6 0.233430 0.387553 0.535506
Si Si7 0.223788 0.088449 0.493121
O O1 0.655755 0.587435 0.804631
O O2 0.346440 0.800991 0.850578
O O3 0.374696 0.603609 0.734124
O O4 0.646131 0.518631 0.083082
O O5 0.605026 0.782859 0.899224
O O6 0.743944 0.670136 0.646990
O O7 0.000000 0.500000 0.000000
O O8 0.775518 0.989906 0.375416
O O9 0.682945 0.006225 0.999244
O O10 0.729063 0.521435 0.430858
O O11 0.996493 0.262660 0.383902
O O12 0.590432 0.759362 0.283009
O O13 0.597758 0.934511 0.349236
O O14 0.292081 0.013442 0.333161
O O15 0.000000 0.500000 0.500000
#
# Coordination Sequence:
#
# PCOD9002751 Si02
#       7
#     2   2   2   2   2   2   2
#     4   9  22  41  63  86 125 164 209 257 307 371
#     4  10  21  36  64  90 120 157 214 252 304 371
#     4  10  21  42  59  90 125 166 199 260 311 369
#     4  11  22  40  64  90 124 163 212 257 307 374
#     4  11  21  39  62  90 127 161 206 260 313 370
#     4  12  20  38  65  91 121 167 207 252 317 367
#     4  11  24  37  61  95 124 159 209 262 314 364
#
# _framework density 19.719059000000001
#
# number of rings (size 3 to 8) (size 9 to 14) (size 15 to 20)
#    0.857    0.571    4.286    2.143    0.000    1.143 
#    2.571    0.714    0.000    0.000    0.000    0.000 
#    0.000    0.000    0.000    0.000    0.000    0.000 
#
# Total GULP energy -78058.343967 kJ/mol
# GULP energy per Si atom -5575.595998 kJ/mol
# Density = 1.967418 g / cm^3
# Si number density = 19.719059 Si / 1000 Ang^3
#
#
#
# Elastic Constant Matrix: (Units=GPa)
#
#
# Indices 1 2 3 4 5 6 
#
# 1 73.3739 16.0281 22.3479 8.0564 -7.7038 14.0587
# 2 16.0281 80.8800 23.1735 1.2482 -5.8296 10.1484
# 3 22.3479 23.1735 69.1279 11.1043 -16.5085 0.9506
# 4 8.0564 1.2482 11.1043 34.1997 1.0578 -5.5929
# 5 -7.7038 -5.8296 -16.5085 1.0578 25.9776 5.1848
# 6 14.0587 10.1484 0.9506 -5.5929 5.1848 25.5547
#
#
#
# Elastic Compliance Matrix: (Units=1/GPa)
#
#
# Indices 1 2 3 4 5 6 
#
# 1 0.018272 -0.000676 -0.003267 -0.005363 0.005807 -0.012014
# 2 -0.000676 0.014506 -0.004227 0.000054 0.001468 -0.005517
# 3 -0.003267 -0.004227 0.020786 -0.006365 0.011766 -0.001078
# 4 -0.005363 0.000054 -0.006365 0.034952 -0.009594 0.012762
# 5 0.005807 0.001468 0.011766 -0.009594 0.051771 -0.016819
# 6 -0.012014 -0.005517 -0.001078 0.012762 -0.016819 0.054178
#
#
# Mechanical properties :
#
#
# Convention : Reuss Voigt Hill
#
# Bulk Modulus (GPa) = 26.86352 38.49789 32.68071
# Shear Modulus (GPa) = 22.40012 27.93523 25.16768
#
# Velocity S-wave (km/s) = 3.37406 3.76794 3.57643
# Velocity P-wave (km/s) = 5.36952 6.20447 5.80203
#
# Compressibility (1/GPa) = 0.03722520
#
# Stress axis : x y z
#
# Youngs Moduli (GPa) = 54.72832 68.93572 48.10874
#
# Poissons Ratio (x) = 0.04661 0.15716
# Poissons Ratio (y) = 0.03701 0.20334
# Poissons Ratio (z) = 0.17879 0.29137
#
# Static dielectric constant tensor:
#      x y z
#    x 1.702950 0.037960 -0.031630 
#    y 0.037960 1.698890 -0.001150 
#    z -0.031630 -0.001150 1.722580 
# 
# From -- ./inp_files/179972.got.cif
#   From: 2010.05.17/outbox.cif.g08.bks.cpg/sg2_90_cif.got.tgz:179972.got - 2010.06.03 11:33:40.
