data_PCOD9002115
_publ_section_title
;
Structure prediction by ZEFSAII (Michael W. Deem and Ramdas Pophale) SiO2 
 PCOD9002115
Probable space group: P -1
;
_chemical_formula_sum "Si O2"
_cell_formula_units_Z 14
_cell_length_a 5.463401
_cell_length_b 11.748254
_cell_length_c 12.218232
_cell_angle_alpha 112.438468
_cell_angle_beta 102.918385
_cell_angle_gamma 117.711047
_cell_volume 559.358309
_symmetry_space_group_name_H-M "P -1"
_symmetry_group_IT_number 2
_symmetry_cell_setting 'triclinic'
loop_
_space_group_symop_operation_xyz
x,y,z
-x,-y,-z
loop_
_atom_site_type_symbol
_atom_site_label
_atom_site_fract_x
_atom_site_fract_y
_atom_site_fract_z
Si Si1 0.088958 0.162243 0.353383
Si Si2 0.507059 0.674256 0.165641
Si Si3 0.121372 0.902255 0.938219
Si Si4 0.518979 0.441424 0.655115
Si Si5 0.577068 0.105879 0.442329
Si Si6 0.035767 0.475239 0.621060
Si Si7 0.023008 0.302081 0.941826
O O1 0.018819 0.159276 0.219099
O O2 0.768369 0.086177 0.362892
O O3 0.333595 0.338313 0.490542
O O4 0.266957 0.086185 0.362878
O O5 0.583638 0.681772 0.303743
O O6 0.809383 0.736498 0.143914
O O7 0.307479 0.736495 0.143925
O O8 0.263755 0.488253 0.051005
O O9 0.021193 0.781031 0.980314
O O10 0.500000 0.000000 0.000000
O O11 0.000000 0.000000 0.000000
O O12 0.888648 0.536237 0.703512
O O13 0.387321 0.536239 0.703514
O O14 0.821444 0.291544 0.559774
O O15 0.500000 0.000000 0.500000
O O16 0.000000 0.500000 0.500000
#
# Coordination Sequence:
#
# PCOD9002115 Si02
#       7
#     2   2   2   2   2   2   2
#     4  10  23  44  65  96 128 169 219 268 331 382
#     4  10  21  42  70 100 129 168 215 280 339 391
#     4  12  26  48  65  95 131 186 231 270 321 397
#     4  10  21  40  65 101 128 162 209 271 342 390
#     4  10  21  41  61  91 131 166 206 262 330 391
#     4  10  21  36  57  91 133 162 203 253 326 400
#     4  10  23  43  67  95 132 174 224 270 323 396
#
# _framework density 25.028682
#
# number of rings (size 3 to 8) (size 9 to 14) (size 15 to 20)
#    0.000    1.714    0.000    3.429    0.000    4.571 
#   30.857    0.000    0.000    0.000    0.000    0.000 
#    0.000    0.000    0.000    0.000    0.000    0.000 
#
# Total GULP energy -78476.775038 kJ/mol
# GULP energy per Si atom -5605.483931 kJ/mol
# Density = 2.497172 g / cm^3
# Si number density = 25.028682 Si / 1000 Ang^3
#
#
#
# Elastic Constant Matrix: (Units=GPa)
#
#
# Indices 1 2 3 4 5 6 
#
# 1 317.5766 95.7960 76.6652 -48.6759 11.5278 7.7963
# 2 95.7960 144.4077 43.9842 -35.7960 2.6069 1.8452
# 3 76.6652 43.9842 118.6986 -33.6770 -0.5854 -2.8230
# 4 -48.6759 -35.7960 -33.6770 62.8743 -3.2679 -2.8215
# 5 11.5278 2.6069 -0.5854 -3.2679 15.0521 -44.4862
# 6 7.7963 1.8452 -2.8230 -2.8215 -44.4862 11.9463
#
#
#
# Elastic Compliance Matrix: (Units=1/GPa)
#
#
# Indices 1 2 3 4 5 6 
#
# 1 0.004300 -0.002053 -0.001577 0.001424 0.001015 0.001253
# 2 -0.002053 0.009453 -0.001312 0.003072 -0.000142 -0.000235
# 3 -0.001577 -0.001312 0.010949 0.003745 -0.001657 -0.001465
# 4 0.001424 0.003072 0.003745 0.020610 -0.001584 -0.001550
# 5 0.001015 -0.000142 -0.001657 -0.001584 -0.006108 -0.024153
# 6 0.001253 -0.000235 -0.001465 -0.001550 -0.024153 -0.007728
#
#
# Mechanical properties :
#
#
# Convention : Reuss Voigt Hill
#
# Bulk Modulus (GPa) = 67.48709 112.61930 90.05319
# Shear Modulus (GPa) = 107.99374 42.25706 75.12540
#
# Velocity S-wave (km/s) = 6.57584 4.11341 5.48460
# Velocity P-wave (km/s) = 9.20206 8.22520 8.72731
#
# Compressibility (1/GPa) = 0.01481765
#
# Stress axis : x y z
#
# Youngs Moduli (GPa) = 232.57882 105.78170 91.33270
#
# Poissons Ratio (x) = 0.21719 0.14407
# Poissons Ratio (y) = 0.47753 0.11979
# Poissons Ratio (z) = 0.36688 0.13874
#
# Static dielectric constant tensor:
#      x y z
#    x 1.975550 -0.002170 0.000580 
#    y -0.002170 1.941570 0.043530 
#    z 0.000580 0.043530 1.962200 
# 
# From -- ./inp_files/93808.got.cif
#   From: 2010.05.17/outbox.cif.g08.bks.cpg/sg2_47_cif.got.tgz:93808.got - 2010.06.03 11:33:40.
