data_PCOD9002696
_publ_section_title
;
Structure prediction by ZEFSAII (Michael W. Deem and Ramdas Pophale) SiO2 
 PCOD9002696
Probable space group: P -1
;
_chemical_formula_sum "Si O2"
_cell_formula_units_Z 14
_cell_length_a 9.497326
_cell_length_b 5.361664
_cell_length_c 11.765337
_cell_angle_alpha 83.937053
_cell_angle_beta 85.283815
_cell_angle_gamma 81.737813
_cell_volume 588.203923
_symmetry_space_group_name_H-M "P -1"
_symmetry_group_IT_number 2
_symmetry_cell_setting 'triclinic'
loop_
_space_group_symop_operation_xyz
x,y,z
-x,-y,-z
loop_
_atom_site_type_symbol
_atom_site_label
_atom_site_fract_x
_atom_site_fract_y
_atom_site_fract_z
Si Si1 0.874775 0.739210 0.530668
Si Si2 0.247348 0.673716 0.283798
Si Si3 0.165123 0.610678 0.627788
Si Si4 0.383103 0.836332 0.469479
Si Si5 0.820643 0.828635 0.036461
Si Si6 0.664797 0.394404 0.976466
Si Si7 0.991236 0.058674 0.189037
O O1 0.827575 0.525919 0.628958
O O2 0.851685 0.668288 0.403236
O O3 0.036957 0.753012 0.549617
O O4 0.756772 0.967582 0.548596
O O5 0.386393 0.713212 0.349589
O O6 0.294899 0.576240 0.160256
O O7 0.125684 0.913352 0.255782
O O8 0.323853 0.653707 0.575951
O O9 0.112475 0.734362 0.743502
O O10 0.500000 0.000000 0.500000
O O11 0.745736 0.581785 0.037488
O O12 0.937319 0.818254 0.928574
O O13 0.901434 0.856369 0.147556
O O14 0.714640 0.096511 0.015524
O O15 0.500000 0.500000 0.000000
#
# Coordination Sequence:
#
# PCOD9002696 Si02
#       7
#     2   2   2   2   2   2   2
#     4  10  21  38  65  89 123 164 220 263 325 385
#     4  10  23  39  68  88 123 175 207 270 333 385
#     4  10  21  36  63  94 119 164 214 265 316 388
#     4  11  24  42  58  92 134 166 213 264 327 404
#     4  10  24  43  67 100 133 169 219 281 321 386
#     4  11  24  45  67  97 136 176 218 263 332 402
#     4  10  21  41  66  96 129 161 223 274 333 373
#
# _framework density 23.801266999999999
#
# number of rings (size 3 to 8) (size 9 to 14) (size 15 to 20)
#    0.000    1.714    1.429    1.714    6.000    9.714 
#    5.143    0.000    0.000    0.000    0.000    0.000 
#    0.000    0.000    0.000    0.000    0.000    0.000 
#
# Total GULP energy -78137.574353 kJ/mol
# GULP energy per Si atom -5581.255311 kJ/mol
# Density = 2.374709 g / cm^3
# Si number density = 23.801267 Si / 1000 Ang^3
#
#
#
# Elastic Constant Matrix: (Units=GPa)
#
#
# Indices 1 2 3 4 5 6 
#
# 1 131.4117 16.3551 53.2153 16.1410 29.3990 28.2332
# 2 16.3551 60.5212 35.4689 12.3397 10.5371 -2.3450
# 3 53.2153 35.4689 138.3905 25.0301 12.9655 0.2551
# 4 16.1410 12.3397 25.0301 40.0225 3.0901 1.7360
# 5 29.3990 10.5371 12.9655 3.0901 28.6126 10.3889
# 6 28.2332 -2.3450 0.2551 1.7360 10.3889 28.1564
#
#
#
# Elastic Compliance Matrix: (Units=1/GPa)
#
#
# Indices 1 2 3 4 5 6 
#
# 1 0.013548 0.000147 -0.004134 -0.001845 -0.008116 -0.010427
# 2 0.000147 0.021092 -0.004132 -0.003611 -0.007315 0.004569
# 3 -0.004134 -0.004132 0.010565 -0.003834 -0.000040 0.003957
# 4 -0.001845 -0.003611 -0.003834 0.029117 0.002188 -0.001019
# 5 -0.008116 -0.007315 -0.000040 0.002188 0.049744 -0.010960
# 6 -0.010427 0.004569 0.003957 -0.001019 -0.010960 0.050423
#
#
# Mechanical properties :
#
#
# Convention : Reuss Voigt Hill
#
# Bulk Modulus (GPa) = 34.52347 60.04467 47.28407
# Shear Modulus (GPa) = 24.95241 34.37722 29.66481
#
# Velocity S-wave (km/s) = 3.24136 3.80458 3.53420
# Velocity P-wave (km/s) = 5.34274 6.67698 6.04677
#
# Compressibility (1/GPa) = 0.02896580
#
# Stress axis : x y z
#
# Youngs Moduli (GPa) = 73.81236 47.41119 94.65557
#
# Poissons Ratio (x) = -0.00696 0.39130
# Poissons Ratio (y) = -0.01083 0.39113
# Poissons Ratio (z) = 0.30513 0.19591
#
# Static dielectric constant tensor:
#      x y z
#    x 1.876600 0.042060 0.020730 
#    y 0.042060 2.080350 0.039720 
#    z 0.020730 0.039720 1.992680 
# 
# From -- ./inp_files/60406.got.cif
#   From: 2010.05.17/outbox.cif.g08.bks.cpg/sg2_31_cif.got.tgz:60406.got - 2010.06.03 11:33:40.
