data_PCOD9002976
_publ_section_title
;
Structure prediction by ZEFSAII (Michael W. Deem and Ramdas Pophale) SiO2 
 PCOD9002976
Probable space group: P -1
;
_chemical_formula_sum "Si O2"
_cell_formula_units_Z 16
_cell_length_a 11.977303
_cell_length_b 20.056307
_cell_length_c 12.923940
_cell_angle_alpha 33.586646
_cell_angle_beta 143.908211
_cell_angle_gamma 155.974332
_cell_volume 683.729609
_symmetry_space_group_name_H-M "P -1"
_symmetry_group_IT_number 2
_symmetry_cell_setting 'triclinic'
loop_
_space_group_symop_operation_xyz
x,y,z
-x,-y,-z
loop_
_atom_site_type_symbol
_atom_site_label
_atom_site_fract_x
_atom_site_fract_y
_atom_site_fract_z
Si Si1 0.306925 0.238009 0.165979
Si Si2 0.852119 0.625582 0.738435
Si Si3 0.295356 0.932570 0.286623
Si Si4 0.395586 0.812567 0.160402
Si Si5 0.788508 0.609060 0.941979
Si Si6 0.435119 0.748972 0.049534
Si Si7 0.108764 0.893531 0.408875
Si Si8 0.289115 0.705689 0.443470
O O1 0.160271 0.264325 0.097875
O O2 0.513548 0.265114 0.363725
O O3 0.132470 0.048916 0.229116
O O4 0.502784 0.405118 0.018511
O O5 0.784080 0.650363 0.766961
O O6 0.632104 0.419565 0.809556
O O7 0.896382 0.739981 0.531547
O O8 0.147688 0.692287 0.889853
O O9 0.078452 0.833333 0.346780
O O10 0.226336 0.812320 0.295728
O O11 0.588231 0.016947 0.442397
O O12 0.356375 0.092334 0.080744
O O13 0.514280 0.806528 0.154136
O O14 0.437435 0.776553 0.351445
O O15 0.057592 0.649438 0.103439
O O16 0.500000 0.000000 0.000000
O O17 0.000000 0.500000 0.500000
#
# Coordination Sequence:
#
# PCOD9002976 Si02
#       8
#     2   2   2   2   2   2   2   2
#     4  10  21  37  56  80 108 144 181 220 266 319
#     4   9  18  30  50  78 103 137 179 223 267 306
#     4   9  17  30  49  75 106 138 176 220 264 314
#     4  11  21  36  55  83 112 141 178 220 271 321
#     4  10  21  37  57  78 109 145 180 219 267 322
#     4   9  17  30  50  74 106 139 175 220 263 316
#     4   9  18  30  50  78 105 134 179 227 263 306
#     4  11  21  34  55  83 111 141 178 223 269 317
#
# _framework density 23.401063000000001
#
# number of rings (size 3 to 8) (size 9 to 14) (size 15 to 20)
#    0.000    2.250    2.500    0.750    3.500    3.500 
#    0.000    0.000    0.000    3.000    0.000    0.000 
#    0.000    0.000    0.000    0.000    0.000    0.000 
#
# Total GULP energy -89450.951199 kJ/mol
# GULP energy per Si atom -5590.684450 kJ/mol
# Density = 2.334780 g / cm^3
# Si number density = 23.401063 Si / 1000 Ang^3
#
#
#
# Elastic Constant Matrix: (Units=GPa)
#
#
# Indices 1 2 3 4 5 6 
#
# 1 102.2144 14.8973 51.3678 2.2211 -32.3501 -10.1155
# 2 14.8973 42.3081 26.4587 -1.1429 -1.5979 -9.7513
# 3 51.3678 26.4587 77.9221 -15.2231 -27.9602 0.1295
# 4 2.2211 -1.1429 -15.2231 31.2477 -0.2110 0.6161
# 5 -32.3501 -1.5979 -27.9602 -0.2110 42.8878 4.8932
# 6 -10.1155 -9.7513 0.1295 0.6161 4.8932 27.1635
#
#
#
# Elastic Compliance Matrix: (Units=1/GPa)
#
#
# Indices 1 2 3 4 5 6 
#
# 1 0.018136 0.003444 -0.013043 -0.007634 0.004420 0.007429
# 2 0.003444 0.039818 -0.022311 -0.010101 -0.012588 0.018180
# 3 -0.013043 -0.022311 0.038787 0.019444 0.016594 -0.016481
# 4 -0.007634 -0.010101 0.019444 0.041876 0.007765 -0.008910
# 5 0.004420 -0.012588 0.016594 0.007765 0.038180 -0.010006
# 6 0.007429 0.018180 -0.016481 -0.008910 -0.010006 0.048190
#
#
# Mechanical properties :
#
#
# Convention : Reuss Voigt Hill
#
# Bulk Modulus (GPa) = 30.37525 45.32135 37.84830
# Shear Modulus (GPa) = 16.67881 28.90785 22.79333
#
# Velocity S-wave (km/s) = 2.67261 3.51853 3.12433
# Velocity P-wave (km/s) = 4.74682 5.99299 5.40593
#
# Compressibility (1/GPa) = 0.03292154
#
# Stress axis : x y z
#
# Youngs Moduli (GPa) = 55.13893 25.11405 25.78166
#
# Poissons Ratio (x) = -0.08648 0.33626
# Poissons Ratio (y) = -0.18987 0.57522
# Poissons Ratio (z) = 0.71915 0.56032
#
# Static dielectric constant tensor:
#      x y z
#    x 1.912460 0.022340 0.039430 
#    y 0.022340 1.906810 0.039710 
#    z 0.039430 0.039710 1.866750 
# 
# From -- ./inp_files/205669.got.cif
#   From: 2010.05.17/outbox.cif.g08.bks.cpg/sg2_103_cif.got.tgz:205669.got - 2010.06.03 11:33:40.
