data_PCOD9002653
_publ_section_title
;
Structure prediction by ZEFSAII (Michael W. Deem and Ramdas Pophale) SiO2 
 PCOD9002653
Probable space group: P -1
;
_chemical_formula_sum "Si O2"
_cell_formula_units_Z 14
_cell_length_a 10.226970
_cell_length_b 18.504820
_cell_length_c 5.263095
_cell_angle_alpha 93.025158
_cell_angle_beta 85.721839
_cell_angle_gamma 137.911854
_cell_volume 665.747897
_symmetry_space_group_name_H-M "P -1"
_symmetry_group_IT_number 2
_symmetry_cell_setting 'triclinic'
loop_
_space_group_symop_operation_xyz
x,y,z
-x,-y,-z
loop_
_atom_site_type_symbol
_atom_site_label
_atom_site_fract_x
_atom_site_fract_y
_atom_site_fract_z
Si Si1 0.644841 0.667248 0.432582
Si Si2 0.661791 0.040851 0.182108
Si Si3 0.582260 0.810970 0.467256
Si Si4 0.318933 0.824299 0.465688
Si Si5 0.717480 0.567951 0.727424
Si Si6 0.792990 0.949164 0.962085
Si Si7 0.060962 0.317146 0.776649
O O1 0.600383 0.732549 0.483286
O O2 0.649721 0.622794 0.685325
O O3 0.474229 0.559619 0.272970
O O4 0.852291 0.728702 0.288555
O O5 0.532424 0.944578 0.391026
O O6 0.795764 0.036074 0.031343
O O7 0.761623 0.151457 0.312161
O O8 0.500000 0.000000 0.000000
O O9 0.372542 0.764951 0.526625
O O10 0.648020 0.855519 0.177216
O O11 0.721102 0.902235 0.680889
O O12 0.169227 0.768769 0.244730
O O13 0.843931 0.602197 0.463527
O O14 0.847092 0.616820 0.966303
O O15 0.000000 0.000000 0.000000
#
# Coordination Sequence:
#
# PCOD9002653 Si02
#       7
#     2   2   2   2   2   2   2
#     4   9  22  38  64  85 125 149 202 243 309 341
#     4  10  21  40  60  78 122 164 192 247 293 349
#     4  11  24  40  59  91 120 162 189 256 299 351
#     4  10  23  39  58  89 119 160 204 239 299 357
#     4   9  21  38  62  89 117 156 193 253 296 354
#     4  11  25  40  60  87 124 153 208 243 300 347
#     4  10  21  36  63  87 115 153 209 237 289 365
#
# _framework density 21.028983
#
# number of rings (size 3 to 8) (size 9 to 14) (size 15 to 20)
#    0.857    1.143    1.429    0.857    6.000    1.143 
#    0.000    1.429    0.000    0.000    0.000    0.000 
#    0.000    0.000    0.000    0.000    0.000    0.000 
#
# Total GULP energy -78051.504911 kJ/mol
# GULP energy per Si atom -5575.107494 kJ/mol
# Density = 2.098112 g / cm^3
# Si number density = 21.028983 Si / 1000 Ang^3
#
#
#
# Elastic Constant Matrix: (Units=GPa)
#
#
# Indices 1 2 3 4 5 6 
#
# 1 150.2298 33.1444 18.7623 30.2384 10.1744 -9.9965
# 2 33.1444 36.9529 9.4002 3.9657 1.9690 4.2767
# 3 18.7623 9.4002 105.2640 15.5979 29.5290 3.4651
# 4 30.2384 3.9657 15.5979 24.5812 13.0358 2.3474
# 5 10.1744 1.9690 29.5290 13.0358 26.1068 10.2742
# 6 -9.9965 4.2767 3.4651 2.3474 10.2742 27.9678
#
#
#
# Elastic Compliance Matrix: (Units=1/GPa)
#
#
# Indices 1 2 3 4 5 6 
#
# 1 0.012278 -0.010501 0.000811 -0.014267 -0.000675 0.007339
# 2 -0.010501 0.037861 -0.004199 0.006668 0.007515 -0.012343
# 3 0.000811 -0.004199 0.014954 -0.000193 -0.019244 0.006165
# 4 -0.014267 0.006668 -0.000193 0.073983 -0.031357 -0.000785
# 5 -0.000675 0.007515 -0.019244 -0.031357 0.086503 -0.028152
# 6 0.007339 -0.012343 0.006165 -0.000785 -0.028152 0.049910
#
#
# Mechanical properties :
#
#
# Convention : Reuss Voigt Hill
#
# Bulk Modulus (GPa) = 26.79878 46.11783 36.45831
# Shear Modulus (GPa) = 15.83760 31.14046 23.48903
#
# Velocity S-wave (km/s) = 2.74730 3.85234 3.34576
# Velocity P-wave (km/s) = 4.77859 6.46263 5.68333
#
# Compressibility (1/GPa) = 0.03731513
#
# Stress axis : x y z
#
# Youngs Moduli (GPa) = 81.44919 26.41251 66.87027
#
# Poissons Ratio (x) = 0.27735 -0.05424
# Poissons Ratio (y) = 0.85529 0.28079
# Poissons Ratio (z) = -0.06606 0.11091
#
# Static dielectric constant tensor:
#      x y z
#    x 1.766690 -0.014410 -0.070030 
#    y -0.014410 1.769170 -0.079260 
#    z -0.070030 -0.079260 1.801530 
# 
# From -- ./inp_files/45055.got.cif
#   From: 2010.05.17/outbox.cif.g08.bks.cpg/sg2_23_cif.got.tgz:45055.got - 2010.06.03 11:33:40.
