data_PCOD9002419
_publ_section_title
;
Structure prediction by ZEFSAII (Michael W. Deem and Ramdas Pophale) SiO2 
 PCOD9002419
Probable space group: P -1
;
_chemical_formula_sum "Si O2"
_cell_formula_units_Z 16
_cell_length_a 5.431922
_cell_length_b 10.055109
_cell_length_c 15.060945
_cell_angle_alpha 106.443155
_cell_angle_beta 105.926546
_cell_angle_gamma 65.487821
_cell_volume 706.148686
_symmetry_space_group_name_H-M "P -1"
_symmetry_group_IT_number 2
_symmetry_cell_setting 'triclinic'
loop_
_space_group_symop_operation_xyz
x,y,z
-x,-y,-z
loop_
_atom_site_type_symbol
_atom_site_label
_atom_site_fract_x
_atom_site_fract_y
_atom_site_fract_z
Si Si1 0.316114 0.043538 0.764294
Si Si2 0.450135 0.068517 0.411683
Si Si3 0.562318 0.391631 0.901650
Si Si4 0.911967 0.180684 0.268740
Si Si5 0.975002 0.365601 0.788192
Si Si6 0.814379 0.053685 0.905807
Si Si7 0.091777 0.508360 0.658512
Si Si8 0.602367 0.625757 0.497878
O O1 0.037745 0.188048 0.763714
O O2 0.502517 0.057778 0.867373
O O3 0.420798 0.048909 0.675914
O O4 0.330473 0.874166 0.738678
O O5 0.560596 0.204917 0.457718
O O6 0.132405 0.132480 0.361227
O O7 0.500000 0.000000 0.500000
O O8 0.267768 0.381218 0.845490
O O9 0.766662 0.225798 0.917264
O O10 0.723760 0.436538 0.845339
O O11 0.500000 0.500000 0.000000
O O12 0.840416 0.352261 0.270100
O O13 0.041997 0.067164 0.179112
O O14 0.944860 0.437191 0.700996
O O15 0.000000 0.000000 0.000000
O O16 0.341188 0.390892 0.605496
O O17 0.880895 0.585519 0.574124
O O18 0.500000 0.500000 0.500000
#
# Coordination Sequence:
#
# PCOD9002419 Si02
#       8
#     2   2   2   2   2   2   2   2
#     4  10  21  41  65  95 130 177 226 282 333 413
#     4  10  21  36  60  92 129 172 222 276 337 397
#     4  11  25  47  68 101 135 172 229 289 341 418
#     4  10  21  41  60  92 132 164 229 274 333 409
#     4  11  24  44  70  96 136 179 224 279 347 408
#     4  10  23  43  67  95 131 174 225 284 345 410
#     4  10  23  38  62  96 131 182 222 279 342 402
#     4  10  21  38  58  93 138 170 228 278 330 407
#
# _framework density 22.658114999999999
#
# number of rings (size 3 to 8) (size 9 to 14) (size 15 to 20)
#    0.000    1.750    1.250    1.875    3.500    2.000 
#    0.000    0.000    0.000    0.000    0.000    0.000 
#    0.000    0.000    0.000    0.000    0.000    0.000 
#
# Total GULP energy -89126.252621 kJ/mol
# GULP energy per Si atom -5570.390789 kJ/mol
# Density = 2.260654 g / cm^3
# Si number density = 22.658115 Si / 1000 Ang^3
#
#
#
# Elastic Constant Matrix: (Units=GPa)
#
#
# Indices 1 2 3 4 5 6 
#
# 1 63.5310 23.6448 42.1636 1.1946 -23.5879 8.9432
# 2 23.6448 104.4819 59.4424 10.3066 -5.7107 13.2286
# 3 42.1636 59.4424 127.9354 0.5106 -5.9339 -1.1424
# 4 1.1946 10.3066 0.5106 30.1693 -1.6044 0.6526
# 5 -23.5879 -5.7107 -5.9339 -1.6044 28.4590 -0.1065
# 6 8.9432 13.2286 -1.1424 0.6526 -0.1065 32.0233
#
#
#
# Elastic Compliance Matrix: (Units=1/GPa)
#
#
# Indices 1 2 3 4 5 6 
#
# 1 0.032978 0.000996 -0.010244 0.000090 0.025366 -0.009904
# 2 0.000996 0.014829 -0.007165 -0.004735 0.002016 -0.006556
# 3 -0.010244 -0.007165 0.014253 0.002114 -0.006814 0.006263
# 4 0.000090 -0.004735 0.002114 0.034778 0.001531 0.001303
# 5 0.025366 0.002016 -0.006814 0.001531 0.055202 -0.008007
# 6 -0.009904 -0.006556 0.006263 0.001303 -0.008007 0.036872
#
#
# Mechanical properties :
#
#
# Convention : Reuss Voigt Hill
#
# Bulk Modulus (GPa) = 34.20417 60.71667 47.46042
# Shear Modulus (GPa) = 21.59994 29.51015 25.55504
#
# Velocity S-wave (km/s) = 3.09090 3.61281 3.36200
# Velocity P-wave (km/s) = 5.27890 6.65268 6.00521
#
# Compressibility (1/GPa) = 0.02923620
#
# Stress axis : x y z
#
# Youngs Moduli (GPa) = 30.32284 67.43522 70.16147
#
# Poissons Ratio (x) = -0.06719 0.71873
# Poissons Ratio (y) = -0.03021 0.50267
# Poissons Ratio (z) = 0.31063 0.48314
#
# Static dielectric constant tensor:
#      x y z
#    x 2.015130 0.054940 -0.014670 
#    y 0.054940 1.896590 0.004850 
#    z -0.014670 0.004850 1.859490 
# 
# From -- ./inp_files/39478.got.cif
#   From: 2010.05.17/outbox.cif.g08.bks.cpg/sg2_20_cif.got.tgz:39478.got - 2010.06.03 11:33:40.
