data_PCOD9002478
_publ_section_title
;
Structure prediction by ZEFSAII (Michael W. Deem and Ramdas Pophale) SiO2 
 PCOD9002478
Probable space group: P -1
;
_chemical_formula_sum "Si O2"
_cell_formula_units_Z 16
_cell_length_a 12.345271
_cell_length_b 9.608315
_cell_length_c 13.600948
_cell_angle_alpha 81.191087
_cell_angle_beta 151.473272
_cell_angle_gamma 83.644645
_cell_volume 650.503858
_symmetry_space_group_name_H-M "P -1"
_symmetry_group_IT_number 2
_symmetry_cell_setting 'triclinic'
loop_
_space_group_symop_operation_xyz
x,y,z
-x,-y,-z
loop_
_atom_site_type_symbol
_atom_site_label
_atom_site_fract_x
_atom_site_fract_y
_atom_site_fract_z
Si Si1 0.623264 0.901874 0.956727
Si Si2 0.781925 0.582924 0.402987
Si Si3 0.807345 0.247365 0.781334
Si Si4 0.270894 0.301726 0.110513
Si Si5 0.285006 0.889516 0.864161
Si Si6 0.151191 0.182697 0.440761
Si Si7 0.722154 0.013123 0.616840
Si Si8 0.521278 0.491144 0.681808
O O1 0.750936 0.733321 0.017291
O O2 0.415933 0.909604 0.869225
O O3 0.451944 0.047134 0.726630
O O4 0.807751 0.950165 0.158284
O O5 0.891847 0.649130 0.569630
O O6 0.664857 0.486257 0.377047
O O7 0.000000 0.500000 0.500000
O O8 0.525632 0.736697 0.130317
O O9 0.860200 0.077512 0.794329
O O10 0.640573 0.313778 0.742097
O O11 0.639954 0.381547 0.548300
O O12 0.061605 0.264388 0.997608
O O13 0.561649 0.162380 0.395381
O O14 0.256375 0.469218 0.108880
O O15 0.053669 0.854848 0.664395
O O16 0.117840 0.149795 0.304091
O O17 0.500000 0.000000 0.500000
#
# Coordination Sequence:
#
# PCOD9002478 Si02
#       8
#     2   2   2   2   2   2   2   2
#     4   9  20  37  58  89 112 147 198 246 286 357
#     4  11  26  40  56  88 123 158 201 244 292 352
#     4  10  21  39  63  85 116 159 195 241 293 348
#     4  10  21  36  61  87 115 155 196 237 298 349
#     4  10  21  38  60  83 115 155 196 242 299 339
#     4  10  21  39  60  84 117 152 194 244 295 348
#     4  10  21  37  60  92 118 145 192 248 299 347
#     4  10  23  40  56  85 122 156 201 241 283 355
#
# _framework density 24.596318
#
# number of rings (size 3 to 8) (size 9 to 14) (size 15 to 20)
#    0.000    2.000    0.000    2.250    3.500    3.000 
#    4.500    0.000    0.000    0.000    0.000    0.000 
#    0.000    0.000    0.000    0.000    0.000    0.000 
#
# Total GULP energy -89418.922250 kJ/mol
# GULP energy per Si atom -5588.682641 kJ/mol
# Density = 2.454034 g / cm^3
# Si number density = 24.596318 Si / 1000 Ang^3
#
#
#
# Elastic Constant Matrix: (Units=GPa)
#
#
# Indices 1 2 3 4 5 6 
#
# 1 110.5484 40.9062 10.7739 4.1939 10.0509 -15.8752
# 2 40.9062 122.0102 35.3153 23.2416 2.6271 -16.1444
# 3 10.7739 35.3153 56.7621 14.4821 2.2519 -1.4929
# 4 4.1939 23.2416 14.4821 33.6810 13.6280 9.3297
# 5 10.0509 2.6271 2.2519 13.6280 35.6834 2.6950
# 6 -15.8752 -16.1444 -1.4929 9.3297 2.6950 33.2614
#
#
#
# Elastic Compliance Matrix: (Units=1/GPa)
#
#
# Indices 1 2 3 4 5 6 
#
# 1 0.011115 -0.003455 -0.000131 0.001609 -0.003745 0.003474
# 2 -0.003455 0.013726 -0.005198 -0.010342 0.003683 0.007383
# 3 -0.000131 -0.005198 0.022550 -0.006786 0.001573 0.000203
# 4 0.001609 -0.010342 -0.006786 0.051546 -0.017622 -0.017587
# 5 -0.003745 0.003683 0.001573 -0.017622 0.035276 0.002155
# 6 0.003474 0.007383 0.000203 -0.017587 0.002155 0.040074
#
#
# Mechanical properties :
#
#
# Convention : Reuss Voigt Hill
#
# Bulk Modulus (GPa) = 33.52865 51.47908 42.50386
# Shear Modulus (GPa) = 24.77741 34.01351 29.39546
#
# Velocity S-wave (km/s) = 3.17734 3.72273 3.46080
# Velocity P-wave (km/s) = 5.20786 6.28119 5.76954
#
# Compressibility (1/GPa) = 0.02982524
#
# Stress axis : x y z
#
# Youngs Moduli (GPa) = 89.96523 72.85212 44.34544
#
# Poissons Ratio (x) = 0.25170 0.00580
# Poissons Ratio (y) = 0.31082 0.23049
# Poissons Ratio (z) = 0.01178 0.37866
#
# Static dielectric constant tensor:
#      x y z
#    x 1.947840 -0.015550 -0.020910 
#    y -0.015550 2.000530 -0.026660 
#    z -0.020910 -0.026660 1.965910 
# 
# From -- ./inp_files/85006.got.cif
#   From: 2010.05.17/outbox.cif.g08.bks.cpg/sg2_43_cif.got.tgz:85006.got - 2010.06.03 11:33:40.
