data_PCOD9002668
_publ_section_title
;
Structure prediction by ZEFSAII (Michael W. Deem and Ramdas Pophale) SiO2 
 PCOD9002668
Probable space group: P -1
;
_chemical_formula_sum "Si O2"
_cell_formula_units_Z 12
_cell_length_a 24.243721
_cell_length_b 13.475721
_cell_length_c 8.298593
_cell_angle_alpha 148.350080
_cell_angle_beta 32.985102
_cell_angle_gamma 157.145815
_cell_volume 532.502915
_symmetry_space_group_name_H-M "P -1"
_symmetry_group_IT_number 2
_symmetry_cell_setting 'triclinic'
loop_
_space_group_symop_operation_xyz
x,y,z
-x,-y,-z
loop_
_atom_site_type_symbol
_atom_site_label
_atom_site_fract_x
_atom_site_fract_y
_atom_site_fract_z
Si Si1 0.452277 0.212288 0.517371
Si Si2 0.563956 0.376606 0.142948
Si Si3 0.893029 0.738092 0.785745
Si Si4 0.077032 0.799180 0.170920
Si Si5 0.124754 0.690673 0.588627
Si Si6 0.580457 0.802679 0.062786
O O1 0.555719 0.279778 0.211175
O O2 0.450694 0.140443 0.609108
O O3 0.288393 0.958914 0.500775
O O4 0.489521 0.483466 0.832112
O O5 0.500000 0.500000 0.500000
O O6 0.731865 0.608191 0.993620
O O7 0.466881 0.159507 0.934614
O O8 0.869454 0.498469 0.589572
O O9 0.979803 0.827874 0.530474
O O10 0.000000 0.000000 0.000000
O O11 0.081750 0.798417 0.966639
O O12 0.000000 0.500000 0.000000
O O13 0.246767 0.018774 0.116034
O O14 0.000000 0.500000 0.500000
#
# Coordination Sequence:
#
# PCOD9002668 Si02
#       6
#     2   2   2   2   2   2
#     4   9  19  36  60  88 124 157 220 255 311 383
#     4  10  21  36  63  89 124 171 204 259 323 370
#     4  11  23  40  64  98 127 165 222 258 319 399
#     4   9  20  40  63  90 128 163 212 264 314 385
#     4  10  23  40  65  93 129 171 204 272 331 367
#     4   9  18  36  63  87 119 171 206 261 320 371
#
# _framework density 22.535087000000001
#
# number of rings (size 3 to 8) (size 9 to 14) (size 15 to 20)
#    0.000    2.333    0.000    2.000    9.333    0.667 
#    3.000    8.333    0.000    0.000    0.000    0.000 
#    0.000    0.000    0.000    0.000    0.000    0.000 
#
# Total GULP energy -66936.152385 kJ/mol
# GULP energy per Si atom -5578.012699 kJ/mol
# Density = 2.248380 g / cm^3
# Si number density = 22.535087 Si / 1000 Ang^3
#
#
#
# Elastic Constant Matrix: (Units=GPa)
#
#
# Indices 1 2 3 4 5 6 
#
# 1 94.3088 33.4962 59.2982 -15.2457 23.0952 29.2478
# 2 33.4962 137.5316 49.9532 -10.7193 5.7038 35.7268
# 3 59.2982 49.9532 115.0090 -37.0315 19.2134 16.3922
# 4 -15.2457 -10.7193 -37.0315 44.5623 -11.4741 -1.1338
# 5 23.0952 5.7038 19.2134 -11.4741 47.5016 10.6234
# 6 29.2478 35.7268 16.3922 -1.1338 10.6234 44.1997
#
#
#
# Elastic Compliance Matrix: (Units=1/GPa)
#
#
# Indices 1 2 3 4 5 6 
#
# 1 0.019670 0.001011 -0.009149 -0.001991 -0.004353 -0.009445
# 2 0.001011 0.010610 -0.004454 -0.000572 0.001690 -0.008014
# 3 -0.009149 -0.004454 0.018585 0.011184 -0.000544 0.003179
# 4 -0.001991 -0.000572 0.011184 0.032102 0.004875 -0.002716
# 5 -0.004353 0.001690 -0.000544 0.004875 0.025312 -0.004242
# 6 -0.009445 -0.008014 0.003179 -0.002716 -0.004242 0.035124
#
#
# Mechanical properties :
#
#
# Convention : Reuss Voigt Hill
#
# Bulk Modulus (GPa) = 42.22497 70.26050 56.24274
# Shear Modulus (GPa) = 28.65676 40.85950 34.75813
#
# Velocity S-wave (km/s) = 3.56989 4.26273 3.93160
# Velocity P-wave (km/s) = 5.98082 7.44807 6.75441
#
# Compressibility (1/GPa) = 0.02368267
#
# Stress axis : x y z
#
# Youngs Moduli (GPa) = 50.83868 94.25415 53.80580
#
# Poissons Ratio (x) = -0.09531 0.49225
# Poissons Ratio (y) = -0.05141 0.23964
# Poissons Ratio (z) = 0.46510 0.41979
#
# Static dielectric constant tensor:
#      x y z
#    x 1.981430 -0.135860 0.012320 
#    y -0.135860 1.878870 0.004430 
#    z 0.012320 0.004430 1.876390 
# 
# From -- ./inp_files/147221.got.cif
#   From: 2010.05.17/outbox.cif.g08.bks.cpg/sg2_74_cif.got.tgz:147221.got - 2010.06.03 11:33:40.
