data_PCOD9002762
_publ_section_title
;
Structure prediction by ZEFSAII (Michael W. Deem and Ramdas Pophale) SiO2 
 PCOD9002762
Probable space group: P -1
;
_chemical_formula_sum "Si O2"
_cell_formula_units_Z 14
_cell_length_a 5.058711
_cell_length_b 17.128526
_cell_length_c 10.192693
_cell_angle_alpha 40.669017
_cell_angle_beta 110.019000
_cell_angle_gamma 114.642202
_cell_volume 522.633767
_symmetry_space_group_name_H-M "P -1"
_symmetry_group_IT_number 2
_symmetry_cell_setting 'triclinic'
loop_
_space_group_symop_operation_xyz
x,y,z
-x,-y,-z
loop_
_atom_site_type_symbol
_atom_site_label
_atom_site_fract_x
_atom_site_fract_y
_atom_site_fract_z
Si Si1 0.759060 0.883940 0.044656
Si Si2 0.779310 0.654832 0.072396
Si Si3 0.590009 0.597488 0.704724
Si Si4 0.702365 0.448123 0.698207
Si Si5 0.575221 0.062829 0.607658
Si Si6 0.939512 0.828534 0.645119
Si Si7 0.262772 0.775580 0.308385
O O1 0.646210 0.937018 0.827226
O O2 0.495633 0.846509 0.150191
O O3 0.945578 0.782303 0.199178
O O4 0.000000 0.000000 0.000000
O O5 0.604983 0.534783 0.108361
O O6 0.517879 0.659929 0.118284
O O7 0.042345 0.606671 0.240933
O O8 0.913692 0.773022 0.856785
O O9 0.801439 0.554704 0.690189
O O10 0.770743 0.707374 0.684868
O O11 0.364117 0.652385 0.511550
O O12 0.500000 0.500000 0.500000
O O13 0.692728 0.155086 0.632033
O O14 0.749910 0.119344 0.435694
O O15 0.754865 0.929958 0.468839
#
# Coordination Sequence:
#
# PCOD9002762 Si02
#       7
#     2   2   2   2   2   2   2
#     4  10  17  28  43  63  96 136 169 196 234 282
#     4  10  22  34  53  71 103 132 167 201 244 294
#     4   9  22  30  53  72 107 131 164 202 244 292
#     4  10  22  37  53  70  98 132 169 210 249 281
#     4  10  19  29  45  67 103 136 168 200 230 290
#     4  11  20  32  48  76 104 137 168 189 244 299
#     4  10  18  28  44  67  96 134 170 193 239 288
#
# _framework density 26.787403000000001
#
# number of rings (size 3 to 8) (size 9 to 14) (size 15 to 20)
#    0.857    1.143    0.000    7.714    6.000    0.571 
#    0.000    0.000    0.000    0.000    0.000    0.000 
#    0.000   22.857    0.000    0.000    0.000    0.000 
#
# Total GULP energy -78346.226603 kJ/mol
# GULP energy per Si atom -5596.159043 kJ/mol
# Density = 2.672643 g / cm^3
# Si number density = 26.787403 Si / 1000 Ang^3
#
#
#
# Elastic Constant Matrix: (Units=GPa)
#
#
# Indices 1 2 3 4 5 6 
#
# 1 111.7030 21.0305 -3.3482 -1.9128 -16.1529 -13.4358
# 2 21.0305 95.9095 0.0831 -11.6104 2.2534 -1.6145
# 3 -3.3482 0.0831 95.4004 -12.8828 -28.2871 2.3610
# 4 -1.9128 -11.6104 -12.8828 25.7929 -0.8653 5.8568
# 5 -16.1529 2.2534 -28.2871 -0.8653 50.1571 -3.4089
# 6 -13.4358 -1.6145 2.3610 5.8568 -3.4089 41.6081
#
#
#
# Elastic Compliance Matrix: (Units=1/GPa)
#
#
# Indices 1 2 3 4 5 6 
#
# 1 0.010562 -0.002382 0.001655 -0.000128 0.004686 0.003626
# 2 -0.002382 0.011615 0.000355 0.005464 -0.001076 -0.001196
# 3 0.001655 0.000355 0.014155 0.007787 0.008590 -0.000647
# 4 -0.000128 0.005464 0.007787 0.046732 0.004471 -0.006483
# 5 0.004686 -0.001076 0.008590 0.004471 0.026589 0.002533
# 6 0.003626 -0.001196 -0.000647 -0.006483 0.002533 0.026315
#
#
# Mechanical properties :
#
#
# Convention : Reuss Voigt Hill
#
# Bulk Modulus (GPa) = 28.09963 37.61596 32.85779
# Shear Modulus (GPa) = 33.65312 42.52814 38.09063
#
# Velocity S-wave (km/s) = 3.54828 3.98881 3.77498
# Velocity P-wave (km/s) = 5.22491 5.94029 5.59405
#
# Compressibility (1/GPa) = 0.03558766
#
# Stress axis : x y z
#
# Youngs Moduli (GPa) = 94.67884 86.09443 70.64831
#
# Poissons Ratio (x) = 0.20508 -0.11693
# Poissons Ratio (y) = 0.22553 -0.02507
# Poissons Ratio (z) = -0.15671 -0.03055
#
# Static dielectric constant tensor:
#      x y z
#    x 2.004400 0.013560 -0.001500 
#    y 0.013560 2.238270 0.003990 
#    z -0.001500 0.003990 2.051370 
# 
# From -- ./inp_files/371192.got.cif
#   From: 2010.05.17/outbox.cif.g08.bks.cpg/sg2_186_cif.got.tgz:371192.got - 2010.06.03 11:33:40.
