data_PCOD9002758
_publ_section_title
;
Structure prediction by ZEFSAII (Michael W. Deem and Ramdas Pophale) SiO2 
 PCOD9002758
Probable space group: P -1
;
_chemical_formula_sum "Si O2"
_cell_formula_units_Z 16
_cell_length_a 6.714651
_cell_length_b 17.309472
_cell_length_c 7.979522
_cell_angle_alpha 53.167353
_cell_angle_beta 75.727552
_cell_angle_gamma 90.841602
_cell_volume 703.439682
_symmetry_space_group_name_H-M "P -1"
_symmetry_group_IT_number 2
_symmetry_cell_setting 'triclinic'
loop_
_space_group_symop_operation_xyz
x,y,z
-x,-y,-z
loop_
_atom_site_type_symbol
_atom_site_label
_atom_site_fract_x
_atom_site_fract_y
_atom_site_fract_z
Si Si1 0.856602 0.832735 0.664017
Si Si2 0.225162 0.368484 0.227326
Si Si3 0.916547 0.889221 0.952943
Si Si4 0.767408 0.430699 0.619276
Si Si5 0.634682 0.978644 0.343913
Si Si6 0.259293 0.924051 0.254999
Si Si7 0.435685 0.531116 0.741919
Si Si8 0.089763 0.743255 0.304240
O O1 0.798484 0.717476 0.792830
O O2 0.824713 0.861389 0.823891
O O3 0.720839 0.882258 0.499250
O O4 0.095047 0.879303 0.496264
O O5 0.426611 0.380589 0.293069
O O6 0.024761 0.335133 0.432182
O O7 0.264284 0.469111 0.983391
O O8 0.824997 0.981205 0.917228
O O9 0.164383 0.933325 0.824694
O O10 0.911117 0.793908 0.192191
O O11 0.606341 0.465148 0.737395
O O12 0.667712 0.441866 0.442190
O O13 0.799306 0.318185 0.768095
O O14 0.000000 0.500000 0.500000
O O15 0.483977 0.961643 0.239350
O O16 0.500000 0.000000 0.500000
O O17 0.241825 0.833258 0.249668
#
# Coordination Sequence:
#
# PCOD9002758 Si02
#       8
#     2   2   2   2   2   2   2   2
#     4  10  21  36  64  91 128 167 218 262 317 385
#     4  10  23  45  66  97 126 175 212 268 325 383
#     4  11  22  39  61  95 132 170 212 268 321 376
#     4  11  24  46  69  98 130 166 211 273 331 386
#     4  11  19  37  63  90 126 173 218 262 318 377
#     4  10  21  42  61  90 131 172 213 268 315 376
#     4  10  24  47  70  92 135 165 213 274 330 378
#     4  11  25  42  67  97 133 173 219 261 327 391
#
# _framework density 22.745374999999999
#
# number of rings (size 3 to 8) (size 9 to 14) (size 15 to 20)
#    0.000    1.500    3.750    1.125    3.500    2.000 
#    2.250    0.000    0.000    0.000    0.000    0.000 
#    0.000    0.000    0.000    0.000    0.000    0.000 
#
# Total GULP energy -89462.167004 kJ/mol
# GULP energy per Si atom -5591.385438 kJ/mol
# Density = 2.269361 g / cm^3
# Si number density = 22.745375 Si / 1000 Ang^3
#
#
#
# Elastic Constant Matrix: (Units=GPa)
#
#
# Indices 1 2 3 4 5 6 
#
# 1 95.5964 37.5223 23.4373 -1.0177 -0.3272 11.6676
# 2 37.5223 121.5488 19.7589 -10.2407 -1.1571 7.0028
# 3 23.4373 19.7589 64.7703 0.7794 -2.7316 -1.6950
# 4 -1.0177 -10.2407 0.7794 27.0037 2.5183 7.2198
# 5 -0.3272 -1.1571 -2.7316 2.5183 28.6998 14.5797
# 6 11.6676 7.0028 -1.6950 7.2198 14.5797 21.8587
#
#
#
# Elastic Compliance Matrix: (Units=1/GPa)
#
#
# Indices 1 2 3 4 5 6 
#
# 1 0.013976 -0.002762 -0.004314 0.002059 0.005010 -0.010931
# 2 -0.002762 0.010178 -0.002201 0.004984 0.002363 -0.005180
# 3 -0.004314 -0.002201 0.017816 -0.003075 -0.001389 0.006332
# 4 0.002059 0.004984 -0.003075 0.044438 0.007531 -0.022635
# 5 0.005010 0.002363 -0.001389 0.007531 0.056362 -0.043620
# 6 -0.010931 -0.005180 0.006332 -0.022635 -0.043620 0.090304
#
#
# Mechanical properties :
#
#
# Convention : Reuss Voigt Hill
#
# Bulk Modulus (GPa) = 42.70785 49.26138 45.98461
# Shear Modulus (GPa) = 19.27272 28.92557 24.09914
#
# Velocity S-wave (km/s) = 2.91404 3.56998 3.25856
# Velocity P-wave (km/s) = 5.48994 6.22075 5.86674
#
# Compressibility (1/GPa) = 0.02341490
#
# Stress axis : x y z
#
# Youngs Moduli (GPa) = 71.55289 98.24633 56.12950
#
# Poissons Ratio (x) = 0.27136 0.24215
# Poissons Ratio (y) = 0.19763 0.12357
# Poissons Ratio (z) = 0.30869 0.21628
#
# Static dielectric constant tensor:
#      x y z
#    x 1.881280 -0.043000 0.020500 
#    y -0.043000 1.846990 -0.005800 
#    z 0.020500 -0.005800 1.879550 
# 
# From -- ./inp_files/138530.got.cif
#   From: 2010.05.17/outbox.cif.g08.bks.cpg/sg2_70_cif.got.tgz:138530.got - 2010.06.03 11:33:40.
