data_PCOD9002914
_publ_section_title
;
Structure prediction by ZEFSAII (Michael W. Deem and Ramdas Pophale) SiO2 
 PCOD9002914
Probable space group: P -1
;
_chemical_formula_sum "Si O2"
_cell_formula_units_Z 12
_cell_length_a 5.140787
_cell_length_b 23.471936
_cell_length_c 12.566362
_cell_angle_alpha 27.259771
_cell_angle_beta 116.408812
_cell_angle_gamma 118.956219
_cell_volume 607.295750
_symmetry_space_group_name_H-M "P -1"
_symmetry_group_IT_number 2
_symmetry_cell_setting 'triclinic'
loop_
_space_group_symop_operation_xyz
x,y,z
-x,-y,-z
loop_
_atom_site_type_symbol
_atom_site_label
_atom_site_fract_x
_atom_site_fract_y
_atom_site_fract_z
Si Si1 0.230510 0.575125 0.561580
Si Si2 0.148964 0.954348 0.498723
Si Si3 0.727523 0.637719 0.233566
Si Si4 0.935649 0.037546 0.097698
Si Si5 0.364809 0.162584 0.788855
Si Si6 0.082740 0.689167 0.011104
O O1 0.329146 0.504830 0.591666
O O2 0.495170 0.689428 0.452961
O O3 0.947712 0.631686 0.380596
O O4 0.102360 0.453141 0.815366
O O5 0.500000 0.000000 0.500000
O O6 0.075640 0.800153 0.743213
O O7 0.000000 0.000000 0.500000
O O8 0.048764 0.007979 0.282247
O O9 0.419037 0.680231 0.115047
O O10 0.926187 0.719036 0.042257
O O11 0.843586 0.908455 0.225217
O O12 0.642981 0.094493 0.960520
O O13 0.180560 0.132460 0.914349
#
# Coordination Sequence:
#
# PCOD9002914 Si02
#       6
#     2   2   2   2   2   2
#     4   9  21  32  62  81 117 151 197 242 302 327
#     4  12  26  39  63  85 124 164 191 243 303 361
#     4   9  20  31  55  85 118 144 192 248 283 351
#     4  10  24  41  58  91 119 153 210 236 295 358
#     4  10  22  40  65  85 118 159 196 257 285 350
#     4  10  21  37  50  89 115 151 193 242 288 358
#
# _framework density 19.759729
#
# number of rings (size 3 to 8) (size 9 to 14) (size 15 to 20)
#    1.000    1.000    0.000    2.500    9.333    0.000 
#    0.000    0.833    0.000    1.000    0.000    0.000 
#    0.000    0.000    0.000    0.000    0.000    0.000 
#
# Total GULP energy -66956.553704 kJ/mol
# GULP energy per Si atom -5579.712809 kJ/mol
# Density = 1.971475 g / cm^3
# Si number density = 19.759729 Si / 1000 Ang^3
#
#
#
# Elastic Constant Matrix: (Units=GPa)
#
#
# Indices 1 2 3 4 5 6 
#
# 1 134.3508 30.5941 35.8906 6.1452 -13.4255 11.9499
# 2 30.5941 100.5204 51.0540 -17.0362 -8.4384 3.4876
# 3 35.8906 51.0540 79.1617 -1.3797 -11.1904 -0.1659
# 4 6.1452 -17.0362 -1.3797 35.9804 1.7784 -8.7195
# 5 -13.4255 -8.4384 -11.1904 1.7784 18.0053 -2.5701
# 6 11.9499 3.4876 -0.1659 -8.7195 -2.5701 21.8116
#
#
#
# Elastic Compliance Matrix: (Units=1/GPa)
#
#
# Indices 1 2 3 4 5 6 
#
# 1 0.009770 -0.001696 -0.002822 -0.004324 0.004260 -0.006330
# 2 -0.001696 0.016873 -0.009991 0.008251 -0.000177 0.001433
# 3 -0.002822 -0.009991 0.021324 -0.003078 0.007187 0.002922
# 4 -0.004324 0.008251 -0.003078 0.036125 -0.002675 0.015152
# 5 0.004260 -0.000177 0.007187 -0.002675 0.063965 0.004217
# 6 -0.006330 0.001433 0.002922 0.015152 0.004217 0.055662
#
#
# Mechanical properties :
#
#
# Convention : Reuss Voigt Hill
#
# Bulk Modulus (GPa) = 52.77554 61.01226 56.89390
# Shear Modulus (GPa) = 20.91584 28.25909 24.58747
#
# Velocity S-wave (km/s) = 3.25700 3.78582 3.53132
# Velocity P-wave (km/s) = 6.39615 7.07488 6.74406
#
# Compressibility (1/GPa) = 0.01894817
#
# Stress axis : x y z
#
# Youngs Moduli (GPa) = 102.35698 59.26732 46.89535
#
# Poissons Ratio (x) = 0.10050 0.13235
# Poissons Ratio (y) = 0.17357 0.46854
# Poissons Ratio (z) = 0.28888 0.59215
#
# Static dielectric constant tensor:
#      x y z
#    x 1.710830 -0.014100 -0.020280 
#    y -0.014100 1.719150 -0.065310 
#    z -0.020280 -0.065310 1.702130 
# 
# From -- ./inp_files/371037.got.cif
#   From: 2010.05.17/outbox.cif.g08.bks.cpg/sg2_186_cif.got.tgz:371037.got - 2010.06.03 11:33:40.
