data_PCOD9002794
_publ_section_title
;
Structure prediction by ZEFSAII (Michael W. Deem and Ramdas Pophale) SiO2 
 PCOD9002794
Probable space group: P -1
;
_chemical_formula_sum "Si O2"
_cell_formula_units_Z 15
_cell_length_a 13.364028
_cell_length_b 8.900128
_cell_length_c 8.242924
_cell_angle_alpha 131.751071
_cell_angle_beta 50.786830
_cell_angle_gamma 110.366205
_cell_volume 562.187533
_symmetry_space_group_name_H-M "P -1"
_symmetry_group_IT_number 2
_symmetry_cell_setting 'triclinic'
loop_
_space_group_symop_operation_xyz
x,y,z
-x,-y,-z
loop_
_atom_site_type_symbol
_atom_site_label
_atom_site_fract_x
_atom_site_fract_y
_atom_site_fract_z
Si Si1 0.380621 0.468414 0.931304
Si Si2 0.500000 0.500000 0.500000
Si Si3 0.070806 0.163561 0.716726
Si Si4 0.892679 0.416147 0.852084
Si Si5 0.307081 0.092595 0.898180
Si Si6 0.733372 0.345973 0.479723
Si Si7 0.001015 0.778142 0.704046
Si Si8 0.680928 0.755459 0.649393
O O1 0.491739 0.496769 0.708565
O O2 0.257737 0.570119 0.024626
O O3 0.378625 0.232374 0.805161
O O4 0.351365 0.576892 0.216212
O O5 0.574446 0.706946 0.592117
O O6 0.208201 0.124433 0.454936
O O7 0.950038 0.227927 0.767658
O O8 0.041380 0.985071 0.732784
O O9 0.085450 0.371307 0.943091
O O10 0.969964 0.386800 0.585460
O O11 0.352225 0.137723 0.067012
O O12 0.154335 0.183246 0.089860
O O13 0.315595 0.855183 0.686349
O O14 0.882383 0.275222 0.328227
O O15 0.745429 0.527223 0.470284
#
# Coordination Sequence:
#
# PCOD9002794 Si02
#       8
#     2   1   2   2   2   2   2   2
#     4  10  24  45  70  96 136 184 227 285 335 400
#     4  12  26  54  72  92 132 184 242 298 332 374
#     4  11  22  36  66 105 142 178 216 279 337 412
#     4  10  21  36  65 100 140 174 223 267 340 406
#     4  11  24  42  69 107 145 177 217 276 348 419
#     4  10  25  43  68 104 140 180 219 270 346 420
#     4  11  23  37  67 105 151 175 210 270 345 422
#     4  11  26  45  72  97 136 186 233 281 337 395
#
# _framework density 26.681488999999999
#
# number of rings (size 3 to 8) (size 9 to 14) (size 15 to 20)
#    0.000    1.333    2.667    1.600    5.600    3.733 
#    0.000    4.000    0.000    0.000    0.000    0.000 
#    0.000    0.000    0.000    0.000    0.000    0.000 
#
# Total GULP energy -83827.575350 kJ/mol
# GULP energy per Si atom -5588.505023 kJ/mol
# Density = 2.662076 g / cm^3
# Si number density = 26.681489 Si / 1000 Ang^3
#
#
#
# Elastic Constant Matrix: (Units=GPa)
#
#
# Indices 1 2 3 4 5 6 
#
# 1 108.6885 14.3038 17.1499 13.2636 19.4999 10.3135
# 2 14.3038 105.5751 17.5098 -9.6815 0.0359 12.2168
# 3 17.1499 17.5098 76.1464 4.1242 15.7395 9.3959
# 4 13.2636 -9.6815 4.1242 48.3159 12.7960 4.2547
# 5 19.4999 0.0359 15.7395 12.7960 42.7934 8.4825
# 6 10.3135 12.2168 9.3959 4.2547 8.4825 37.9231
#
#
#
# Elastic Compliance Matrix: (Units=1/GPa)
#
#
# Indices 1 2 3 4 5 6 
#
# 1 0.010539 -0.001298 -0.001086 -0.002013 -0.003571 -0.001154
# 2 -0.001298 0.010603 -0.002155 0.002618 0.001205 -0.003092
# 3 -0.001086 -0.002155 0.015053 -0.000026 -0.004698 -0.001686
# 4 -0.002013 0.002618 -0.000026 0.023446 -0.005763 -0.001631
# 5 -0.003571 0.001205 -0.004698 -0.005763 0.029269 -0.004153
# 6 -0.001154 -0.003092 -0.001686 -0.001631 -0.004153 0.029209
#
#
# Mechanical properties :
#
#
# Convention : Reuss Voigt Hill
#
# Bulk Modulus (GPa) = 36.87606 43.14855 40.01231
# Shear Modulus (GPa) = 36.70149 41.90294 39.30221
#
# Velocity S-wave (km/s) = 3.71285 3.96724 3.84215
# Velocity P-wave (km/s) = 5.67725 6.09853 5.89166
#
# Compressibility (1/GPa) = 0.02711786
#
# Stress axis : x y z
#
# Youngs Moduli (GPa) = 94.88986 94.31637 66.43085
#
# Poissons Ratio (x) = 0.12238 0.07211
# Poissons Ratio (y) = 0.12313 0.14317
# Poissons Ratio (z) = 0.10301 0.20327
#
# Static dielectric constant tensor:
#      x y z
#    x 2.252040 0.011870 -0.024630 
#    y 0.011870 2.047900 -0.020000 
#    z -0.024630 -0.020000 2.158880 
# 
# From -- ./inp_files/296611.got.cif
#   From: 2010.05.17/outbox.cif.g08.bks.cpg/sg2_149_cif.got.tgz:296611.got - 2010.06.03 11:33:40.
