data_PCOD9002209
_publ_section_title
;
Structure prediction by ZEFSAII (Michael W. Deem and Ramdas Pophale) SiO2 
 PCOD9002209
Probable space group: P -1
;
_chemical_formula_sum "Si O2"
_cell_formula_units_Z 16
_cell_length_a 5.686694
_cell_length_b 14.403767
_cell_length_c 14.472782
_cell_angle_alpha 137.079843
_cell_angle_beta 64.403109
_cell_angle_gamma 95.985452
_cell_volume 683.246926
_symmetry_space_group_name_H-M "P -1"
_symmetry_group_IT_number 2
_symmetry_cell_setting 'triclinic'
loop_
_space_group_symop_operation_xyz
x,y,z
-x,-y,-z
loop_
_atom_site_type_symbol
_atom_site_label
_atom_site_fract_x
_atom_site_fract_y
_atom_site_fract_z
Si Si1 0.441192 0.174533 0.133819
Si Si2 0.189040 0.849045 0.585450
Si Si3 0.330630 0.087611 0.506432
Si Si4 0.709444 0.328098 0.054787
Si Si5 0.800424 0.592613 0.020662
Si Si6 0.666460 0.382758 0.746092
Si Si7 0.876972 0.156126 0.187945
Si Si8 0.174512 0.877968 0.264859
O O1 0.618140 0.232557 0.074188
O O2 0.566112 0.215648 0.238581
O O3 0.117149 0.231065 0.195833
O O4 0.500000 0.000000 0.000000
O O5 0.516235 0.808820 0.480476
O O6 0.123965 0.739889 0.444072
O O7 0.142966 0.849479 0.701960
O O8 0.024112 0.010717 0.694621
O O9 0.019501 0.148321 0.641331
O O10 0.500000 0.000000 0.500000
O O11 0.351871 0.968750 0.339279
O O12 0.524664 0.496978 0.206459
O O13 0.656295 0.266792 0.920447
O O14 0.032488 0.312679 0.984778
O O15 0.528574 0.668552 0.186469
O O16 0.784645 0.475856 0.862819
O O17 0.000000 0.500000 0.000000
O O18 0.000000 0.000000 0.000000
#
# Coordination Sequence:
#
# PCOD9002209 Si02
#       8
#     2   2   2   2   2   2   2   2
#     4  10  23  43  67  99 129 170 228 288 339 399
#     4  11  23  39  64  89 128 174 214 278 338 398
#     4   9  21  35  56  93 129 161 209 268 337 401
#     4  11  23  39  68  92 127 173 220 273 338 399
#     4   9  21  41  65  94 132 178 217 266 327 415
#     4  10  23  41  63  97 134 171 223 266 334 409
#     4  10  23  42  67  95 128 170 227 281 339 400
#     4  10  21  36  58  92 127 163 211 268 332 412
#
# _framework density 23.417594999999999
#
# number of rings (size 3 to 8) (size 9 to 14) (size 15 to 20)
#    0.000    2.000    0.000    2.250    7.000   13.000 
#    0.000    1.250    0.000    0.000    0.000    0.000 
#    0.000    0.000    0.000    0.000    0.000    0.000 
#
# Total GULP energy -89225.158417 kJ/mol
# GULP energy per Si atom -5576.572401 kJ/mol
# Density = 2.336430 g / cm^3
# Si number density = 23.417595 Si / 1000 Ang^3
#
#
#
# Elastic Constant Matrix: (Units=GPa)
#
#
# Indices 1 2 3 4 5 6 
#
# 1 121.9080 25.6958 23.4587 -4.9364 19.5206 17.6588
# 2 25.6958 136.6891 42.9281 -16.0582 10.4938 23.9822
# 3 23.4587 42.9281 121.2591 -7.2487 20.6786 -5.3104
# 4 -4.9364 -16.0582 -7.2487 36.3783 -11.9181 1.0152
# 5 19.5206 10.4938 20.6786 -11.9181 37.2550 1.8631
# 6 17.6588 23.9822 -5.3104 1.0152 1.8631 29.4605
#
#
#
# Elastic Compliance Matrix: (Units=1/GPa)
#
#
# Indices 1 2 3 4 5 6 
#
# 1 0.010024 -0.000081 -0.001470 -0.000169 -0.004171 -0.005938
# 2 -0.000081 0.010793 -0.004174 0.004613 0.001281 -0.009730
# 3 -0.001470 -0.004174 0.011063 -0.001683 -0.005066 0.006651
# 4 -0.000169 0.004613 -0.001683 0.032765 0.010493 -0.005750
# 5 -0.004171 0.001281 -0.005066 0.010493 0.034937 -0.002027
# 6 -0.005938 -0.009730 0.006651 -0.005750 -0.002027 0.046949
#
#
# Mechanical properties :
#
#
# Convention : Reuss Voigt Hill
#
# Bulk Modulus (GPa) = 48.94434 62.66906 55.80670
# Shear Modulus (GPa) = 30.34190 39.80365 35.07277
#
# Velocity S-wave (km/s) = 3.60347 4.12725 3.87422
# Velocity P-wave (km/s) = 6.18542 7.03789 6.62538
#
# Compressibility (1/GPa) = 0.02043137
#
# Stress axis : x y z
#
# Youngs Moduli (GPa) = 99.76190 92.65681 90.38818
#
# Poissons Ratio (x) = 0.00747 0.13283
# Poissons Ratio (y) = 0.00805 0.37728
# Poissons Ratio (z) = 0.14660 0.38675
#
# Static dielectric constant tensor:
#      x y z
#    x 2.069940 -0.019320 -0.068110 
#    y -0.019320 1.881610 0.014410 
#    z -0.068110 0.014410 1.902290 
# 
# From -- ./inp_files/484427.got.cif
#   From: 2010.05.17/outbox.cif.g08.bks.cpg/sg2_243_cif.got.tgz:484427.got - 2010.06.03 11:33:40.
