data_PCOD9002188
_publ_section_title
;
Structure prediction by ZEFSAII (Michael W. Deem and Ramdas Pophale) SiO2 
 PCOD9002188
Probable space group: P -1
;
_chemical_formula_sum "Si O2"
_cell_formula_units_Z 16
_cell_length_a 15.123992
_cell_length_b 12.352610
_cell_length_c 10.161946
_cell_angle_alpha 119.704778
_cell_angle_beta 49.561553
_cell_angle_gamma 147.681280
_cell_volume 766.012584
_symmetry_space_group_name_H-M "P -1"
_symmetry_group_IT_number 2
_symmetry_cell_setting 'triclinic'
loop_
_space_group_symop_operation_xyz
x,y,z
-x,-y,-z
loop_
_atom_site_type_symbol
_atom_site_label
_atom_site_fract_x
_atom_site_fract_y
_atom_site_fract_z
Si Si1 0.412436 0.243019 0.499640
Si Si2 0.031676 0.902350 0.992056
Si Si3 0.207372 0.801215 0.721526
Si Si4 0.230530 0.137017 0.213402
Si Si5 0.550175 0.014902 0.658270
Si Si6 0.403216 0.491443 0.782715
Si Si7 0.035380 0.863253 0.486718
Si Si8 0.925055 0.385844 0.644249
O O1 0.476891 0.157536 0.415702
O O2 0.429877 0.364216 0.665758
O O3 0.525579 0.389054 0.351073
O O4 0.191859 0.047876 0.549991
O O5 0.819091 0.672478 0.086410
O O6 0.151268 0.034671 0.086705
O O7 0.145660 0.888997 0.803376
O O8 0.000000 0.000000 0.000000
O O9 0.347298 0.908582 0.775566
O O10 0.019309 0.556983 0.762532
O O11 0.330834 0.857600 0.513160
O O12 0.456585 0.336234 0.137141
O O13 0.145931 0.201595 0.370318
O O14 0.134773 0.964727 0.310052
O O15 0.695649 0.180501 0.732023
O O16 0.000529 0.690596 0.449643
O O17 0.000000 0.500000 0.500000
#
# Coordination Sequence:
#
# PCOD9002188 Si02
#       8
#     2   2   2   2   2   2   2   2
#     4   9  17  35  63  87 117 147 198 254 291 340
#     4  12  26  42  57  83 131 161 191 246 310 362
#     4  10  22  37  57  84 114 157 198 238 294 363
#     4  10  22  37  60  90 118 162 199 248 296 351
#     4   9  19  38  59  85 110 150 201 247 289 342
#     4  10  21  36  58  90 115 155 199 241 296 356
#     4   9  18  37  62  91 123 147 205 256 291 340
#     4   9  19  34  59  88 115 149 193 248 292 345
#
# _framework density 20.887384999999998
#
# number of rings (size 3 to 8) (size 9 to 14) (size 15 to 20)
#    0.000    2.250    1.250    0.750    7.000    1.500 
#    2.250    2.500    0.000    4.500    0.000    0.000 
#    0.000    0.000    0.000    0.000    0.000    0.000 
#
# Total GULP energy -89280.988040 kJ/mol
# GULP energy per Si atom -5580.061752 kJ/mol
# Density = 2.083984 g / cm^3
# Si number density = 20.887385 Si / 1000 Ang^3
#
#
#
# Elastic Constant Matrix: (Units=GPa)
#
#
# Indices 1 2 3 4 5 6 
#
# 1 88.2352 45.8289 8.0604 1.2941 -10.6114 0.4146
# 2 45.8289 106.3376 20.6742 3.6348 -5.6308 11.3105
# 3 8.0604 20.6742 20.9915 -0.1849 -5.4687 16.3234
# 4 1.2941 3.6348 -0.1849 6.0490 2.7612 -3.7097
# 5 -10.6114 -5.6308 -5.4687 2.7612 26.0483 3.5106
# 6 0.4146 11.3105 16.3234 -3.7097 3.5106 47.4037
#
#
#
# Elastic Compliance Matrix: (Units=1/GPa)
#
#
# Indices 1 2 3 4 5 6 
#
# 1 0.015269 -0.006632 0.001761 -0.001419 0.005261 0.000342
# 2 -0.006632 0.014886 -0.013028 -0.006857 -0.001570 0.000572
# 3 0.001761 -0.013028 0.089724 -0.019310 0.022965 -0.031015
# 4 -0.001419 -0.006857 -0.019310 0.199240 -0.030761 0.026168
# 5 0.005261 -0.001570 0.022965 -0.030761 0.050122 -0.013699
# 6 0.000342 0.000572 -0.031015 0.026168 -0.013699 0.034698
#
#
# Mechanical properties :
#
#
# Convention : Reuss Voigt Hill
#
# Bulk Modulus (GPa) = 11.89341 40.52126 26.20734
# Shear Modulus (GPa) = 10.68913 25.30026 17.99469
#
# Velocity S-wave (km/s) = 2.26464 3.48411 2.93833
# Velocity P-wave (km/s) = 3.54183 5.96886 4.90774
#
# Compressibility (1/GPa) = 0.08408016
#
# Stress axis : x y z
#
# Youngs Moduli (GPa) = 65.49177 67.17849 11.14528
#
# Poissons Ratio (x) = 0.44555 -0.01963
# Poissons Ratio (y) = 0.43436 0.14520
# Poissons Ratio (z) = -0.11534 0.87521
#
# Static dielectric constant tensor:
#      x y z
#    x 1.782680 0.045070 0.005210 
#    y 0.045070 1.808110 -0.011000 
#    z 0.005210 -0.011000 1.742440 
# 
# From -- ./inp_files/358853.got.cif
#   From: 2010.05.17/outbox.cif.g08.bks.cpg/sg2_180_cif.got.tgz:358853.got - 2010.06.03 11:33:40.
