data_PCOD9002622
_publ_section_title
;
Structure prediction by ZEFSAII (Michael W. Deem and Ramdas Pophale) SiO2 
 PCOD9002622
Probable space group: P -1
;
_chemical_formula_sum "Si O2"
_cell_formula_units_Z 14
_cell_length_a 24.646732
_cell_length_b 5.278307
_cell_length_c 5.133954
_cell_angle_alpha 92.046437
_cell_angle_beta 84.287257
_cell_angle_gamma 128.253110
_cell_volume 521.592028
_symmetry_space_group_name_H-M "P -1"
_symmetry_group_IT_number 2
_symmetry_cell_setting 'triclinic'
loop_
_space_group_symop_operation_xyz
x,y,z
-x,-y,-z
loop_
_atom_site_type_symbol
_atom_site_label
_atom_site_fract_x
_atom_site_fract_y
_atom_site_fract_z
Si Si1 0.693901 0.287780 0.462177
Si Si2 0.539695 0.404195 0.804933
Si Si3 0.417431 0.654307 0.720969
Si Si4 0.049855 0.138629 0.728643
Si Si5 0.196385 0.179417 0.252261
Si Si6 0.269705 0.870468 0.064036
Si Si7 0.082054 0.736393 0.911019
O O1 0.637510 0.321231 0.387527
O O2 0.704034 0.101703 0.236334
O O3 0.765929 0.649465 0.485796
O O4 0.680318 0.115587 0.740656
O O5 0.566293 0.521770 0.501882
O O6 0.485301 0.021394 0.758766
O O7 0.500000 0.500000 0.000000
O O8 0.598817 0.483100 0.983558
O O9 0.098026 0.522739 0.745728
O O10 0.091964 0.001880 0.725617
O O11 0.000000 0.000000 0.500000
O O12 0.000000 0.000000 0.000000
O O13 0.244120 0.080173 0.130075
O O14 0.122019 0.879318 0.167996
O O15 0.206525 0.484645 0.120656
O O16 0.000000 0.500000 0.000000
#
# Coordination Sequence:
#
# PCOD9002622 Si02
#       7
#     2   2   2   2   2   2   2
#     4  10  24  42  66  93 132 175 224 269 323 389
#     4  10  21  36  62  94 132 165 208 263 315 377
#     4  10  21  39  60  92 127 168 215 256 320 379
#     4  10  21  40  60  90 120 159 201 250 311 383
#     4  10  24  44  65  98 129 172 216 275 329 390
#     4  10  24  42  66  93 131 170 221 274 323 384
#     4  10  21  43  65  95 126 166 209 265 327 395
#
# _framework density 26.840902
#
# number of rings (size 3 to 8) (size 9 to 14) (size 15 to 20)
#    0.857    1.143    0.000    2.571    2.000    2.286 
#   15.429    0.000    0.000    0.000    0.000    0.000 
#    0.000    0.000    0.000    0.000    0.000    0.000 
#
# Total GULP energy -78254.080801 kJ/mol
# GULP energy per Si atom -5589.577200 kJ/mol
# Density = 2.677981 g / cm^3
# Si number density = 26.840902 Si / 1000 Ang^3
#
#
#
# Elastic Constant Matrix: (Units=GPa)
#
#
# Indices 1 2 3 4 5 6 
#
# 1 115.8058 36.3976 59.0494 16.0389 23.8734 -9.6977
# 2 36.3976 95.1256 38.8593 31.9249 12.0022 -20.4323
# 3 59.0494 38.8593 220.5260 36.2759 25.5111 3.8315
# 4 16.0389 31.9249 36.2759 47.9119 -2.9297 1.6083
# 5 23.8734 12.0022 25.5111 -2.9297 48.9861 16.0723
# 6 -9.6977 -20.4323 3.8315 1.6083 16.0723 55.5790
#
#
#
# Elastic Compliance Matrix: (Units=1/GPa)
#
#
# Indices 1 2 3 4 5 6 
#
# 1 0.011835 -0.001771 -0.002003 -0.001704 -0.005433 0.003172
# 2 -0.001771 0.018061 -0.000037 -0.012144 -0.007140 0.008749
# 3 -0.002003 -0.000037 0.006013 -0.004005 -0.002396 0.000031
# 4 -0.001704 -0.012144 -0.004005 0.033508 0.010701 -0.008550
# 5 -0.005433 -0.007140 -0.002396 0.010701 0.030845 -0.012637
# 6 0.003172 0.008749 0.000031 -0.008550 -0.012637 0.025662
#
#
# Mechanical properties :
#
#
# Convention : Reuss Voigt Hill
#
# Bulk Modulus (GPa) = 35.35284 77.78557 56.56920
# Shear Modulus (GPa) = 34.97119 50.30546 42.63833
#
# Velocity S-wave (km/s) = 3.61350 4.33391 3.99000
# Velocity P-wave (km/s) = 5.53260 7.35438 6.50755
#
# Compressibility (1/GPa) = 0.02828627
#
# Stress axis : x y z
#
# Youngs Moduli (GPa) = 84.49513 55.36828 166.30820
#
# Poissons Ratio (x) = 0.09808 0.33315
# Poissons Ratio (y) = 0.14967 0.00610
# Poissons Ratio (z) = 0.16926 0.00203
#
# Static dielectric constant tensor:
#      x y z
#    x 2.105150 0.020730 -0.053030 
#    y 0.020730 2.294690 -0.053860 
#    z -0.053030 -0.053860 2.112860 
# 
# From -- ./inp_files/125451.got.cif
#   From: 2010.05.17/outbox.cif.g08.bks.cpg/sg2_63_cif.got.tgz:125451.got - 2010.06.03 11:33:40.
