data_PCOD9002823
_publ_section_title
;
Structure prediction by ZEFSAII (Michael W. Deem and Ramdas Pophale) SiO2 
 PCOD9002823
Probable space group: P -1
;
_chemical_formula_sum "Si O2"
_cell_formula_units_Z 16
_cell_length_a 11.871522
_cell_length_b 24.453418
_cell_length_c 18.355429
_cell_angle_alpha 160.278918
_cell_angle_beta 34.500426
_cell_angle_gamma 155.383861
_cell_volume 729.702821
_symmetry_space_group_name_H-M "P -1"
_symmetry_group_IT_number 2
_symmetry_cell_setting 'triclinic'
loop_
_space_group_symop_operation_xyz
x,y,z
-x,-y,-z
loop_
_atom_site_type_symbol
_atom_site_label
_atom_site_fract_x
_atom_site_fract_y
_atom_site_fract_z
Si Si1 0.125022 0.549670 0.211602
Si Si2 0.762689 0.084093 0.044742
Si Si3 0.010361 0.189019 0.200135
Si Si4 0.831777 0.093670 0.860235
Si Si5 0.478075 0.970592 0.641550
Si Si6 0.387995 0.562442 0.579927
Si Si7 0.743076 0.397629 0.956370
Si Si8 0.941295 0.848120 0.408601
O O1 0.388705 0.765234 0.384357
O O2 0.174293 0.613688 0.181831
O O3 0.873846 0.506363 0.326559
O O4 0.031606 0.312573 0.976201
O O5 0.618772 0.830259 0.785570
O O6 0.897753 0.198124 0.037556
O O7 0.495256 0.048780 0.157135
O O8 0.962950 0.180528 0.128272
O O9 0.741426 0.123749 0.296417
O O10 0.278447 0.423722 0.389097
O O11 0.000000 0.000000 0.000000
O O12 0.888309 0.939021 0.618408
O O13 0.495815 0.145999 0.804244
O O14 0.778137 0.096447 0.668245
O O15 0.500000 0.500000 0.500000
O O16 0.000000 0.500000 0.000000
O O17 0.709537 0.573316 0.188530
O O18 0.000000 0.000000 0.500000
#
# Coordination Sequence:
#
# PCOD9002823 Si02
#       8
#     2   2   2   2   2   2   2   2
#     4  10  21  42  61  87 130 165 210 265 323 381
#     4  10  22  42  65  92 134 168 218 274 316 398
#     4  11  22  40  64  96 130 167 215 268 334 383
#     4  10  22  41  67  92 129 179 213 261 335 385
#     4  10  24  40  62  97 127 164 212 271 318 384
#     4  10  21  36  65  92 125 170 213 268 329 381
#     4  10  22  38  64  92 121 165 209 261 324 380
#     4  11  21  40  66  93 126 170 216 260 320 389
#
# _framework density 21.926735000000001
#
# number of rings (size 3 to 8) (size 9 to 14) (size 15 to 20)
#    0.000    1.750    2.500    1.125    5.250    3.500 
#    2.250   11.250    0.000    0.000    0.000    0.000 
#    0.000    0.000    0.000    0.000    0.000    0.000 
#
# Total GULP energy -89297.172196 kJ/mol
# GULP energy per Si atom -5581.073262 kJ/mol
# Density = 2.187683 g / cm^3
# Si number density = 21.926735 Si / 1000 Ang^3
#
#
#
# Elastic Constant Matrix: (Units=GPa)
#
#
# Indices 1 2 3 4 5 6 
#
# 1 116.5119 19.7885 25.7435 -5.1296 13.9535 -13.4871
# 2 19.7885 39.6627 5.8183 4.5043 6.6131 -16.0282
# 3 25.7435 5.8183 90.7585 -1.1528 0.0388 6.6498
# 4 -5.1296 4.5043 -1.1528 25.1484 -6.0401 1.5342
# 5 13.9535 6.6131 0.0388 -6.0401 42.4041 -3.8623
# 6 -13.4871 -16.0282 6.6498 1.5342 -3.8623 27.8838
#
#
#
# Elastic Compliance Matrix: (Units=1/GPa)
#
#
# Indices 1 2 3 4 5 6 
#
# 1 0.010575 -0.003191 -0.003033 0.001796 -0.002398 0.003573
# 2 -0.003191 0.037448 -0.003133 -0.009796 -0.004299 0.020673
# 3 -0.003033 -0.003133 0.012546 0.001153 0.001077 -0.006174
# 4 0.001796 -0.009796 0.001153 0.043921 0.006596 -0.006540
# 5 -0.002398 -0.004299 0.001077 0.006596 0.025921 -0.000661
# 6 0.003573 0.020673 -0.006174 -0.006540 -0.000661 0.051215
#
#
# Mechanical properties :
#
#
# Convention : Reuss Voigt Hill
#
# Bulk Modulus (GPa) = 23.89229 38.84820 31.37024
# Shear Modulus (GPa) = 23.33286 32.12611 27.72949
#
# Velocity S-wave (km/s) = 3.26564 3.83189 3.56004
# Velocity P-wave (km/s) = 5.01391 6.11012 5.58895
#
# Compressibility (1/GPa) = 0.04185451
#
# Stress axis : x y z
#
# Youngs Moduli (GPa) = 94.56468 26.70395 79.70738
#
# Poissons Ratio (x) = 0.08522 0.24174
# Poissons Ratio (y) = 0.30179 0.24970
# Poissons Ratio (z) = 0.28680 0.08366
#
# Static dielectric constant tensor:
#      x y z
#    x 1.846420 -0.002320 -0.014310 
#    y -0.002320 1.795250 0.110960 
#    z -0.014310 0.110960 1.871480 
# 
# From -- ./inp_files/474791.got.cif
#   From: 2010.05.17/outbox.cif.g08.bks.cpg/sg2_238_cif.got.tgz:474791.got - 2010.06.03 11:33:40.
