data_PCOD9002546
_publ_section_title
;
Structure prediction by ZEFSAII (Michael W. Deem and Ramdas Pophale) SiO2 
 PCOD9002546
Probable space group: P -1
;
_chemical_formula_sum "Si O2"
_cell_formula_units_Z 16
_cell_length_a 22.533711
_cell_length_b 9.092790
_cell_length_c 8.732414
_cell_angle_alpha 109.023868
_cell_angle_beta 139.587981
_cell_angle_gamma 101.669072
_cell_volume 743.572345
_symmetry_space_group_name_H-M "P -1"
_symmetry_group_IT_number 2
_symmetry_cell_setting 'triclinic'
loop_
_space_group_symop_operation_xyz
x,y,z
-x,-y,-z
loop_
_atom_site_type_symbol
_atom_site_label
_atom_site_fract_x
_atom_site_fract_y
_atom_site_fract_z
Si Si1 0.279339 0.494439 0.662638
Si Si2 0.283859 0.730099 0.361933
Si Si3 0.367942 0.244430 0.213246
Si Si4 0.939760 0.589728 0.963810
Si Si5 0.441234 0.056345 0.514368
Si Si6 0.338475 0.105438 0.770904
Si Si7 0.356761 0.476967 0.497892
Si Si8 0.879692 0.942320 0.660293
O O1 0.176884 0.504066 0.419306
O O2 0.278715 0.384457 0.473180
O O3 0.231489 0.335101 0.662287
O O4 0.431687 0.740615 0.061238
O O5 0.131349 0.514881 0.047010
O O6 0.353875 0.650296 0.489614
O O7 0.318794 0.840366 0.302444
O O8 0.338380 0.929146 0.654172
O O9 0.500000 0.500000 0.500000
O O10 0.400704 0.151902 0.366474
O O11 0.294675 0.285314 0.183756
O O12 0.316002 0.100245 0.906890
O O13 0.000000 0.500000 0.000000
O O14 0.044276 0.863918 0.254600
O O15 0.500000 0.000000 0.500000
O O16 0.209249 0.034138 0.423384
O O17 0.484444 0.362329 0.107626
O O18 0.000000 0.000000 0.000000
#
# Coordination Sequence:
#
# PCOD9002546 Si02
#       8
#     2   2   2   2   2   2   2   2
#     4  10  22  37  63  94 130 169 210 273 320 384
#     4  11  23  38  66  96 130 165 213 263 321 387
#     4  10  23  37  57  93 134 168 197 253 330 392
#     4  10  21  37  63  93 122 170 228 265 303 368
#     4  12  25  39  64 101 137 162 207 269 336 391
#     4  11  20  37  67  91 130 165 209 263 323 382
#     4  10  21  36  61  97 133 161 211 258 339 391
#     4  10  22  39  61  94 126 169 225 261 305 371
#
# _framework density 21.517745000000001
#
# number of rings (size 3 to 8) (size 9 to 14) (size 15 to 20)
#    0.000    1.500    2.500    3.375    7.000    1.000 
#    0.000    0.000    0.000   16.500    6.500    0.000 
#    0.000    0.000    0.000    0.000    0.000    0.000 
#
# Total GULP energy -89174.338401 kJ/mol
# GULP energy per Si atom -5573.396150 kJ/mol
# Density = 2.146877 g / cm^3
# Si number density = 21.517745 Si / 1000 Ang^3
#
#
#
# Elastic Constant Matrix: (Units=GPa)
#
#
# Indices 1 2 3 4 5 6 
#
# 1 132.6993 67.3227 29.9280 -2.1992 -3.4840 -6.0980
# 2 67.3227 162.5371 25.3015 5.1455 8.9221 14.6265
# 3 29.9280 25.3015 24.3450 -10.2345 10.4677 -0.2962
# 4 -2.1992 5.1455 -10.2345 22.3320 -0.7047 11.6089
# 5 -3.4840 8.9221 10.4677 -0.7047 44.8612 11.5362
# 6 -6.0980 14.6265 -0.2962 11.6089 11.5362 49.2212
#
#
#
# Elastic Compliance Matrix: (Units=1/GPa)
#
#
# Indices 1 2 3 4 5 6 
#
# 1 0.013491 -0.002896 -0.019253 -0.008309 0.005172 0.003164
# 2 -0.002896 0.008899 -0.007905 -0.004935 0.000274 -0.001951
# 3 -0.019253 -0.007905 0.103043 0.049610 -0.021633 -0.006047
# 4 -0.008309 -0.004935 0.049610 0.075827 -0.006000 -0.015742
# 5 0.005172 0.000274 -0.021633 -0.006000 0.028857 -0.004919
# 6 0.003164 -0.001951 -0.006047 -0.015742 -0.004919 0.026117
#
#
# Mechanical properties :
#
#
# Convention : Reuss Voigt Hill
#
# Bulk Modulus (GPa) = 15.30797 62.74284 39.02540
# Shear Modulus (GPa) = 14.78773 36.41816 25.60295
#
# Velocity S-wave (km/s) = 2.62436 4.11843 3.45317
# Velocity P-wave (km/s) = 4.03888 7.19981 5.83737
#
# Compressibility (1/GPa) = 0.06532545
#
# Stress axis : x y z
#
# Youngs Moduli (GPa) = 74.12372 112.36661 9.70466
#
# Poissons Ratio (x) = 0.32547 0.18684
# Poissons Ratio (y) = 0.21470 0.07671
# Poissons Ratio (z) = 1.42710 0.88822
#
# Static dielectric constant tensor:
#      x y z
#    x 1.867750 0.043760 -0.024570 
#    y 0.043760 1.845390 -0.006650 
#    z -0.024570 -0.006650 1.854590 
# 
# From -- ./inp_files/348754.got.cif
#   From: 2010.05.17/outbox.cif.g08.bks.cpg/sg2_175_cif.got.tgz:348754.got - 2010.06.03 11:33:40.
