data_PCOD9002904
_publ_section_title
;
Structure prediction by ZEFSAII (Michael W. Deem and Ramdas Pophale) SiO2 
 PCOD9002904
Probable space group: P -1
;
_chemical_formula_sum "Si O2"
_cell_formula_units_Z 16
_cell_length_a 7.348997
_cell_length_b 9.512121
_cell_length_c 13.725858
_cell_angle_alpha 89.244201
_cell_angle_beta 43.047597
_cell_angle_gamma 99.468472
_cell_volume 633.228595
_symmetry_space_group_name_H-M "P -1"
_symmetry_group_IT_number 2
_symmetry_cell_setting 'triclinic'
loop_
_space_group_symop_operation_xyz
x,y,z
-x,-y,-z
loop_
_atom_site_type_symbol
_atom_site_label
_atom_site_fract_x
_atom_site_fract_y
_atom_site_fract_z
Si Si1 0.968549 0.512734 0.397808
Si Si2 0.619273 0.099381 0.044261
Si Si3 0.713241 0.184414 0.454149
Si Si4 0.363045 0.277751 0.426005
Si Si5 0.205602 0.494094 0.831701
Si Si6 0.710989 0.405634 0.899658
Si Si7 0.939337 0.049685 0.668041
Si Si8 0.193225 0.179192 0.771028
O O1 0.893709 0.346009 0.398625
O O2 0.723421 0.593452 0.481672
O O3 0.000000 0.500000 0.500000
O O4 0.238134 0.607352 0.235076
O O5 0.633938 0.262457 0.998468
O O6 0.383091 0.029634 0.214892
O O7 0.934946 0.096650 0.939761
O O8 0.500000 0.000000 0.000000
O O9 0.550158 0.198835 0.417686
O O10 0.477075 0.143225 0.630725
O O11 0.902200 0.074496 0.374833
O O12 0.538158 0.365728 0.268833
O O13 0.078014 0.155695 0.525030
O O14 0.275050 0.340638 0.784825
O O15 0.012873 0.497497 0.814041
O O16 0.000000 0.500000 0.000000
O O17 0.500000 0.500000 0.000000
O O18 0.029219 0.152677 0.729607
#
# Coordination Sequence:
#
# PCOD9002904 Si02
#       8
#     2   2   2   2   2   2   2   2
#     4  12  25  40  67  98 134 176 225 278 329 395
#     4   9  18  35  57  91 125 166 209 255 326 395
#     4  11  20  39  68 100 127 168 220 274 333 396
#     4  11  21  41  67  94 129 169 229 267 334 389
#     4  11  23  39  67  96 127 171 221 278 333 395
#     4  11  23  39  63  95 130 166 214 273 338 388
#     4  10  21  36  69  99 128 172 220 273 332 406
#     4   9  18  35  61  90 122 165 212 256 327 384
#
# _framework density 25.267334000000002
#
# number of rings (size 3 to 8) (size 9 to 14) (size 15 to 20)
#    0.000    1.500    2.500    6.375    1.750    0.000 
#    0.000    0.625    8.250    1.500    0.000    0.000 
#    0.000    0.000    0.000    0.000    0.000    0.000 
#
# Total GULP energy -89325.042161 kJ/mol
# GULP energy per Si atom -5582.815135 kJ/mol
# Density = 2.520982 g / cm^3
# Si number density = 25.267334 Si / 1000 Ang^3
#
#
#
# Elastic Constant Matrix: (Units=GPa)
#
#
# Indices 1 2 3 4 5 6 
#
# 1 45.5459 15.1827 20.8194 -12.8123 1.9569 2.6775
# 2 15.1827 112.1668 50.1870 -14.8826 3.9920 7.0100
# 3 20.8194 50.1870 199.1362 -29.8306 -20.0110 2.9208
# 4 -12.8123 -14.8826 -29.8306 51.0855 9.2996 -15.4284
# 5 1.9569 3.9920 -20.0110 9.2996 35.1539 -0.4952
# 6 2.6775 7.0100 2.9208 -15.4284 -0.4952 27.8224
#
#
#
# Elastic Compliance Matrix: (Units=1/GPa)
#
#
# Indices 1 2 3 4 5 6 
#
# 1 0.025053 -0.001822 -0.001670 0.005873 -0.003672 0.001415
# 2 -0.001822 0.010687 -0.002596 0.001176 -0.002924 -0.001645
# 3 -0.001670 -0.002596 0.006550 0.002491 0.003480 0.001570
# 4 0.005873 0.001176 0.002491 0.028380 -0.006346 0.014502
# 5 -0.003672 -0.002924 0.003480 -0.006346 0.032611 -0.002214
# 6 0.001415 -0.001645 0.001570 0.014502 -0.002214 0.044058
#
#
# Mechanical properties :
#
#
# Convention : Reuss Voigt Hill
#
# Bulk Modulus (GPa) = 33.20844 58.80302 46.00573
# Shear Modulus (GPa) = 29.48905 40.85634 35.17269
#
# Velocity S-wave (km/s) = 3.41996 4.02551 3.73503
# Velocity P-wave (km/s) = 5.36342 6.70292 6.07023
#
# Compressibility (1/GPa) = 0.03011282
#
# Stress axis : x y z
#
# Youngs Moduli (GPa) = 39.91463 93.57589 152.66391
#
# Poissons Ratio (x) = 0.17054 0.25494
# Poissons Ratio (y) = 0.07274 0.39636
# Poissons Ratio (z) = 0.06666 0.24295
#
# Static dielectric constant tensor:
#      x y z
#    x 2.075130 0.047600 0.066220 
#    y 0.047600 2.001470 0.032430 
#    z 0.066220 0.032430 2.202690 
# 
# From -- ./inp_files/494803.got.cif
#   From: 2010.05.17/outbox.cif.g08.bks.cpg/sg2_248_cif.got.tgz:494803.got - 2010.06.03 11:33:40.
