data_PCOD9002400
_publ_section_title
;
Structure prediction by ZEFSAII (Michael W. Deem and Ramdas Pophale) SiO2 
 PCOD9002400
Probable space group: P -1
;
_chemical_formula_sum "Si O2"
_cell_formula_units_Z 16
_cell_length_a 22.086565
_cell_length_b 9.706082
_cell_length_c 9.845924
_cell_angle_alpha 49.145545
_cell_angle_beta 38.633350
_cell_angle_gamma 32.128535
_cell_volume 700.653519
_symmetry_space_group_name_H-M "P -1"
_symmetry_group_IT_number 2
_symmetry_cell_setting 'triclinic'
loop_
_space_group_symop_operation_xyz
x,y,z
-x,-y,-z
loop_
_atom_site_type_symbol
_atom_site_label
_atom_site_fract_x
_atom_site_fract_y
_atom_site_fract_z
Si Si1 0.508467 0.303939 0.521588
Si Si2 0.934917 0.214883 0.663878
Si Si3 0.591103 0.444322 0.751496
Si Si4 0.798784 0.873251 0.392877
Si Si5 0.187118 0.146254 0.321460
Si Si6 0.158805 0.620059 0.572335
Si Si7 0.095801 0.526918 0.001259
Si Si8 0.788892 0.322883 0.126427
O O1 0.500000 0.500000 0.500000
O O2 0.497490 0.363915 0.343104
O O3 0.653544 0.017514 0.486758
O O4 0.365382 0.398660 0.751569
O O5 0.856460 0.391553 0.553529
O O6 0.054171 0.193601 0.514377
O O7 0.835300 0.301665 0.906459
O O8 0.020196 0.919866 0.660614
O O9 0.706136 0.438481 0.597947
O O10 0.677444 0.156303 0.733279
O O11 0.500000 0.500000 0.000000
O O12 0.790823 0.103672 0.287192
O O13 0.814134 0.764451 0.584923
O O14 0.937777 0.674710 0.190320
O O15 0.175779 0.294458 0.118160
O O16 0.156004 0.459997 0.788526
O O17 0.111614 0.707256 0.923247
#
# Coordination Sequence:
#
# PCOD9002400 Si02
#       8
#     2   2   2   2   2   2   2   2
#     4  10  21  37  64  91 121 154 210 252 297 355
#     4  10  21  36  60  90 120 157 213 254 297 352
#     4  11  23  41  66  88 121 163 207 255 304 363
#     4  11  21  36  64  94 124 159 204 253 300 359
#     4  11  23  39  60  95 127 155 204 257 309 366
#     4  10  22  38  60  89 119 163 209 253 292 364
#     4  12  22  38  66  89 128 164 197 255 317 353
#     4  11  19  37  66  91 116 160 211 253 292 358
#
# _framework density 22.835823000000001
#
# number of rings (size 3 to 8) (size 9 to 14) (size 15 to 20)
#    0.000    1.250    6.250    1.500    3.500    1.500 
#    0.000    1.250    2.750    0.000    0.000    0.000 
#    0.000    0.000    0.000    0.000    0.000    0.000 
#
# Total GULP energy -89544.258812 kJ/mol
# GULP energy per Si atom -5596.516176 kJ/mol
# Density = 2.278385 g / cm^3
# Si number density = 22.835823 Si / 1000 Ang^3
#
#
#
# Elastic Constant Matrix: (Units=GPa)
#
#
# Indices 1 2 3 4 5 6 
#
# 1 91.0844 10.1890 46.5311 -1.2763 30.9880 -19.9110
# 2 10.1890 51.5901 31.2844 -8.9235 8.6215 -17.9094
# 3 46.5311 31.2844 189.7300 -0.3360 39.6319 -21.9023
# 4 -1.2763 -8.9235 -0.3360 38.8427 -7.6953 4.6694
# 5 30.9880 8.6215 39.6319 -7.6953 43.0019 -9.4515
# 6 -19.9110 -17.9094 -21.9023 4.6694 -9.4515 31.8095
#
#
#
# Elastic Compliance Matrix: (Units=1/GPa)
#
#
# Indices 1 2 3 4 5 6 
#
# 1 0.016395 0.001512 -0.001414 -0.001919 -0.009487 0.007603
# 2 0.001512 0.026292 -0.003272 0.004570 0.000312 0.012918
# 3 -0.001414 -0.003272 0.007368 -0.001897 -0.005219 0.001073
# 4 -0.001919 0.004570 -0.001897 0.028316 0.006830 -0.002062
# 5 -0.009487 0.000312 -0.005219 0.006830 0.036144 0.000381
# 6 0.007603 0.012918 0.001073 -0.002062 0.000381 0.044624
#
#
# Mechanical properties :
#
#
# Convention : Reuss Voigt Hill
#
# Bulk Modulus (GPa) = 22.87968 56.49037 39.68502
# Shear Modulus (GPa) = 27.76916 39.02416 33.39666
#
# Velocity S-wave (km/s) = 3.49095 4.13837 3.82837
# Velocity P-wave (km/s) = 5.12737 6.90117 6.07931
#
# Compressibility (1/GPa) = 0.04370691
#
# Stress axis : x y z
#
# Youngs Moduli (GPa) = 60.99542 38.03428 135.72803
#
# Poissons Ratio (x) = -0.05752 0.19196
# Poissons Ratio (y) = -0.09225 0.44408
# Poissons Ratio (z) = 0.08626 0.12444
#
# Static dielectric constant tensor:
#      x y z
#    x 1.865050 0.028060 0.000910 
#    y 0.028060 1.962170 -0.028070 
#    z 0.000910 -0.028070 1.833950 
# 
# From -- ./inp_files/200236.got.cif
#   From: 2010.05.17/outbox.cif.g08.bks.cpg/sg2_101_cif.got.tgz:200236.got - 2010.06.03 11:33:40.
