data_PCOD9002116
_publ_section_title
;
Structure prediction by ZEFSAII (Michael W. Deem and Ramdas Pophale) SiO2 
 PCOD9002116
Probable space group: P -1
;
_chemical_formula_sum "Si O2"
_cell_formula_units_Z 14
_cell_length_a 13.303316
_cell_length_b 7.233373
_cell_length_c 11.229132
_cell_angle_alpha 114.446314
_cell_angle_beta 109.277843
_cell_angle_gamma 120.487245
_cell_volume 614.778271
_symmetry_space_group_name_H-M "P -1"
_symmetry_group_IT_number 2
_symmetry_cell_setting 'triclinic'
loop_
_space_group_symop_operation_xyz
x,y,z
-x,-y,-z
loop_
_atom_site_type_symbol
_atom_site_label
_atom_site_fract_x
_atom_site_fract_y
_atom_site_fract_z
Si Si1 0.781922 0.076925 0.705921
Si Si2 0.895103 0.850770 0.539924
Si Si3 0.399960 0.094845 0.619582
Si Si4 0.375257 0.779233 0.075082
Si Si5 0.116082 0.694036 0.955813
Si Si6 0.960958 0.562510 0.621566
Si Si7 0.433177 0.616052 0.825826
O O1 0.620925 0.922791 0.536933
O O2 0.780047 0.029385 0.833314
O O3 0.846611 0.988851 0.623472
O O4 0.928372 0.446151 0.853908
O O5 0.965444 0.803011 0.652457
O O6 0.725504 0.525694 0.339409
O O7 0.000000 0.000000 0.500000
O O8 0.220341 0.765704 0.501350
O O9 0.529931 0.137501 0.745360
O O10 0.435979 0.378079 0.749902
O O11 0.189104 0.570160 0.963421
O O12 0.430571 0.063547 0.103431
O O13 0.416140 0.659032 0.967020
O O14 0.094999 0.713034 0.813925
O O15 0.000000 0.500000 0.500000
#
# Coordination Sequence:
#
# PCOD9002116 Si02
#       7
#     2   2   2   2   2   2   2
#     4   9  21  41  61  84 120 156 203 248 292 356
#     4  11  20  38  63  89 117 155 204 250 296 353
#     4  10  21  39  61  85 120 160 197 248 297 355
#     4  11  21  37  60  87 125 156 195 248 306 351
#     4  10  22  39  59  88 120 159 196 248 300 356
#     4  11  21  36  63  89 118 158 201 244 303 354
#     4  10  21  36  57  92 122 150 198 254 296 353
#
# _framework density 22.772435999999999
#
# number of rings (size 3 to 8) (size 9 to 14) (size 15 to 20)
#    0.000    1.714    1.429    4.714    2.000    1.143 
#    5.143    2.857    0.000    0.000    0.000    0.000 
#    0.000    0.000    0.000    0.000    0.000    0.000 
#
# Total GULP energy -78034.769473 kJ/mol
# GULP energy per Si atom -5573.912105 kJ/mol
# Density = 2.272061 g / cm^3
# Si number density = 22.772436 Si / 1000 Ang^3
#
#
#
# Elastic Constant Matrix: (Units=GPa)
#
#
# Indices 1 2 3 4 5 6 
#
# 1 76.1955 26.0241 44.3208 -25.8410 -7.8247 -8.0784
# 2 26.0241 51.7197 36.5760 -11.8292 -1.4064 -21.0721
# 3 44.3208 36.5760 178.7276 -54.0566 7.0089 -9.6239
# 4 -25.8410 -11.8292 -54.0566 41.2481 -4.1107 9.7484
# 5 -7.8247 -1.4064 7.0089 -4.1107 52.3130 -10.7249
# 6 -8.0784 -21.0721 -9.6239 9.7484 -10.7249 27.1878
#
#
#
# Elastic Compliance Matrix: (Units=1/GPa)
#
#
# Indices 1 2 3 4 5 6 
#
# 1 0.019799 -0.008875 -0.000115 0.010893 0.002808 -0.003835
# 2 -0.008875 0.040244 -0.008048 -0.011580 0.006576 0.032452
# 3 -0.000115 -0.008048 0.011128 0.013919 -0.002320 -0.008239
# 4 0.010893 -0.011580 0.013919 0.050452 -0.000498 -0.019098
# 5 0.002808 0.006576 -0.002320 -0.000498 0.022922 0.014330
# 6 -0.003835 0.032452 -0.008239 -0.019098 0.014330 0.070378
#
#
# Mechanical properties :
#
#
# Convention : Reuss Voigt Hill
#
# Bulk Modulus (GPa) = 26.95856 57.83163 42.39510
# Shear Modulus (GPa) = 19.13037 37.46457 28.29747
#
# Velocity S-wave (km/s) = 2.90154 4.06047 3.52890
# Velocity P-wave (km/s) = 4.80512 6.88722 5.93814
#
# Compressibility (1/GPa) = 0.03709397
#
# Stress axis : x y z
#
# Youngs Moduli (GPa) = 50.50868 24.84818 89.86477
#
# Poissons Ratio (x) = 0.22054 0.01036
# Poissons Ratio (y) = 0.44828 0.72321
# Poissons Ratio (z) = 0.00582 0.19997
#
# Static dielectric constant tensor:
#      x y z
#    x 2.054330 0.013690 -0.027430 
#    y 0.013690 2.039980 -0.018650 
#    z -0.027430 -0.018650 1.898690 
# 
# From -- ./inp_files/413497.got.cif
#   From: 2010.05.17/outbox.cif.g08.bks.cpg/sg2_207_cif.got.tgz:413497.got - 2010.06.03 11:33:40.
