data_PCOD9002088
_publ_section_title
;
Structure prediction by ZEFSAII (Michael W. Deem and Ramdas Pophale) SiO2 
 PCOD9002088
Probable space group: P -1
;
_chemical_formula_sum "Si O2"
_cell_formula_units_Z 14
_cell_length_a 12.492188
_cell_length_b 19.027386
_cell_length_c 14.758547
_cell_angle_alpha 161.394929
_cell_angle_beta 28.094581
_cell_angle_gamma 144.999427
_cell_volume 523.712775
_symmetry_space_group_name_H-M "P -1"
_symmetry_group_IT_number 2
_symmetry_cell_setting 'triclinic'
loop_
_space_group_symop_operation_xyz
x,y,z
-x,-y,-z
loop_
_atom_site_type_symbol
_atom_site_label
_atom_site_fract_x
_atom_site_fract_y
_atom_site_fract_z
Si Si1 0.764782 0.902615 0.690033
Si Si2 0.179161 0.092913 0.842949
Si Si3 0.788443 0.577190 0.628538
Si Si4 0.679801 0.529613 0.166914
Si Si5 0.763990 0.022440 0.545795
Si Si6 0.275918 0.589626 0.220803
Si Si7 0.288504 0.042512 0.998873
O O1 0.794591 0.702687 0.352977
O O2 0.779499 0.851497 0.723819
O O3 0.979705 0.044396 0.690063
O O4 0.500000 0.000000 0.000000
O O5 0.261079 0.062494 0.641600
O O6 0.247241 0.858041 0.557500
O O7 0.900870 0.120723 0.082882
O O8 0.268459 0.287046 0.070954
O O9 0.598167 0.415522 0.554621
O O10 0.750725 0.762696 0.806059
O O11 0.056674 0.511214 0.340330
O O12 0.736847 0.289201 0.878374
O O13 0.737515 0.499194 0.980726
O O14 0.556301 0.961835 0.688800
O O15 0.500000 0.500000 0.000000
#
# Coordination Sequence:
#
# PCOD9002088 Si02
#       7
#     2   2   2   2   2   2   2
#     4  11  24  40  57  84 117 145 187 243 288 333
#     4   9  19  37  59  88 117 145 191 234 272 333
#     4  10  21  38  60  85 115 151 191 233 274 334
#     4  10  23  40  58  83 114 151 193 233 278 334
#     4   9  20  38  63  84 108 152 194 232 276 331
#     4  10  21  36  57  86 120 152 182 228 286 338
#     4   9  19  36  60  82 107 150 192 227 275 331
#
# _framework density 26.732209999999998
#
# number of rings (size 3 to 8) (size 9 to 14) (size 15 to 20)
#    0.000    2.286    0.000    3.000    0.000   14.286 
#    0.000    4.286    0.000    0.000    0.000    0.000 
#    0.000    0.000    0.000    0.000    0.000    0.000 
#
# Total GULP energy -78504.544942 kJ/mol
# GULP energy per Si atom -5607.467496 kJ/mol
# Density = 2.667137 g / cm^3
# Si number density = 26.732210 Si / 1000 Ang^3
#
#
#
# Elastic Constant Matrix: (Units=GPa)
#
#
# Indices 1 2 3 4 5 6 
#
# 1 128.0826 56.4164 27.1988 -2.4184 22.5774 28.5569
# 2 56.4164 146.0347 39.9486 -36.4132 16.9450 24.6494
# 3 27.1988 39.9486 87.1010 -17.8165 -7.1035 19.8060
# 4 -2.4184 -36.4132 -17.8165 57.0233 7.7730 -10.0333
# 5 22.5774 16.9450 -7.1035 7.7730 60.3573 -11.7152
# 6 28.5569 24.6494 19.8060 -10.0333 -11.7152 48.1844
#
#
#
# Elastic Compliance Matrix: (Units=1/GPa)
#
#
# Indices 1 2 3 4 5 6 
#
# 1 0.011691 -0.003072 -0.001692 -0.002474 -0.004614 -0.006299
# 2 -0.003072 0.011106 -0.002618 0.006212 -0.003533 -0.002351
# 3 -0.001692 -0.002618 0.014395 0.001983 0.002301 -0.002603
# 4 -0.002474 0.006212 0.001983 0.022708 -0.003235 0.001415
# 5 -0.004614 -0.003533 0.002301 -0.003235 0.021558 0.008164
# 6 -0.006299 -0.002351 -0.002603 0.001415 0.008164 0.029038
#
#
# Mechanical properties :
#
#
# Convention : Reuss Voigt Hill
#
# Bulk Modulus (GPa) = 44.58458 67.59400 56.08929
# Shear Modulus (GPa) = 37.66923 48.95663 43.31293
#
# Velocity S-wave (km/s) = 3.75791 4.28410 4.02960
# Velocity P-wave (km/s) = 5.96185 7.05775 6.53282
#
# Compressibility (1/GPa) = 0.02242928
#
# Stress axis : x y z
#
# Youngs Moduli (GPa) = 85.53854 90.04061 69.46941
#
# Poissons Ratio (x) = 0.27659 0.11752
# Poissons Ratio (y) = 0.26277 0.18184
# Poissons Ratio (z) = 0.14471 0.23568
#
# Static dielectric constant tensor:
#      x y z
#    x 2.036370 0.002510 -0.115530 
#    y 0.002510 2.080440 -0.034750 
#    z -0.115530 -0.034750 2.192310 
# 
# From -- ./inp_files/177012.got.cif
#   From: 2010.05.17/outbox.cif.g08.bks.cpg/sg2_89_cif.got.tgz:177012.got - 2010.06.03 11:33:40.
