data_PCOD9002687
_publ_section_title
;
Structure prediction by ZEFSAII (Michael W. Deem and Ramdas Pophale) SiO2 
 PCOD9002687
Probable space group: P -1
;
_chemical_formula_sum "Si O2"
_cell_formula_units_Z 12
_cell_length_a 17.698038
_cell_length_b 9.980213
_cell_length_c 14.293772
_cell_angle_alpha 128.451249
_cell_angle_beta 22.335853
_cell_angle_gamma 139.980599
_cell_volume 577.028273
_symmetry_space_group_name_H-M "P -1"
_symmetry_group_IT_number 2
_symmetry_cell_setting 'triclinic'
loop_
_space_group_symop_operation_xyz
x,y,z
-x,-y,-z
loop_
_atom_site_type_symbol
_atom_site_label
_atom_site_fract_x
_atom_site_fract_y
_atom_site_fract_z
Si Si1 0.452604 0.294023 0.847576
Si Si2 0.701000 0.142299 0.247322
Si Si3 0.270621 0.476386 0.704217
Si Si4 0.840935 0.575935 0.682962
Si Si5 0.752272 0.033678 0.753429
Si Si6 0.838466 0.698935 0.455627
O O1 0.589555 0.373949 0.826505
O O2 0.675303 0.460405 0.589752
O O3 0.328573 0.045280 0.860651
O O4 0.249643 0.338660 0.098705
O O5 0.644908 0.283756 0.314408
O O6 0.500000 0.000000 0.500000
O O7 0.005995 0.331498 0.005200
O O8 0.500000 0.500000 0.500000
O O9 0.195163 0.347515 0.635634
O O10 0.000000 0.500000 0.500000
O O11 0.018848 0.779764 0.496478
O O12 0.869787 0.136691 0.766173
O O13 0.721067 0.815066 0.675886
O O14 0.500000 0.000000 0.000000
#
# Coordination Sequence:
#
# PCOD9002687 Si02
#       6
#     2   2   2   2   2   2
#     4  10  21  40  64  88 129 171 213 271 329 393
#     4  11  24  46  69  95 133 181 224 282 336 395
#     4  11  26  45  68 100 133 181 232 277 336 404
#     4  10  21  37  60  96 124 164 215 266 332 393
#     4  10  21  36  63  92 125 168 209 271 335 391
#     4  10  21  41  61  90 131 168 215 274 329 389
#
# _framework density 20.796206999999999
#
# number of rings (size 3 to 8) (size 9 to 14) (size 15 to 20)
#    0.000    1.667    1.667    2.000    0.000   10.000 
#    3.000    0.000    0.000    0.000    0.000    0.000 
#    0.000    0.000    0.000    0.000    0.000    0.000 
#
# Total GULP energy -67047.300549 kJ/mol
# GULP energy per Si atom -5587.275046 kJ/mol
# Density = 2.074887 g / cm^3
# Si number density = 20.796207 Si / 1000 Ang^3
#
#
#
# Elastic Constant Matrix: (Units=GPa)
#
#
# Indices 1 2 3 4 5 6 
#
# 1 92.2640 46.7639 53.3288 8.2935 -13.6339 -1.9735
# 2 46.7639 169.5718 52.1699 0.6864 -10.1654 -11.8365
# 3 53.3288 52.1699 122.5848 -0.0648 -15.4233 -12.9328
# 4 8.2935 0.6864 -0.0648 38.1320 -17.0159 4.5383
# 5 -13.6339 -10.1654 -15.4233 -17.0159 42.6561 8.1453
# 6 -1.9735 -11.8365 -12.9328 4.5383 8.1453 28.4959
#
#
#
# Elastic Compliance Matrix: (Units=1/GPa)
#
#
# Indices 1 2 3 4 5 6 
#
# 1 0.016037 -0.002684 -0.005886 -0.002194 0.002038 -0.002909
# 2 -0.002684 0.007310 -0.001735 0.000176 -0.000065 0.002054
# 3 -0.005886 -0.001735 0.012094 0.001895 0.002178 0.003436
# 4 -0.002194 0.000176 0.001895 0.034794 0.015670 -0.009239
# 5 0.002038 -0.000065 0.002178 0.015670 0.033195 -0.010882
# 6 -0.002909 0.002054 0.003436 -0.009239 -0.010882 0.041886
#
#
# Mechanical properties :
#
#
# Convention : Reuss Voigt Hill
#
# Bulk Modulus (GPa) = 67.42338 76.54953 71.98645
# Shear Modulus (GPa) = 29.26209 37.33399 33.29804
#
# Velocity S-wave (km/s) = 3.75519 4.24161 4.00579
# Velocity P-wave (km/s) = 7.16193 7.80241 7.48902
#
# Compressibility (1/GPa) = 0.01483165
#
# Stress axis : x y z
#
# Youngs Moduli (GPa) = 62.35534 136.80298 82.68436
#
# Poissons Ratio (x) = 0.36714 0.48669
# Poissons Ratio (y) = 0.16734 0.14344
# Poissons Ratio (z) = 0.36703 0.23733
#
# Static dielectric constant tensor:
#      x y z
#    x 1.749700 0.001740 0.037130 
#    y 0.001740 1.748980 -0.008150 
#    z 0.037130 -0.008150 1.781030 
# 
# From -- ./inp_files/119389.got.cif
#   From: 2010.05.17/outbox.cif.g08.bks.cpg/sg2_60_cif.got.tgz:119389.got - 2010.06.03 11:33:40.
