data_PCOD9002245
_publ_section_title
;
Structure prediction by ZEFSAII (Michael W. Deem and Ramdas Pophale) SiO2 
 PCOD9002245
Probable space group: P -1
;
_chemical_formula_sum "Si O2"
_cell_formula_units_Z 16
_cell_length_a 25.748908
_cell_length_b 8.482649
_cell_length_c 5.323045
_cell_angle_alpha 58.202010
_cell_angle_beta 62.106585
_cell_angle_gamma 49.414972
_cell_volume 736.231589
_symmetry_space_group_name_H-M "P -1"
_symmetry_group_IT_number 2
_symmetry_cell_setting 'triclinic'
loop_
_space_group_symop_operation_xyz
x,y,z
-x,-y,-z
loop_
_atom_site_type_symbol
_atom_site_label
_atom_site_fract_x
_atom_site_fract_y
_atom_site_fract_z
Si Si1 0.921312 0.193165 0.929055
Si Si2 0.282098 0.789269 0.165466
Si Si3 0.627515 0.081551 0.371412
Si Si4 0.609353 0.416193 0.524858
Si Si5 0.616116 0.687139 0.916516
Si Si6 0.128854 0.891384 0.397415
Si Si7 0.001280 0.619523 0.643431
Si Si8 0.494883 0.797939 0.782597
O O1 0.884623 0.132608 0.846507
O O2 0.934337 0.354669 0.594070
O O3 0.880575 0.249936 0.241033
O O4 0.000000 0.000000 0.000000
O O5 0.318130 0.772294 0.362175
O O6 0.330843 0.536357 0.167466
O O7 0.203811 0.856809 0.287413
O O8 0.299578 0.943185 0.835725
O O9 0.591668 0.295949 0.452438
O O10 0.582979 0.129618 0.174591
O O11 0.628345 0.879867 0.668716
O O12 0.543979 0.568151 0.720518
O O13 0.627109 0.596704 0.245633
O O14 0.536124 0.757838 0.982853
O O15 0.067659 0.139116 0.389724
O O16 0.000000 0.500000 0.500000
O O17 0.000000 0.500000 0.000000
O O18 0.500000 0.000000 0.500000
#
# Coordination Sequence:
#
# PCOD9002245 Si02
#       8
#     2   2   2   2   2   2   2   2
#     4  10  21  41  69  94 123 176 205 255 315 379
#     4  10  24  41  57  85 126 170 201 259 313 389
#     4  10  21  38  60  85 121 158 213 263 322 380
#     4  10  21  36  59  85 120 158 213 256 323 367
#     4   9  21  40  59  85 121 157 215 262 317 385
#     4  11  23  42  68  89 136 172 217 248 327 391
#     4  11  21  40  66 104 132 153 210 272 310 365
#     4   9  19  35  59  87 117 160 205 270 323 376
#
# _framework density 21.732294
#
# number of rings (size 3 to 8) (size 9 to 14) (size 15 to 20)
#    0.000    2.000    0.000    4.125    3.500   10.500 
#    4.500    0.000    0.000    0.000    0.000    0.000 
#    0.000    0.000    0.000    0.000    0.000    0.000 
#
# Total GULP energy -89085.027879 kJ/mol
# GULP energy per Si atom -5567.814242 kJ/mol
# Density = 2.168283 g / cm^3
# Si number density = 21.732294 Si / 1000 Ang^3
#
#
#
# Elastic Constant Matrix: (Units=GPa)
#
#
# Indices 1 2 3 4 5 6 
#
# 1 117.8619 12.5644 51.5718 8.1675 -17.2732 -6.9535
# 2 12.5644 32.4635 19.8513 -7.8975 -5.7846 9.8096
# 3 51.5718 19.8513 166.6847 -11.6301 -13.7720 -0.6968
# 4 8.1675 -7.8975 -11.6301 31.7773 6.7644 -5.8948
# 5 -17.2732 -5.7846 -13.7720 6.7644 41.8902 6.2908
# 6 -6.9535 9.8096 -0.6968 -5.8948 6.2908 26.9353
#
#
#
# Elastic Compliance Matrix: (Units=1/GPa)
#
#
# Indices 1 2 3 4 5 6 
#
# 1 0.011278 -0.003780 -0.003102 -0.005343 0.003643 0.002188
# 2 -0.003780 0.041169 -0.002993 0.006231 0.004499 -0.015734
# 3 -0.003102 -0.002993 0.007540 0.002989 0.000138 0.001106
# 4 -0.005343 0.006231 0.002989 0.038307 -0.007533 0.006571
# 5 0.003643 0.004499 0.000138 -0.007533 0.028612 -0.009026
# 6 0.002188 -0.015734 0.001106 0.006571 -0.009026 0.046996
#
#
# Mechanical properties :
#
#
# Convention : Reuss Voigt Hill
#
# Bulk Modulus (GPa) = 24.85238 53.88723 39.36980
# Shear Modulus (GPa) = 24.14720 35.65539 29.90129
#
# Velocity S-wave (km/s) = 3.33696 4.05491 3.71333
# Velocity P-wave (km/s) = 5.12910 6.83906 6.04485
#
# Compressibility (1/GPa) = 0.04023759
#
# Stress axis : x y z
#
# Youngs Moduli (GPa) = 88.66898 24.29036 132.62537
#
# Poissons Ratio (x) = 0.09181 0.41138
# Poissons Ratio (y) = 0.33516 0.39692
# Poissons Ratio (z) = 0.27504 0.07270
#
# Static dielectric constant tensor:
#      x y z
#    x 1.823150 0.041090 0.032190 
#    y 0.041090 1.781350 0.017520 
#    z 0.032190 0.017520 1.927870 
# 
# From -- ./inp_files/126219.got.cif
#   From: 2010.05.17/outbox.cif.g08.bks.cpg/sg2_64_cif.got.tgz:126219.got - 2010.06.03 11:33:40.
