data_PCOD9002211
_publ_section_title
;
Structure prediction by ZEFSAII (Michael W. Deem and Ramdas Pophale) SiO2 
 PCOD9002211
Probable space group: P -1
;
_chemical_formula_sum "Si O2"
_cell_formula_units_Z 16
_cell_length_a 5.245366
_cell_length_b 11.579235
_cell_length_c 13.724062
_cell_angle_alpha 92.867381
_cell_angle_beta 103.931991
_cell_angle_gamma 61.464352
_cell_volume 708.691264
_symmetry_space_group_name_H-M "P -1"
_symmetry_group_IT_number 2
_symmetry_cell_setting 'triclinic'
loop_
_space_group_symop_operation_xyz
x,y,z
-x,-y,-z
loop_
_atom_site_type_symbol
_atom_site_label
_atom_site_fract_x
_atom_site_fract_y
_atom_site_fract_z
Si Si1 0.661177 0.130271 0.321983
Si Si2 0.283739 0.326157 0.124977
Si Si3 0.312639 0.658528 0.993806
Si Si4 0.288808 0.487258 0.618389
Si Si5 0.621447 0.021678 0.617619
Si Si6 0.170471 0.613795 0.182563
Si Si7 0.299356 0.699738 0.512413
Si Si8 0.819288 0.725877 0.331647
O O1 0.499431 0.236656 0.226723
O O2 0.514946 0.036264 0.316593
O O3 0.598999 0.208169 0.421149
O O4 0.020554 0.053344 0.347091
O O5 0.482697 0.294563 0.043596
O O6 0.153973 0.483341 0.140525
O O7 0.001682 0.301212 0.086505
O O8 0.500000 0.500000 0.000000
O O9 0.238505 0.684115 0.102050
O O10 0.548560 0.444473 0.720511
O O11 0.183862 0.635956 0.583648
O O12 0.428365 0.408384 0.528585
O O13 0.089796 0.425460 0.638493
O O14 0.500000 0.000000 0.500000
O O15 0.498267 0.172701 0.648381
O O16 0.886114 0.714983 0.223349
O O17 0.034305 0.764968 0.413736
#
# Coordination Sequence:
#
# PCOD9002211 Si02
#       8
#     2   2   2   2   2   2   2   2
#     4  12  25  43  67  91 128 177 220 263 311 372
#     4  11  23  42  66  98 129 163 210 264 327 387
#     4  10  22  40  65  98 132 159 203 264 333 391
#     4  10  21  36  58  92 131 160 206 252 336 386
#     4  12  26  43  65  90 131 177 227 261 303 364
#     4  10  22  36  63  95 124 160 202 264 331 385
#     4  10  21  38  56  93 127 168 207 260 320 388
#     4  11  24  37  62  90 129 173 212 260 314 384
#
# _framework density 22.576823999999998
#
# number of rings (size 3 to 8) (size 9 to 14) (size 15 to 20)
#    0.000    1.250    2.500    3.750    8.750    1.000 
#    0.000    0.000    0.000    4.500    0.000    0.000 
#    0.000    0.000    0.000    0.000    0.000    0.000 
#
# Total GULP energy -89417.755133 kJ/mol
# GULP energy per Si atom -5588.609696 kJ/mol
# Density = 2.252544 g / cm^3
# Si number density = 22.576824 Si / 1000 Ang^3
#
#
#
# Elastic Constant Matrix: (Units=GPa)
#
#
# Indices 1 2 3 4 5 6 
#
# 1 93.3235 14.0586 32.9185 -9.0437 -1.1450 -9.9812
# 2 14.0586 53.9311 26.9829 -1.5740 -6.3226 -1.6304
# 3 32.9185 26.9829 88.4784 7.8034 -14.1154 -15.0413
# 4 -9.0437 -1.5740 7.8034 22.6401 -4.7081 -5.0977
# 5 -1.1450 -6.3226 -14.1154 -4.7081 36.0977 -5.9934
# 6 -9.9812 -1.6304 -15.0413 -5.0977 -5.9934 37.2737
#
#
#
# Elastic Compliance Matrix: (Units=1/GPa)
#
#
# Indices 1 2 3 4 5 6 
#
# 1 0.013656 -0.000713 -0.005153 0.007699 -0.000278 0.002555
# 2 -0.000713 0.022407 -0.006865 0.003670 0.001491 -0.001239
# 3 -0.005153 -0.006865 0.017704 -0.006216 0.005663 0.005525
# 4 0.007699 0.003670 -0.006216 0.052836 0.006678 0.008014
# 5 -0.000278 0.001491 0.005663 0.006678 0.032436 0.008405
# 6 0.002555 -0.001239 0.005525 0.008014 0.008405 0.032135
#
#
# Mechanical properties :
#
#
# Convention : Reuss Voigt Hill
#
# Bulk Modulus (GPa) = 35.32719 42.62811 38.97765
# Shear Modulus (GPa) = 24.26371 29.98717 27.12544
#
# Velocity S-wave (km/s) = 3.28185 3.64844 3.46999
# Velocity P-wave (km/s) = 5.48108 6.05562 5.77550
#
# Compressibility (1/GPa) = 0.02830681
#
# Stress axis : x y z
#
# Youngs Moduli (GPa) = 73.22716 44.62904 56.48560
#
# Poissons Ratio (x) = 0.03180 0.29104
# Poissons Ratio (y) = 0.05218 0.38776
# Poissons Ratio (z) = 0.37731 0.30637
#
# Static dielectric constant tensor:
#      x y z
#    x 1.910900 0.031950 -0.033390 
#    y 0.031950 1.873160 -0.027730 
#    z -0.033390 -0.027730 1.857510 
# 
# From -- ./inp_files/113118.got.cif
#   From: 2010.05.17/outbox.cif.g08.bks.cpg/sg2_57_cif.got.tgz:113118.got - 2010.06.03 11:33:40.
