data_PCOD9002236
_publ_section_title
;
Structure prediction by ZEFSAII (Michael W. Deem and Ramdas Pophale) SiO2 
 PCOD9002236
Probable space group: P -1
;
_chemical_formula_sum "Si O2"
_cell_formula_units_Z 16
_cell_length_a 9.502935
_cell_length_b 19.525902
_cell_length_c 12.474651
_cell_angle_alpha 39.731893
_cell_angle_beta 130.721981
_cell_angle_gamma 156.088218
_cell_volume 588.136936
_symmetry_space_group_name_H-M "P -1"
_symmetry_group_IT_number 2
_symmetry_cell_setting 'triclinic'
loop_
_space_group_symop_operation_xyz
x,y,z
-x,-y,-z
loop_
_atom_site_type_symbol
_atom_site_label
_atom_site_fract_x
_atom_site_fract_y
_atom_site_fract_z
Si Si1 0.612400 0.802442 0.736404
Si Si2 0.457203 0.271213 0.433579
Si Si3 0.363763 0.864065 0.760882
Si Si4 0.055153 0.719263 0.564207
Si Si5 0.733620 0.837725 0.973208
Si Si6 0.252095 0.598991 0.348154
Si Si7 0.429700 0.429114 0.909927
Si Si8 0.752062 0.170281 0.012491
O O1 0.762971 0.875931 0.604234
O O2 0.355777 0.775124 0.649553
O O3 0.876726 0.934976 0.807892
O O4 0.394513 0.587472 0.923111
O O5 0.493321 0.272337 0.576942
O O6 0.431115 0.386345 0.268410
O O7 0.849283 0.418647 0.412047
O O8 0.068324 0.751272 0.660256
O O9 0.397249 0.751186 0.923226
O O10 0.746079 0.092036 0.632478
O O11 0.311477 0.888079 0.824156
O O12 0.748465 0.508184 0.598119
O O13 0.678671 0.683717 0.118747
O O14 0.000000 0.000000 0.000000
O O15 0.302442 0.729614 0.146308
O O16 0.116023 0.299608 0.993634
O O17 0.500000 0.000000 0.000000
#
# Coordination Sequence:
#
# PCOD9002236 Si02
#       8
#     2   2   2   2   2   2   2   2
#     4   8  17  30  53  80 106 135 188 230 266 319
#     4   9  16  31  55  80 107 139 187 234 264 328
#     4  10  21  36  59  82 115 146 183 237 271 331
#     4   9  19  37  59  83 105 151 197 221 268 335
#     4   9  18  31  52  80 107 146 186 219 265 338
#     4   9  20  32  56  82 109 145 189 227 276 328
#     4   9  19  33  53  84 106 146 183 227 278 328
#     4  11  23  35  55  87 115 142 182 236 286 324
#
# _framework density 27.204550999999999
#
# number of rings (size 3 to 8) (size 9 to 14) (size 15 to 20)
#    0.750    2.000    0.000    1.125    8.750    0.500 
#    0.000    0.625    0.000    0.750    0.000    0.000 
#    0.000    0.000    0.000    0.000    0.000    0.000 
#
# Total GULP energy -89213.741903 kJ/mol
# GULP energy per Si atom -5575.858869 kJ/mol
# Density = 2.714263 g / cm^3
# Si number density = 27.204551 Si / 1000 Ang^3
#
#
#
# Elastic Constant Matrix: (Units=GPa)
#
#
# Indices 1 2 3 4 5 6 
#
# 1 112.3387 43.2273 32.3414 8.0836 -14.4885 -31.4143
# 2 43.2273 130.8426 37.4285 49.6852 -31.1586 -57.1134
# 3 32.3414 37.4285 99.6519 38.9656 -14.7555 -13.6034
# 4 8.0836 49.6852 38.9656 43.5529 -23.4294 -11.5877
# 5 -14.4885 -31.1586 -14.7555 -23.4294 50.9684 11.9152
# 6 -31.4143 -57.1134 -13.6034 -11.5877 11.9152 46.5412
#
#
#
# Elastic Compliance Matrix: (Units=1/GPa)
#
#
# Indices 1 2 3 4 5 6 
#
# 1 0.012775 -0.003946 -0.005501 0.009807 0.003251 0.003782
# 2 -0.003946 0.036889 0.007621 -0.040466 -0.003288 0.035599
# 3 -0.005501 0.007621 0.019130 -0.025641 -0.004559 0.006014
# 4 0.009807 -0.040466 -0.025641 0.092787 0.020946 -0.032794
# 5 0.003251 -0.003288 -0.004559 0.020946 0.028044 -0.005138
# 6 0.003782 0.035599 0.006014 -0.032794 -0.005138 0.062633
#
#
# Mechanical properties :
#
#
# Convention : Reuss Voigt Hill
#
# Bulk Modulus (GPa) = 15.35109 63.20303 39.27706
# Shear Modulus (GPa) = 18.01002 43.53490 30.77246
#
# Velocity S-wave (km/s) = 2.57577 4.00469 3.36691
# Velocity P-wave (km/s) = 3.80805 6.68329 5.43910
#
# Compressibility (1/GPa) = 0.06514196
#
# Stress axis : x y z
#
# Youngs Moduli (GPa) = 78.27840 27.10830 52.27505
#
# Poissons Ratio (x) = 0.10697 0.28757
# Poissons Ratio (y) = 0.30889 -0.39840
# Poissons Ratio (z) = 0.43062 -0.20660
#
# Static dielectric constant tensor:
#      x y z
#    x 2.149220 -0.014310 -0.063210 
#    y -0.014310 2.419410 -0.027040 
#    z -0.063210 -0.027040 2.146760 
# 
# From -- ./inp_files/438408.got.cif
#   From: 2010.05.17/outbox.cif.g08.bks.cpg/sg2_220_cif.got.tgz:438408.got - 2010.06.03 11:33:40.
