data_PCOD9002479
_publ_section_title
;
Structure prediction by ZEFSAII (Michael W. Deem and Ramdas Pophale) SiO2 
 PCOD9002479
Probable space group: P -1
;
_chemical_formula_sum "Si O2"
_cell_formula_units_Z 16
_cell_length_a 12.680746
_cell_length_b 11.930409
_cell_length_c 11.370716
_cell_angle_alpha 125.943074
_cell_angle_beta 121.208863
_cell_angle_gamma 102.975271
_cell_volume 769.251803
_symmetry_space_group_name_H-M "P -1"
_symmetry_group_IT_number 2
_symmetry_cell_setting 'triclinic'
loop_
_space_group_symop_operation_xyz
x,y,z
-x,-y,-z
loop_
_atom_site_type_symbol
_atom_site_label
_atom_site_fract_x
_atom_site_fract_y
_atom_site_fract_z
Si Si1 0.847215 0.992857 0.642239
Si Si2 0.283307 0.591043 0.891164
Si Si3 0.697289 0.905375 0.244496
Si Si4 0.723721 0.138877 0.079232
Si Si5 0.462913 0.803925 0.372653
Si Si6 0.719283 0.241493 0.399529
Si Si7 0.041297 0.881220 0.688523
Si Si8 0.887432 0.520346 0.873043
O O1 0.788226 0.925290 0.428800
O O2 0.662315 0.894584 0.540971
O O3 0.927253 0.916700 0.685965
O O4 0.008448 0.247363 0.901610
O O5 0.251281 0.723484 0.919285
O O6 0.104709 0.344315 0.604099
O O7 0.468886 0.694399 0.990617
O O8 0.342983 0.644224 0.093914
O O9 0.726835 0.097370 0.378027
O O10 0.797529 0.939158 0.204630
O O11 0.760324 0.251209 0.292784
O O12 0.859932 0.123988 0.155752
O O13 0.502093 0.903326 0.809829
O O14 0.329487 0.666840 0.322090
O O15 0.500000 0.000000 0.500000
O O16 0.867522 0.463277 0.690111
O O17 0.000000 0.500000 0.000000
#
# Coordination Sequence:
#
# PCOD9002479 Si02
#       8
#     2   2   2   2   2   2   2   2
#     4  11  23  36  54  90 120 151 192 239 297 347
#     4  10  21  36  61  87 115 156 199 239 289 337
#     4   9  18  35  56  83 119 149 189 245 292 337
#     4   9  19  37  60  86 116 154 195 243 279 335
#     4  11  22  37  61  91 120 146 194 251 290 341
#     4   9  18  36  62  89 111 147 201 244 281 339
#     4  11  22  35  56  84 121 157 196 233 287 354
#     4  12  21  38  65  88 113 151 193 240 300 349
#
# _framework density 20.799433000000001
#
# number of rings (size 3 to 8) (size 9 to 14) (size 15 to 20)
#    0.000    1.750    2.500    3.750    1.750    3.000 
#    0.000    0.625    0.000    5.250    0.000    0.000 
#    0.000    0.000    0.000    0.000    0.000    0.000 
#
# Total GULP energy -89447.136017 kJ/mol
# GULP energy per Si atom -5590.446001 kJ/mol
# Density = 2.075209 g / cm^3
# Si number density = 20.799433 Si / 1000 Ang^3
#
#
#
# Elastic Constant Matrix: (Units=GPa)
#
#
# Indices 1 2 3 4 5 6 
#
# 1 97.2848 23.8848 24.3164 -4.8921 25.5264 -22.0075
# 2 23.8848 36.9813 8.2433 -10.2199 9.6180 -13.3738
# 3 24.3164 8.2433 68.5710 -7.1776 6.7334 -8.3263
# 4 -4.8921 -10.2199 -7.1776 20.6561 1.9601 7.2128
# 5 25.5264 9.6180 6.7334 1.9601 22.0287 -0.3632
# 6 -22.0075 -13.3738 -8.3263 7.2128 -0.3632 41.9875
#
#
#
# Elastic Compliance Matrix: (Units=1/GPa)
#
#
# Indices 1 2 3 4 5 6 
#
# 1 0.018789 -0.003365 -0.003347 0.000713 -0.019215 0.007824
# 2 -0.003365 0.041254 0.000723 0.018504 -0.015845 0.008204
# 3 -0.003347 0.000723 0.016519 0.005195 -0.001935 0.000843
# 4 0.000713 0.018504 0.005195 0.062306 -0.016096 -0.003545
# 5 -0.019215 -0.015845 -0.001935 -0.016096 0.076404 -0.012076
# 6 0.007824 0.008204 0.000843 -0.003545 -0.012076 0.031202
#
#
# Mechanical properties :
#
#
# Convention : Reuss Voigt Hill
#
# Bulk Modulus (GPa) = 15.48354 35.08068 25.28211
# Shear Modulus (GPa) = 17.85827 26.69398 22.27612
#
# Velocity S-wave (km/s) = 2.93336 3.58634 3.27616
# Velocity P-wave (km/s) = 4.35122 5.83540 5.14709
#
# Compressibility (1/GPa) = 0.06458472
#
# Stress axis : x y z
#
# Youngs Moduli (GPa) = 53.22129 24.23978 60.53456
#
# Poissons Ratio (x) = 0.08158 0.20261
# Poissons Ratio (y) = 0.17911 -0.04377
# Poissons Ratio (z) = 0.17813 -0.01752
#
# Static dielectric constant tensor:
#      x y z
#    x 1.776180 0.014840 0.023110 
#    y 0.014840 1.737600 -0.014210 
#    z 0.023110 -0.014210 1.735890 
# 
# From -- ./inp_files/425113.got.cif
#   From: 2010.05.17/outbox.cif.g08.bks.cpg/sg2_213_cif.got.tgz:425113.got - 2010.06.03 11:33:40.
