data_PCOD9002051
_publ_section_title
;
Structure prediction by ZEFSAII (Michael W. Deem and Ramdas Pophale) SiO2 
 PCOD9002051
Probable space group: P -1
;
_chemical_formula_sum "Si O2"
_cell_formula_units_Z 14
_cell_length_a 15.214018
_cell_length_b 30.120381
_cell_length_c 24.340051
_cell_angle_alpha 9.385498
_cell_angle_beta 19.512195
_cell_angle_gamma 20.771997
_cell_volume 604.923973
_symmetry_space_group_name_H-M "P -1"
_symmetry_group_IT_number 2
_symmetry_cell_setting 'triclinic'
loop_
_space_group_symop_operation_xyz
x,y,z
-x,-y,-z
loop_
_atom_site_type_symbol
_atom_site_label
_atom_site_fract_x
_atom_site_fract_y
_atom_site_fract_z
Si Si1 0.727326 0.409005 0.248888
Si Si2 0.007655 0.960025 0.950774
Si Si3 0.747800 0.660167 0.812516
Si Si4 0.044997 0.871237 0.719843
Si Si5 0.154729 0.759704 0.996853
Si Si6 0.411574 0.836831 0.964425
Si Si7 0.182558 0.514093 0.172097
O O1 0.682079 0.585266 0.005096
O O2 0.511944 0.516021 0.290274
O O3 0.796180 0.088177 0.589345
O O4 0.000000 0.500000 0.000000
O O5 0.103585 0.236823 0.531037
O O6 0.005950 0.767067 0.134001
O O7 0.220614 0.889738 0.959449
O O8 0.737875 0.045033 0.037720
O O9 0.463759 0.685869 0.918636
O O10 0.863886 0.948283 0.380303
O O11 0.931728 0.398405 0.002155
O O12 0.322452 0.006771 0.385581
O O13 0.049292 0.762436 0.912254
O O14 0.090451 0.538539 0.259569
O O15 0.500000 0.500000 0.000000
#
# Coordination Sequence:
#
# PCOD9002051 Si02
#       7
#     2   2   2   2   2   2   2
#     4  10  21  36  57  82 117 155 196 235 284 346
#     4  11  21  38  58  86 123 149 188 242 294 340
#     4  11  19  34  58  91 111 147 197 244 287 332
#     4  11  21  37  61  85 117 153 198 238 282 347
#     4  11  20  33  61  88 119 144 191 244 291 338
#     4  10  21  38  56  84 118 155 188 238 294 340
#     4  12  20  37  62  90 115 150 196 242 285 337
#
# _framework density 23.143405000000001
#
# number of rings (size 3 to 8) (size 9 to 14) (size 15 to 20)
#    0.000    1.143    5.714    3.000    0.000    0.000 
#    2.571    2.857    0.000    4.286    0.000    0.000 
#    0.000    0.000    0.000    0.000    0.000    0.000 
#
# Total GULP energy -78229.101259 kJ/mol
# GULP energy per Si atom -5587.792947 kJ/mol
# Density = 2.309073 g / cm^3
# Si number density = 23.143405 Si / 1000 Ang^3
#
#
#
# Elastic Constant Matrix: (Units=GPa)
#
#
# Indices 1 2 3 4 5 6 
#
# 1 74.9528 15.4857 -3.7621 2.8804 5.8015 32.1206
# 2 15.4857 119.9061 15.7119 -19.8037 9.3876 27.5714
# 3 -3.7621 15.7119 53.5847 -18.0157 13.4414 -5.4333
# 4 2.8804 -19.8037 -18.0157 33.7800 2.4932 -0.7732
# 5 5.8015 9.3876 13.4414 2.4932 29.9840 -6.1507
# 6 32.1206 27.5714 -5.4333 -0.7732 -6.1507 41.5990
#
#
#
# Elastic Compliance Matrix: (Units=1/GPa)
#
#
# Indices 1 2 3 4 5 6 
#
# 1 0.022245 0.002406 0.001503 0.000587 -0.009888 -0.020026
# 2 0.002406 0.012320 -0.000442 0.007045 -0.006963 -0.010980
# 3 0.001503 -0.000442 0.027562 0.015337 -0.013576 0.001010
# 4 0.000587 0.007045 0.015337 0.042770 -0.013641 -0.004341
# 5 -0.009888 -0.006963 -0.013576 -0.013641 0.048224 0.017353
# 6 -0.020026 -0.010980 0.001010 -0.004341 0.017353 0.049396
#
#
# Mechanical properties :
#
#
# Convention : Reuss Voigt Hill
#
# Bulk Modulus (GPa) = 14.47979 33.70164 24.09072
# Shear Modulus (GPa) = 22.87251 35.80648 29.33949
#
# Velocity S-wave (km/s) = 3.14713 3.93766 3.56438
# Velocity P-wave (km/s) = 4.41316 5.93862 5.23179
#
# Compressibility (1/GPa) = 0.06906175
#
# Stress axis : x y z
#
# Youngs Moduli (GPa) = 44.95432 81.16634 36.28248
#
# Poissons Ratio (x) = -0.19528 -0.05455
# Poissons Ratio (y) = -0.10816 0.01603
# Poissons Ratio (z) = -0.06759 0.03586
#
# Static dielectric constant tensor:
#      x y z
#    x 1.901530 0.024870 0.058900 
#    y 0.024870 1.906450 -0.060260 
#    z 0.058900 -0.060260 1.977980 
# 
# From -- ./inp_files/257346.got.cif
#   From: 2010.05.17/outbox.cif.g08.bks.cpg/sg2_129_cif.got.tgz:257346.got - 2010.06.03 11:33:40.
