data_PCOD9002169
_publ_section_title
;
Structure prediction by ZEFSAII (Michael W. Deem and Ramdas Pophale) SiO2 
 PCOD9002169
Probable space group: P -1
;
_chemical_formula_sum "Si O2"
_cell_formula_units_Z 14
_cell_length_a 7.804339
_cell_length_b 20.052034
_cell_length_c 14.460780
_cell_angle_alpha 27.047372
_cell_angle_beta 145.329017
_cell_angle_gamma 144.856723
_cell_volume 552.700625
_symmetry_space_group_name_H-M "P -1"
_symmetry_group_IT_number 2
_symmetry_cell_setting 'triclinic'
loop_
_space_group_symop_operation_xyz
x,y,z
-x,-y,-z
loop_
_atom_site_type_symbol
_atom_site_label
_atom_site_fract_x
_atom_site_fract_y
_atom_site_fract_z
Si Si1 0.841535 0.796709 0.054185
Si Si2 0.690523 0.132292 0.165741
Si Si3 0.303079 0.183060 0.485759
Si Si4 0.516967 0.628811 0.273597
Si Si5 0.675696 0.520892 0.194885
Si Si6 0.132030 0.925793 0.392960
Si Si7 0.898031 0.411435 0.239484
O O1 0.841401 0.720139 0.250881
O O2 0.882040 0.663961 0.170542
O O3 0.493715 0.819230 0.891251
O O4 0.992051 0.961456 0.866857
O O5 0.060597 0.179886 0.296845
O O6 0.549033 0.950262 0.309439
O O7 0.614373 0.232838 0.925744
O O8 0.528880 0.357062 0.383597
O O9 0.088131 0.117789 0.560188
O O10 0.500000 0.500000 0.500000
O O11 0.236155 0.521198 0.214751
O O12 0.835539 0.481952 0.222019
O O13 0.384464 0.578917 0.962504
O O14 0.106691 0.763109 0.535105
O O15 0.500000 0.000000 0.500000
#
# Coordination Sequence:
#
# PCOD9002169 Si02
#       7
#     2   2   2   2   2   2   2
#     4  10  21  36  58  87 119 156 198 242 304 354
#     4   9  20  33  57  83 115 152 195 236 297 345
#     4  11  20  32  58  87 126 149 184 245 314 355
#     4  10  22  43  63  81 118 169 207 240 283 353
#     4  11  21  35  59  93 125 149 193 254 310 357
#     4  12  21  33  56  91 127 154 183 247 312 366
#     4  11  23  35  59  92 124 156 199 244 303 356
#
# _framework density 25.330169999999999
#
# number of rings (size 3 to 8) (size 9 to 14) (size 15 to 20)
#    0.857    0.571    4.286    1.714    4.000    1.714 
#    0.000    1.429    0.000    1.714    0.000    0.000 
#    0.000    0.000    0.000    0.000    0.000    0.000 
#
# Total GULP energy -78092.311521 kJ/mol
# GULP energy per Si atom -5578.022252 kJ/mol
# Density = 2.527252 g / cm^3
# Si number density = 25.330170 Si / 1000 Ang^3
#
#
#
# Elastic Constant Matrix: (Units=GPa)
#
#
# Indices 1 2 3 4 5 6 
#
# 1 96.8446 26.4055 60.8857 -19.2912 -11.2458 -7.0311
# 2 26.4055 41.2163 40.3851 -23.3257 6.7712 4.6107
# 3 60.8857 40.3851 211.2780 -40.1954 -22.5272 -11.7044
# 4 -19.2912 -23.3257 -40.1954 51.4628 -9.2122 3.8508
# 5 -11.2458 6.7712 -22.5272 -9.2122 46.5843 -14.9792
# 6 -7.0311 4.6107 -11.7044 3.8508 -14.9792 26.6908
#
#
#
# Elastic Compliance Matrix: (Units=1/GPa)
#
#
# Indices 1 2 3 4 5 6 
#
# 1 0.015924 -0.011736 -0.000612 0.000959 0.008924 0.010824
# 2 -0.011736 0.054110 -0.008896 0.011426 -0.022604 -0.030674
# 3 -0.000612 -0.008896 0.008835 0.003562 0.009328 0.009971
# 4 0.000959 0.011426 0.003562 0.028847 0.005623 -0.001165
# 5 0.008924 -0.022604 0.009328 0.005623 0.043433 0.033910
# 6 0.010824 -0.030674 0.009971 -0.001165 0.033910 0.069188
#
#
# Mechanical properties :
#
#
# Convention : Reuss Voigt Hill
#
# Bulk Modulus (GPa) = 27.48817 67.18797 47.33807
# Shear Modulus (GPa) = 18.18509 39.72509 28.95509
#
# Velocity S-wave (km/s) = 2.68231 3.96446 3.38465
# Velocity P-wave (km/s) = 4.52422 6.89481 5.83125
#
# Compressibility (1/GPa) = 0.03637929
#
# Stress axis : x y z
#
# Youngs Moduli (GPa) = 62.79949 18.48102 113.19013
#
# Poissons Ratio (x) = 0.21690 0.06926
# Poissons Ratio (y) = 0.73702 1.00698
# Poissons Ratio (z) = 0.03843 0.16441
#
# Static dielectric constant tensor:
#      x y z
#    x 2.003460 0.004740 -0.061170 
#    y 0.004740 2.162580 0.088350 
#    z -0.061170 0.088350 2.114330 
# 
# From -- ./inp_files/397891.got.cif
#   From: 2010.05.17/outbox.cif.g08.bks.cpg/sg2_199_cif.got.tgz:397891.got - 2010.06.03 11:33:40.
