data_PCOD9002384
_publ_section_title
;
Structure prediction by ZEFSAII (Michael W. Deem and Ramdas Pophale) SiO2 
 PCOD9002384
Probable space group: P -1
;
_chemical_formula_sum "Si O2"
_cell_formula_units_Z 16
_cell_length_a 8.673371
_cell_length_b 7.976103
_cell_length_c 18.671617
_cell_angle_alpha 94.690776
_cell_angle_beta 43.599572
_cell_angle_gamma 115.834150
_cell_volume 742.698123
_symmetry_space_group_name_H-M "P -1"
_symmetry_group_IT_number 2
_symmetry_cell_setting 'triclinic'
loop_
_space_group_symop_operation_xyz
x,y,z
-x,-y,-z
loop_
_atom_site_type_symbol
_atom_site_label
_atom_site_fract_x
_atom_site_fract_y
_atom_site_fract_z
Si Si1 0.655928 0.203798 0.243550
Si Si2 0.861450 0.664509 0.664663
Si Si3 0.252494 0.535489 0.570676
Si Si4 0.612945 0.947535 0.529554
Si Si5 0.250029 0.517299 0.065475
Si Si6 0.509007 0.791232 0.859181
Si Si7 0.530613 0.547298 0.329904
Si Si8 0.073358 0.775753 0.213138
O O1 0.505146 0.046798 0.353470
O O2 0.576146 0.156802 0.185382
O O3 0.585148 0.370674 0.290844
O O4 0.970237 0.303659 0.150628
O O5 0.686238 0.701964 0.777718
O O6 0.663508 0.489082 0.671034
O O7 0.042843 0.599655 0.636843
O O8 0.071557 0.884981 0.567004
O O9 0.497195 0.715874 0.540637
O O10 0.366088 0.534259 0.455120
O O11 0.091543 0.330041 0.662237
O O12 0.500000 0.000000 0.500000
O O13 0.201828 0.652767 0.140561
O O14 0.500000 0.500000 0.000000
O O15 0.283716 0.625084 0.981266
O O16 0.695995 0.995921 0.846207
O O17 0.833707 0.739350 0.240381
#
# Coordination Sequence:
#
# PCOD9002384 Si02
#       8
#     2   2   2   2   2   2   2   2
#     4  10  23  42  62  94 124 165 209 256 310 371
#     4  10  23  37  60  94 126 165 210 246 309 372
#     4  11  20  38  57  88 130 167 198 252 307 367
#     4  10  21  37  62  87 132 159 210 248 307 370
#     4  11  23  45  70  88 120 165 212 260 315 364
#     4  11  24  40  67  92 125 165 209 261 304 366
#     4  10  21  36  60  88 128 167 198 253 307 367
#     4  11  23  40  62  92 126 158 214 249 312 370
#
# _framework density 21.543071999999999
#
# number of rings (size 3 to 8) (size 9 to 14) (size 15 to 20)
#    0.000    1.500    2.500    3.000    5.250    1.000 
#    0.000    0.625    0.000    0.000    0.000    0.000 
#    0.000    0.000    0.000    0.000    0.000    0.000 
#
# Total GULP energy -89236.240826 kJ/mol
# GULP energy per Si atom -5577.265052 kJ/mol
# Density = 2.149404 g / cm^3
# Si number density = 21.543072 Si / 1000 Ang^3
#
#
#
# Elastic Constant Matrix: (Units=GPa)
#
#
# Indices 1 2 3 4 5 6 
#
# 1 75.4642 8.9299 21.4565 16.5638 -2.9149 10.3302
# 2 8.9299 29.7281 2.3931 4.0280 0.8215 18.8548
# 3 21.4565 2.3931 108.4859 8.4604 1.4811 3.4571
# 4 16.5638 4.0280 8.4604 27.4811 -9.5288 -0.2234
# 5 -2.9149 0.8215 1.4811 -9.5288 30.0450 -0.5258
# 6 10.3302 18.8548 3.4571 -0.2234 -0.5258 27.7145
#
#
#
# Elastic Compliance Matrix: (Units=1/GPa)
#
#
# Indices 1 2 3 4 5 6 
#
# 1 0.016910 0.000737 -0.002332 -0.010196 -0.001614 -0.006626
# 2 0.000737 0.062615 0.000910 -0.012471 -0.006397 -0.043208
# 3 -0.002332 0.000910 0.009891 -0.002296 -0.001485 -0.001030
# 4 -0.010196 -0.012471 -0.002296 0.050640 0.015758 0.013278
# 5 -0.001614 -0.006397 -0.001485 0.015758 0.038477 0.005996
# 6 -0.006626 -0.043208 -0.001030 0.013278 0.005996 0.068297
#
#
# Mechanical properties :
#
#
# Convention : Reuss Voigt Hill
#
# Bulk Modulus (GPa) = 11.35792 31.02635 21.19214
# Shear Modulus (GPa) = 18.01480 29.10805 23.56142
#
# Velocity S-wave (km/s) = 2.89489 3.67979 3.31068
# Velocity P-wave (km/s) = 4.05678 5.69981 4.94698
#
# Compressibility (1/GPa) = 0.08804428
#
# Stress axis : x y z
#
# Youngs Moduli (GPa) = 59.13723 15.97071 101.10028
#
# Poissons Ratio (x) = -0.01177 0.23581
# Poissons Ratio (y) = -0.04358 -0.09198
# Poissons Ratio (z) = 0.13793 -0.01453
#
# Static dielectric constant tensor:
#      x y z
#    x 1.869240 -0.025000 0.036050 
#    y -0.025000 1.819300 -0.015830 
#    z 0.036050 -0.015830 1.772140 
# 
# From -- ./inp_files/237122.got.cif
#   From: 2010.05.17/outbox.cif.g08.bks.cpg/sg2_119_cif.got.tgz:237122.got - 2010.06.03 11:33:40.
