data_PCOD9002166
_publ_section_title
;
Structure prediction by ZEFSAII (Michael W. Deem and Ramdas Pophale) SiO2 
 PCOD9002166
Probable space group: P -1
;
_chemical_formula_sum "Si O2"
_cell_formula_units_Z 14
_cell_length_a 13.085662
_cell_length_b 6.593253
_cell_length_c 8.283489
_cell_angle_alpha 59.212677
_cell_angle_beta 103.992767
_cell_angle_gamma 84.247554
_cell_volume 573.828322
_symmetry_space_group_name_H-M "P -1"
_symmetry_group_IT_number 2
_symmetry_cell_setting 'triclinic'
loop_
_space_group_symop_operation_xyz
x,y,z
-x,-y,-z
loop_
_atom_site_type_symbol
_atom_site_label
_atom_site_fract_x
_atom_site_fract_y
_atom_site_fract_z
Si Si1 0.907994 0.746871 0.817981
Si Si2 0.711316 0.088592 0.039272
Si Si3 0.421981 0.214033 0.987373
Si Si4 0.948822 0.905356 0.267424
Si Si5 0.131827 0.493484 0.392359
Si Si6 0.281844 0.826084 0.334800
Si Si7 0.413694 0.766531 0.725421
O O1 0.836017 0.646315 0.703898
O O2 0.818529 0.926632 0.822859
O O3 0.975509 0.932422 0.698342
O O4 0.000000 0.500000 0.000000
O O5 0.663306 0.233398 0.796980
O O6 0.694149 0.824227 0.089621
O O7 0.661157 0.159608 0.169744
O O8 0.836710 0.089794 0.094026
O O9 0.472220 0.179184 0.201348
O O10 0.433287 0.475942 0.835897
O O11 0.500000 0.000000 0.000000
O O12 0.907637 0.708360 0.437762
O O13 0.026141 0.729010 0.238579
O O14 0.225516 0.609279 0.445043
O O15 0.355174 0.864493 0.496818
#
# Coordination Sequence:
#
# PCOD9002166 Si02
#       7
#     2   2   2   2   2   2   2
#     4  11  22  37  57  88 131 170 208 256 305 358
#     4  11  22  38  62  92 122 158 206 254 308 368
#     4   9  21  43  66  89 122 159 199 257 317 373
#     4  10  21  36  58  86 122 169 212 253 307 364
#     4  10  21  38  57  85 127 167 211 260 301 360
#     4  11  24  39  63  97 125 164 213 253 304 369
#     4  10  22  43  65  88 123 161 202 256 314 370
#
# _framework density 24.397542000000001
#
# number of rings (size 3 to 8) (size 9 to 14) (size 15 to 20)
#    0.000    1.714    0.000    3.857    0.000    9.714 
#    0.000    6.429    0.000    0.000    0.000    0.000 
#    0.000    0.000    0.000    0.000    0.000    0.000 
#
# Total GULP energy -77989.659472 kJ/mol
# GULP energy per Si atom -5570.689962 kJ/mol
# Density = 2.434201 g / cm^3
# Si number density = 24.397542 Si / 1000 Ang^3
#
#
#
# Elastic Constant Matrix: (Units=GPa)
#
#
# Indices 1 2 3 4 5 6 
#
# 1 60.2128 33.1189 29.3973 4.6234 -10.1087 5.7396
# 2 33.1189 135.5515 36.7285 0.2006 -9.7012 17.5238
# 3 29.3973 36.7285 93.4291 5.1681 -4.9058 -10.0015
# 4 4.6234 0.2006 5.1681 36.5017 8.6364 -4.6940
# 5 -10.1087 -9.7012 -4.9058 8.6364 34.0365 6.6179
# 6 5.7396 17.5238 -10.0015 -4.6940 6.6179 24.2802
#
#
#
# Elastic Compliance Matrix: (Units=1/GPa)
#
#
# Indices 1 2 3 4 5 6 
#
# 1 0.024186 -0.001866 -0.007257 -0.005598 0.009152 -0.010937
# 2 -0.001866 0.010723 -0.004450 -0.001581 0.004326 -0.010617
# 3 -0.007257 -0.004450 0.015825 0.001280 -0.003951 0.012771
# 4 -0.005598 -0.001581 0.001280 0.032569 -0.012670 0.012742
# 5 0.009152 0.004326 -0.003951 -0.012670 0.039913 -0.020242
# 6 -0.010937 -0.010617 0.012771 0.012742 -0.020242 0.064674
#
#
# Mechanical properties :
#
#
# Convention : Reuss Voigt Hill
#
# Bulk Modulus (GPa) = 42.39461 54.18695 48.29078
# Shear Modulus (GPa) = 22.43165 31.62692 27.02928
#
# Velocity S-wave (km/s) = 3.03549 3.60434 3.33208
# Velocity P-wave (km/s) = 5.44976 6.29126 5.88557
#
# Compressibility (1/GPa) = 0.02358790
#
# Stress axis : x y z
#
# Youngs Moduli (GPa) = 41.34640 93.25393 63.19080
#
# Poissons Ratio (x) = 0.17398 0.45859
# Poissons Ratio (y) = 0.07714 0.28122
# Poissons Ratio (z) = 0.30006 0.41501
#
# Static dielectric constant tensor:
#      x y z
#    x 2.009600 0.000400 0.000090 
#    y 0.000400 1.891390 0.009830 
#    z 0.000090 0.009830 2.083810 
# 
# From -- ./inp_files/36820.got.cif
#   From: 2010.05.17/outbox.cif.g08.bks.cpg/sg2_19_cif.got.tgz:36820.got - 2010.06.03 11:33:40.
