data_PCOD9002499
_publ_section_title
;
Structure prediction by ZEFSAII (Michael W. Deem and Ramdas Pophale) SiO2 
 PCOD9002499
Probable space group: P -1
;
_chemical_formula_sum "Si O2"
_cell_formula_units_Z 12
_cell_length_a 9.311130
_cell_length_b 7.222601
_cell_length_c 14.710821
_cell_angle_alpha 68.289828
_cell_angle_beta 137.748351
_cell_angle_gamma 126.291770
_cell_volume 531.897420
_symmetry_space_group_name_H-M "P -1"
_symmetry_group_IT_number 2
_symmetry_cell_setting 'triclinic'
loop_
_space_group_symop_operation_xyz
x,y,z
-x,-y,-z
loop_
_atom_site_type_symbol
_atom_site_label
_atom_site_fract_x
_atom_site_fract_y
_atom_site_fract_z
Si Si1 0.363357 0.220911 0.560658
Si Si2 0.186501 0.245920 0.085801
Si Si3 0.225301 0.594802 0.909322
Si Si4 0.816201 0.677798 0.720607
Si Si5 0.983254 0.724106 0.472304
Si Si6 0.687961 0.621063 0.178607
O O1 0.643213 0.397296 0.687354
O O2 0.317290 0.245704 0.428882
O O3 0.197846 0.300181 0.526283
O O4 0.246723 0.951037 0.574284
O O5 0.179201 0.235020 0.192370
O O6 0.473045 0.371301 0.163236
O O7 0.122626 0.433430 0.980208
O O8 0.000000 0.000000 0.000000
O O9 0.177086 0.431085 0.829399
O O10 0.089115 0.737174 0.808768
O O11 0.522547 0.721122 0.040709
O O12 0.863055 0.760875 0.317939
O O13 0.000000 0.500000 0.500000
#
# Coordination Sequence:
#
# PCOD9002499 Si02
#       6
#     2   2   2   2   2   2
#     4  10  24  40  64  94 131 166 211 264 309 383
#     4  10  21  36  61  89 124 160 202 265 310 361
#     4   9  20  38  63  84 125 167 197 259 318 367
#     4  11  21  42  61  96 131 160 210 263 319 375
#     4  11  22  42  65  91 125 175 211 259 317 378
#     4   9  20  39  60  87 128 155 216 256 299 390
#
# _framework density 22.560741
#
# number of rings (size 3 to 8) (size 9 to 14) (size 15 to 20)
#    1.000    1.000    1.667    1.500    2.333    1.333 
#    0.000    7.500    0.000    0.000    0.000    0.000 
#    0.000    0.000    0.000    0.000    0.000    0.000 
#
# Total GULP energy -66960.539672 kJ/mol
# GULP energy per Si atom -5580.044973 kJ/mol
# Density = 2.250939 g / cm^3
# Si number density = 22.560741 Si / 1000 Ang^3
#
#
#
# Elastic Constant Matrix: (Units=GPa)
#
#
# Indices 1 2 3 4 5 6 
#
# 1 81.4687 20.0210 24.2602 10.9618 -23.0337 -14.8789
# 2 20.0210 88.3222 12.5475 22.8638 13.4459 -5.0640
# 3 24.2602 12.5475 89.2481 20.0509 -25.5179 -14.6208
# 4 10.9618 22.8638 20.0509 35.2857 -6.9346 4.8533
# 5 -23.0337 13.4459 -25.5179 -6.9346 35.3698 11.1036
# 6 -14.8789 -5.0640 -14.6208 4.8533 11.1036 15.7014
#
#
#
# Elastic Compliance Matrix: (Units=1/GPa)
#
#
# Indices 1 2 3 4 5 6 
#
# 1 0.018355 -0.004828 0.000912 -0.002255 0.010986 0.009614
# 2 -0.004828 0.023882 0.000673 -0.023324 -0.025388 0.028917
# 3 0.000912 0.000673 0.018143 -0.012473 0.005307 0.018079
# 4 -0.002255 -0.023324 -0.012473 0.066232 0.031478 -0.064008
# 5 0.010986 -0.025388 0.005307 0.031478 0.071831 -0.053363
# 6 0.009614 0.028917 0.018079 -0.064008 -0.053363 0.156481
#
#
# Mechanical properties :
#
#
# Convention : Reuss Voigt Hill
#
# Bulk Modulus (GPa) = 18.55442 41.41071 29.98256
# Shear Modulus (GPa) = 13.17960 30.75206 21.96583
#
# Velocity S-wave (km/s) = 2.41961 3.69599 3.12369
# Velocity P-wave (km/s) = 4.00601 6.05053 5.13113
#
# Compressibility (1/GPa) = 0.05389553
#
# Stress axis : x y z
#
# Youngs Moduli (GPa) = 54.48144 41.87309 55.11616
#
# Poissons Ratio (x) = 0.20215 -0.05028
# Poissons Ratio (y) = 0.26302 -0.03711
# Poissons Ratio (z) = -0.04970 -0.02819
#
# Static dielectric constant tensor:
#      x y z
#    x 1.826770 0.046460 0.010370 
#    y 0.046460 1.877180 -0.029920 
#    z 0.010370 -0.029920 1.869490 
# 
# From -- ./inp_files/359437.got.cif
#   From: 2010.05.17/outbox.cif.g08.bks.cpg/sg2_180_cif.got.tgz:359437.got - 2010.06.03 11:33:40.
