data_PCOD9002553
_publ_section_title
;
Structure prediction by ZEFSAII (Michael W. Deem and Ramdas Pophale) SiO2 
 PCOD9002553
Probable space group: P -1
;
_chemical_formula_sum "Si O2"
_cell_formula_units_Z 15
_cell_length_a 7.949254
_cell_length_b 10.573019
_cell_length_c 15.935930
_cell_angle_alpha 56.913689
_cell_angle_beta 60.310343
_cell_angle_gamma 104.919747
_cell_volume 671.224597
_symmetry_space_group_name_H-M "P -1"
_symmetry_group_IT_number 2
_symmetry_cell_setting 'triclinic'
loop_
_space_group_symop_operation_xyz
x,y,z
-x,-y,-z
loop_
_atom_site_type_symbol
_atom_site_label
_atom_site_fract_x
_atom_site_fract_y
_atom_site_fract_z
Si Si1 0.127989 0.715083 0.552105
Si Si2 0.948699 0.708972 0.765899
Si Si3 0.257275 0.453914 0.886552
Si Si4 0.916778 0.766256 0.328099
Si Si5 0.609746 0.738501 0.952739
Si Si6 0.620212 0.442340 0.374374
Si Si7 0.681617 0.176841 0.210789
Si Si8 0.000000 0.500000 0.500000
O O1 0.235776 0.634097 0.609177
O O2 0.916710 0.541180 0.596257
O O3 0.041304 0.783895 0.620266
O O4 0.391810 0.928006 0.357092
O O5 0.773778 0.748841 0.832510
O O6 0.193704 0.807097 0.735386
O O7 0.720849 0.443055 0.917841
O O8 0.352353 0.513425 0.746227
O O9 0.355908 0.665108 0.829985
O O10 0.360601 0.363766 0.941340
O O11 0.920086 0.268739 0.051696
O O12 0.778592 0.661873 0.309006
O O13 0.697149 0.740846 0.445641
O O14 0.928426 0.610803 0.424731
O O15 0.220424 0.014804 0.159795
#
# Coordination Sequence:
#
# PCOD9002553 Si02
#       8
#     2   2   2   2   2   2   2   1
#     4  11  22  42  66  92 123 174 201 260 305 368
#     4  10  21  39  64  93 129 162 206 254 306 375
#     4  10  21  36  61  99 126 159 202 265 297 381
#     4  10  23  44  64  88 124 172 206 260 304 375
#     4  10  23  40  60  93 132 161 200 259 321 361
#     4  10  21  40  66  91 126 163 217 250 302 372
#     4  10  21  38  64  92 128 161 211 248 314 362
#     4  10  26  44  62  92 124 154 222 254 302 370
#
# _framework density 22.347214999999998
#
# number of rings (size 3 to 8) (size 9 to 14) (size 15 to 20)
#    0.000    1.867    1.333    2.000    3.733    4.800 
#    2.400    2.667    0.000    0.000    0.000    0.000 
#    0.000    0.000    0.000    0.000    0.000    0.000 
#
# Total GULP energy -83591.977962 kJ/mol
# GULP energy per Si atom -5572.798531 kJ/mol
# Density = 2.229635 g / cm^3
# Si number density = 22.347215 Si / 1000 Ang^3
#
#
#
# Elastic Constant Matrix: (Units=GPa)
#
#
# Indices 1 2 3 4 5 6 
#
# 1 58.4030 7.3353 -0.0401 10.4677 17.9332 2.2811
# 2 7.3353 27.3679 20.8424 8.3254 1.6091 4.8612
# 3 -0.0401 20.8424 46.7186 14.4903 0.6883 1.3112
# 4 10.4677 8.3254 14.4903 27.4667 12.3106 -0.5807
# 5 17.9332 1.6091 0.6883 12.3106 23.4480 2.0943
# 6 2.2811 4.8612 1.3112 -0.5807 2.0943 17.8992
#
#
#
# Elastic Compliance Matrix: (Units=1/GPa)
#
#
# Indices 1 2 3 4 5 6 
#
# 1 0.023602 -0.008491 0.004346 -0.001006 -0.017153 0.000954
# 2 -0.008491 0.062408 -0.025779 -0.005661 0.007281 -0.015014
# 3 0.004346 -0.025779 0.037801 -0.016266 0.005653 0.002489
# 4 -0.001006 -0.005661 -0.016266 0.061301 -0.031308 0.008509
# 5 -0.017153 0.007281 0.005653 -0.031308 0.072404 -0.009693
# 6 0.000954 -0.015014 0.002489 0.008509 -0.009693 0.061052
#
#
# Mechanical properties :
#
#
# Convention : Reuss Voigt Hill
#
# Bulk Modulus (GPa) = 15.63386 20.97386 18.30386
# Shear Modulus (GPa) = 12.50825 20.71960 16.61392
#
# Velocity S-wave (km/s) = 2.36841 3.04824 2.72958
# Velocity P-wave (km/s) = 3.80661 4.66850 4.25941
#
# Compressibility (1/GPa) = 0.06396374
#
# Stress axis : x y z
#
# Youngs Moduli (GPa) = 42.36967 16.02349 26.45433
#
# Poissons Ratio (x) = 0.13605 -0.11497
# Poissons Ratio (y) = 0.35975 0.68197
# Poissons Ratio (z) = -0.18414 0.41307
#
# Static dielectric constant tensor:
#      x y z
#    x 1.377400 -0.013040 -0.029560 
#    y -0.013040 1.884600 -0.007810 
#    z -0.029560 -0.007810 1.830920 
# 
# From -- ./inp_files/500144.got.cif
#   From: 2010.05.17/outbox.cif.g08.bks.cpg/sg2_251_cif.got.tgz:500144.got - 2010.06.03 11:33:40.
