data_PCOD9002847
_publ_section_title
;
Structure prediction by ZEFSAII (Michael W. Deem and Ramdas Pophale) SiO2 
 PCOD9002847
Probable space group: P -1
;
_chemical_formula_sum "Si O2"
_cell_formula_units_Z 14
_cell_length_a 12.129818
_cell_length_b 12.148508
_cell_length_c 11.450144
_cell_angle_alpha 43.490571
_cell_angle_beta 74.540274
_cell_angle_gamma 107.217582
_cell_volume 755.539433
_symmetry_space_group_name_H-M "P -1"
_symmetry_group_IT_number 2
_symmetry_cell_setting 'triclinic'
loop_
_space_group_symop_operation_xyz
x,y,z
-x,-y,-z
loop_
_atom_site_type_symbol
_atom_site_label
_atom_site_fract_x
_atom_site_fract_y
_atom_site_fract_z
Si Si1 0.883916 0.619035 0.254067
Si Si2 0.970336 0.615934 0.831689
Si Si3 0.053644 0.272607 0.588554
Si Si4 0.754211 0.000165 0.733189
Si Si5 0.796848 0.289519 0.927405
Si Si6 0.902352 0.839357 0.847008
Si Si7 0.455522 0.939208 0.195029
O O1 0.910979 0.730592 0.285767
O O2 0.864381 0.715716 0.075707
O O3 0.050590 0.680697 0.141420
O O4 0.716321 0.337690 0.526037
O O5 0.815706 0.402286 0.957317
O O6 0.941062 0.746215 0.812783
O O7 0.127233 0.808531 0.550861
O O8 0.000000 0.500000 0.000000
O O9 0.168179 0.537997 0.312286
O O10 0.861649 0.135600 0.719875
O O11 0.055823 0.121682 0.617772
O O12 0.585025 0.925468 0.848046
O O13 0.755161 0.809517 0.870389
O O14 0.613956 0.030924 0.149952
O O15 0.500000 0.000000 0.000000
#
# Coordination Sequence:
#
# PCOD9002847 Si02
#       7
#     2   2   2   2   2   2   2
#     4  12  19  40  60  92 122 158 202 252 300 360
#     4  11  19  40  65  89 116 160 212 246 293 361
#     4   9  19  35  60  87 117 157 197 243 307 351
#     4   9  21  37  58  89 121 154 199 245 303 348
#     4  11  22  36  66  90 115 161 209 241 307 346
#     4  10  21  36  66  86 123 165 194 249 309 357
#     4  12  22  38  63  92 124 158 204 250 296 362
#
# _framework density 18.529807000000002
#
# number of rings (size 3 to 8) (size 9 to 14) (size 15 to 20)
#    0.857    0.571    5.714    2.143    0.000    0.000 
#    0.000    5.714    0.000    0.000    0.000    0.000 
#    0.000    0.000    0.000    0.000    0.000    0.000 
#
# Total GULP energy -77968.228566 kJ/mol
# GULP energy per Si atom -5569.159183 kJ/mol
# Density = 1.848763 g / cm^3
# Si number density = 18.529807 Si / 1000 Ang^3
#
#
#
# Elastic Constant Matrix: (Units=GPa)
#
#
# Indices 1 2 3 4 5 6 
#
# 1 83.1513 22.5921 50.9490 -0.1631 -0.3624 -2.8431
# 2 22.5921 82.2235 5.5223 0.1703 -3.3164 -1.4307
# 3 50.9490 5.5223 52.2650 4.9195 6.0850 1.9407
# 4 -0.1631 0.1703 4.9195 26.2744 9.3114 5.6511
# 5 -0.3624 -3.3164 6.0850 9.3114 31.4020 -2.7049
# 6 -2.8431 -1.4307 1.9407 5.6511 -2.7049 30.7492
#
#
#
# Elastic Compliance Matrix: (Units=1/GPa)
#
#
# Indices 1 2 3 4 5 6 
#
# 1 0.035919 -0.007170 -0.035480 0.003751 0.005855 0.005053
# 2 -0.007170 0.013788 0.005586 -0.001420 0.000707 -0.000051
# 3 -0.035480 0.005586 0.054996 -0.005939 -0.009251 -0.006214
# 4 0.003751 -0.001420 -0.005939 0.045848 -0.013321 -0.008942
# 5 0.005855 0.000707 -0.009251 -0.013321 0.038331 0.006978
# 6 0.005053 -0.000051 -0.006214 -0.008942 0.006978 0.035635
#
#
# Mechanical properties :
#
#
# Convention : Reuss Voigt Hill
#
# Bulk Modulus (GPa) = 32.70623 41.75186 37.22905
# Shear Modulus (GPa) = 16.18973 26.92355 21.55664
#
# Velocity S-wave (km/s) = 2.95907 3.81594 3.41449
# Velocity P-wave (km/s) = 5.41883 6.48046 5.97328
#
# Compressibility (1/GPa) = 0.03057521
#
# Stress axis : x y z
#
# Youngs Moduli (GPa) = 27.84006 72.52942 18.18307
#
# Poissons Ratio (x) = 0.52005 0.64513
# Poissons Ratio (y) = 0.19962 -0.10157
# Poissons Ratio (z) = 0.98776 -0.40515
#
# Static dielectric constant tensor:
#      x y z
#    x 1.666210 -0.010140 0.003440 
#    y -0.010140 1.674280 -0.017650 
#    z 0.003440 -0.017650 1.652700 
# 
# From -- ./inp_files/270627.got.cif
#   From: 2010.05.17/outbox.cif.g08.bks.cpg/sg2_136_cif.got.tgz:270627.got - 2010.06.03 11:33:40.
