data_PCOD9002920
_publ_section_title
;
Structure prediction by ZEFSAII (Michael W. Deem and Ramdas Pophale) SiO2 
 PCOD9002920
Probable space group: P -1
;
_chemical_formula_sum "Si O2"
_cell_formula_units_Z 16
_cell_length_a 9.073673
_cell_length_b 12.610620
_cell_length_c 13.918955
_cell_angle_alpha 58.782357
_cell_angle_beta 60.770833
_cell_angle_gamma 109.841283
_cell_volume 722.747179
_symmetry_space_group_name_H-M "P -1"
_symmetry_group_IT_number 2
_symmetry_cell_setting 'triclinic'
loop_
_space_group_symop_operation_xyz
x,y,z
-x,-y,-z
loop_
_atom_site_type_symbol
_atom_site_label
_atom_site_fract_x
_atom_site_fract_y
_atom_site_fract_z
Si Si1 0.408659 0.745164 0.519786
Si Si2 0.807861 0.746275 0.097640
Si Si3 0.886271 0.354737 0.516756
Si Si4 0.847606 0.487954 0.933997
Si Si5 0.290533 0.954831 0.153963
Si Si6 0.558061 0.379325 0.895004
Si Si7 0.206456 0.213501 0.703506
Si Si8 0.186832 0.792694 0.854449
O O1 0.316809 0.686307 0.465501
O O2 0.598924 0.733139 0.466867
O O3 0.132149 0.603098 0.737253
O O4 0.593798 0.977750 0.360434
O O5 0.602573 0.627187 0.126774
O O6 0.682832 0.679845 0.276350
O O7 0.022661 0.758774 0.011508
O O8 0.996655 0.978452 0.909421
O O9 0.737075 0.144314 0.697240
O O10 0.000000 0.500000 0.500000
O O11 0.145742 0.467272 0.319319
O O12 0.645651 0.446521 0.946924
O O13 0.964782 0.635972 0.914802
O O14 0.701920 0.277612 0.118131
O O15 0.992290 0.796932 0.272146
O O16 0.500000 0.000000 0.000000
O O17 0.403760 0.156787 0.044422
#
# Coordination Sequence:
#
# PCOD9002920 Si02
#       8
#     2   2   2   2   2   2   2   2
#     4  10  21  38  59  79 117 149 183 231 277 332
#     4   9  19  35  57  80 115 147 181 229 279 330
#     4  11  21  33  53  81 110 149 186 220 271 332
#     4  10  22  37  59  85 107 146 196 232 275 325
#     4  11  22  34  56  78 116 152 180 224 276 334
#     4  10  21  37  53  80 112 144 189 229 273 332
#     4   9  20  34  55  85 110 149 184 219 280 341
#     4  10  21  38  59  82 110 146 192 235 277 324
#
# _framework density 22.137757000000001
#
# number of rings (size 3 to 8) (size 9 to 14) (size 15 to 20)
#    0.000    2.000    1.250    1.875    7.000    1.500 
#    0.000    1.875    0.000    0.000    0.000   17.500 
#    0.000    0.000    0.000    0.000    0.000    0.000 
#
# Total GULP energy -89265.700182 kJ/mol
# GULP energy per Si atom -5579.106261 kJ/mol
# Density = 2.208737 g / cm^3
# Si number density = 22.137757 Si / 1000 Ang^3
#
#
#
# Elastic Constant Matrix: (Units=GPa)
#
#
# Indices 1 2 3 4 5 6 
#
# 1 51.2693 12.6231 1.7769 7.2659 -19.5508 2.7531
# 2 12.6231 67.9755 6.4553 -0.9438 -1.5270 7.8355
# 3 1.7769 6.4553 51.9508 -7.6528 3.4563 -11.6401
# 4 7.2659 -0.9438 -7.6528 26.9477 -0.7311 0.7455
# 5 -19.5508 -1.5270 3.4563 -0.7311 24.0247 -1.8090
# 6 2.7531 7.8355 -11.6401 0.7455 -1.8090 31.5622
#
#
#
# Elastic Compliance Matrix: (Units=1/GPa)
#
#
# Indices 1 2 3 4 5 6 
#
# 1 0.032174 -0.005005 -0.003852 -0.009203 0.026043 -0.001275
# 2 -0.005005 0.016383 -0.002551 0.001250 -0.002986 -0.004772
# 3 -0.003852 -0.002551 0.023146 0.007118 -0.005732 0.009009
# 4 -0.009203 0.001250 0.007118 0.041416 -0.007042 0.001736
# 5 0.026043 -0.002986 -0.005732 -0.007042 0.063249 0.000147
# 6 -0.001275 -0.004772 0.009009 0.001736 0.000147 0.036269
#
#
# Mechanical properties :
#
#
# Convention : Reuss Voigt Hill
#
# Bulk Modulus (GPa) = 20.45527 23.65622 22.05575
# Shear Modulus (GPa) = 19.86093 26.52960 23.19526
#
# Velocity S-wave (km/s) = 2.99850 3.46553 3.24044
# Velocity P-wave (km/s) = 4.60956 5.16936 4.89747
#
# Compressibility (1/GPa) = 0.04888716
#
# Stress axis : x y z
#
# Youngs Moduli (GPa) = 31.08059 61.03814 43.20372
#
# Poissons Ratio (x) = 0.30548 0.16644
# Poissons Ratio (y) = 0.15555 0.11021
# Poissons Ratio (z) = 0.11974 0.15571
#
# Static dielectric constant tensor:
#      x y z
#    x 1.888320 0.054430 0.012840 
#    y 0.054430 1.817790 -0.007390 
#    z 0.012840 -0.007390 1.832590 
# 
# From -- ./inp_files/237546.got.cif
#   From: 2010.05.17/outbox.cif.g08.bks.cpg/sg2_119_cif.got.tgz:237546.got - 2010.06.03 11:33:40.
