data_PCOD9002987
_publ_section_title
;
Structure prediction by ZEFSAII (Michael W. Deem and Ramdas Pophale) SiO2 
 PCOD9002987
Probable space group: P -1
;
_chemical_formula_sum "Si O2"
_cell_formula_units_Z 14
_cell_length_a 13.401619
_cell_length_b 12.455136
_cell_length_c 5.199719
_cell_angle_alpha 89.983658
_cell_angle_beta 58.706472
_cell_angle_gamma 74.079782
_cell_volume 702.457536
_symmetry_space_group_name_H-M "P -1"
_symmetry_group_IT_number 2
_symmetry_cell_setting 'triclinic'
loop_
_space_group_symop_operation_xyz
x,y,z
-x,-y,-z
loop_
_atom_site_type_symbol
_atom_site_label
_atom_site_fract_x
_atom_site_fract_y
_atom_site_fract_z
Si Si1 0.357831 0.679056 0.205378
Si Si2 0.992081 0.858094 0.263066
Si Si3 0.759866 0.805031 0.620024
Si Si4 0.647894 0.448379 0.292749
Si Si5 0.387178 0.112696 0.696776
Si Si6 0.620858 0.664632 0.052752
Si Si7 0.861812 0.120653 0.422582
O O1 0.314758 0.605201 0.478240
O O2 0.503956 0.653206 0.052228
O O3 0.281547 0.809402 0.361299
O O4 0.326253 0.644825 0.966291
O O5 0.904804 0.781612 0.412150
O O6 0.069621 0.857972 0.414282
O O7 0.896867 0.985766 0.351215
O O8 0.080303 0.835827 0.899670
O O9 0.697410 0.858851 0.439950
O O10 0.697091 0.888863 0.941426
O O11 0.717555 0.696298 0.740134
O O12 0.500000 0.500000 0.500000
O O13 0.684028 0.554577 0.140060
O O14 0.429419 0.222803 0.701702
O O15 0.500000 0.000000 0.500000
#
# Coordination Sequence:
#
# PCOD9002987 Si02
#       7
#     2   2   2   2   2   2   2
#     4  11  22  36  61  86 115 148 192 240 279 337
#     4  10  21  41  58  82 115 149 196 226 286 337
#     4  10  22  36  58  81 113 155 177 235 276 351
#     4  10  21  37  56  84 118 152 187 232 284 342
#     4  10  22  34  52  88 116 149 181 225 284 349
#     4   9  23  35  59  85 118 148 183 228 296 335
#     4  10  22  38  60  84 110 153 189 239 277 331
#
# _framework density 19.930031
#
# number of rings (size 3 to 8) (size 9 to 14) (size 15 to 20)
#    0.857    1.143    0.000    3.857    8.000    0.000 
#    0.000    0.000    0.000    5.143    0.000    0.000 
#    0.000    0.000    0.000    0.000    0.000    0.000 
#
# Total GULP energy -78077.587575 kJ/mol
# GULP energy per Si atom -5576.970541 kJ/mol
# Density = 1.988467 g / cm^3
# Si number density = 19.930031 Si / 1000 Ang^3
#
#
#
# Elastic Constant Matrix: (Units=GPa)
#
#
# Indices 1 2 3 4 5 6 
#
# 1 34.9490 5.6087 21.4135 -24.6775 11.6258 -2.4285
# 2 5.6087 37.9654 6.6551 1.7483 -7.3953 16.7863
# 3 21.4135 6.6551 80.7112 1.1387 21.4427 19.2717
# 4 -24.6775 1.7483 1.1387 16.6171 2.2535 -21.2023
# 5 11.6258 -7.3953 21.4427 2.2535 33.1063 -3.4904
# 6 -2.4285 16.7863 19.2717 -21.2023 -3.4904 -3.5697
#
#
#
# Elastic Compliance Matrix: (Units=1/GPa)
#
#
# Indices 1 2 3 4 5 6 
#
# 1 0.038029 0.005745 0.002852 0.011942 -0.018553 -0.036247
# 2 0.005745 0.025709 -0.007048 0.011182 0.008022 0.004672
# 3 0.002852 -0.007048 0.014754 0.009101 -0.012467 0.002699
# 4 0.011942 0.011182 0.009101 0.024997 -0.013669 -0.041515
# 5 -0.018553 0.008022 -0.012467 -0.013669 0.049216 0.016104
# 6 -0.036247 0.004672 0.002699 -0.041515 0.016104 0.011894
#
#
# Mechanical properties :
#
#
# Convention : Reuss Voigt Hill
#
# Bulk Modulus (GPa) = 12.25662 24.55334 18.40498
# Shear Modulus (GPa) = 26.49751 17.22729 21.86240
#
# Velocity S-wave (km/s) = 3.65022 2.94324 3.31563
# Velocity P-wave (km/s) = 4.89170 4.88843 4.89006
#
# Compressibility (1/GPa) = 0.08158855
#
# Stress axis : x y z
#
# Youngs Moduli (GPa) = 26.29585 38.89723 67.78045
#
# Poissons Ratio (x) = -0.22346 -0.19334
# Poissons Ratio (y) = -0.15106 0.47775
# Poissons Ratio (z) = -0.07501 0.27417
#
# Static dielectric constant tensor:
#      x y z
#    x 1.680660 0.002650 0.004100 
#    y 0.002650 1.766240 -0.016300 
#    z 0.004100 -0.016300 1.700190 
# 
# From -- ./inp_files/73273.got.cif
#   From: 2010.05.17/outbox.cif.g08.bks.cpg/sg2_37_cif.got.tgz:73273.got - 2010.06.03 11:33:40.
