data_PCOD9002394
_publ_section_title
;
Structure prediction by ZEFSAII (Michael W. Deem and Ramdas Pophale) SiO2 
 PCOD9002394
Probable space group: P -1
;
_chemical_formula_sum "Si O2"
_cell_formula_units_Z 16
_cell_length_a 8.275754
_cell_length_b 19.446021
_cell_length_c 6.058002
_cell_angle_alpha 141.315555
_cell_angle_beta 90.833054
_cell_angle_gamma 87.013520
_cell_volume 607.992179
_symmetry_space_group_name_H-M "P -1"
_symmetry_group_IT_number 2
_symmetry_cell_setting 'triclinic'
loop_
_space_group_symop_operation_xyz
x,y,z
-x,-y,-z
loop_
_atom_site_type_symbol
_atom_site_label
_atom_site_fract_x
_atom_site_fract_y
_atom_site_fract_z
Si Si1 0.428751 0.816135 0.367045
Si Si2 0.246163 0.995282 0.566751
Si Si3 0.227854 0.703920 0.392688
Si Si4 0.768405 0.499091 0.416482
Si Si5 0.051486 0.079942 0.393615
Si Si6 0.571227 0.394785 0.481081
Si Si7 0.241047 0.207237 0.414906
Si Si8 0.051283 0.382036 0.596023
O O1 0.399987 0.920853 0.469261
O O2 0.284426 0.809272 0.528390
O O3 0.592925 0.806985 0.484762
O O4 0.426258 0.708917 0.944300
O O5 0.096281 0.920296 0.439522
O O6 0.209530 0.029510 0.401511
O O7 0.237612 0.107884 0.989226
O O8 0.385013 0.652133 0.397002
O O9 0.088440 0.701902 0.570070
O O10 0.181815 0.616058 0.988814
O O11 0.710991 0.473022 0.595746
O O12 0.601145 0.542225 0.401155
O O13 0.896319 0.586932 0.572561
O O14 0.100522 0.189264 0.547096
O O15 0.000000 0.000000 0.000000
O O16 0.203210 0.320215 0.568276
O O17 0.000000 0.500000 0.000000
#
# Coordination Sequence:
#
# PCOD9002394 Si02
#       8
#     2   2   2   2   2   2   2   2
#     4  11  24  39  62  95 129 169 214 258 311 377
#     4  10  22  42  65  92 126 165 208 257 314 375
#     4  10  21  39  62  88 123 162 209 264 319 373
#     4   9  20  39  58  87 121 162 212 261 318 377
#     4   9  21  41  66  92 124 162 205 257 314 374
#     4  10  21  36  60  89 123 164 208 261 317 374
#     4  11  23  40  62  91 127 167 211 260 313 374
#     4  10  22  40  64  90 121 165 212 266 321 371
#
# _framework density 26.316129
#
# number of rings (size 3 to 8) (size 9 to 14) (size 15 to 20)
#    0.000    2.000    0.000    2.250    0.000   13.000 
#    0.000    2.500    0.000    0.000    0.000    0.000 
#    0.000    0.000    0.000    0.000    0.000    0.000 
#
# Total GULP energy -89565.818024 kJ/mol
# GULP energy per Si atom -5597.863627 kJ/mol
# Density = 2.625623 g / cm^3
# Si number density = 26.316129 Si / 1000 Ang^3
#
#
#
# Elastic Constant Matrix: (Units=GPa)
#
#
# Indices 1 2 3 4 5 6 
#
# 1 86.7446 28.1649 30.0157 5.5400 9.6831 -6.1666
# 2 28.1649 184.1818 37.5225 2.1440 9.0756 -17.2712
# 3 30.0157 37.5225 122.9796 6.5753 10.3087 -13.2485
# 4 5.5400 2.1440 6.5753 27.5937 -13.2808 1.2613
# 5 9.6831 9.0756 10.3087 -13.2808 24.0263 -4.1392
# 6 -6.1666 -17.2712 -13.2485 1.2613 -4.1392 62.0419
#
#
#
# Elastic Compliance Matrix: (Units=1/GPa)
#
#
# Indices 1 2 3 4 5 6 
#
# 1 0.013849 -0.001250 -0.002050 -0.005753 -0.007373 0.000216
# 2 -0.001250 0.006068 -0.001264 -0.000646 -0.001394 0.001215
# 3 -0.002050 -0.001264 0.009814 -0.004333 -0.005080 0.001289
# 4 -0.005753 -0.000646 -0.004333 0.055301 0.034908 -0.000472
# 5 -0.007373 -0.001394 -0.005080 0.034908 0.066861 0.001546
# 6 0.000216 0.001215 0.001289 -0.000472 0.001546 0.016866
#
#
# Mechanical properties :
#
#
# Convention : Reuss Voigt Hill
#
# Bulk Modulus (GPa) = 48.53559 65.03468 56.78514
# Shear Modulus (GPa) = 27.06303 42.61257 34.83780
#
# Velocity S-wave (km/s) = 3.21032 4.02836 3.64238
# Velocity P-wave (km/s) = 5.67669 6.81201 6.27010
#
# Compressibility (1/GPa) = 0.02060344
#
# Stress axis : x y z
#
# Youngs Moduli (GPa) = 72.20752 164.79327 101.89697
#
# Poissons Ratio (x) = 0.20593 0.20888
# Poissons Ratio (y) = 0.09023 0.12882
# Poissons Ratio (z) = 0.14802 0.20834
#
# Static dielectric constant tensor:
#      x y z
#    x 2.189120 0.016700 -0.028020 
#    y 0.016700 2.039390 -0.003340 
#    z -0.028020 -0.003340 1.967530 
# 
# From -- ./inp_files/49395.got.cif
#   From: 2010.05.17/outbox.cif.g08.bks.cpg/sg2_25_cif.got.tgz:49395.got - 2010.06.03 11:33:40.
