data_PCOD9002802
_publ_section_title
;
Structure prediction by ZEFSAII (Michael W. Deem and Ramdas Pophale) SiO2 
 PCOD9002802
Probable space group: P -1
;
_chemical_formula_sum "Si O2"
_cell_formula_units_Z 14
_cell_length_a 19.954291
_cell_length_b 25.251733
_cell_length_c 12.616600
_cell_angle_alpha 157.677752
_cell_angle_beta 157.943055
_cell_angle_gamma 13.392564
_cell_volume 532.473138
_symmetry_space_group_name_H-M "P -1"
_symmetry_group_IT_number 2
_symmetry_cell_setting 'triclinic'
loop_
_space_group_symop_operation_xyz
x,y,z
-x,-y,-z
loop_
_atom_site_type_symbol
_atom_site_label
_atom_site_fract_x
_atom_site_fract_y
_atom_site_fract_z
Si Si1 0.645680 0.494198 0.299322
Si Si2 0.764490 0.856917 0.706150
Si Si3 0.488635 0.142769 0.126527
Si Si4 0.616369 0.588214 0.135089
Si Si5 0.386408 0.769908 0.744715
Si Si6 0.869733 0.380336 0.893533
Si Si7 0.727636 0.932134 0.468979
O O1 0.571651 0.704112 0.588795
O O2 0.006550 0.251636 0.396226
O O3 0.500000 0.500000 0.000000
O O4 0.512369 0.486501 0.186880
O O5 0.094403 0.580008 0.674294
O O6 0.500000 0.000000 0.500000
O O7 0.593078 0.912972 0.664110
O O8 0.816023 0.989415 0.042446
O O9 0.569565 0.191203 0.233804
O O10 0.226685 0.203758 0.812450
O O11 0.772456 0.862937 0.049295
O O12 0.344847 0.861724 0.277472
O O13 0.745595 0.527314 0.092845
O O14 0.700496 0.561415 0.883981
O O15 0.239672 0.711512 0.427778
#
# Coordination Sequence:
#
# PCOD9002802 Si02
#       7
#     2   2   2   2   2   2   2
#     4  12  27  48  69  95 140 194 230 277 346 422
#     4  11  22  38  67  99 140 175 225 283 346 400
#     4  11  23  46  71  99 142 176 234 287 347 398
#     4  12  23  43  72 100 141 176 231 285 339 416
#     4  10  21  36  65 105 136 171 224 284 346 400
#     4  11  21  39  71 109 130 177 227 290 344 404
#     4  11  25  43  68 101 140 181 225 286 349 404
#
# _framework density 26.292407999999998
#
# number of rings (size 3 to 8) (size 9 to 14) (size 15 to 20)
#    0.000    0.857    4.286    4.286    2.000    2.286 
#    2.571    0.714    0.000    0.000    0.000    0.000 
#    0.000    0.000    0.000    0.000    0.000    0.000 
#
# Total GULP energy -78366.217719 kJ/mol
# GULP energy per Si atom -5597.586980 kJ/mol
# Density = 2.623257 g / cm^3
# Si number density = 26.292408 Si / 1000 Ang^3
#
#
#
# Elastic Constant Matrix: (Units=GPa)
#
#
# Indices 1 2 3 4 5 6 
#
# 1 47.1039 20.6094 6.0147 4.8617 -10.4914 3.1246
# 2 20.6094 150.6411 44.0385 0.9088 -22.0074 16.5229
# 3 6.0147 44.0385 166.9507 24.7562 -26.0917 1.2516
# 4 4.8617 0.9088 24.7562 45.7918 0.6427 0.7025
# 5 -10.4914 -22.0074 -26.0917 0.6427 44.1811 -5.8233
# 6 3.1246 16.5229 1.2516 0.7025 -5.8233 36.2991
#
#
#
# Elastic Compliance Matrix: (Units=1/GPa)
#
#
# Indices 1 2 3 4 5 6 
#
# 1 0.023753 -0.002847 0.001135 -0.003149 0.004947 0.000067
# 2 -0.002847 0.008198 -0.001928 0.001204 0.001836 -0.003149
# 3 0.001135 -0.001928 0.007733 -0.004340 0.004105 0.001256
# 4 -0.003149 0.001204 -0.004340 0.024557 -0.003216 -0.001119
# 5 0.004947 0.001836 0.004105 -0.003216 0.027601 0.003087
# 6 0.000067 -0.003149 0.001256 -0.001119 0.003087 0.029450
#
#
# Mechanical properties :
#
#
# Convention : Reuss Voigt Hill
#
# Bulk Modulus (GPa) = 30.86058 56.22453 43.54255
# Shear Modulus (GPa) = 35.87493 44.85660 40.36577
#
# Velocity S-wave (km/s) = 3.69787 4.13494 3.92249
# Velocity P-wave (km/s) = 5.47679 6.65039 6.09192
#
# Compressibility (1/GPa) = 0.03240380
#
# Stress axis : x y z
#
# Youngs Moduli (GPa) = 42.10009 121.98463 129.31532
#
# Poissons Ratio (x) = 0.34729 -0.14676
# Poissons Ratio (y) = 0.11986 0.24930
# Poissons Ratio (z) = -0.04778 0.23517
#
# Static dielectric constant tensor:
#      x y z
#    x 2.199930 -0.046910 -0.033850 
#    y -0.046910 2.043210 0.040140 
#    z -0.033850 0.040140 2.076440 
# 
# From -- ./inp_files/532142.got.cif
#   From: 2010.05.17/outbox.cif.g08.bks.cpg/sg2_267_cif.got.tgz:532142.got - 2010.06.03 11:33:40.
