data_PCOD9002719
_publ_section_title
;
Structure prediction by ZEFSAII (Michael W. Deem and Ramdas Pophale) SiO2 
 PCOD9002719
Probable space group: P -1
;
_chemical_formula_sum "Si O2"
_cell_formula_units_Z 16
_cell_length_a 7.029022
_cell_length_b 12.561242
_cell_length_c 15.904087
_cell_angle_alpha 133.807492
_cell_angle_beta 43.931324
_cell_angle_gamma 103.394236
_cell_volume 594.878616
_symmetry_space_group_name_H-M "P -1"
_symmetry_group_IT_number 2
_symmetry_cell_setting 'triclinic'
loop_
_space_group_symop_operation_xyz
x,y,z
-x,-y,-z
loop_
_atom_site_type_symbol
_atom_site_label
_atom_site_fract_x
_atom_site_fract_y
_atom_site_fract_z
Si Si1 0.184596 0.560689 0.538036
Si Si2 0.580800 0.892940 0.999775
Si Si3 0.052673 0.710692 0.298462
Si Si4 0.571154 0.070481 0.599289
Si Si5 0.942185 0.277337 0.016873
Si Si6 0.357284 0.828227 0.812081
Si Si7 0.538615 0.650974 0.331885
Si Si8 0.623333 0.647166 0.961810
O O1 0.440992 0.370517 0.396699
O O2 0.340643 0.639456 0.468364
O O3 0.000000 0.500000 0.500000
O O4 0.936804 0.718272 0.765072
O O5 0.425067 0.794913 0.037057
O O6 0.500000 0.000000 0.000000
O O7 0.471716 0.062180 0.188167
O O8 0.370750 0.675587 0.129392
O O9 0.820837 0.674883 0.293384
O O10 0.178030 0.553768 0.239090
O O11 0.832934 0.916325 0.490349
O O12 0.241761 0.146876 0.796146
O O13 0.629087 0.214856 0.618458
O O14 0.500000 0.000000 0.500000
O O15 0.116430 0.312656 0.059419
O O16 0.720570 0.216959 0.095862
O O17 0.732493 0.454371 0.129489
O O18 0.000000 0.000000 0.000000
#
# Coordination Sequence:
#
# PCOD9002719 Si02
#       8
#     2   2   2   2   2   2   2   2
#     4  11  25  46  65 104 142 177 234 288 348 416
#     4  12  26  43  75 101 139 190 229 294 355 410
#     4   9  21  40  64  91 130 173 221 272 332 407
#     4  10  21  36  63  97 123 169 222 271 332 400
#     4  10  21  40  63  92 136 173 218 283 334 410
#     4  11  24  45  70 102 138 185 235 280 352 421
#     4   9  21  41  63  92 131 168 223 272 339 403
#     4  10  22  44  61  94 137 172 227 276 347 405
#
# _framework density 26.896242999999998
#
# number of rings (size 3 to 8) (size 9 to 14) (size 15 to 20)
#    0.000    1.750    2.500    0.375    5.250    3.000 
#    6.750    0.000    0.000    0.000    0.000    0.000 
#    0.000    0.000    0.000    0.000    0.000    0.000 
#
# Total GULP energy -89167.735261 kJ/mol
# GULP energy per Si atom -5572.983454 kJ/mol
# Density = 2.683503 g / cm^3
# Si number density = 26.896243 Si / 1000 Ang^3
#
#
#
# Elastic Constant Matrix: (Units=GPa)
#
#
# Indices 1 2 3 4 5 6 
#
# 1 68.6312 17.0032 5.1509 15.1288 -6.5698 11.5205
# 2 17.0032 176.9918 68.3638 48.3389 -9.3752 7.8786
# 3 5.1509 68.3638 175.7954 37.7227 7.0715 -6.3841
# 4 15.1288 48.3389 37.7227 64.0216 -6.8520 -4.7661
# 5 -6.5698 -9.3752 7.0715 -6.8520 27.6063 13.4911
# 6 11.5205 7.8786 -6.3841 -4.7661 13.4911 43.9178
#
#
#
# Elastic Compliance Matrix: (Units=1/GPa)
#
#
# Indices 1 2 3 4 5 6 
#
# 1 0.017228 0.000173 -0.000275 -0.003846 0.006732 -0.007076
# 2 0.000173 0.008250 -0.002523 -0.004614 0.004134 -0.003663
# 3 -0.000275 -0.002523 0.007585 -0.002818 -0.004954 0.002843
# 4 -0.003846 -0.004614 -0.002818 0.022142 0.002193 0.003156
# 5 0.006732 0.004134 -0.004954 0.002193 0.050012 -0.018353
# 6 -0.007076 -0.003663 0.002843 0.003156 -0.018353 0.031677
#
#
# Mechanical properties :
#
#
# Convention : Reuss Voigt Hill
#
# Bulk Modulus (GPa) = 35.95204 66.93936 51.44570
# Shear Modulus (GPa) = 33.02219 49.16916 41.09567
#
# Velocity S-wave (km/s) = 3.50774 4.28027 3.91312
# Velocity P-wave (km/s) = 5.45909 7.02636 6.29171
#
# Compressibility (1/GPa) = 0.02781484
#
# Stress axis : x y z
#
# Youngs Moduli (GPa) = 58.04337 121.21571 131.84497
#
# Poissons Ratio (x) = -0.02097 0.03619
# Poissons Ratio (y) = -0.01004 0.33258
# Poissons Ratio (z) = 0.01593 0.30577
#
# Static dielectric constant tensor:
#      x y z
#    x 2.560790 -0.175070 -0.000940 
#    y -0.175070 2.487650 0.183160 
#    z -0.000940 0.183160 2.047750 
# 
# From -- ./inp_files/559905.got.cif
#   From: 2010.05.17/outbox.cif.g08.bks.cpg/sg2_280_cif.got.tgz:559905.got - 2010.06.03 11:33:40.
