data_PCOD9002964
_publ_section_title
;
Structure prediction by ZEFSAII (Michael W. Deem and Ramdas Pophale) SiO2 
 PCOD9002964
Probable space group: P -1
;
_chemical_formula_sum "Si O2"
_cell_formula_units_Z 16
_cell_length_a 12.229996
_cell_length_b 6.310550
_cell_length_c 21.837184
_cell_angle_alpha 94.615460
_cell_angle_beta 151.669688
_cell_angle_gamma 83.681337
_cell_volume 794.449874
_symmetry_space_group_name_H-M "P -1"
_symmetry_group_IT_number 2
_symmetry_cell_setting 'triclinic'
loop_
_space_group_symop_operation_xyz
x,y,z
-x,-y,-z
loop_
_atom_site_type_symbol
_atom_site_label
_atom_site_fract_x
_atom_site_fract_y
_atom_site_fract_z
Si Si1 0.957690 0.100408 0.308319
Si Si2 0.167761 0.295625 0.599913
Si Si3 0.634792 0.243522 0.494984
Si Si4 0.599200 0.352601 0.222818
Si Si5 0.847202 0.615130 0.686808
Si Si6 0.256022 0.497546 0.956953
Si Si7 0.587153 0.808485 0.082546
Si Si8 0.295017 0.869036 0.602059
O O1 0.828411 0.260568 0.296750
O O2 0.982078 0.240644 0.262464
O O3 0.792107 0.907920 0.221205
O O4 0.212500 0.982252 0.436016
O O5 0.359609 0.404662 0.734601
O O6 0.000000 0.500000 0.500000
O O7 0.978922 0.167465 0.538585
O O8 0.289701 0.126225 0.608594
O O9 0.775245 0.423253 0.602427
O O10 0.391603 0.252874 0.409783
O O11 0.592903 0.267195 0.401944
O O12 0.601534 0.220290 0.284178
O O13 0.376414 0.360301 0.068782
O O14 0.981547 0.540976 0.813851
O O15 0.314670 0.371943 0.919855
O O16 0.391568 0.711329 0.024095
O O17 0.500000 0.000000 0.000000
#
# Coordination Sequence:
#
# PCOD9002964 Si02
#       8
#     2   2   2   2   2   2   2   2
#     4  12  21  36  62  92 120 147 198 245 313 356
#     4   9  18  34  54  85 117 150 191 245 299 341
#     4  11  24  40  62  82 123 163 203 243 285 358
#     4  11  23  33  61  92 120 154 187 254 303 356
#     4  11  24  41  59  88 119 163 201 246 290 354
#     4  11  22  37  57  91 124 150 199 241 308 361
#     4  11  20  34  58  89 121 155 182 254 309 355
#     4  10  21  37  55  85 120 159 200 235 296 355
#
# _framework density 20.139723
#
# number of rings (size 3 to 8) (size 9 to 14) (size 15 to 20)
#    0.000    1.250    3.750    4.125    3.500    1.000 
#    0.000    0.625    0.000    0.750    0.000    0.000 
#    0.000    0.000    0.000    0.000    0.000    0.000 
#
# Total GULP energy -89103.753778 kJ/mol
# GULP energy per Si atom -5568.984611 kJ/mol
# Density = 2.009388 g / cm^3
# Si number density = 20.139723 Si / 1000 Ang^3
#
#
#
# Elastic Constant Matrix: (Units=GPa)
#
#
# Indices 1 2 3 4 5 6 
#
# 1 77.2375 28.0558 36.9682 -0.9771 -13.6077 -12.8500
# 2 28.0558 89.5874 39.4542 3.8666 -2.1915 -13.7197
# 3 36.9682 39.4542 113.6773 -8.9821 -18.9654 -5.7581
# 4 -0.9771 3.8666 -8.9821 41.1198 2.2027 -6.2964
# 5 -13.6077 -2.1915 -18.9654 2.2027 26.6768 -1.1286
# 6 -12.8500 -13.7197 -5.7581 -6.2964 -1.1286 27.0445
#
#
#
# Elastic Compliance Matrix: (Units=1/GPa)
#
#
# Indices 1 2 3 4 5 6 
#
# 1 0.017929 -0.003012 -0.003255 0.000665 0.006814 0.006737
# 2 -0.003012 0.014827 -0.004604 -0.001592 -0.003265 0.004604
# 3 -0.003255 -0.004604 0.012797 0.002750 0.006822 -0.000232
# 4 0.000665 -0.001592 0.002750 0.026014 0.000276 0.006162
# 5 0.006814 -0.003265 0.006822 0.000276 0.045733 0.005007
# 6 0.006737 0.004604 -0.000232 0.006162 0.005007 0.044107
#
#
# Mechanical properties :
#
#
# Convention : Reuss Voigt Hill
#
# Bulk Modulus (GPa) = 41.99540 54.38430 48.18985
# Shear Modulus (GPa) = 26.16662 30.70314 28.43488
#
# Velocity S-wave (km/s) = 3.60843 3.90873 3.76158
# Velocity P-wave (km/s) = 6.18533 6.88716 6.54566
#
# Compressibility (1/GPa) = 0.02381213
#
# Stress axis : x y z
#
# Youngs Moduli (GPa) = 55.77709 67.44538 78.14427
#
# Poissons Ratio (x) = 0.20312 0.25432
# Poissons Ratio (y) = 0.16798 0.35977
# Poissons Ratio (z) = 0.18153 0.31051
#
# Static dielectric constant tensor:
#      x y z
#    x 1.744610 0.031120 -0.063680 
#    y 0.031120 1.789880 -0.018460 
#    z -0.063680 -0.018460 1.817890 
# 
# From -- ./inp_files/592803.got.cif
#   From: 2010.05.17/outbox.cif.g08.bks.cpg/sg2_297_cif.got.tgz:592803.got - 2010.06.03 11:33:40.
