data_PCOD9002381
_publ_section_title
;
Structure prediction by ZEFSAII (Michael W. Deem and Ramdas Pophale) SiO2 
 PCOD9002381
Probable space group: P -1
;
_chemical_formula_sum "Si O2"
_cell_formula_units_Z 16
_cell_length_a 12.033661
_cell_length_b 11.957787
_cell_length_c 13.213180
_cell_angle_alpha 122.843307
_cell_angle_beta 131.008357
_cell_angle_gamma 96.341296
_cell_volume 816.671866
_symmetry_space_group_name_H-M "P -1"
_symmetry_group_IT_number 2
_symmetry_cell_setting 'triclinic'
loop_
_space_group_symop_operation_xyz
x,y,z
-x,-y,-z
loop_
_atom_site_type_symbol
_atom_site_label
_atom_site_fract_x
_atom_site_fract_y
_atom_site_fract_z
Si Si1 0.166126 0.677371 0.391269
Si Si2 0.817947 0.990092 0.909448
Si Si3 0.822590 0.794144 0.172802
Si Si4 0.338225 0.592495 0.068950
Si Si5 0.287996 0.051300 0.676365
Si Si6 0.793609 0.582695 0.641280
Si Si7 0.656972 0.662458 0.790439
Si Si8 0.532283 0.160671 0.538920
O O1 0.211358 0.578217 0.436104
O O2 0.271365 0.725806 0.367267
O O3 0.272904 0.883176 0.598868
O O4 0.907856 0.521590 0.149856
O O5 0.674786 0.816503 0.819774
O O6 0.674995 0.938417 0.702806
O O7 0.966005 0.210017 0.142541
O O8 0.000000 0.000000 0.000000
O O9 0.735662 0.876743 0.201731
O O10 0.682633 0.580992 0.033224
O O11 0.798809 0.760386 0.022748
O O12 0.072187 0.943410 0.428834
O O13 0.501682 0.763610 0.169430
O O14 0.417136 0.694096 0.276215
O O15 0.737927 0.603809 0.731497
O O16 0.599955 0.520959 0.430956
O O17 0.500000 0.000000 0.500000
#
# Coordination Sequence:
#
# PCOD9002381 Si02
#       8
#     2   2   2   2   2   2   2   2
#     4  11  22  39  58  88 125 157 195 251 308 365
#     4  10  23  36  57  91 127 161 198 247 303 375
#     4  10  23  40  65  85 118 161 208 253 300 358
#     4  11  23  36  63  88 122 158 201 254 304 366
#     4  10  23  42  59  91 119 157 207 256 301 354
#     4  10  21  36  60  88 124 153 196 241 304 371
#     4  10  21  39  60  86 120 160 197 248 297 362
#     4  12  22  37  61  95 127 162 196 248 320 370
#
# _framework density 19.591714
#
# number of rings (size 3 to 8) (size 9 to 14) (size 15 to 20)
#    0.000    1.500    2.500    2.250    7.000    1.000 
#    0.000    0.625    0.000    1.500    0.000    0.000 
#    0.000    0.000    0.000    0.000    0.000    0.000 
#
# Total GULP energy -89330.634185 kJ/mol
# GULP energy per Si atom -5583.164637 kJ/mol
# Density = 1.954712 g / cm^3
# Si number density = 19.591714 Si / 1000 Ang^3
#
#
#
# Elastic Constant Matrix: (Units=GPa)
#
#
# Indices 1 2 3 4 5 6 
#
# 1 55.1456 13.7814 13.2379 12.9162 2.1844 -12.6348
# 2 13.7814 81.1043 20.5677 17.4693 11.7456 -21.8838
# 3 13.2379 20.5677 73.5533 12.9917 12.1695 -1.7030
# 4 12.9162 17.4693 12.9917 34.6473 5.5272 0.3949
# 5 2.1844 11.7456 12.1695 5.5272 23.7964 5.8498
# 6 -12.6348 -21.8838 -1.7030 0.3949 5.8498 19.8455
#
#
#
# Elastic Compliance Matrix: (Units=1/GPa)
#
#
# Indices 1 2 3 4 5 6 
#
# 1 0.026219 0.007307 -0.002678 -0.011375 -0.008717 0.027315
# 2 0.007307 0.029614 -0.002597 -0.013748 -0.021509 0.043698
# 3 -0.002678 -0.002597 0.016226 -0.002841 -0.005761 -0.001422
# 4 -0.011375 -0.013748 -0.002841 0.040414 0.006103 -0.025249
# 5 -0.008717 -0.021509 -0.005761 0.006103 0.067183 -0.049686
# 6 0.027315 0.043698 -0.001422 -0.025249 -0.049686 0.130993
#
#
# Mechanical properties :
#
#
# Convention : Reuss Voigt Hill
#
# Bulk Modulus (GPa) = 13.13695 33.88634 23.51165
# Shear Modulus (GPa) = 15.06213 26.47224 20.76719
#
# Velocity S-wave (km/s) = 2.77573 3.67985 3.25929
# Velocity P-wave (km/s) = 4.12224 5.94885 5.11770
#
# Compressibility (1/GPa) = 0.07612116
#
# Stress axis : x y z
#
# Youngs Moduli (GPa) = 38.14088 33.76806 61.63005
#
# Poissons Ratio (x) = -0.24674 0.16506
# Poissons Ratio (y) = -0.27869 0.16006
# Poissons Ratio (z) = 0.10215 0.08770
#
# Static dielectric constant tensor:
#      x y z
#    x 1.681840 -0.016930 0.027260 
#    y -0.016930 1.726870 0.038860 
#    z 0.027260 0.038860 1.728830 
# 
# From -- ./inp_files/397449.got.cif
#   From: 2010.05.17/outbox.cif.g08.bks.cpg/sg2_199_cif.got.tgz:397449.got - 2010.06.03 11:33:40.
