data_PCOD9002697
_publ_section_title
;
Structure prediction by ZEFSAII (Michael W. Deem and Ramdas Pophale) SiO2 
 PCOD9002697
Probable space group: P -1
;
_chemical_formula_sum "Si O2"
_cell_formula_units_Z 14
_cell_length_a 25.123149
_cell_length_b 17.991312
_cell_length_c 9.386201
_cell_angle_alpha 31.812260
_cell_angle_beta 153.602036
_cell_angle_gamma 158.381630
_cell_volume 691.158546
_symmetry_space_group_name_H-M "P -1"
_symmetry_group_IT_number 2
_symmetry_cell_setting 'triclinic'
loop_
_space_group_symop_operation_xyz
x,y,z
-x,-y,-z
loop_
_atom_site_type_symbol
_atom_site_label
_atom_site_fract_x
_atom_site_fract_y
_atom_site_fract_z
Si Si1 0.249389 0.169012 0.966263
Si Si2 0.972917 0.042893 0.713462
Si Si3 0.125600 0.739521 0.890909
Si Si4 0.396742 0.352008 0.624171
Si Si5 0.358929 0.059729 0.178577
Si Si6 0.605144 0.138439 0.883390
Si Si7 0.373679 0.547162 0.491049
O O1 0.228952 0.044876 0.987730
O O2 0.419414 0.262378 0.305152
O O3 0.301524 0.369622 0.714635
O O4 0.084311 0.048090 0.862140
O O5 0.001128 0.233460 0.468259
O O6 0.774816 0.861542 0.496971
O O7 0.000000 0.000000 0.000000
O O8 0.249139 0.831283 0.896897
O O9 0.000000 0.500000 0.000000
O O10 0.255141 0.877995 0.111234
O O11 0.500000 0.500000 0.500000
O O12 0.348899 0.448231 0.444841
O O13 0.469832 0.282146 0.007476
O O14 0.474133 0.069321 0.551558
O O15 0.697496 0.360295 0.796752
O O16 0.500000 0.000000 0.000000
#
# Coordination Sequence:
#
# PCOD9002697 Si02
#       7
#     2   2   2   2   2   2   2
#     4   9  18  37  64  89 118 158 202 259 322 361
#     4  11  24  38  62  91 130 161 208 268 314 371
#     4  11  25  43  63  93 129 173 213 259 321 381
#     4  10  21  36  63  94 122 158 210 263 313 371
#     4   9  22  42  68  89 126 165 211 262 312 380
#     4  11  24  40  65  90 129 172 210 257 314 386
#     4   9  19  36  61  89 117 159 205 253 308 381
#
# _framework density 20.255844
#
# number of rings (size 3 to 8) (size 9 to 14) (size 15 to 20)
#    0.000    2.000    0.000    3.000    8.000    7.429 
#    2.571    0.714    0.000    0.000    0.000    0.000 
#    0.000    0.000    0.000    0.000    0.000    0.000 
#
# Total GULP energy -77993.737883 kJ/mol
# GULP energy per Si atom -5570.981277 kJ/mol
# Density = 2.020974 g / cm^3
# Si number density = 20.255844 Si / 1000 Ang^3
#
#
#
# Elastic Constant Matrix: (Units=GPa)
#
#
# Indices 1 2 3 4 5 6 
#
# 1 102.1201 37.8606 42.6185 -16.9277 1.6764 4.5805
# 2 37.8606 61.1899 6.4193 -15.8522 -4.0075 -3.6192
# 3 42.6185 6.4193 50.2543 -4.0122 -14.4835 -1.5867
# 4 -16.9277 -15.8522 -4.0122 15.6854 -2.8667 6.0102
# 5 1.6764 -4.0075 -14.4835 -2.8667 29.5469 -5.4735
# 6 4.5805 -3.6192 -1.5867 6.0102 -5.4735 46.8863
#
#
#
# Elastic Compliance Matrix: (Units=1/GPa)
#
#
# Indices 1 2 3 4 5 6 
#
# 1 0.028207 -0.013738 -0.026544 0.009703 -0.017005 -0.007943
# 2 -0.013738 0.029708 0.013588 0.020019 0.013998 0.003163
# 3 -0.026544 0.013588 0.049313 -0.000332 0.029111 0.008752
# 4 0.009703 0.020019 -0.000332 0.100416 0.009678 -0.011156
# 5 -0.017005 0.013998 0.029111 0.009678 0.053535 0.008736
# 6 -0.007943 0.003163 0.008752 -0.011156 0.008736 0.025094
#
#
# Mechanical properties :
#
#
# Convention : Reuss Voigt Hill
#
# Bulk Modulus (GPa) = 18.57308 43.04011 30.80659
# Shear Modulus (GPa) = 13.98184 26.86812 20.42498
#
# Velocity S-wave (km/s) = 2.63013 3.64598 3.17890
# Velocity P-wave (km/s) = 4.29099 6.24649 5.35870
#
# Compressibility (1/GPa) = 0.05384136
#
# Stress axis : x y z
#
# Youngs Moduli (GPa) = 35.45187 33.66148 20.27857
#
# Poissons Ratio (x) = 0.46244 0.53827
# Poissons Ratio (y) = 0.48704 -0.27555
# Poissons Ratio (z) = 0.94102 -0.45740
#
# Static dielectric constant tensor:
#      x y z
#    x 2.095030 0.119050 -0.170190 
#    y 0.119050 1.762280 -0.095850 
#    z -0.170190 -0.095850 1.839490 
# 
# From -- ./inp_files/198964.got.cif
#   From: 2010.05.17/outbox.cif.g08.bks.cpg/sg2_100_cif.got.tgz:198964.got - 2010.06.03 11:33:40.
