data_PCOD9002746
_publ_section_title
;
Structure prediction by ZEFSAII (Michael W. Deem and Ramdas Pophale) SiO2 
 PCOD9002746
Probable space group: P -1
;
_chemical_formula_sum "Si O2"
_cell_formula_units_Z 16
_cell_length_a 14.860077
_cell_length_b 20.163686
_cell_length_c 7.848471
_cell_angle_alpha 85.900493
_cell_angle_beta 79.013067
_cell_angle_gamma 17.487547
_cell_volume 643.412408
_symmetry_space_group_name_H-M "P -1"
_symmetry_group_IT_number 2
_symmetry_cell_setting 'triclinic'
loop_
_space_group_symop_operation_xyz
x,y,z
-x,-y,-z
loop_
_atom_site_type_symbol
_atom_site_label
_atom_site_fract_x
_atom_site_fract_y
_atom_site_fract_z
Si Si1 0.830502 0.910914 0.535920
Si Si2 0.596125 0.575735 0.042144
Si Si3 0.235278 0.273244 0.484408
Si Si4 0.340345 0.182144 0.089619
Si Si5 0.926879 0.999316 0.176779
Si Si6 0.255228 0.505770 0.386850
Si Si7 0.398048 0.283346 0.851024
Si Si8 0.124879 0.732464 0.092033
O O1 0.090084 0.673864 0.541139
O O2 0.982986 0.827107 0.317539
O O3 0.489877 0.110630 0.572831
O O4 0.722034 0.047507 0.664066
O O5 0.606311 0.646119 0.053556
O O6 0.650135 0.528783 0.825716
O O7 0.881968 0.323772 0.028119
O O8 0.262192 0.777725 0.199577
O O9 0.432107 0.125082 0.265462
O O10 0.000000 0.500000 0.500000
O O11 0.009508 0.366657 0.578239
O O12 0.937254 0.466965 0.181072
O O13 0.396243 0.212866 0.961535
O O14 0.500000 0.000000 0.000000
O O15 0.605037 0.233327 0.361186
O O16 0.903851 0.948669 0.081511
O O17 0.000000 0.000000 0.000000
O O18 0.500000 0.500000 0.000000
#
# Coordination Sequence:
#
# PCOD9002746 Si02
#       8
#     2   2   2   2   2   2   2   2
#     4  11  23  39  64  92 129 166 216 265 320 384
#     4   9  20  38  64  91 123 171 211 266 328 376
#     4  12  22  38  61  93 120 168 216 259 318 385
#     4  11  26  42  64  90 137 177 217 260 328 387
#     4   9  18  37  61  92 122 157 213 267 314 379
#     4  10  21  36  64  89 123 165 218 268 316 382
#     4  11  24  45  61  95 139 168 211 275 324 379
#     4   9  19  38  64  90 120 167 215 260 314 385
#
# _framework density 24.867411000000001
#
# number of rings (size 3 to 8) (size 9 to 14) (size 15 to 20)
#    0.000    1.750    1.250    3.375    5.250    1.000 
#    0.000    3.125    0.000    0.000    0.000    0.000 
#    0.000    0.000    0.000    0.000    0.000    0.000 
#
# Total GULP energy -89083.994275 kJ/mol
# GULP energy per Si atom -5567.749642 kJ/mol
# Density = 2.481081 g / cm^3
# Si number density = 24.867411 Si / 1000 Ang^3
#
#
#
# Elastic Constant Matrix: (Units=GPa)
#
#
# Indices 1 2 3 4 5 6 
#
# 1 86.4340 11.1464 41.7507 25.8277 21.5435 41.9319
# 2 11.1464 69.9153 23.3224 39.7976 14.6623 23.8650
# 3 41.7507 23.3224 101.1144 38.7379 23.3994 14.9463
# 4 25.8277 39.7976 38.7379 41.7127 7.5518 14.1096
# 5 21.5435 14.6623 23.3994 7.5518 50.7071 26.1940
# 6 41.9319 23.8650 14.9463 14.1096 26.1940 41.5805
#
#
#
# Elastic Compliance Matrix: (Units=1/GPa)
#
#
# Indices 1 2 3 4 5 6 
#
# 1 0.047280 0.034050 -0.006198 -0.038137 0.008147 -0.057186
# 2 0.034050 0.063926 0.005342 -0.070424 0.000608 -0.049434
# 3 -0.006198 0.005342 0.020411 -0.021612 -0.010013 0.009489
# 4 -0.038137 -0.070424 -0.021612 0.119489 0.007308 0.041498
# 5 0.008147 0.000608 -0.010013 0.007308 0.034781 -0.029356
# 6 -0.057186 -0.049434 0.009489 0.041498 -0.029356 0.111092
#
#
# Mechanical properties :
#
#
# Convention : Reuss Voigt Hill
#
# Bulk Modulus (GPa) = 5.05034 45.54473 25.29753
# Shear Modulus (GPa) = 12.60742 38.88302 25.74522
#
# Velocity S-wave (km/s) = 2.25408 3.95854 3.22110
# Velocity P-wave (km/s) = 2.96813 6.26484 4.90194
#
# Compressibility (1/GPa) = 0.19800662
#
# Stress axis : x y z
#
# Youngs Moduli (GPa) = 21.15043 15.64307 48.99348
#
# Poissons Ratio (x) = -0.53264 0.30364
# Poissons Ratio (y) = -0.72017 -0.26174
# Poissons Ratio (z) = 0.13108 -0.08357
#
# Static dielectric constant tensor:
#      x y z
#    x 1.833480 -1.207850 0.128550 
#    y -1.207850 -1.918100 0.514170 
#    z 0.128550 0.514170 1.883800 
# 
# From -- ./inp_files/319377.got.cif
#   From: 2010.05.17/outbox.cif.g08.bks.cpg/sg2_160_cif.got.tgz:319377.got - 2010.06.03 11:33:40.
