data_PCOD9002861
_publ_section_title
;
Structure prediction by ZEFSAII (Michael W. Deem and Ramdas Pophale) SiO2 
 PCOD9002861
Probable space group: P -1
;
_chemical_formula_sum "Si O2"
_cell_formula_units_Z 16
_cell_length_a 9.843768
_cell_length_b 8.530462
_cell_length_c 8.377163
_cell_angle_alpha 67.755845
_cell_angle_beta 79.410031
_cell_angle_gamma 106.506927
_cell_volume 589.661264
_symmetry_space_group_name_H-M "P -1"
_symmetry_group_IT_number 2
_symmetry_cell_setting 'triclinic'
loop_
_space_group_symop_operation_xyz
x,y,z
-x,-y,-z
loop_
_atom_site_type_symbol
_atom_site_label
_atom_site_fract_x
_atom_site_fract_y
_atom_site_fract_z
Si Si1 0.484237 0.288983 0.441884
Si Si2 0.679469 0.471133 0.633668
Si Si3 0.991432 0.112212 0.302761
Si Si4 0.304887 0.886370 0.568180
Si Si5 0.491289 0.906673 0.862028
Si Si6 0.881874 0.761362 0.237662
Si Si7 0.279810 0.209677 0.041588
Si Si8 0.801438 0.203529 0.897814
O O1 0.555384 0.357739 0.572211
O O2 0.410674 0.411609 0.322053
O O3 0.354025 0.087294 0.558975
O O4 0.618259 0.251881 0.342345
O O5 0.815636 0.619863 0.449158
O O6 0.445638 0.251523 0.053865
O O7 0.934641 0.966843 0.222509
O O8 0.873027 0.198756 0.347457
O O9 0.000000 0.000000 0.500000
O O10 0.160838 0.242884 0.170422
O O11 0.251031 0.653091 0.239996
O O12 0.394828 0.963531 0.347331
O O13 0.311177 0.846161 0.908560
O O14 0.500000 0.000000 0.000000
O O15 0.750963 0.726887 0.149460
O O16 0.020720 0.726230 0.142334
O O17 0.224850 0.986307 0.118051
#
# Coordination Sequence:
#
# PCOD9002861 Si02
#       8
#     2   2   2   2   2   2   2   2
#     4  10  24  37  65  97 131 168 224 275 326 395
#     4  11  23  42  65  98 136 175 219 269 346 401
#     4  11  21  38  64  99 133 169 225 274 333 385
#     4  11  22  42  66 100 130 177 220 282 327 396
#     4  10  21  36  66  94 130 165 226 270 329 379
#     4  11  24  41  69  99 134 177 227 274 326 404
#     4  10  22  39  67 102 128 173 229 278 314 394
#     4  10  22  38  64  94 133 169 220 272 327 392
#
# _framework density 27.134222000000001
#
# number of rings (size 3 to 8) (size 9 to 14) (size 15 to 20)
#    0.000    1.500    2.500    3.375    8.750    2.000 
#    0.000    0.625    2.750    1.500    0.000    0.000 
#    0.000    0.000    0.000    0.000    0.000    0.000 
#
# Total GULP energy -89302.910252 kJ/mol
# GULP energy per Si atom -5581.431891 kJ/mol
# Density = 2.707246 g / cm^3
# Si number density = 27.134222 Si / 1000 Ang^3
#
#
#
# Elastic Constant Matrix: (Units=GPa)
#
#
# Indices 1 2 3 4 5 6 
#
# 1 216.4909 25.7703 59.5648 4.0887 -38.4155 -56.8842
# 2 25.7703 61.9427 19.9840 6.6773 -1.1741 -18.0387
# 3 59.5648 19.9840 107.7113 1.9709 -14.6707 -33.9683
# 4 4.0887 6.6773 1.9709 33.5713 -21.6746 2.2008
# 5 -38.4155 -1.1741 -14.6707 -21.6746 69.6327 5.5340
# 6 -56.8842 -18.0387 -33.9683 2.2008 5.5340 45.0166
#
#
#
# Elastic Compliance Matrix: (Units=1/GPa)
#
#
# Indices 1 2 3 4 5 6 
#
# 1 0.007816 -0.000518 -0.001114 0.001091 0.003748 0.008315
# 2 -0.000518 0.019328 -0.001471 -0.005805 -0.002600 0.006584
# 3 -0.001114 -0.001471 0.012708 0.000167 0.001502 0.007399
# 4 0.001091 -0.005805 0.000167 0.039622 0.013221 -0.004384
# 5 0.003748 -0.002600 0.001502 0.013221 0.020686 0.001638
# 6 0.008315 0.006584 0.007399 -0.004384 0.001638 0.040956
#
#
# Mechanical properties :
#
#
# Convention : Reuss Voigt Hill
#
# Bulk Modulus (GPa) = 29.72015 66.30923 48.01469
# Shear Modulus (GPa) = 31.53822 48.36584 39.95203
#
# Velocity S-wave (km/s) = 3.41296 4.22651 3.84133
# Velocity P-wave (km/s) = 5.14858 6.95042 6.11622
#
# Compressibility (1/GPa) = 0.03364720
#
# Stress axis : x y z
#
# Youngs Moduli (GPa) = 127.93566 51.73885 78.69082
#
# Poissons Ratio (x) = 0.02678 0.08764
# Poissons Ratio (y) = 0.06622 0.11577
# Poissons Ratio (z) = 0.14248 0.07612
#
# Static dielectric constant tensor:
#      x y z
#    x 2.326100 0.236770 0.020730 
#    y 0.236770 2.471250 0.056970 
#    z 0.020730 0.056970 2.181620 
# 
# From -- ./inp_files/400552.got.cif
#   From: 2010.05.17/outbox.cif.g08.bks.cpg/sg2_201_cif.got.tgz:400552.got - 2010.06.03 11:33:40.
