data_PCOD9002974
_publ_section_title
;
Structure prediction by ZEFSAII (Michael W. Deem and Ramdas Pophale) SiO2 
 PCOD9002974
Probable space group: P -1
;
_chemical_formula_sum "Si O2"
_cell_formula_units_Z 16
_cell_length_a 7.831569
_cell_length_b 6.216091
_cell_length_c 24.631274
_cell_angle_alpha 102.875551
_cell_angle_beta 43.100345
_cell_angle_gamma 119.515630
_cell_volume 693.833995
_symmetry_space_group_name_H-M "P -1"
_symmetry_group_IT_number 2
_symmetry_cell_setting 'triclinic'
loop_
_space_group_symop_operation_xyz
x,y,z
-x,-y,-z
loop_
_atom_site_type_symbol
_atom_site_label
_atom_site_fract_x
_atom_site_fract_y
_atom_site_fract_z
Si Si1 0.464864 0.582133 0.755143
Si Si2 0.421377 0.695515 0.557867
Si Si3 0.420342 0.606600 0.938173
Si Si4 0.735171 0.818504 0.130062
Si Si5 0.234748 0.740970 0.492684
Si Si6 0.302178 0.985417 0.191992
Si Si7 0.902327 0.624868 0.896167
Si Si8 0.335954 0.403590 0.664612
O O1 0.359977 0.322023 0.797929
O O2 0.681222 0.807022 0.756623
O O3 0.547307 0.563176 0.673634
O O4 0.195051 0.630980 0.814851
O O5 0.500000 0.500000 0.500000
O O6 0.214650 0.710254 0.560975
O O7 0.299640 0.578944 0.638191
O O8 0.698723 0.973701 0.517675
O O9 0.230396 0.373886 0.928798
O O10 0.541098 0.862230 0.890205
O O11 0.689867 0.575033 0.893235
O O12 0.252205 0.575822 0.031005
O O13 0.483322 0.864826 0.168286
O O14 0.012043 0.094939 0.085909
O O15 0.529579 0.748023 0.405282
O O16 0.000000 0.500000 0.500000
O O17 0.971805 0.784803 0.249146
#
# Coordination Sequence:
#
# PCOD9002974 Si02
#       8
#     2   2   2   2   2   2   2   2
#     4  10  23  38  57  88 121 159 207 252 307 366
#     4   9  22  42  64  92 124 158 198 245 299 368
#     4  10  21  37  58  82 116 158 206 259 308 360
#     4  10  21  37  56  79 114 157 209 258 307 360
#     4  10  23  42  67  96 124 159 202 248 303 371
#     4  10  23  39  57  86 121 160 206 252 308 367
#     4  10  21  37  57  83 115 157 208 259 307 362
#     4  11  23  39  62  89 124 159 196 249 306 369
#
# _framework density 23.060271
#
# number of rings (size 3 to 8) (size 9 to 14) (size 15 to 20)
#    0.000    2.000    0.000    1.875    0.000   17.500 
#    0.000    3.125    0.000    0.000    0.000    0.000 
#    0.000    0.000    0.000    0.000    0.000    0.000 
#
# Total GULP energy -89424.413672 kJ/mol
# GULP energy per Si atom -5589.025854 kJ/mol
# Density = 2.300779 g / cm^3
# Si number density = 23.060271 Si / 1000 Ang^3
#
#
#
# Elastic Constant Matrix: (Units=GPa)
#
#
# Indices 1 2 3 4 5 6 
#
# 1 79.9987 26.9537 3.6159 -4.6995 17.4422 14.4873
# 2 26.9537 99.9514 24.0316 -21.3515 5.8047 15.8316
# 3 3.6159 24.0316 22.5752 -2.1745 15.7104 4.1795
# 4 -4.6995 -21.3515 -2.1745 23.3926 0.4266 -6.1992
# 5 17.4422 5.8047 15.7104 0.4266 38.9590 -4.3567
# 6 14.4873 15.8316 4.1795 -6.1992 -4.3567 38.0406
#
#
#
# Elastic Compliance Matrix: (Units=1/GPa)
#
#
# Indices 1 2 3 4 5 6 
#
# 1 0.018849 -0.007721 0.016719 -0.003579 -0.014896 -0.008091
# 2 -0.007721 0.021324 -0.028256 0.015339 0.011617 0.001000
# 3 0.016719 -0.028256 0.105779 -0.015492 -0.047347 -0.014177
# 4 -0.003579 0.015339 -0.015492 0.056207 0.005674 0.006491
# 5 -0.014896 0.011617 -0.047347 0.005674 0.051070 0.012814
# 6 -0.008091 0.001000 -0.014177 0.006491 0.012814 0.033036
#
#
# Mechanical properties :
#
#
# Convention : Reuss Voigt Hill
#
# Bulk Modulus (GPa) = 9.30770 34.63644 21.97207
# Shear Modulus (GPa) = 13.86616 29.94002 21.90309
#
# Velocity S-wave (km/s) = 2.45480 3.60715 3.08526
# Velocity P-wave (km/s) = 3.47559 5.69222 4.71599
#
# Compressibility (1/GPa) = 0.10743791
#
# Stress axis : x y z
#
# Youngs Moduli (GPa) = 53.05428 46.89556 9.45369
#
# Poissons Ratio (x) = 0.36206 -0.15806
# Poissons Ratio (y) = 0.40961 0.26712
# Poissons Ratio (z) = -0.88703 1.32506
#
# Static dielectric constant tensor:
#      x y z
#    x 1.859890 0.011290 0.010500 
#    y 0.011290 1.912670 0.036860 
#    z 0.010500 0.036860 1.862310 
# 
# From -- ./inp_files/104528.got.cif
#   From: 2010.05.17/outbox.cif.g08.bks.cpg/sg2_53_cif.got.tgz:104528.got - 2010.06.03 11:33:40.
