data_PCOD9002892
_publ_section_title
;
Structure prediction by ZEFSAII (Michael W. Deem and Ramdas Pophale) SiO2 
 PCOD9002892
Probable space group: P -1
;
_chemical_formula_sum "Si O2"
_cell_formula_units_Z 16
_cell_length_a 16.743537
_cell_length_b 15.163898
_cell_length_c 5.639264
_cell_angle_alpha 59.968054
_cell_angle_beta 59.846104
_cell_angle_gamma 33.701256
_cell_volume 676.691924
_symmetry_space_group_name_H-M "P -1"
_symmetry_group_IT_number 2
_symmetry_cell_setting 'triclinic'
loop_
_space_group_symop_operation_xyz
x,y,z
-x,-y,-z
loop_
_atom_site_type_symbol
_atom_site_label
_atom_site_fract_x
_atom_site_fract_y
_atom_site_fract_z
Si Si1 0.617580 0.873649 0.699661
Si Si2 0.910720 0.342705 0.567016
Si Si3 0.710644 0.475155 0.081921
Si Si4 0.693843 0.358987 0.653555
Si Si5 0.208898 0.135959 0.192104
Si Si6 0.550530 0.318380 0.176734
Si Si7 0.510655 0.193647 0.771425
Si Si8 0.866370 0.604413 0.373124
O O1 0.713418 0.878804 0.673547
O O2 0.726547 0.710617 0.605439
O O3 0.500000 0.000000 0.500000
O O4 0.556604 0.860043 0.028248
O O5 0.809813 0.338919 0.619199
O O6 0.879482 0.489026 0.358959
O O7 0.072165 0.191637 0.426378
O O8 0.864003 0.376646 0.869595
O O9 0.724119 0.351577 0.343123
O O10 0.629012 0.618487 0.198007
O O11 0.582080 0.584678 0.935488
O O12 0.526526 0.540176 0.707920
O O13 0.685603 0.256413 0.927238
O O14 0.333876 0.958677 0.120080
O O15 0.158561 0.272484 0.912526
O O16 0.568607 0.196540 0.443822
O O17 0.000000 0.500000 0.500000
#
# Coordination Sequence:
#
# PCOD9002892 Si02
#       8
#     2   2   2   2   2   2   2   2
#     4  12  26  42  66  95 132 174 221 266 324 389
#     4  11  24  39  63  93 126 168 212 264 321 382
#     4  10  21  36  68  90 130 160 218 262 329 372
#     4   9  20  38  64  96 126 161 214 272 323 379
#     4  12  28  42  63  94 137 170 216 268 328 384
#     4   9  20  38  64  96 126 161 214 272 323 379
#     4  11  24  39  63  93 126 168 212 264 321 382
#     4  12  26  42  66  95 132 174 221 266 324 389
#
# _framework density 23.644437
#
# number of rings (size 3 to 8) (size 9 to 14) (size 15 to 20)
#    0.000    1.250    3.750    1.125    8.750    1.000 
#    0.000    0.625    0.000    1.500    0.000    0.000 
#    0.000    0.000    0.000    0.000    0.000    0.000 
#
# Total GULP energy -89093.244837 kJ/mol
# GULP energy per Si atom -5568.327802 kJ/mol
# Density = 2.359062 g / cm^3
# Si number density = 23.644437 Si / 1000 Ang^3
#
#
#
# Elastic Constant Matrix: (Units=GPa)
#
#
# Indices 1 2 3 4 5 6 
#
# 1 80.6042 7.2604 29.7444 -10.7333 -16.1176 -25.8631
# 2 7.2604 61.5596 27.5905 17.5282 -13.0940 -19.0594
# 3 29.7444 27.5905 184.5100 -8.2319 -38.7752 -19.1945
# 4 -10.7333 17.5282 -8.2319 35.8642 -15.0801 -0.0354
# 5 -16.1176 -13.0940 -38.7752 -15.0801 36.3545 6.9631
# 6 -25.8631 -19.0594 -19.1945 -0.0354 6.9631 27.6544
#
#
#
# Elastic Compliance Matrix: (Units=1/GPa)
#
#
# Indices 1 2 3 4 5 6 
#
# 1 0.022292 0.002644 0.001368 0.011197 0.013042 0.020350
# 2 0.002644 0.027055 -0.003666 -0.014361 -0.002632 0.019219
# 3 0.001368 -0.003666 0.008981 0.009499 0.012449 0.001864
# 4 0.011197 -0.014361 0.009499 0.054122 0.032558 -0.000961
# 5 0.013042 -0.002632 0.012449 0.032558 0.058283 0.004390
# 6 0.020350 0.019219 0.001864 -0.000961 0.004390 0.068626
#
#
# Mechanical properties :
#
#
# Convention : Reuss Voigt Hill
#
# Bulk Modulus (GPa) = 16.94321 50.65158 33.79739
# Shear Modulus (GPa) = 19.35430 37.44650 28.40040
#
# Velocity S-wave (km/s) = 2.86415 3.98393 3.46951
# Velocity P-wave (km/s) = 4.25666 6.52924 5.51136
#
# Compressibility (1/GPa) = 0.05902071
#
# Stress axis : x y z
#
# Youngs Moduli (GPa) = 44.85965 36.96108 111.34277
#
# Poissons Ratio (x) = -0.09773 -0.15235
# Poissons Ratio (y) = -0.11862 0.40822
# Poissons Ratio (z) = -0.06138 0.13551
#
# Static dielectric constant tensor:
#      x y z
#    x 2.013930 0.101390 0.069900 
#    y 0.101390 1.985840 0.018550 
#    z 0.069900 0.018550 2.042750 
# 
# From -- ./inp_files/111574.got.cif
#   From: 2010.05.17/outbox.cif.g08.bks.cpg/sg2_56_cif.got.tgz:111574.got - 2010.06.03 11:33:40.
