data_PCOD9002606
_publ_section_title
;
Structure prediction by ZEFSAII (Michael W. Deem and Ramdas Pophale) SiO2 
 PCOD9002606
Probable space group: P -1
;
_chemical_formula_sum "Si O2"
_cell_formula_units_Z 16
_cell_length_a 13.975330
_cell_length_b 16.782838
_cell_length_c 10.343972
_cell_angle_alpha 146.382609
_cell_angle_beta 52.030190
_cell_angle_gamma 146.262926
_cell_volume 722.061182
_symmetry_space_group_name_H-M "P -1"
_symmetry_group_IT_number 2
_symmetry_cell_setting 'triclinic'
loop_
_space_group_symop_operation_xyz
x,y,z
-x,-y,-z
loop_
_atom_site_type_symbol
_atom_site_label
_atom_site_fract_x
_atom_site_fract_y
_atom_site_fract_z
Si Si1 0.496291 0.365141 0.458273
Si Si2 0.931845 0.581987 0.840403
Si Si3 0.308410 0.172692 0.762936
Si Si4 0.384821 0.705044 0.476204
Si Si5 0.310454 0.964124 0.909897
Si Si6 0.817625 0.749519 0.798481
Si Si7 0.895907 0.222072 0.435261
Si Si8 0.813186 0.765851 0.307848
O O1 0.557101 0.323594 0.478694
O O2 0.673479 0.613547 0.619595
O O3 0.334052 0.322961 0.584212
O O4 0.431479 0.195723 0.177443
O O5 0.812732 0.477719 0.667941
O O6 0.912584 0.407264 0.680592
O O7 0.134017 0.793715 0.916707
O O8 0.851924 0.633211 0.069257
O O9 0.180402 0.930777 0.585515
O O10 0.493056 0.259413 0.689007
O O11 0.246229 0.208633 0.740411
O O12 0.300040 0.282878 0.033001
O O13 0.410669 0.898080 0.734711
O O14 0.235016 0.926338 0.777344
O O15 0.911943 0.676769 0.617708
O O16 0.000000 0.000000 0.000000
O O17 0.000000 0.000000 0.500000
#
# Coordination Sequence:
#
# PCOD9002606 Si02
#       8
#     2   2   2   2   2   2   2   2
#     4  11  21  37  63  93 123 164 208 259 315 364
#     4  11  21  38  63  96 123 163 216 255 304 373
#     4  10  22  41  64  88 122 166 215 253 308 380
#     4  10  21  36  62  92 121 167 210 253 307 370
#     4  11  21  35  61  94 130 155 208 263 309 367
#     4  10  21  40  65  88 121 168 209 251 306 380
#     4  10  22  40  66  88 124 172 204 256 315 368
#     4  11  22  39  65  93 127 161 208 270 307 362
#
# _framework density 22.158787
#
# number of rings (size 3 to 8) (size 9 to 14) (size 15 to 20)
#    0.000    1.500    1.250    5.625    0.000    4.000 
#    0.000    3.125    8.250    0.000    0.000    0.000 
#    0.000    0.000    0.000    0.000    0.000    0.000 
#
# Total GULP energy -89344.452076 kJ/mol
# GULP energy per Si atom -5584.028255 kJ/mol
# Density = 2.210835 g / cm^3
# Si number density = 22.158787 Si / 1000 Ang^3
#
#
#
# Elastic Constant Matrix: (Units=GPa)
#
#
# Indices 1 2 3 4 5 6 
#
# 1 80.6055 48.1516 42.2298 -14.1673 -32.0302 16.0407
# 2 48.1516 87.6271 49.7680 3.2098 -14.4322 19.5151
# 3 42.2298 49.7680 169.4398 9.9645 -17.6655 22.4804
# 4 -14.1673 3.2098 9.9645 33.0504 6.8268 -0.2251
# 5 -32.0302 -14.4322 -17.6655 6.8268 27.1714 -5.7639
# 6 16.0407 19.5151 22.4804 -0.2251 -5.7639 33.3296
#
#
#
# Elastic Compliance Matrix: (Units=1/GPa)
#
#
# Indices 1 2 3 4 5 6 
#
# 1 0.036395 -0.013461 -0.002183 0.011155 0.030951 -0.002734
# 2 -0.013461 0.020432 -0.002268 -0.005847 -0.006092 -0.005048
# 3 -0.002183 -0.002268 0.007833 -0.003429 0.001614 -0.002649
# 4 0.011155 -0.005847 -0.003429 0.036928 -0.001383 0.000378
# 5 0.030951 -0.006092 0.001614 -0.001383 0.071435 -0.000073
# 6 -0.002734 -0.005048 -0.002649 0.000378 -0.000073 0.036051
#
#
# Mechanical properties :
#
#
# Convention : Reuss Voigt Hill
#
# Bulk Modulus (GPa) = 34.67957 68.66348 51.67153
# Shear Modulus (GPa) = 19.64539 31.87849 25.76194
#
# Velocity S-wave (km/s) = 2.98077 3.79705 3.41340
# Velocity P-wave (km/s) = 5.24701 7.09068 6.23734
#
# Compressibility (1/GPa) = 0.02883542
#
# Stress axis : x y z
#
# Youngs Moduli (GPa) = 27.47617 48.94224 127.65744
#
# Poissons Ratio (x) = 0.65884 0.27872
# Poissons Ratio (y) = 0.36987 0.28951
# Poissons Ratio (z) = 0.05999 0.11100
#
# Static dielectric constant tensor:
#      x y z
#    x 1.860620 -0.026940 0.000960 
#    y -0.026940 1.879250 0.079670 
#    z 0.000960 0.079670 1.865040 
# 
# From -- ./inp_files/406542.got.cif
#   From: 2010.05.17/outbox.cif.g08.bks.cpg/sg2_204_cif.got.tgz:406542.got - 2010.06.03 11:33:40.
