data_PCOD9002275
_publ_section_title
;
Structure prediction by ZEFSAII (Michael W. Deem and Ramdas Pophale) SiO2 
 PCOD9002275
Probable space group: P -1
;
_chemical_formula_sum "Si O2"
_cell_formula_units_Z 16
_cell_length_a 19.241953
_cell_length_b 12.444974
_cell_length_c 5.675209
_cell_angle_alpha 87.119028
_cell_angle_beta 111.561525
_cell_angle_gamma 43.429390
_cell_volume 754.457556
_symmetry_space_group_name_H-M "P -1"
_symmetry_group_IT_number 2
_symmetry_cell_setting 'triclinic'
loop_
_space_group_symop_operation_xyz
x,y,z
-x,-y,-z
loop_
_atom_site_type_symbol
_atom_site_label
_atom_site_fract_x
_atom_site_fract_y
_atom_site_fract_z
Si Si1 0.103502 0.861880 0.443606
Si Si2 0.648655 0.317925 0.209519
Si Si3 0.967516 0.849728 0.998128
Si Si4 0.982913 0.423816 0.174715
Si Si5 0.204647 0.268847 0.732818
Si Si6 0.390826 0.145900 0.657126
Si Si7 0.430909 0.918788 0.339618
Si Si8 0.696045 0.150422 0.785989
O O1 0.250098 0.703329 0.704315
O O2 0.075290 0.997367 0.225470
O O3 0.000000 0.000000 0.500000
O O4 0.070452 0.784746 0.300572
O O5 0.673077 0.252980 0.518644
O O6 0.500000 0.500000 0.000000
O O7 0.677915 0.211297 0.025108
O O8 0.015809 0.694623 0.923715
O O9 0.842949 0.951563 0.964576
O O10 0.860819 0.589537 0.157161
O O11 0.103498 0.302510 0.504339
O O12 0.000000 0.500000 0.000000
O O13 0.257767 0.288609 0.599482
O O14 0.324440 0.066868 0.997314
O O15 0.432994 0.206862 0.575389
O O16 0.403065 0.034517 0.500523
O O17 0.500000 0.000000 0.000000
O O18 0.401958 0.832022 0.383957
#
# Coordination Sequence:
#
# PCOD9002275 Si02
#       8
#     2   2   2   2   2   2   2   2
#     4  10  21  42  69  94 128 171 225 285 336 403
#     4  11  25  45  68 100 136 171 214 288 355 409
#     4  10  22  39  66  98 124 173 234 275 334 405
#     4  11  23  38  60  94 135 174 214 274 341 399
#     4  10  21  36  59  88 134 171 213 277 332 393
#     4   9  19  36  59  82 126 164 213 268 317 390
#     4  10  21  37  62  92 119 171 229 267 323 401
#     4  11  23  40  73  96 128 171 230 279 335 417
#
# _framework density 21.207287999999998
#
# number of rings (size 3 to 8) (size 9 to 14) (size 15 to 20)
#    0.000    1.750    1.250    2.625    7.000    2.000 
#    0.000    6.250    0.000    0.000    0.000    0.000 
#    0.000    0.000    0.000    0.000    0.000    0.000 
#
# Total GULP energy -89203.943123 kJ/mol
# GULP energy per Si atom -5575.246445 kJ/mol
# Density = 2.115902 g / cm^3
# Si number density = 21.207288 Si / 1000 Ang^3
#
#
#
# Elastic Constant Matrix: (Units=GPa)
#
#
# Indices 1 2 3 4 5 6 
#
# 1 111.5983 45.2386 -7.4072 12.1184 20.3412 -27.4991
# 2 45.2386 81.7509 11.1401 22.7272 13.7470 -12.9880
# 3 -7.4072 11.1401 44.2734 4.3154 13.8115 5.1730
# 4 12.1184 22.7272 4.3154 29.0441 -1.1632 8.9342
# 5 20.3412 13.7470 13.8115 -1.1632 36.5802 5.5305
# 6 -27.4991 -12.9880 5.1730 8.9342 5.5305 40.4875
#
#
#
# Elastic Compliance Matrix: (Units=1/GPa)
#
#
# Indices 1 2 3 4 5 6 
#
# 1 0.018385 -0.003190 0.007807 -0.011537 -0.014608 0.015008
# 2 -0.003190 0.023145 -0.003199 -0.020071 -0.008047 0.011195
# 3 0.007807 -0.003199 0.029636 -0.007031 -0.015174 0.004114
# 4 -0.011537 -0.020071 -0.007031 0.066551 0.023456 -0.031266
# 5 -0.014608 -0.008047 -0.015174 0.023456 0.048338 -0.022344
# 6 0.015008 0.011195 0.004114 -0.031266 -0.022344 0.047909
#
#
# Mechanical properties :
#
#
# Convention : Reuss Voigt Hill
#
# Bulk Modulus (GPa) = 13.51287 37.28508 25.39897
# Shear Modulus (GPa) = 19.54680 33.79912 26.67296
#
# Velocity S-wave (km/s) = 3.03925 3.99651 3.55029
# Velocity P-wave (km/s) = 4.32454 6.23823 5.36737
#
# Compressibility (1/GPa) = 0.07400351
#
# Stress axis : x y z
#
# Youngs Moduli (GPa) = 54.39080 43.20611 33.74250
#
# Poissons Ratio (x) = 0.13781 -0.26342
# Poissons Ratio (y) = 0.17348 0.10793
# Poissons Ratio (z) = -0.42461 0.13820
#
# Static dielectric constant tensor:
#      x y z
#    x 1.721360 0.151580 0.046570 
#    y 0.151580 1.527710 -0.155700 
#    z 0.046570 -0.155700 1.792380 
# 
# From -- ./inp_files/80381.got.cif
#   From: 2010.05.17/outbox.cif.g08.bks.cpg/sg2_41_cif.got.tgz:80381.got - 2010.06.03 11:33:40.
