data_PCOD9002038
_publ_section_title
;
Structure prediction by ZEFSAII (Michael W. Deem and Ramdas Pophale) SiO2 
 PCOD9002038
Probable space group: P -1
;
_chemical_formula_sum "Si O2"
_cell_formula_units_Z 16
_cell_length_a 9.450264
_cell_length_b 19.782910
_cell_length_c 23.639226
_cell_angle_alpha 14.946685
_cell_angle_beta 140.859022
_cell_angle_gamma 136.534977
_cell_volume 711.943093
_symmetry_space_group_name_H-M "P -1"
_symmetry_group_IT_number 2
_symmetry_cell_setting 'triclinic'
loop_
_space_group_symop_operation_xyz
x,y,z
-x,-y,-z
loop_
_atom_site_type_symbol
_atom_site_label
_atom_site_fract_x
_atom_site_fract_y
_atom_site_fract_z
Si Si1 0.312496 0.715145 0.995926
Si Si2 0.477240 0.752582 0.368331
Si Si3 0.324508 0.829064 0.781482
Si Si4 0.999847 0.608625 0.772548
Si Si5 0.182161 0.556368 0.350359
Si Si6 0.686835 0.527598 0.351968
Si Si7 0.135816 0.195812 0.722463
Si Si8 0.142040 0.286992 0.966558
O O1 0.295554 0.673122 0.957454
O O2 0.377051 0.010904 0.778352
O O3 0.519081 0.562831 0.219244
O O4 0.099571 0.626467 0.034392
O O5 0.265808 0.771167 0.244376
O O6 0.646786 0.497069 0.606034
O O7 0.381707 0.693068 0.447865
O O8 0.207595 0.691360 0.805609
O O9 0.592087 0.815269 0.865378
O O10 0.188503 0.128014 0.501471
O O11 0.074278 0.508278 0.814327
O O12 0.223910 0.283463 0.619393
O O13 0.934489 0.615244 0.199342
O O14 0.694077 0.778352 0.193674
O O15 0.934100 0.437113 0.477182
O O16 0.014352 0.940887 0.887854
#
# Coordination Sequence:
#
# PCOD9002038 Si02
#       8
#     2   2   2   2   2   2   2   2
#     4  12  20  38  66  88 118 164 206 246 306 368
#     4  10  21  36  57  90 129 163 196 242 296 359
#     4  11  26  45  64  90 122 157 207 267 317 364
#     4  11  26  45  64  90 122 157 207 267 317 364
#     4  10  21  36  56  90 129 160 199 243 292 362
#     4  10  21  36  57  90 129 163 196 242 296 359
#     4  10  21  36  56  90 129 160 199 243 292 362
#     4  12  22  40  68  92 120 166 208 250 308 366
#
# _framework density 22.473707999999998
#
# number of rings (size 3 to 8) (size 9 to 14) (size 15 to 20)
#    0.000    1.250    0.000    6.750    0.000    0.000 
#    0.000   10.000    0.000    7.500    0.000    0.000 
#    0.000    0.000    0.000    0.000    0.000    0.000 
#
# Total GULP energy -89406.762779 kJ/mol
# GULP energy per Si atom -5587.922674 kJ/mol
# Density = 2.242256 g / cm^3
# Si number density = 22.473708 Si / 1000 Ang^3
#
#
#
# Elastic Constant Matrix: (Units=GPa)
#
#
# Indices 1 2 3 4 5 6 
#
# 1 74.8071 38.9583 28.6383 2.8716 -8.0453 6.9972
# 2 38.9583 163.7555 52.8777 16.7076 9.8040 -14.7981
# 3 28.6383 52.8777 74.7661 8.7837 -13.5131 3.4950
# 4 2.8716 16.7076 8.7837 31.3855 -2.1202 -5.0845
# 5 -8.0453 9.8040 -13.5131 -2.1202 31.6758 2.0372
# 6 6.9972 -14.7981 3.4950 -5.0845 2.0372 30.0180
#
#
#
# Elastic Compliance Matrix: (Units=1/GPa)
#
#
# Indices 1 2 3 4 5 6 
#
# 1 0.017719 -0.004325 -0.002591 0.000754 0.005182 -0.006184
# 2 -0.004325 0.011110 -0.007774 -0.002702 -0.008518 0.007511
# 3 -0.002591 -0.007774 0.022575 -0.002294 0.011678 -0.007038
# 4 0.000754 -0.002702 -0.002294 0.034743 0.002085 0.004503
# 5 0.005182 -0.008518 0.011678 0.002085 0.041236 -0.009212
# 6 -0.006184 0.007511 -0.007038 0.004503 -0.009212 0.040665
#
#
# Mechanical properties :
#
#
# Convention : Reuss Voigt Hill
#
# Bulk Modulus (GPa) = 45.40638 61.58639 53.49638
# Shear Modulus (GPa) = 24.41768 31.47282 27.94525
#
# Velocity S-wave (km/s) = 3.29979 3.74629 3.53010
# Velocity P-wave (km/s) = 5.89629 6.79530 6.36170
#
# Compressibility (1/GPa) = 0.02202334
#
# Stress axis : x y z
#
# Youngs Moduli (GPa) = 56.43737 90.00761 44.29685
#
# Poissons Ratio (x) = 0.38925 0.11479
# Poissons Ratio (y) = 0.24407 0.34437
# Poissons Ratio (z) = 0.14625 0.69974
#
# Static dielectric constant tensor:
#      x y z
#    x 1.806960 -0.008970 0.017040 
#    y -0.008970 1.861720 -0.000920 
#    z 0.017040 -0.000920 1.910870 
# 
# From -- ./inp_files/591182.got.cif
#   From: 2010.05.17/outbox.cif.g08.bks.cpg/sg2_296_cif.got.tgz:591182.got - 2010.06.03 11:33:40.
