data_PCOD9002859
_publ_section_title
;
Structure prediction by ZEFSAII (Michael W. Deem and Ramdas Pophale) SiO2 
 PCOD9002859
Probable space group: P -1
;
_chemical_formula_sum "Si O2"
_cell_formula_units_Z 14
_cell_length_a 26.881190
_cell_length_b 6.409596
_cell_length_c 15.913207
_cell_angle_alpha 48.736827
_cell_angle_beta 163.888886
_cell_angle_gamma 134.069720
_cell_volume 546.148757
_symmetry_space_group_name_H-M "P -1"
_symmetry_group_IT_number 2
_symmetry_cell_setting 'triclinic'
loop_
_space_group_symop_operation_xyz
x,y,z
-x,-y,-z
loop_
_atom_site_type_symbol
_atom_site_label
_atom_site_fract_x
_atom_site_fract_y
_atom_site_fract_z
Si Si1 0.178612 0.720327 0.690318
Si Si2 0.073025 0.288684 0.321872
Si Si3 0.673831 0.163047 0.795929
Si Si4 0.763292 0.789129 0.748588
Si Si5 0.540534 0.896395 0.822271
Si Si6 0.658392 0.353215 0.195594
Si Si7 0.187370 0.146670 0.379630
O O1 0.242573 0.578641 0.751611
O O2 0.000000 0.500000 0.500000
O O3 0.342889 0.872114 0.981332
O O4 0.115872 0.985662 0.482647
O O5 0.207140 0.511985 0.543721
O O6 0.862457 0.220543 0.031726
O O7 0.130922 0.351185 0.302471
O O8 0.675425 0.489777 0.734052
O O9 0.656569 0.977832 0.902119
O O10 0.500000 0.000000 0.500000
O O11 0.650789 0.019242 0.522545
O O12 0.748673 0.720485 0.643009
O O13 0.982792 0.913781 0.093479
O O14 0.526482 0.570256 0.918676
O O15 0.654075 0.010419 0.293153
#
# Coordination Sequence:
#
# PCOD9002859 Si02
#       7
#     2   2   2   2   2   2   2
#     4  10  21  36  66  93 133 171 217 272 325 391
#     4  10  21  40  66  98 126 172 222 270 324 389
#     4  12  25  41  68 100 138 173 215 271 340 395
#     4  11  25  45  66  97 137 176 221 269 326 396
#     4  11  25  41  66 102 133 170 217 276 335 386
#     4  10  21  44  66  99 126 172 223 267 333 377
#     4  10  23  47  70  94 131 177 225 271 319 394
#
# _framework density 25.634041
#
# number of rings (size 3 to 8) (size 9 to 14) (size 15 to 20)
#    0.000    1.429    1.429    3.000    6.000    3.429 
#    2.571    6.429    0.000    0.000    0.000    0.000 
#    0.000    0.000    0.000    0.000    0.000    0.000 
#
# Total GULP energy -78316.038668 kJ/mol
# GULP energy per Si atom -5594.002762 kJ/mol
# Density = 2.557570 g / cm^3
# Si number density = 25.634041 Si / 1000 Ang^3
#
#
#
# Elastic Constant Matrix: (Units=GPa)
#
#
# Indices 1 2 3 4 5 6 
#
# 1 138.9050 19.1006 23.2576 3.5940 3.3661 -23.9072
# 2 19.1006 110.1773 24.0894 -27.4697 1.8269 10.0092
# 3 23.2576 24.0894 132.7240 -38.0655 10.2678 2.2338
# 4 3.5940 -27.4697 -38.0655 27.3510 7.7397 3.1724
# 5 3.3661 1.8269 10.2678 7.7397 38.1525 -9.0835
# 6 -23.9072 10.0092 2.2338 3.1724 -9.0835 38.1714
#
#
#
# Elastic Compliance Matrix: (Units=1/GPa)
#
#
# Indices 1 2 3 4 5 6 
#
# 1 0.014902 -0.011201 -0.012876 -0.037669 0.015026 0.019730
# 2 -0.011201 0.024396 0.016124 0.057459 -0.021976 -0.024361
# 3 -0.012876 0.016124 0.029603 0.070133 -0.028152 -0.026553
# 4 -0.037669 0.057459 0.070133 0.230263 -0.084541 -0.082019
# 5 0.015026 -0.021976 -0.028152 -0.084541 0.059725 0.038060
# 6 0.019730 -0.024361 -0.026553 -0.082019 0.038060 0.062370
#
#
# Mechanical properties :
#
#
# Convention : Reuss Voigt Hill
#
# Bulk Modulus (GPa) = 18.86994 57.18905 38.02949
# Shear Modulus (GPa) = 10.99309 41.75888 26.37598
#
# Velocity S-wave (km/s) = 2.07311 4.04052 3.21120
# Velocity P-wave (km/s) = 3.62045 6.64273 5.34947
#
# Compressibility (1/GPa) = 0.05299433
#
# Stress axis : x y z
#
# Youngs Moduli (GPa) = 67.10612 40.99015 33.78014
#
# Poissons Ratio (x) = 0.45915 0.43497
# Poissons Ratio (y) = 0.75169 -0.54469
# Poissons Ratio (z) = 0.86408 -0.66095
#
# Static dielectric constant tensor:
#      x y z
#    x 2.139480 -0.058910 0.003040 
#    y -0.058910 2.024190 -0.031940 
#    z 0.003040 -0.031940 2.039720 
# 
# From -- ./inp_files/542110.got.cif
#   From: 2010.05.17/outbox.cif.g08.bks.cpg/sg2_272_cif.got.tgz:542110.got - 2010.06.03 11:33:40.
