data_PCOD9002286
_publ_section_title
;
Structure prediction by ZEFSAII (Michael W. Deem and Ramdas Pophale) SiO2 
 PCOD9002286
Probable space group: P -1
;
_chemical_formula_sum "Si O2"
_cell_formula_units_Z 16
_cell_length_a 9.689213
_cell_length_b 9.942815
_cell_length_c 18.861175
_cell_angle_alpha 130.126180
_cell_angle_beta 141.471943
_cell_angle_gamma 42.569410
_cell_volume 755.530973
_symmetry_space_group_name_H-M "P -1"
_symmetry_group_IT_number 2
_symmetry_cell_setting 'triclinic'
loop_
_space_group_symop_operation_xyz
x,y,z
-x,-y,-z
loop_
_atom_site_type_symbol
_atom_site_label
_atom_site_fract_x
_atom_site_fract_y
_atom_site_fract_z
Si Si1 0.307541 0.892208 0.733215
Si Si2 0.759396 0.079604 0.569222
Si Si3 0.794657 0.815615 0.839758
Si Si4 0.606465 0.759710 0.399818
Si Si5 0.104027 0.616239 0.031992
Si Si6 0.328190 0.622196 0.777013
Si Si7 0.546468 0.294884 0.415330
Si Si8 0.893098 0.992488 0.808285
O O1 0.529507 0.942711 0.819836
O O2 0.382424 0.743606 0.778607
O O3 0.298684 0.772814 0.618648
O O4 0.023907 0.070069 0.690553
O O5 0.534982 0.235840 0.582457
O O6 0.690892 0.130843 0.477678
O O7 0.778628 0.863013 0.518382
O O8 0.714888 0.697622 0.710214
O O9 0.865945 0.952302 0.866289
O O10 0.992082 0.664126 0.924049
O O11 0.727235 0.544683 0.338135
O O12 0.376030 0.914921 0.308878
O O13 0.409641 0.496049 0.114673
O O14 0.025354 0.836153 0.107393
O O15 0.000000 0.500000 0.000000
O O16 0.096760 0.785508 0.784752
O O17 0.500000 0.500000 0.500000
#
# Coordination Sequence:
#
# PCOD9002286 Si02
#       8
#     2   2   2   2   2   2   2   2
#     4  10  21  38  64  93 130 169 224 260 325 392
#     4  11  20  38  62  97 127 182 218 271 324 393
#     4  10  23  43  64  98 134 171 214 277 327 382
#     4  10  22  38  65  92 137 169 222 272 328 386
#     4  11  23  45  73  95 130 172 220 277 330 393
#     4  11  23  42  67  98 126 174 222 270 330 400
#     4  10  21  36  59  89 132 170 212 262 321 381
#     4  11  23  44  69  96 135 170 219 275 337 388
#
# _framework density 21.177160000000001
#
# number of rings (size 3 to 8) (size 9 to 14) (size 15 to 20)
#    0.750    0.750    3.750    1.500    0.000    2.500 
#    0.000    1.250    0.000    0.000    0.000    0.000 
#    0.000    0.000    0.000    0.000    0.000    0.000 
#
# Total GULP energy -89300.709352 kJ/mol
# GULP energy per Si atom -5581.294335 kJ/mol
# Density = 2.112896 g / cm^3
# Si number density = 21.177160 Si / 1000 Ang^3
#
#
#
# Elastic Constant Matrix: (Units=GPa)
#
#
# Indices 1 2 3 4 5 6 
#
# 1 103.7848 36.6994 9.4586 -4.6172 -3.0881 7.9659
# 2 36.6994 73.4833 28.7936 2.7733 2.8846 -7.1346
# 3 9.4586 28.7936 66.3231 -17.1185 -8.3231 6.9832
# 4 -4.6172 2.7733 -17.1185 38.1986 17.6128 -7.2427
# 5 -3.0881 2.8846 -8.3231 17.6128 19.7419 -2.7070
# 6 7.9659 -7.1346 6.9832 -7.2427 -2.7070 30.1645
#
#
#
# Elastic Compliance Matrix: (Units=1/GPa)
#
#
# Indices 1 2 3 4 5 6 
#
# 1 0.012842 -0.008268 0.002986 0.001242 0.002613 -0.005506
# 2 -0.008268 0.023504 -0.011607 -0.003955 -0.004852 0.009044
# 3 0.002986 -0.011607 0.023052 0.008901 0.003055 -0.006459
# 4 0.001242 -0.003955 0.008901 0.049538 -0.038975 0.005073
# 5 0.002613 -0.004852 0.003055 -0.038975 0.087273 -0.004071
# 6 -0.005506 0.009044 -0.006459 0.005073 -0.004071 0.039093
#
#
# Mechanical properties :
#
#
# Convention : Reuss Voigt Hill
#
# Bulk Modulus (GPa) = 39.03137 43.72163 41.37650
# Shear Modulus (GPa) = 18.01036 28.86363 23.43700
#
# Velocity S-wave (km/s) = 2.91943 3.69583 3.33034
# Velocity P-wave (km/s) = 5.46214 6.23721 5.86250
#
# Compressibility (1/GPa) = 0.02562042
#
# Stress axis : x y z
#
# Youngs Moduli (GPa) = 77.86742 42.54675 43.38084
#
# Poissons Ratio (x) = 0.35177 -0.12954
# Poissons Ratio (y) = 0.64379 0.50351
# Poissons Ratio (z) = -0.23252 0.49383
#
# Static dielectric constant tensor:
#      x y z
#    x 1.790360 -0.003380 0.031290 
#    y -0.003380 1.765710 -0.017540 
#    z 0.031290 -0.017540 1.799060 
# 
# From -- ./inp_files/557501.got.cif
#   From: 2010.05.17/outbox.cif.g08.bks.cpg/sg2_279_cif.got.tgz:557501.got - 2010.06.03 11:33:40.
