data_PCOD9002899
_publ_section_title
;
Structure prediction by ZEFSAII (Michael W. Deem and Ramdas Pophale) SiO2 
 PCOD9002899
Probable space group: P -1
;
_chemical_formula_sum "Si O2"
_cell_formula_units_Z 16
_cell_length_a 9.621223
_cell_length_b 13.219286
_cell_length_c 13.646622
_cell_angle_alpha 149.202560
_cell_angle_beta 112.773113
_cell_angle_gamma 62.546487
_cell_volume 788.434146
_symmetry_space_group_name_H-M "P -1"
_symmetry_group_IT_number 2
_symmetry_cell_setting 'triclinic'
loop_
_space_group_symop_operation_xyz
x,y,z
-x,-y,-z
loop_
_atom_site_type_symbol
_atom_site_label
_atom_site_fract_x
_atom_site_fract_y
_atom_site_fract_z
Si Si1 0.853736 0.179083 0.345911
Si Si2 0.228566 0.409676 0.459996
Si Si3 0.159144 0.028416 0.019252
Si Si4 0.539618 0.290548 0.068451
Si Si5 0.613107 0.587646 0.174863
Si Si6 0.587418 0.316677 0.545045
Si Si7 0.162186 0.284678 0.544712
Si Si8 0.500342 0.982455 0.347556
O O1 0.810988 0.374031 0.423654
O O2 0.857243 0.991046 0.118132
O O3 0.723204 0.215295 0.422994
O O4 0.020389 0.186656 0.440440
O O5 0.415909 0.341859 0.472440
O O6 0.144521 0.413994 0.546180
O O7 0.183575 0.240809 0.240192
O O8 0.313630 0.854326 0.954429
O O9 0.000000 0.000000 0.000000
O O10 0.594847 0.460034 0.160738
O O11 0.412653 0.450023 0.233338
O O12 0.479649 0.148884 0.857502
O O13 0.794634 0.588782 0.246809
O O14 0.553806 0.821503 0.315044
O O15 0.500000 0.500000 0.000000
O O16 0.591525 0.157019 0.502999
O O17 0.317512 0.101030 0.408183
#
# Coordination Sequence:
#
# PCOD9002899 Si02
#       8
#     2   2   2   2   2   2   2   2
#     4  12  25  38  58  90 130 159 197 237 305 347
#     4  11  22  38  62  85 122 165 197 237 288 357
#     4  12  23  36  61  94 122 155 197 250 293 343
#     4  11  20  37  62  90 119 149 212 239 294 357
#     4  10  21  36  69  92 109 153 203 261 292 351
#     4  11  23  39  59  86 125 168 191 245 286 366
#     4  11  20  39  61  92 118 152 196 257 294 350
#     4  10  21  40  64  88 113 152 208 252 297 345
#
# _framework density 20.293386999999999
#
# number of rings (size 3 to 8) (size 9 to 14) (size 15 to 20)
#    0.000    1.000    7.500    1.125    1.750    1.500 
#    0.000    0.625    0.000    1.500    0.000    0.000 
#    0.000    0.000    0.000    0.000    0.000    0.000 
#
# Total GULP energy -89071.870411 kJ/mol
# GULP energy per Si atom -5566.991901 kJ/mol
# Density = 2.024720 g / cm^3
# Si number density = 20.293387 Si / 1000 Ang^3
#
#
#
# Elastic Constant Matrix: (Units=GPa)
#
#
# Indices 1 2 3 4 5 6 
#
# 1 67.6095 5.1846 12.6981 -9.9153 -9.7310 -13.7757
# 2 5.1846 54.9324 7.1130 2.1393 8.5529 -4.0918
# 3 12.6981 7.1130 118.8168 -16.8368 15.1777 -12.7022
# 4 -9.9153 2.1393 -16.8368 35.4537 -3.8646 15.7207
# 5 -9.7310 8.5529 15.1777 -3.8646 32.2974 -0.3810
# 6 -13.7757 -4.0918 -12.7022 15.7207 -0.3810 12.0079
#
#
#
# Elastic Compliance Matrix: (Units=1/GPa)
#
#
# Indices 1 2 3 4 5 6 
#
# 1 0.022169 0.000424 -0.000472 -0.010978 0.005943 0.039639
# 2 0.000424 0.021524 0.000393 -0.012655 -0.006981 0.024582
# 3 -0.000472 0.000393 0.010170 -0.000931 -0.005002 0.011411
# 4 -0.010978 -0.012655 -0.000931 0.081584 0.008775 -0.124421
# 5 0.005943 -0.006981 -0.005002 0.008775 0.037871 -0.011139
# 6 0.039639 0.024582 0.011411 -0.124421 -0.011139 0.311738
#
#
# Mechanical properties :
#
#
# Convention : Reuss Voigt Hill
#
# Bulk Modulus (GPa) = 18.33093 32.37226 25.35160
# Shear Modulus (GPa) = 9.94925 30.37601 20.16263
#
# Velocity S-wave (km/s) = 2.21661 3.87310 3.15549
# Velocity P-wave (km/s) = 3.95015 5.99900 5.07896
#
# Compressibility (1/GPa) = 0.05455259
#
# Stress axis : x y z
#
# Youngs Moduli (GPa) = 45.10816 46.45929 98.32659
#
# Poissons Ratio (x) = -0.01968 0.04638
# Poissons Ratio (y) = -0.01911 -0.03861
# Poissons Ratio (z) = 0.02128 -0.01824
#
# Static dielectric constant tensor:
#      x y z
#    x 1.842230 -0.170270 -0.151150 
#    y -0.170270 1.944410 0.095750 
#    z -0.151150 0.095750 1.979870 
# 
# From -- ./inp_files/344998.got.cif
#   From: 2010.05.17/outbox.cif.g08.bks.cpg/sg2_173_cif.got.tgz:344998.got - 2010.06.03 11:33:40.
