data_PCOD9002083
_publ_section_title
;
Structure prediction by ZEFSAII (Michael W. Deem and Ramdas Pophale) SiO2 
 PCOD9002083
Probable space group: P -1
;
_chemical_formula_sum "Si O2"
_cell_formula_units_Z 16
_cell_length_a 5.154498
_cell_length_b 23.098838
_cell_length_c 25.189399
_cell_angle_alpha 168.812252
_cell_angle_beta 103.012633
_cell_angle_gamma 74.160485
_cell_volume 545.040714
_symmetry_space_group_name_H-M "P -1"
_symmetry_group_IT_number 2
_symmetry_cell_setting 'triclinic'
loop_
_space_group_symop_operation_xyz
x,y,z
-x,-y,-z
loop_
_atom_site_type_symbol
_atom_site_label
_atom_site_fract_x
_atom_site_fract_y
_atom_site_fract_z
Si Si1 0.506100 0.050993 0.635055
Si Si2 0.340494 0.349223 0.292606
Si Si3 0.118773 0.282826 0.743413
Si Si4 0.659258 0.035038 0.248846
Si Si5 0.233935 0.286436 0.375318
Si Si6 0.024505 0.808846 0.144823
Si Si7 0.575705 0.519054 0.227874
Si Si8 0.017706 0.733201 0.894142
O O1 0.653342 0.841608 0.403993
O O2 0.398777 0.834471 0.476326
O O3 0.280541 0.329541 0.846623
O O4 0.751292 0.122026 0.743239
O O5 0.537882 0.570613 0.511578
O O6 0.058496 0.461360 0.413195
O O7 0.213266 0.357377 0.234078
O O8 0.500000 0.000000 0.000000
O O9 0.914002 0.571164 0.962890
O O10 0.000000 0.000000 0.500000
O O11 0.366784 0.248577 0.407011
O O12 0.848810 0.959849 0.137135
O O13 0.811887 0.098115 0.365648
O O14 0.598795 0.714934 0.975682
O O15 0.170311 0.952618 0.064705
O O16 0.202058 0.640026 0.950465
O O17 0.763768 0.524643 0.293370
#
# Coordination Sequence:
#
# PCOD9002083 Si02
#       8
#     2   2   2   2   2   2   2   2
#     4  10  21  36  57  85 122 169 215 278 335 404
#     4  12  28  47  74 108 142 188 237 280 351 426
#     4  10  21  37  55  83 124 165 220 273 336 402
#     4  10  21  44  65  96 134 175 227 285 349 405
#     4  11  25  47  70 104 143 181 235 287 345 419
#     4  10  21  37  58  90 123 167 222 278 338 408
#     4   9  21  37  59  90 127 166 223 274 343 402
#     4  10  24  45  70 101 142 185 226 298 344 410
#
# _framework density 29.355601
#
# number of rings (size 3 to 8) (size 9 to 14) (size 15 to 20)
#    0.000    1.750    1.250    1.500    5.250    2.500 
#    0.000    0.000    0.000    0.000    0.000    0.000 
#    0.000    0.000    0.000    0.000    0.000    0.000 
#
# Total GULP energy -89659.677151 kJ/mol
# GULP energy per Si atom -5603.729822 kJ/mol
# Density = 2.928879 g / cm^3
# Si number density = 29.355601 Si / 1000 Ang^3
#
#
#
# Elastic Constant Matrix: (Units=GPa)
#
#
# Indices 1 2 3 4 5 6 
#
# 1 143.8122 55.2355 42.9962 15.6280 21.4846 -7.0802
# 2 55.2355 208.3490 46.1195 4.2212 -5.1165 -21.0734
# 3 42.9962 46.1195 100.4916 23.6781 21.1206 -6.8335
# 4 15.6280 4.2212 23.6781 60.2697 -7.8549 -4.3001
# 5 21.4846 -5.1165 21.1206 -7.8549 66.4527 7.2925
# 6 -7.0802 -21.0734 -6.8335 -4.3001 7.2925 68.7658
#
#
#
# Elastic Compliance Matrix: (Units=1/GPa)
#
#
# Indices 1 2 3 4 5 6 
#
# 1 0.008866 -0.001923 -0.001928 -0.001729 -0.002639 0.000304
# 2 -0.001923 0.006035 -0.002610 0.001446 0.001947 0.001276
# 3 -0.001928 -0.002610 0.014341 -0.005542 -0.004856 0.000595
# 4 -0.001729 0.001446 -0.005542 0.019763 0.004718 0.000450
# 5 -0.002639 0.001947 -0.004856 0.004718 0.018351 -0.001809
# 6 0.000304 0.001276 0.000595 0.000450 -0.001809 0.015244
#
#
# Mechanical properties :
#
#
# Convention : Reuss Voigt Hill
#
# Bulk Modulus (GPa) = 61.27685 82.37280 71.82483
# Shear Modulus (GPa) = 49.52465 59.65108 54.58787
#
# Velocity S-wave (km/s) = 4.11184 4.51268 4.31691
# Velocity P-wave (km/s) = 6.59259 7.43462 7.02623
#
# Compressibility (1/GPa) = 0.01631938
#
# Stress axis : x y z
#
# Youngs Moduli (GPa) = 112.79653 165.70951 69.73197
#
# Poissons Ratio (x) = 0.31859 0.13445
# Poissons Ratio (y) = 0.21686 0.18200
# Poissons Ratio (z) = 0.21748 0.43250
#
# Static dielectric constant tensor:
#      x y z
#    x 2.334060 -0.038590 -0.045170 
#    y -0.038590 2.346720 0.015650 
#    z -0.045170 0.015650 2.339670 
# 
# From -- ./inp_files/10856.got.cif
#   From: 2010.05.17/outbox.cif.g08.bks.cpg/sg2_6_cif.got.tgz:10856.got - 2010.06.03 11:33:40.
