data_PCOD9002195
_publ_section_title
;
Structure prediction by ZEFSAII (Michael W. Deem and Ramdas Pophale) SiO2 
 PCOD9002195
Probable space group: P -1
;
_chemical_formula_sum "Si O2"
_cell_formula_units_Z 12
_cell_length_a 9.248813
_cell_length_b 5.787428
_cell_length_c 15.676902
_cell_angle_alpha 77.856418
_cell_angle_beta 127.497566
_cell_angle_gamma 128.554987
_cell_volume 500.929815
_symmetry_space_group_name_H-M "P -1"
_symmetry_group_IT_number 2
_symmetry_cell_setting 'triclinic'
loop_
_space_group_symop_operation_xyz
x,y,z
-x,-y,-z
loop_
_atom_site_type_symbol
_atom_site_label
_atom_site_fract_x
_atom_site_fract_y
_atom_site_fract_z
Si Si1 0.922176 0.449680 0.838742
Si Si2 0.476426 0.750899 0.754644
Si Si3 0.046615 0.619570 0.682633
Si Si4 0.697509 0.966450 0.555483
Si Si5 0.674986 0.615686 0.441125
Si Si6 0.790423 0.640129 0.939334
O O1 0.822362 0.549407 0.864851
O O2 0.997500 0.624885 0.763210
O O3 0.712129 0.081314 0.779706
O O4 0.151072 0.512898 0.958937
O O5 0.316798 0.815085 0.738287
O O6 0.340208 0.503300 0.648617
O O7 0.557822 0.608527 0.858418
O O8 0.889383 0.662183 0.564395
O O9 0.939112 0.269676 0.652383
O O10 0.708784 0.910504 0.463937
O O11 0.585017 0.659955 0.591959
O O12 0.500000 0.000000 0.500000
O O13 0.000000 0.000000 0.000000
#
# Coordination Sequence:
#
# PCOD9002195 Si02
#       6
#     2   2   2   2   2   2
#     4  10  22  43  62  84 122 155 201 253 297 351
#     4  11  23  38  62  91 121 158 201 244 295 357
#     4  11  23  37  61  92 122 159 197 242 300 354
#     4   9  20  36  57  86 120 164 198 235 291 348
#     4  10  21  36  58  90 125 158 199 240 292 358
#     4   9  22  42  64  86 114 160 202 249 302 350
#
# _framework density 23.955449999999999
#
# number of rings (size 3 to 8) (size 9 to 14) (size 15 to 20)
#    0.000    2.000    1.667    0.500    7.000    2.667 
#    0.000    7.500    0.000    0.000    0.000    0.000 
#    0.000    0.000    0.000    0.000    0.000    0.000 
#
# Total GULP energy -67038.695762 kJ/mol
# GULP energy per Si atom -5586.557980 kJ/mol
# Density = 2.390093 g / cm^3
# Si number density = 23.955450 Si / 1000 Ang^3
#
#
#
# Elastic Constant Matrix: (Units=GPa)
#
#
# Indices 1 2 3 4 5 6 
#
# 1 117.2354 17.5146 68.2142 -5.5471 11.0471 -4.2287
# 2 17.5146 22.8926 8.4591 7.3932 -9.2131 -9.7212
# 3 68.2142 8.4591 135.6930 -8.7581 6.4670 -4.0262
# 4 -5.5471 7.3932 -8.7581 24.7643 -18.6584 -7.5335
# 5 11.0471 -9.2131 6.4670 -18.6584 38.0026 4.4404
# 6 -4.2287 -9.7212 -4.0262 -7.5335 4.4404 38.1988
#
#
#
# Elastic Compliance Matrix: (Units=1/GPa)
#
#
# Indices 1 2 3 4 5 6 
#
# 1 0.014423 -0.011550 -0.006319 -0.000507 -0.006001 -0.001411
# 2 -0.011550 0.065464 0.000942 -0.007549 0.013916 0.012374
# 3 -0.006319 0.000942 0.010684 0.004017 0.002077 0.001217
# 4 -0.000507 -0.007549 0.004017 0.069871 0.030930 0.008631
# 5 -0.006001 0.013916 0.002077 0.030930 0.045813 0.003871
# 6 -0.001411 0.012374 0.001217 0.008631 0.003871 0.030552
#
#
# Mechanical properties :
#
#
# Convention : Reuss Voigt Hill
#
# Bulk Modulus (GPa) = 17.63174 51.57742 34.60458
# Shear Modulus (GPa) = 17.26724 32.30203 24.78464
#
# Velocity S-wave (km/s) = 2.68770 3.67607 3.22003
# Velocity P-wave (km/s) = 4.12405 6.29248 5.31992
#
# Compressibility (1/GPa) = 0.05671590
#
# Stress axis : x y z
#
# Youngs Moduli (GPa) = 69.33455 15.27568 93.59915
#
# Poissons Ratio (x) = 0.17644 0.59145
# Poissons Ratio (y) = 0.80084 -0.08819
# Poissons Ratio (z) = 0.43813 -0.01439
#
# Static dielectric constant tensor:
#      x y z
#    x 1.920840 -0.009460 0.004430 
#    y -0.009460 2.024830 -0.043170 
#    z 0.004430 -0.043170 1.944890 
# 
# From -- ./inp_files/42189.got.cif
#   From: 2010.05.17/outbox.cif.g08.bks.cpg/sg2_22_cif.got.tgz:42189.got - 2010.06.03 11:33:40.
