data_PCOD9002699
_publ_section_title
;
Structure prediction by ZEFSAII (Michael W. Deem and Ramdas Pophale) SiO2 
 PCOD9002699
Probable space group: P -1
;
_chemical_formula_sum "Si O2"
_cell_formula_units_Z 16
_cell_length_a 9.772039
_cell_length_b 15.275944
_cell_length_c 8.965282
_cell_angle_alpha 140.922360
_cell_angle_beta 82.255114
_cell_angle_gamma 105.352073
_cell_volume 808.001432
_symmetry_space_group_name_H-M "P -1"
_symmetry_group_IT_number 2
_symmetry_cell_setting 'triclinic'
loop_
_space_group_symop_operation_xyz
x,y,z
-x,-y,-z
loop_
_atom_site_type_symbol
_atom_site_label
_atom_site_fract_x
_atom_site_fract_y
_atom_site_fract_z
Si Si1 0.320138 0.765267 0.555875
Si Si2 0.766126 0.239433 0.098305
Si Si3 0.228194 0.429985 0.528512
Si Si4 0.556108 0.976239 0.622542
Si Si5 0.330084 0.293674 0.822710
Si Si6 0.036279 0.583882 0.261063
Si Si7 0.088455 0.325534 0.101334
Si Si8 0.527985 0.552686 0.274227
O O1 0.266253 0.786226 0.756313
O O2 0.425249 0.906550 0.659377
O O3 0.181523 0.709171 0.397393
O O4 0.411271 0.644990 0.396411
O O5 0.755999 0.399936 0.271535
O O6 0.928064 0.235136 0.034203
O O7 0.655117 0.121060 0.864973
O O8 0.175563 0.353649 0.279604
O O9 0.378006 0.413037 0.546214
O O10 0.101749 0.375624 0.596696
O O11 0.640120 0.853313 0.427907
O O12 0.500000 0.000000 0.500000
O O13 0.360808 0.399928 0.816390
O O14 0.177425 0.268677 0.888057
O O15 0.446607 0.385784 0.044395
O O16 0.073946 0.477722 0.240119
O O17 0.000000 0.500000 0.000000
#
# Coordination Sequence:
#
# PCOD9002699 Si02
#       8
#     2   2   2   2   2   2   2   2
#     4  11  22  43  64  90 124 158 205 253 309 361
#     4  11  22  41  60  86 130 163 198 248 302 367
#     4  11  21  36  64  98 124 153 200 250 315 364
#     4  11  26  40  61  88 116 169 212 245 296 364
#     4  10  21  39  59  87 127 156 203 251 304 355
#     4  11  21  35  63  96 122 157 195 255 316 354
#     4  11  21  39  62  93 127 153 200 258 307 366
#     4  10  21  36  63  94 123 154 200 258 309 350
#
# _framework density 19.801943999999999
#
# number of rings (size 3 to 8) (size 9 to 14) (size 15 to 20)
#    0.000    1.250    3.750    2.625    7.000    3.500 
#    0.000    0.000    0.000    3.750    0.000    0.000 
#    0.000    0.000    0.000    0.000    0.000    0.000 
#
# Total GULP energy -89405.443882 kJ/mol
# GULP energy per Si atom -5587.840243 kJ/mol
# Density = 1.975687 g / cm^3
# Si number density = 19.801944 Si / 1000 Ang^3
#
#
#
# Elastic Constant Matrix: (Units=GPa)
#
#
# Indices 1 2 3 4 5 6 
#
# 1 96.3686 46.5727 36.3051 -7.0078 18.4671 29.6618
# 2 46.5727 61.8426 28.2630 -6.5821 8.4409 29.9058
# 3 36.3051 28.2630 75.1154 -6.0143 27.4077 22.6969
# 4 -7.0078 -6.5821 -6.0143 29.5430 2.2644 1.0684
# 5 18.4671 8.4409 27.4077 2.2644 41.5433 -9.0298
# 6 29.6618 29.9058 22.6969 1.0684 -9.0298 39.6824
#
#
#
# Elastic Compliance Matrix: (Units=1/GPa)
#
#
# Indices 1 2 3 4 5 6 
#
# 1 0.019860 -0.007339 0.001706 0.004781 -0.011560 -0.013049
# 2 -0.007339 0.035417 0.003263 0.008695 -0.012231 -0.026089
# 3 0.001706 0.003263 0.031200 0.010716 -0.028765 -0.028414
# 4 0.004781 0.008695 0.010716 0.041246 -0.017868 -0.021432
# 5 -0.011560 -0.012231 -0.028765 -0.017868 0.062290 0.048967
# 6 -0.013049 -0.026089 -0.028414 -0.021432 0.048967 0.082587
#
#
# Mechanical properties :
#
#
# Convention : Reuss Voigt Hill
#
# Bulk Modulus (GPa) = 12.23432 50.62313 31.42873
# Shear Modulus (GPa) = 16.41579 30.29946 23.35762
#
# Velocity S-wave (km/s) = 2.88236 3.91593 3.43820
# Velocity P-wave (km/s) = 4.15561 6.78721 5.62740
#
# Compressibility (1/GPa) = 0.08173726
#
# Stress axis : x y z
#
# Youngs Moduli (GPa) = 50.35170 28.23527 32.05175
#
# Poissons Ratio (x) = 0.20723 -0.05469
# Poissons Ratio (y) = 0.36954 -0.10460
# Poissons Ratio (z) = -0.08591 -0.09214
#
# Static dielectric constant tensor:
#      x y z
#    x 1.735180 0.000040 -0.008500 
#    y 0.000040 1.719800 -0.006220 
#    z -0.008500 -0.006220 1.686350 
# 
# From -- ./inp_files/185148.got.cif
#   From: 2010.05.17/outbox.cif.g08.bks.cpg/sg2_93_cif.got.tgz:185148.got - 2010.06.03 11:33:40.
