data_PCOD9002260
_publ_section_title
;
Structure prediction by ZEFSAII (Michael W. Deem and Ramdas Pophale) SiO2 
 PCOD9002260
Probable space group: P -1
;
_chemical_formula_sum "Si O2"
_cell_formula_units_Z 16
_cell_length_a 9.034987
_cell_length_b 14.992053
_cell_length_c 8.464956
_cell_angle_alpha 85.222305
_cell_angle_beta 130.958959
_cell_angle_gamma 66.370065
_cell_volume 686.936105
_symmetry_space_group_name_H-M "P -1"
_symmetry_group_IT_number 2
_symmetry_cell_setting 'triclinic'
loop_
_space_group_symop_operation_xyz
x,y,z
-x,-y,-z
loop_
_atom_site_type_symbol
_atom_site_label
_atom_site_fract_x
_atom_site_fract_y
_atom_site_fract_z
Si Si1 0.655100 0.597197 0.819735
Si Si2 0.737001 0.221537 0.032067
Si Si3 0.880574 0.220537 0.477526
Si Si4 0.011065 0.963285 0.215976
Si Si5 0.542156 0.440302 0.707073
Si Si6 0.415212 0.943761 0.332945
Si Si7 0.085780 0.470319 0.328609
Si Si8 0.241327 0.255313 0.633102
O O1 0.370291 0.698799 0.613533
O O2 0.661977 0.488620 0.876422
O O3 0.772420 0.584977 0.732665
O O4 0.832665 0.586014 0.081571
O O5 0.703618 0.306258 0.861540
O O6 0.479473 0.240585 0.868346
O O7 0.807074 0.249007 0.239549
O O8 0.926712 0.089339 0.153843
O O9 0.981025 0.095174 0.610595
O O10 0.087301 0.237535 0.647624
O O11 0.283594 0.898932 0.342951
O O12 0.806838 0.972915 0.958773
O O13 0.500000 0.500000 0.500000
O O14 0.268648 0.483395 0.553144
O O15 0.642305 0.842519 0.405451
O O16 0.500000 0.000000 0.500000
O O17 0.078651 0.378277 0.424530
#
# Coordination Sequence:
#
# PCOD9002260 Si02
#       8
#     2   2   2   2   2   2   2   2
#     4  10  21  36  59  87 115 153 201 247 300 356
#     4  10  22  39  60  87 123 163 199 245 303 359
#     4  12  24  38  59  90 127 163 198 243 300 363
#     4  10  23  41  62  89 123 160 204 248 292 358
#     4   9  19  37  62  87 115 153 199 253 303 349
#     4  10  21  39  63  88 113 154 206 253 297 347
#     4   9  19  39  59  81 115 153 198 252 298 350
#     4  10  22  38  58  86 120 157 200 247 301 359
#
# _framework density 23.291834000000001
#
# number of rings (size 3 to 8) (size 9 to 14) (size 15 to 20)
#    0.000    2.000    0.000    2.625    0.000    9.000 
#    0.000    6.250    0.000    0.000    0.000    0.000 
#    0.000    0.000    0.000    0.000    0.000    0.000 
#
# Total GULP energy -89300.652045 kJ/mol
# GULP energy per Si atom -5581.290753 kJ/mol
# Density = 2.323882 g / cm^3
# Si number density = 23.291834 Si / 1000 Ang^3
#
#
#
# Elastic Constant Matrix: (Units=GPa)
#
#
# Indices 1 2 3 4 5 6 
#
# 1 97.7621 36.4056 34.9692 -28.2286 0.0708 9.7813
# 2 36.4056 66.1351 6.7217 -17.7148 -1.4854 10.8184
# 3 34.9692 6.7217 44.4007 -8.0374 -1.1159 9.9193
# 4 -28.2286 -17.7148 -8.0374 35.6288 9.7722 -5.3344
# 5 0.0708 -1.4854 -1.1159 9.7722 26.1658 -7.1998
# 6 9.7813 10.8184 9.9193 -5.3344 -7.1998 37.1147
#
#
#
# Elastic Compliance Matrix: (Units=1/GPa)
#
#
# Indices 1 2 3 4 5 6 
#
# 1 0.021164 -0.007436 -0.013799 0.011498 -0.005103 0.000941
# 2 -0.007436 0.020953 0.004732 0.005385 -0.001982 -0.005023
# 3 -0.013799 0.004732 0.033858 -0.002162 0.000637 -0.006978
# 4 0.011498 0.005385 -0.002162 0.043728 -0.016402 -0.000919
# 5 -0.005103 -0.001982 0.000637 -0.016402 0.046592 0.008433
# 6 0.000941 -0.005023 -0.006978 -0.000919 0.008433 0.031529
#
#
# Mechanical properties :
#
#
# Convention : Reuss Voigt Hill
#
# Bulk Modulus (GPa) = 23.27410 40.49899 31.88654
# Shear Modulus (GPa) = 20.39544 28.46195 24.42869
#
# Velocity S-wave (km/s) = 2.96234 3.49946 3.24205
# Velocity P-wave (km/s) = 4.65991 5.80979 5.26633
#
# Compressibility (1/GPa) = 0.04296622
#
# Stress axis : x y z
#
# Youngs Moduli (GPa) = 47.25058 47.72676 29.53547
#
# Poissons Ratio (x) = 0.35490 0.40757
# Poissons Ratio (y) = 0.35136 -0.13975
# Poissons Ratio (z) = 0.65203 -0.22583
#
# Static dielectric constant tensor:
#      x y z
#    x 1.889690 -0.041640 0.006270 
#    y -0.041640 1.917510 0.027410 
#    z 0.006270 0.027410 1.902660 
# 
# From -- ./inp_files/207187.got.cif
#   From: 2010.05.17/outbox.cif.g08.bks.cpg/sg2_104_cif.got.tgz:207187.got - 2010.06.03 11:33:40.
