data_PCOD9002151
_publ_section_title
;
Structure prediction by ZEFSAII (Michael W. Deem and Ramdas Pophale) SiO2 
 PCOD9002151
Probable space group: P -1
;
_chemical_formula_sum "Si O2"
_cell_formula_units_Z 16
_cell_length_a 11.639547
_cell_length_b 9.921203
_cell_length_c 9.187991
_cell_angle_alpha 138.351571
_cell_angle_beta 81.257879
_cell_angle_gamma 94.809315
_cell_volume 696.199273
_symmetry_space_group_name_H-M "P -1"
_symmetry_group_IT_number 2
_symmetry_cell_setting 'triclinic'
loop_
_space_group_symop_operation_xyz
x,y,z
-x,-y,-z
loop_
_atom_site_type_symbol
_atom_site_label
_atom_site_fract_x
_atom_site_fract_y
_atom_site_fract_z
Si Si1 0.505982 0.824492 0.182504
Si Si2 0.120657 0.883881 0.141495
Si Si3 0.163435 0.608388 0.680047
Si Si4 0.100606 0.241597 0.213794
Si Si5 0.857354 0.882646 0.219571
Si Si6 0.294897 0.130134 0.498995
Si Si7 0.324326 0.824078 0.621066
Si Si8 0.539036 0.571799 0.259122
O O1 0.555204 0.675911 0.180628
O O2 0.401528 0.967641 0.383661
O O3 0.599907 0.974724 0.222071
O O4 0.457134 0.668919 0.949201
O O5 0.108119 0.024301 0.113385
O O6 0.212493 0.996106 0.310079
O O7 0.992294 0.890192 0.239227
O O8 0.154136 0.658547 0.894020
O O9 0.169371 0.389046 0.425514
O O10 0.270045 0.733782 0.702603
O O11 0.034894 0.686455 0.709859
O O12 0.145811 0.224495 0.025037
O O13 0.785187 0.790371 0.288626
O O14 0.789946 0.102592 0.389792
O O15 0.363612 0.320381 0.577355
O O16 0.411433 0.653201 0.398961
#
# Coordination Sequence:
#
# PCOD9002151 Si02
#       8
#     2   2   2   2   2   2   2   2
#     4  10  21  37  58  83 117 155 202 244 288 342
#     4  11  22  38  59  88 128 158 184 236 303 358
#     4  10  21  37  61  86 116 158 203 239 282 345
#     4  10  21  37  61  87 118 157 203 238 280 349
#     4  11  19  38  61  92 117 153 198 237 289 351
#     4  11  22  39  59  88 127 154 188 242 299 356
#     4  11  18  34  62  87 111 142 203 251 280 334
#     4  10  21  36  58  85 112 160 201 242 290 339
#
# _framework density 22.981926999999999
#
# number of rings (size 3 to 8) (size 9 to 14) (size 15 to 20)
#    0.000    1.500    5.000    1.875    1.750    1.000 
#    0.000    2.500    0.000    9.000    0.000    0.000 
#    0.000    0.000    0.000    0.000    0.000    0.000 
#
# Total GULP energy -89254.340725 kJ/mol
# GULP energy per Si atom -5578.396295 kJ/mol
# Density = 2.292962 g / cm^3
# Si number density = 22.981927 Si / 1000 Ang^3
#
#
#
# Elastic Constant Matrix: (Units=GPa)
#
#
# Indices 1 2 3 4 5 6 
#
# 1 116.0861 23.0652 51.4449 -0.5972 6.7545 29.5829
# 2 23.0652 45.6024 24.7196 11.8765 -7.5601 20.3762
# 3 51.4449 24.7196 116.4741 19.3290 2.7191 23.1357
# 4 -0.5972 11.8765 19.3290 29.2202 3.2469 0.6718
# 5 6.7545 -7.5601 2.7191 3.2469 36.5005 -4.5056
# 6 29.5829 20.3762 23.1357 0.6718 -4.5056 32.1068
#
#
#
# Elastic Compliance Matrix: (Units=1/GPa)
#
#
# Indices 1 2 3 4 5 6 
#
# 1 0.013498 -0.002753 -0.004496 0.005021 -0.004185 -0.008142
# 2 -0.002753 0.037545 -0.000479 -0.015356 0.007268 -0.019604
# 3 -0.004496 -0.000479 0.013014 -0.008387 -0.000079 -0.004766
# 4 0.005021 -0.015356 -0.008387 0.046623 -0.006487 0.009277
# 5 -0.004185 0.007268 -0.000079 -0.006487 0.030722 0.003748
# 6 -0.008142 -0.019604 -0.004766 0.009277 0.003748 0.054856
#
#
# Mechanical properties :
#
#
# Convention : Reuss Voigt Hill
#
# Bulk Modulus (GPa) = 20.57656 52.95801 36.76728
# Shear Modulus (GPa) = 21.93811 31.49436 26.71624
#
# Velocity S-wave (km/s) = 3.09298 3.70590 3.41323
# Velocity P-wave (km/s) = 4.66135 6.43467 5.61841
#
# Compressibility (1/GPa) = 0.04859899
#
# Stress axis : x y z
#
# Youngs Moduli (GPa) = 74.08500 26.63488 76.84326
#
# Poissons Ratio (x) = 0.07334 0.34547
# Poissons Ratio (y) = 0.20399 0.03684
# Poissons Ratio (z) = 0.33307 0.01277
#
# Static dielectric constant tensor:
#      x y z
#    x 1.899580 -0.040930 0.051230 
#    y -0.040930 1.886200 -0.009120 
#    z 0.051230 -0.009120 1.947710 
# 
# From -- ./inp_files/260977.got.cif
#   From: 2010.05.17/outbox.cif.g08.bks.cpg/sg2_131_cif.got.tgz:260977.got - 2010.06.03 11:33:40.
