data_PCOD9002374
_publ_section_title
;
Structure prediction by ZEFSAII (Michael W. Deem and Ramdas Pophale) SiO2 
 PCOD9002374
Probable space group: P -1
;
_chemical_formula_sum "Si O2"
_cell_formula_units_Z 16
_cell_length_a 11.960879
_cell_length_b 8.149684
_cell_length_c 7.551379
_cell_angle_alpha 55.962412
_cell_angle_beta 93.424443
_cell_angle_gamma 74.658068
_cell_volume 567.997668
_symmetry_space_group_name_H-M "P -1"
_symmetry_group_IT_number 2
_symmetry_cell_setting 'triclinic'
loop_
_space_group_symop_operation_xyz
x,y,z
-x,-y,-z
loop_
_atom_site_type_symbol
_atom_site_label
_atom_site_fract_x
_atom_site_fract_y
_atom_site_fract_z
Si Si1 0.620941 0.193121 0.585030
Si Si2 0.685588 0.884540 0.475735
Si Si3 0.707270 0.722309 0.207697
Si Si4 0.516995 0.335102 0.859493
Si Si5 0.054626 0.121082 0.572009
Si Si6 0.266058 0.573803 0.062337
Si Si7 0.842426 0.256175 0.689120
Si Si8 0.090422 0.479337 0.860715
O O1 0.582100 0.187448 0.788454
O O2 0.545202 0.430673 0.372130
O O3 0.761635 0.149229 0.642752
O O4 0.607680 0.049611 0.511678
O O5 0.644878 0.870699 0.278512
O O6 0.805810 0.934593 0.411617
O O7 0.707010 0.660023 0.710299
O O8 0.599790 0.718322 0.071901
O O9 0.779698 0.497666 0.454261
O O10 0.817207 0.733530 0.091816
O O11 0.616517 0.362634 0.983750
O O12 0.981140 0.130942 0.738125
O O13 0.001388 0.373395 0.375339
O O14 0.000000 0.000000 0.500000
O O15 0.188270 0.723234 0.120073
O O16 0.183292 0.586834 0.878158
O O17 0.000000 0.500000 0.000000
#
# Coordination Sequence:
#
# PCOD9002374 Si02
#       8
#     2   2   2   2   2   2   2   2
#     4   9  16  32  58  88 118 145 201 250 287 346
#     4  11  20  32  61  94 118 155 201 249 301 341
#     4   9  21  35  58  87 115 158 203 240 287 357
#     4   9  19  37  58  86 120 156 198 245 295 360
#     4  11  21  36  60  88 123 159 198 251 291 357
#     4  10  21  36  60  88 116 164 195 243 306 349
#     4   8  17  33  55  83 116 153 199 235 289 353
#     4  11  23  40  60  88 124 159 200 244 300 364
#
# _framework density 28.169129999999999
#
# number of rings (size 3 to 8) (size 9 to 14) (size 15 to 20)
#    0.000    2.250    2.500    2.250    1.750    4.000 
#    0.000    0.625    5.500    1.500    0.000    0.000 
#    0.000    0.000    0.000    0.000    0.000    0.000 
#
# Total GULP energy -89461.335577 kJ/mol
# GULP energy per Si atom -5591.333474 kJ/mol
# Density = 2.810502 g / cm^3
# Si number density = 28.169130 Si / 1000 Ang^3
#
#
#
# Elastic Constant Matrix: (Units=GPa)
#
#
# Indices 1 2 3 4 5 6 
#
# 1 153.9378 41.5562 18.9751 6.5977 21.0545 -4.8638
# 2 41.5562 137.3472 30.6476 19.7302 -3.3256 -16.2405
# 3 18.9751 30.6476 88.2931 1.3733 1.3024 -6.6604
# 4 6.5977 19.7302 1.3733 43.3178 0.5488 -3.7960
# 5 21.0545 -3.3256 1.3024 0.5488 37.6703 16.7506
# 6 -4.8638 -16.2405 -6.6604 -3.7960 16.7506 40.8823
#
#
#
# Elastic Compliance Matrix: (Units=1/GPa)
#
#
# Indices 1 2 3 4 5 6 
#
# 1 0.008007 -0.002132 -0.000723 0.000049 -0.005669 0.002315
# 2 -0.002132 0.009314 -0.002569 -0.003658 0.001174 0.002207
# 3 -0.000723 -0.002569 0.012474 0.001017 -0.000883 0.001382
# 4 0.000049 -0.003658 0.001017 0.024873 -0.001473 0.001632
# 5 -0.005669 0.001174 -0.000883 -0.001473 0.036790 -0.015563
# 6 0.002315 0.002207 0.001382 0.001632 -0.015563 0.032366
#
#
# Mechanical properties :
#
#
# Convention : Reuss Voigt Hill
#
# Bulk Modulus (GPa) = 52.77700 62.43732 57.60716
# Shear Modulus (GPa) = 35.46395 43.60068 39.53232
#
# Velocity S-wave (km/s) = 3.55204 3.93850 3.75025
# Velocity P-wave (km/s) = 5.96650 6.54948 6.26477
#
# Compressibility (1/GPa) = 0.01894765
#
# Stress axis : x y z
#
# Youngs Moduli (GPa) = 124.88840 107.36717 80.16365
#
# Poissons Ratio (x) = 0.22889 0.05799
# Poissons Ratio (y) = 0.26624 0.20592
# Poissons Ratio (z) = 0.09034 0.27580
#
# Static dielectric constant tensor:
#      x y z
#    x 2.232260 0.021660 -0.081150 
#    y 0.021660 2.253710 -0.040920 
#    z -0.081150 -0.040920 2.193270 
# 
# From -- ./inp_files/240258.got.cif
#   From: 2010.05.17/outbox.cif.g08.bks.cpg/sg2_121_cif.got.tgz:240258.got - 2010.06.03 11:33:40.
