data_PCOD9002044
_publ_section_title
;
Structure prediction by ZEFSAII (Michael W. Deem and Ramdas Pophale) SiO2 
 PCOD9002044
Probable space group: P -1
;
_chemical_formula_sum "Si O2"
_cell_formula_units_Z 16
_cell_length_a 14.328283
_cell_length_b 11.635479
_cell_length_c 9.728693
_cell_angle_alpha 102.986943
_cell_angle_beta 30.641866
_cell_angle_gamma 114.861269
_cell_volume 716.378512
_symmetry_space_group_name_H-M "P -1"
_symmetry_group_IT_number 2
_symmetry_cell_setting 'triclinic'
loop_
_space_group_symop_operation_xyz
x,y,z
-x,-y,-z
loop_
_atom_site_type_symbol
_atom_site_label
_atom_site_fract_x
_atom_site_fract_y
_atom_site_fract_z
Si Si1 0.563732 0.731687 0.740749
Si Si2 0.500099 0.335745 0.900179
Si Si3 0.943366 0.561576 0.452627
Si Si4 0.262501 0.518059 0.863062
Si Si5 0.239394 0.074893 0.697125
Si Si6 0.603821 0.673040 0.266745
Si Si7 0.576922 0.086239 0.713103
Si Si8 0.237356 0.847243 0.219941
O O1 0.439498 0.598998 0.774693
O O2 0.724473 0.837786 0.463950
O O3 0.620193 0.709654 0.815672
O O4 0.397678 0.786131 0.988751
O O5 0.384062 0.343336 0.914441
O O6 0.577017 0.226007 0.732164
O O7 0.702591 0.473037 0.709155
O O8 0.028755 0.719286 0.409306
O O9 0.000000 0.500000 0.500000
O O10 0.069198 0.538329 0.160250
O O11 0.374966 0.582410 0.595316
O O12 0.239638 0.371507 0.868492
O O13 0.340475 0.179155 0.719388
O O14 0.347095 0.979814 0.517897
O O15 0.000000 0.000000 0.000000
O O16 0.735411 0.106342 0.644537
O O17 0.345842 0.978668 0.024539
#
# Coordination Sequence:
#
# PCOD9002044 Si02
#       8
#     2   2   2   2   2   2   2   2
#     4   8  16  35  57  81 111 143 189 235 281 334
#     4  11  21  35  61  92 113 139 195 255 287 322
#     4  11  18  33  61  92 111 142 199 240 274 344
#     4   9  19  39  59  76 115 159 185 222 293 360
#     4  10  21  36  57  79 112 163 199 215 271 367
#     4  10  23  38  57  83 117 154 187 234 297 340
#     4   9  17  32  56  79 114 149 187 229 288 325
#     4   8  15  30  55  86 107 145 188 231 277 341
#
# _framework density 22.334561999999998
#
# number of rings (size 3 to 8) (size 9 to 14) (size 15 to 20)
#    0.000    2.500    3.750    1.500    1.750    1.500 
#    0.000    0.625    8.250    0.000    0.000    0.000 
#    0.000    0.000    0.000    0.000    0.000    0.000 
#
# Total GULP energy -89303.436605 kJ/mol
# GULP energy per Si atom -5581.464788 kJ/mol
# Density = 2.228373 g / cm^3
# Si number density = 22.334562 Si / 1000 Ang^3
#
#
#
# Elastic Constant Matrix: (Units=GPa)
#
#
# Indices 1 2 3 4 5 6 
#
# 1 50.9310 10.2459 33.9035 -8.1114 11.0559 10.2474
# 2 10.2459 118.0953 7.3689 -8.9278 -6.2929 15.9222
# 3 33.9035 7.3689 90.0261 -10.9365 9.2229 11.2754
# 4 -8.1114 -8.9278 -10.9365 31.2598 6.9007 2.9621
# 5 11.0559 -6.2929 9.2229 6.9007 24.9960 3.4098
# 6 10.2474 15.9222 11.2754 2.9621 3.4098 23.8029
#
#
#
# Elastic Compliance Matrix: (Units=1/GPa)
#
#
# Indices 1 2 3 4 5 6 
#
# 1 0.030923 -0.001120 -0.008330 0.008204 -0.012072 -0.007910
# 2 -0.001120 0.009860 0.000532 0.002725 0.003002 -0.007134
# 3 -0.008330 0.000532 0.015535 0.004395 -0.002539 -0.004312
# 4 0.008204 0.002725 0.004395 0.040590 -0.014347 -0.010432
# 5 -0.012072 0.003002 -0.002539 -0.014347 0.051157 -0.001151
# 6 -0.007910 -0.007134 -0.004312 -0.010432 -0.001151 0.053695
#
#
# Mechanical properties :
#
#
# Convention : Reuss Voigt Hill
#
# Bulk Modulus (GPa) = 25.98608 40.23210 33.10909
# Shear Modulus (GPa) = 21.51250 29.84735 25.67993
#
# Velocity S-wave (km/s) = 3.10690 3.65961 3.39453
# Velocity P-wave (km/s) = 4.95284 5.99245 5.49728
#
# Compressibility (1/GPa) = 0.03848214
#
# Stress axis : x y z
#
# Youngs Moduli (GPa) = 32.33811 101.42468 64.36924
#
# Poissons Ratio (x) = 0.11357 0.53619
# Poissons Ratio (y) = 0.03621 -0.03422
# Poissons Ratio (z) = 0.26937 -0.05392
#
# Static dielectric constant tensor:
#      x y z
#    x 1.858940 -0.005940 0.029500 
#    y -0.005940 1.914270 -0.026320 
#    z 0.029500 -0.026320 1.856840 
# 
# From -- ./inp_files/305306.got.cif
#   From: 2010.05.17/outbox.cif.g08.bks.cpg/sg2_153_cif.got.tgz:305306.got - 2010.06.03 11:33:40.
