data_PCOD9002508
_publ_section_title
;
Structure prediction by ZEFSAII (Michael W. Deem and Ramdas Pophale) SiO2 
 PCOD9002508
Probable space group: P -1
;
_chemical_formula_sum "Si O2"
_cell_formula_units_Z 12
_cell_length_a 6.957377
_cell_length_b 13.556855
_cell_length_c 14.504447
_cell_angle_alpha 146.094992
_cell_angle_beta 122.711145
_cell_angle_gamma 44.542854
_cell_volume 530.700668
_symmetry_space_group_name_H-M "P -1"
_symmetry_group_IT_number 2
_symmetry_cell_setting 'triclinic'
loop_
_space_group_symop_operation_xyz
x,y,z
-x,-y,-z
loop_
_atom_site_type_symbol
_atom_site_label
_atom_site_fract_x
_atom_site_fract_y
_atom_site_fract_z
Si Si1 0.363041 0.175465 0.209951
Si Si2 0.672935 0.349814 0.711416
Si Si3 0.626411 0.858945 0.514329
Si Si4 0.201912 0.600840 0.549962
Si Si5 0.421954 0.770110 0.877461
Si Si6 0.795139 0.004000 0.334641
O O1 0.200946 0.388330 0.394305
O O2 0.377355 0.240908 0.160114
O O3 0.671753 0.048000 0.235418
O O4 0.276559 0.010231 0.061156
O O5 0.414501 0.335712 0.656734
O O6 0.591194 0.584635 0.852252
O O7 0.909187 0.211561 0.740263
O O8 0.792035 0.202272 0.534034
O O9 0.937711 0.767806 0.550805
O O10 0.500000 0.000000 0.500000
O O11 0.427716 0.993307 0.653376
O O12 0.500000 0.500000 0.500000
O O13 0.230988 0.708445 0.730463
#
# Coordination Sequence:
#
# PCOD9002508 Si02
#       6
#     2   2   2   2   2   2
#     4  10  21  36  61  91 120 159 203 243 300 361
#     4   9  20  36  61  90 119 157 199 246 299 356
#     4  10  22  36  63  95 118 161 207 238 303 369
#     4  10  21  36  65  86 116 161 198 250 295 351
#     4  10  21  36  61  91 120 159 203 243 300 361
#     4   9  20  36  61  90 119 157 199 246 299 356
#
# _framework density 22.611616999999999
#
# number of rings (size 3 to 8) (size 9 to 14) (size 15 to 20)
#    1.000    1.333    1.667    0.000    9.333    3.333 
#    0.000    3.333    0.000    2.000    0.000    0.000 
#    0.000    0.000    0.000    0.000    0.000    0.000 
#
# Total GULP energy -66945.540964 kJ/mol
# GULP energy per Si atom -5578.795080 kJ/mol
# Density = 2.256015 g / cm^3
# Si number density = 22.611617 Si / 1000 Ang^3
#
#
#
# Elastic Constant Matrix: (Units=GPa)
#
#
# Indices 1 2 3 4 5 6 
#
# 1 61.6167 14.8017 14.5596 11.0227 4.0121 -15.4090
# 2 14.8017 113.4950 19.6203 8.2403 14.1825 -14.0277
# 3 14.5596 19.6203 149.8374 23.7869 19.1445 1.1177
# 4 11.0227 8.2403 23.7869 29.0619 8.3271 12.7567
# 5 4.0121 14.1825 19.1445 8.3271 24.9466 2.7335
# 6 -15.4090 -14.0277 1.1177 12.7567 2.7335 36.5706
#
#
#
# Elastic Compliance Matrix: (Units=1/GPa)
#
#
# Indices 1 2 3 4 5 6 
#
# 1 0.022628 -0.000006 0.000129 -0.015101 -0.000319 0.014820
# 2 -0.000006 0.010480 -0.000132 -0.003910 -0.005183 0.005773
# 3 0.000129 -0.000132 0.008259 -0.006563 -0.004353 0.002366
# 4 -0.015101 -0.003910 -0.006563 0.061311 -0.007657 -0.028476
# 5 -0.000319 -0.005183 -0.004353 -0.007657 0.049309 -0.003004
# 6 0.014820 0.005773 0.002366 -0.028476 -0.003004 0.045888
#
#
# Mechanical properties :
#
#
# Convention : Reuss Voigt Hill
#
# Bulk Modulus (GPa) = 24.18327 46.99027 35.58677
# Shear Modulus (GPa) = 23.62117 36.51367 30.06742
#
# Velocity S-wave (km/s) = 3.23561 4.02284 3.65051
# Velocity P-wave (km/s) = 4.96761 6.51185 5.79143
#
# Compressibility (1/GPa) = 0.04135090
#
# Stress axis : x y z
#
# Youngs Moduli (GPa) = 44.19231 95.42383 121.08075
#
# Poissons Ratio (x) = 0.00054 -0.01567
# Poissons Ratio (y) = 0.00025 0.01595
# Poissons Ratio (z) = -0.00572 0.01257
#
# Static dielectric constant tensor:
#      x y z
#    x 1.901230 0.025120 0.033640 
#    y 0.025120 1.832600 0.008970 
#    z 0.033640 0.008970 1.896000 
# 
# From -- ./inp_files/560596.got.cif
#   From: 2010.05.17/outbox.cif.g08.bks.cpg/sg2_281_cif.got.tgz:560596.got - 2010.06.03 11:33:40.
