data_PCOD9002204
_publ_section_title
;
Structure prediction by ZEFSAII (Michael W. Deem and Ramdas Pophale) SiO2 
 PCOD9002204
Probable space group: P -1
;
_chemical_formula_sum "Si O2"
_cell_formula_units_Z 16
_cell_length_a 13.823404
_cell_length_b 14.449998
_cell_length_c 10.524642
_cell_angle_alpha 129.410949
_cell_angle_beta 150.606140
_cell_angle_gamma 60.316429
_cell_volume 787.836655
_symmetry_space_group_name_H-M "P -1"
_symmetry_group_IT_number 2
_symmetry_cell_setting 'triclinic'
loop_
_space_group_symop_operation_xyz
x,y,z
-x,-y,-z
loop_
_atom_site_type_symbol
_atom_site_label
_atom_site_fract_x
_atom_site_fract_y
_atom_site_fract_z
Si Si1 0.913803 0.877099 0.636460
Si Si2 0.304267 0.971115 0.664331
Si Si3 0.906165 0.647792 0.288891
Si Si4 0.071486 0.448436 0.170821
Si Si5 0.522240 0.482311 0.660552
Si Si6 0.948119 0.788830 0.195566
Si Si7 0.306113 0.064229 0.309563
Si Si8 0.522541 0.792553 0.606148
O O1 0.959907 0.742524 0.545028
O O2 0.789023 0.887571 0.630945
O O3 0.776211 0.918448 0.402234
O O4 0.121468 0.969832 0.959061
O O5 0.371560 0.881155 0.555628
O O6 0.118853 0.902076 0.471959
O O7 0.500000 0.000000 0.000000
O O8 0.963517 0.723172 0.290507
O O9 0.992898 0.522633 0.259292
O O10 0.672768 0.595772 0.980404
O O11 0.307880 0.477573 0.471591
O O12 0.019565 0.305166 0.963209
O O13 0.000000 0.500000 0.000000
O O14 0.500000 0.500000 0.500000
O O15 0.576090 0.347703 0.623409
O O16 0.719400 0.809467 0.936704
O O17 0.384616 0.168517 0.390086
O O18 0.500000 0.000000 0.500000
#
# Coordination Sequence:
#
# PCOD9002204 Si02
#       8
#     2   2   2   2   2   2   2   2
#     4  11  26  42  64  94 126 167 224 268 314 382
#     4  12  25  35  61 101 132 164 204 260 335 392
#     4  11  22  37  60  93 136 162 198 263 319 385
#     4   9  18  32  55  83 122 172 196 238 305 384
#     4  11  20  36  61  95 128 167 208 247 321 395
#     4  10  21  36  58  91 136 164 202 252 318 389
#     4  11  24  48  68  85 119 178 229 269 312 362
#     4  11  22  40  65  89 126 168 216 262 309 379
#
# _framework density 20.308776999999999
#
# number of rings (size 3 to 8) (size 9 to 14) (size 15 to 20)
#    0.000    1.250    6.250    1.500    3.500    2.000 
#    0.000    0.625    0.000    3.750    0.000    0.000 
#    0.000    0.000    0.000    0.000    0.000    0.000 
#
# Total GULP energy -89297.528451 kJ/mol
# GULP energy per Si atom -5581.095528 kJ/mol
# Density = 2.026255 g / cm^3
# Si number density = 20.308777 Si / 1000 Ang^3
#
#
#
# Elastic Constant Matrix: (Units=GPa)
#
#
# Indices 1 2 3 4 5 6 
#
# 1 72.8249 22.7458 31.7768 17.2696 6.0644 -5.5020
# 2 22.7458 62.6727 8.8002 10.3584 -7.2611 -19.0598
# 3 31.7768 8.8002 78.7693 18.1228 3.2288 -4.1248
# 4 17.2696 10.3584 18.1228 33.5000 -1.3270 2.5826
# 5 6.0644 -7.2611 3.2288 -1.3270 25.9328 5.7929
# 6 -5.5020 -19.0598 -4.1248 2.5826 5.7929 40.1054
#
#
#
# Elastic Compliance Matrix: (Units=1/GPa)
#
#
# Indices 1 2 3 4 5 6 
#
# 1 0.020048 -0.006088 -0.005854 -0.005563 -0.006058 0.000488
# 2 -0.006088 0.022276 0.001415 -0.005044 0.005108 0.009484
# 3 -0.005854 0.001415 0.016576 -0.006598 -0.001119 0.002161
# 4 -0.005563 -0.005044 -0.006598 0.038550 0.004231 -0.006933
# 5 -0.006058 0.005108 -0.001119 0.004231 0.042877 -0.004984
# 6 0.000488 0.009484 0.002161 -0.006933 -0.004984 0.030897
#
#
# Mechanical properties :
#
#
# Convention : Reuss Voigt Hill
#
# Bulk Modulus (GPa) = 26.42227 37.87916 32.15072
# Shear Modulus (GPa) = 24.40303 29.97060 27.18682
#
# Velocity S-wave (km/s) = 3.47017 3.84571 3.66276
# Velocity P-wave (km/s) = 5.39394 6.19770 5.80974
#
# Compressibility (1/GPa) = 0.03784686
#
# Stress axis : x y z
#
# Youngs Moduli (GPa) = 49.88069 44.89063 60.32934
#
# Poissons Ratio (x) = 0.27329 0.35314
# Poissons Ratio (y) = 0.30367 -0.08536
# Poissons Ratio (z) = 0.29198 -0.06352
#
# Static dielectric constant tensor:
#      x y z
#    x 1.730630 -0.045410 -0.029870 
#    y -0.045410 1.755970 -0.006520 
#    z -0.029870 -0.006520 1.718840 
# 
# From -- ./inp_files/453864.got.cif
#   From: 2010.05.17/outbox.cif.g08.bks.cpg/sg2_227_cif.got.tgz:453864.got - 2010.06.03 11:33:40.
