data_PCOD9002898
_publ_section_title
;
Structure prediction by ZEFSAII (Michael W. Deem and Ramdas Pophale) SiO2 
 PCOD9002898
Probable space group: P -1
;
_chemical_formula_sum "Si O2"
_cell_formula_units_Z 16
_cell_length_a 11.818772
_cell_length_b 17.384354
_cell_length_c 8.395617
_cell_angle_alpha 54.362308
_cell_angle_beta 83.105230
_cell_angle_gamma 129.903946
_cell_volume 656.472659
_symmetry_space_group_name_H-M "P -1"
_symmetry_group_IT_number 2
_symmetry_cell_setting 'triclinic'
loop_
_space_group_symop_operation_xyz
x,y,z
-x,-y,-z
loop_
_atom_site_type_symbol
_atom_site_label
_atom_site_fract_x
_atom_site_fract_y
_atom_site_fract_z
Si Si1 0.422087 0.933412 0.777360
Si Si2 0.229548 0.304009 0.455101
Si Si3 0.769924 0.872908 0.875744
Si Si4 0.126600 0.858455 0.075841
Si Si5 0.456308 0.786763 0.168388
Si Si6 0.027433 0.879550 0.757953
Si Si7 0.766373 0.352395 0.318756
Si Si8 0.660754 0.488835 0.116028
O O1 0.606257 0.141908 0.575363
O O2 0.500000 0.000000 0.500000
O O3 0.171294 0.790587 0.065673
O O4 0.448727 0.848129 0.942878
O O5 0.428019 0.369091 0.378464
O O6 0.002607 0.081248 0.684527
O O7 0.126936 0.292584 0.628503
O O8 0.323228 0.447539 0.134581
O O9 0.803427 0.945132 0.609831
O O10 0.810025 0.792185 0.941259
O O11 0.531267 0.736916 0.163185
O O12 0.165766 0.956112 0.801669
O O13 0.316378 0.012093 0.002378
O O14 0.229147 0.630815 0.511457
O O15 0.902737 0.698188 0.916244
O O16 0.665127 0.379231 0.243143
O O17 0.000000 0.500000 0.000000
#
# Coordination Sequence:
#
# PCOD9002898 Si02
#       8
#     2   2   2   2   2   2   2   2
#     4  11  25  46  70  94 123 170 225 269 311 379
#     4   9  21  39  63  88 126 176 204 264 312 393
#     4   9  20  38  66  89 126 167 221 258 309 375
#     4  10  21  36  69  90 120 164 218 261 311 371
#     4  10  23  44  67  94 127 169 221 262 316 385
#     4  10  21  37  63  96 127 163 210 267 316 374
#     4  11  26  41  68  92 130 174 208 264 329 384
#     4  10  23  42  59  91 137 165 207 251 341 374
#
# _framework density 24.372682000000001
#
# number of rings (size 3 to 8) (size 9 to 14) (size 15 to 20)
#    0.000    2.000    0.000    2.250   14.000    1.500 
#    4.500    0.625    0.000    0.000    0.000    0.000 
#    0.000    0.000    0.000    0.000    0.000    0.000 
#
# Total GULP energy -89396.855622 kJ/mol
# GULP energy per Si atom -5587.303476 kJ/mol
# Density = 2.431721 g / cm^3
# Si number density = 24.372682 Si / 1000 Ang^3
#
#
#
# Elastic Constant Matrix: (Units=GPa)
#
#
# Indices 1 2 3 4 5 6 
#
# 1 114.8632 18.4283 36.2631 18.7666 -10.0730 -9.6231
# 2 18.4283 56.8114 27.0156 12.4333 -5.9115 -4.9047
# 3 36.2631 27.0156 63.6793 14.5426 -15.6464 -3.9743
# 4 18.7666 12.4333 14.5426 41.2064 -11.1681 3.7475
# 5 -10.0730 -5.9115 -15.6464 -11.1681 42.9829 18.8184
# 6 -9.6231 -4.9047 -3.9743 3.7475 18.8184 33.1067
#
#
#
# Elastic Compliance Matrix: (Units=1/GPa)
#
#
# Indices 1 2 3 4 5 6 
#
# 1 0.011409 0.000190 -0.005951 -0.004269 -0.002581 0.004580
# 2 0.000190 0.023189 -0.009352 -0.005272 -0.003779 0.005113
# 3 -0.005951 -0.009352 0.024943 -0.000570 0.008355 -0.004805
# 4 -0.004269 -0.005272 -0.000570 0.032397 0.011989 -0.012572
# 5 -0.002581 -0.003779 0.008355 0.011989 0.038642 -0.023629
# 6 0.004580 0.005113 -0.004805 -0.012572 -0.023629 0.046571
#
#
# Mechanical properties :
#
#
# Convention : Reuss Voigt Hill
#
# Bulk Modulus (GPa) = 34.11030 44.30753 39.20891
# Shear Modulus (GPa) = 23.02566 33.70233 28.36399
#
# Velocity S-wave (km/s) = 3.07698 3.72262 3.41510
# Velocity P-wave (km/s) = 5.16231 6.05771 5.62785
#
# Compressibility (1/GPa) = 0.02931666
#
# Stress axis : x y z
#
# Youngs Moduli (GPa) = 87.64824 43.12302 40.09139
#
# Poissons Ratio (x) = -0.00821 0.23859
# Poissons Ratio (y) = -0.01668 0.37492
# Poissons Ratio (z) = 0.52161 0.40327
#
# Static dielectric constant tensor:
#      x y z
#    x 2.013160 0.011530 0.006030 
#    y 0.011530 1.962080 -0.053180 
#    z 0.006030 -0.053180 2.139710 
# 
# From -- ./inp_files/277462.got.cif
#   From: 2010.05.17/outbox.cif.g08.bks.cpg/sg2_139_cif.got.tgz:277462.got - 2010.06.03 11:33:40.
