data_PCOD9002203
_publ_section_title
;
Structure prediction by ZEFSAII (Michael W. Deem and Ramdas Pophale) SiO2 
 PCOD9002203
Probable space group: P -1
;
_chemical_formula_sum "Si O2"
_cell_formula_units_Z 16
_cell_length_a 10.505154
_cell_length_b 10.041352
_cell_length_c 9.502113
_cell_angle_alpha 74.863134
_cell_angle_beta 118.743558
_cell_angle_gamma 132.893643
_cell_volume 640.421436
_symmetry_space_group_name_H-M "P -1"
_symmetry_group_IT_number 2
_symmetry_cell_setting 'triclinic'
loop_
_space_group_symop_operation_xyz
x,y,z
-x,-y,-z
loop_
_atom_site_type_symbol
_atom_site_label
_atom_site_fract_x
_atom_site_fract_y
_atom_site_fract_z
Si Si1 0.380961 0.318498 0.831852
Si Si2 0.572715 0.760444 0.512852
Si Si3 0.284927 0.443766 0.292516
Si Si4 0.689809 0.436054 0.180269
Si Si5 0.134229 0.705632 0.567209
Si Si6 0.009391 0.651559 0.044906
Si Si7 0.146945 0.976677 0.638576
Si Si8 0.311740 0.945641 0.334748
O O1 0.548027 0.428883 0.771689
O O2 0.285013 0.410728 0.753277
O O3 0.233713 0.102417 0.786397
O O4 0.488756 0.346561 0.024088
O O5 0.347770 0.598176 0.400200
O O6 0.674408 0.676324 0.581606
O O7 0.667865 0.910602 0.399413
O O8 0.638092 0.862535 0.668905
O O9 0.089439 0.315300 0.136062
O O10 0.692358 0.282665 0.285884
O O11 0.856332 0.543283 0.120606
O O12 0.158138 0.808051 0.410211
O O13 0.000000 0.500000 0.500000
O O14 0.072244 0.774321 0.636911
O O15 0.212772 0.829538 0.170787
O O16 0.000000 0.500000 0.000000
O O17 0.000000 0.000000 0.500000
O O18 0.500000 0.000000 0.500000
#
# Coordination Sequence:
#
# PCOD9002203 Si02
#       8
#     2   2   2   2   2   2   2   2
#     4   9  20  38  64  91 124 162 198 272 311 371
#     4   9  20  38  59  91 120 161 200 258 303 373
#     4   9  19  39  64  89 123 163 211 242 323 384
#     4  10  21  40  65  91 123 162 217 252 319 379
#     4  11  22  40  65  92 120 167 212 256 309 380
#     4  11  23  40  63  87 126 170 207 260 314 380
#     4  10  21  36  58  91 127 158 206 259 309 362
#     4  11  24  40  61  91 130 158 205 265 316 363
#
# _framework density 24.983546
#
# number of rings (size 3 to 8) (size 9 to 14) (size 15 to 20)
#    0.000    2.000    1.250    1.500    3.500    3.000 
#    4.500    1.250    0.000    0.000    0.000    0.000 
#    0.000    0.000    0.000    0.000    0.000    0.000 
#
# Total GULP energy -89153.854800 kJ/mol
# GULP energy per Si atom -5572.115925 kJ/mol
# Density = 2.492668 g / cm^3
# Si number density = 24.983546 Si / 1000 Ang^3
#
#
#
# Elastic Constant Matrix: (Units=GPa)
#
#
# Indices 1 2 3 4 5 6 
#
# 1 67.2882 30.1684 18.5596 21.2893 -2.3647 -18.6191
# 2 30.1684 126.7210 53.8962 46.8231 -1.1602 -37.2068
# 3 18.5596 53.8962 154.3062 41.6371 11.8941 -18.4824
# 4 21.2893 46.8231 41.6371 58.7201 0.2300 -7.0836
# 5 -2.3647 -1.1602 11.8941 0.2300 34.9392 -4.6287
# 6 -18.6191 -37.2068 -18.4824 -7.0836 -4.6287 48.5358
#
#
#
# Elastic Compliance Matrix: (Units=1/GPa)
#
#
# Indices 1 2 3 4 5 6 
#
# 1 0.018643 -0.000573 0.000041 -0.005602 0.002075 0.006108
# 2 -0.000573 0.015060 -0.001675 -0.009472 0.002356 0.009529
# 3 0.000041 -0.001675 0.008673 -0.004688 -0.002832 0.001080
# 4 -0.005602 -0.009472 -0.004688 0.029099 -0.000213 -0.006969
# 5 0.002075 0.002356 -0.002832 -0.000213 0.030387 0.004391
# 6 0.006108 0.009529 0.001080 -0.006969 0.004391 0.030064
#
#
# Mechanical properties :
#
#
# Convention : Reuss Voigt Hill
#
# Bulk Modulus (GPa) = 26.34277 61.50710 43.92493
# Shear Modulus (GPa) = 33.55838 44.81843 39.18841
#
# Velocity S-wave (km/s) = 3.66897 4.24006 3.96481
# Velocity P-wave (km/s) = 5.33998 6.97448 6.21123
#
# Compressibility (1/GPa) = 0.03796108
#
# Stress axis : x y z
#
# Youngs Moduli (GPa) = 53.64024 66.40158 115.29524
#
# Poissons Ratio (x) = 0.03807 -0.00477
# Poissons Ratio (y) = 0.03076 0.19317
# Poissons Ratio (z) = -0.00222 0.11125
#
# Static dielectric constant tensor:
#      x y z
#    x 2.120440 -0.039670 0.034250 
#    y -0.039670 2.151930 0.024930 
#    z 0.034250 0.024930 2.096200 
# 
# From -- ./inp_files/417214.got.cif
#   From: 2010.05.17/outbox.cif.g08.bks.cpg/sg2_209_cif.got.tgz:417214.got - 2010.06.03 11:33:40.
