data_PCOD9002503
_publ_section_title
;
Structure prediction by ZEFSAII (Michael W. Deem and Ramdas Pophale) SiO2 
 PCOD9002503
Probable space group: P -1
;
_chemical_formula_sum "Si O2"
_cell_formula_units_Z 14
_cell_length_a 11.244895
_cell_length_b 18.578789
_cell_length_c 5.588531
_cell_angle_alpha 117.414493
_cell_angle_beta 75.826135
_cell_angle_gamma 140.417743
_cell_volume 647.786434
_symmetry_space_group_name_H-M "P -1"
_symmetry_group_IT_number 2
_symmetry_cell_setting 'triclinic'
loop_
_space_group_symop_operation_xyz
x,y,z
-x,-y,-z
loop_
_atom_site_type_symbol
_atom_site_label
_atom_site_fract_x
_atom_site_fract_y
_atom_site_fract_z
Si Si1 0.350282 0.358831 0.759233
Si Si2 0.640841 0.981100 0.649277
Si Si3 0.087929 0.350622 0.746468
Si Si4 0.576779 0.405923 0.337170
Si Si5 0.482593 0.256171 0.765602
Si Si6 0.252540 0.884096 0.706574
Si Si7 0.134680 0.512026 0.296721
O O1 0.145304 0.297657 0.777089
O O2 0.404267 0.369631 0.471924
O O3 0.384695 0.289343 0.762098
O O4 0.500000 0.500000 0.000000
O O5 0.627403 0.877846 0.471049
O O6 0.427670 0.909896 0.673409
O O7 0.715727 0.052363 0.464874
O O8 0.744096 0.062995 0.967793
O O9 0.290696 0.485728 0.758475
O O10 0.945498 0.261301 0.465670
O O11 0.018857 0.389161 0.006527
O O12 0.725422 0.467137 0.568726
O O13 0.497348 0.281889 0.080352
O O14 0.705129 0.359484 0.737392
O O15 0.000000 0.500000 0.500000
#
# Coordination Sequence:
#
# PCOD9002503 Si02
#       7
#     2   2   2   2   2   2   2
#     4  11  20  40  58  95 128 166 209 251 328 389
#     4  10  24  46  65  91 126 170 224 263 325 375
#     4  11  23  38  62  93 127 166 214 260 322 383
#     4  10  21  36  61  90 127 166 202 262 322 394
#     4  10  23  38  64  89 125 173 206 263 324 383
#     4  10  25  43  68  91 124 174 218 271 315 381
#     4  10  23  34  58  97 131 160 204 266 329 392
#
# _framework density 21.612062999999999
#
# number of rings (size 3 to 8) (size 9 to 14) (size 15 to 20)
#    0.000    1.714    4.286    0.429   10.000    2.286 
#    0.000    1.429    0.000    0.000    0.000    0.000 
#    0.000    0.000    0.000    0.000    0.000    0.000 
#
# Total GULP energy -78070.844103 kJ/mol
# GULP energy per Si atom -5576.488864 kJ/mol
# Density = 2.156287 g / cm^3
# Si number density = 21.612063 Si / 1000 Ang^3
#
#
#
# Elastic Constant Matrix: (Units=GPa)
#
#
# Indices 1 2 3 4 5 6 
#
# 1 57.0786 15.2167 46.4973 12.0529 -9.5284 -1.1701
# 2 15.2167 26.9983 37.4621 -0.0159 -9.2059 -0.7487
# 3 46.4973 37.4621 202.2311 16.3606 -11.7791 -3.5639
# 4 12.0529 -0.0159 16.3606 31.6045 5.4661 -1.7486
# 5 -9.5284 -9.2059 -11.7791 5.4661 42.4828 1.3970
# 6 -1.1701 -0.7487 -3.5639 -1.7486 1.3970 25.7557
#
#
#
# Elastic Compliance Matrix: (Units=1/GPa)
#
#
# Indices 1 2 3 4 5 6 
#
# 1 0.024803 -0.008050 -0.003299 -0.008467 0.004005 -0.000356
# 2 -0.008050 0.055957 -0.008611 0.006332 0.007114 0.000113
# 3 -0.003299 -0.008611 0.007502 -0.002567 -0.000211 0.000475
# 4 -0.008467 0.006332 -0.002567 0.037390 -0.006126 0.002315
# 5 0.004005 0.007114 -0.000211 -0.006126 0.026758 -0.001508
# 6 -0.000356 0.000113 0.000475 0.002315 -0.001508 0.039118
#
#
# Mechanical properties :
#
#
# Convention : Reuss Voigt Hill
#
# Bulk Modulus (GPa) = 20.68619 53.85113 37.26866
# Shear Modulus (GPa) = 20.19688 32.44408 26.32048
#
# Velocity S-wave (km/s) = 3.06031 3.87874 3.49357
# Velocity P-wave (km/s) = 4.69890 6.71049 5.79269
#
# Compressibility (1/GPa) = 0.04834144
#
# Stress axis : x y z
#
# Youngs Moduli (GPa) = 40.31794 17.87078 133.29337
#
# Poissons Ratio (x) = 0.14387 0.43979
# Poissons Ratio (y) = 0.32458 1.14774
# Poissons Ratio (z) = 0.13303 0.15388
#
# Static dielectric constant tensor:
#      x y z
#    x 1.813170 -0.045940 0.007530 
#    y -0.045940 1.859340 -0.059730 
#    z 0.007530 -0.059730 1.826480 
# 
# From -- ./inp_files/63575.got.cif
#   From: 2010.05.17/outbox.cif.g08.bks.cpg/sg2_32_cif.got.tgz:63575.got - 2010.06.03 11:33:40.
