data_PCOD9002990
_publ_section_title
;
Structure prediction by ZEFSAII (Michael W. Deem and Ramdas Pophale) SiO2 
 PCOD9002990
Probable space group: P -1
;
_chemical_formula_sum "Si O2"
_cell_formula_units_Z 12
_cell_length_a 7.905727
_cell_length_b 10.674068
_cell_length_c 15.736046
_cell_angle_alpha 142.024895
_cell_angle_beta 142.248210
_cell_angle_gamma 59.336911
_cell_volume 477.102592
_symmetry_space_group_name_H-M "P -1"
_symmetry_group_IT_number 2
_symmetry_cell_setting 'triclinic'
loop_
_space_group_symop_operation_xyz
x,y,z
-x,-y,-z
loop_
_atom_site_type_symbol
_atom_site_label
_atom_site_fract_x
_atom_site_fract_y
_atom_site_fract_z
Si Si1 0.154911 0.331096 0.005069
Si Si2 0.176015 0.228283 0.651679
Si Si3 0.681807 0.101173 0.809589
Si Si4 0.681381 0.243249 0.222467
Si Si5 0.821562 0.883212 0.598660
Si Si6 0.622818 0.307055 0.431166
O O1 0.005586 0.240186 0.988157
O O2 0.046140 0.117408 0.791321
O O3 0.000000 0.500000 0.000000
O O4 0.498256 0.380524 0.177801
O O5 0.248106 0.216463 0.574049
O O6 0.935014 0.349603 0.624632
O O7 0.492325 0.261962 0.835127
O O8 0.000000 0.000000 0.500000
O O9 0.601059 0.919661 0.750701
O O10 0.601117 0.952417 0.610615
O O11 0.014100 0.246079 0.344909
O O12 0.674532 0.283459 0.340488
O O13 0.500000 0.000000 0.000000
O O14 0.500000 0.500000 0.500000
#
# Coordination Sequence:
#
# PCOD9002990 Si02
#       6
#     2   2   2   2   2   2
#     4   9  19  33  54  80 107 141 189 221 271 322
#     4   9  17  33  54  76 112 147 176 223 283 328
#     4   9  19  34  55  83 108 147 180 229 280 325
#     4   9  18  38  58  78 111 154 178 226 277 328
#     4   8  17  33  54  78 106 148 181 225 277 324
#     4  10  21  37  56  85 112 143 185 233 273 322
#
# _framework density 25.151824000000001
#
# number of rings (size 3 to 8) (size 9 to 14) (size 15 to 20)
#    1.000    2.000    0.000    0.500    0.000    3.333 
#    3.000    1.667    0.000   17.000    0.000    0.000 
#    0.000    0.000    0.000    0.000    0.000    0.000 
#
# Total GULP energy -66818.692160 kJ/mol
# GULP energy per Si atom -5568.224347 kJ/mol
# Density = 2.509458 g / cm^3
# Si number density = 25.151824 Si / 1000 Ang^3
#
#
#
# Elastic Constant Matrix: (Units=GPa)
#
#
# Indices 1 2 3 4 5 6 
#
# 1 54.3211 46.0771 13.2335 18.8330 3.5636 -13.9869
# 2 46.0771 231.0849 33.9765 -6.2156 19.2435 -37.8842
# 3 13.2335 33.9765 38.7596 4.5607 14.7680 7.1514
# 4 18.8330 -6.2156 4.5607 20.7628 -7.3871 11.6054
# 5 3.5636 19.2435 14.7680 -7.3871 24.8535 -4.7977
# 6 -13.9869 -37.8842 7.1514 11.6054 -4.7977 47.3592
#
#
#
# Elastic Compliance Matrix: (Units=1/GPa)
#
#
# Indices 1 2 3 4 5 6 
#
# 1 0.066256 -0.007864 -0.003548 -0.087671 -0.020957 0.033174
# 2 -0.007864 0.007226 -0.006368 0.010519 0.002854 0.002131
# 3 -0.003548 -0.006368 0.047459 -0.011951 -0.028882 -0.013306
# 4 -0.087671 0.010519 -0.011951 0.184062 0.055589 -0.055146
# 5 -0.020957 0.002854 -0.028882 0.055589 0.073612 -0.005710
# 6 0.033174 0.002131 -0.013306 -0.055146 -0.005710 0.047562
#
#
# Mechanical properties :
#
#
# Convention : Reuss Voigt Hill
#
# Bulk Modulus (GPa) = 11.71215 56.74886 34.23051
# Shear Modulus (GPa) = 10.19995 33.98700 22.09348
#
# Velocity S-wave (km/s) = 2.01598 3.67996 2.96700
# Velocity P-wave (km/s) = 3.17578 6.37712 5.03752
#
# Compressibility (1/GPa) = 0.08538139
#
# Stress axis : x y z
#
# Youngs Moduli (GPa) = 15.09298 138.38231 21.07071
#
# Poissons Ratio (x) = 1.08821 0.07476
# Poissons Ratio (y) = 0.11869 0.13418
# Poissons Ratio (z) = 0.05355 0.88124
#
# Static dielectric constant tensor:
#      x y z
#    x 1.991790 -0.091650 0.022760 
#    y -0.091650 2.335110 -0.006530 
#    z 0.022760 -0.006530 2.111710 
# 
# From -- ./inp_files/162422.got.cif
#   From: 2010.05.17/outbox.cif.g08.bks.cpg/sg2_82_cif.got.tgz:162422.got - 2010.06.03 11:33:40.
