data_PCOD9002130
_publ_section_title
;
Structure prediction by ZEFSAII (Michael W. Deem and Ramdas Pophale) SiO2 
 PCOD9002130
Probable space group: P -1
;
_chemical_formula_sum "Si O2"
_cell_formula_units_Z 16
_cell_length_a 14.901376
_cell_length_b 14.048321
_cell_length_c 7.717294
_cell_angle_alpha 137.596435
_cell_angle_beta 119.577933
_cell_angle_gamma 43.990830
_cell_volume 754.209544
_symmetry_space_group_name_H-M "P -1"
_symmetry_group_IT_number 2
_symmetry_cell_setting 'triclinic'
loop_
_space_group_symop_operation_xyz
x,y,z
-x,-y,-z
loop_
_atom_site_type_symbol
_atom_site_label
_atom_site_fract_x
_atom_site_fract_y
_atom_site_fract_z
Si Si1 0.396778 0.678332 0.542968
Si Si2 0.099264 0.451816 0.785313
Si Si3 0.143018 0.517124 0.313960
Si Si4 0.129932 0.843479 0.620747
Si Si5 0.390239 0.203985 0.706853
Si Si6 0.095654 0.768060 0.084507
Si Si7 0.431071 0.202210 0.153261
Si Si8 0.624403 0.479771 0.024788
O O1 0.500000 0.500000 0.500000
O O2 0.267623 0.810732 0.707767
O O3 0.469522 0.755629 0.647640
O O4 0.356320 0.605620 0.257946
O O5 0.241815 0.276751 0.634780
O O6 0.978389 0.446819 0.649953
O O7 0.120663 0.477109 0.042280
O O8 0.070864 0.621791 0.887845
O O9 0.139558 0.688647 0.524079
O O10 0.285720 0.347581 0.282489
O O11 0.103832 0.817704 0.360084
O O12 0.017762 0.041138 0.841660
O O13 0.500000 0.000000 0.500000
O O14 0.410751 0.227120 0.959397
O O15 0.404620 0.331826 0.775681
O O16 0.229536 0.665906 0.964305
O O17 0.500000 0.000000 0.000000
O O18 0.500000 0.500000 0.000000
#
# Coordination Sequence:
#
# PCOD9002130 Si02
#       8
#     2   2   2   2   2   2   2   2
#     4  11  19  37  56  78 112 143 174 226 273 311
#     4   8  16  30  49  71 104 138 170 219 262 304
#     4   9  16  30  48  75 104 133 176 219 261 312
#     4   9  16  28  51  75 102 135 172 221 265 307
#     4  10  21  38  55  80 113 143 178 223 267 316
#     4   8  16  30  47  76 103 131 176 218 261 308
#     4  11  23  35  54  84 110 142 182 219 269 323
#     4  10  21  36  58  82 108 143 180 221 269 319
#
# _framework density 21.214264
#
# number of rings (size 3 to 8) (size 9 to 14) (size 15 to 20)
#    0.000    2.500    2.500    1.500    3.500    1.000 
#    4.500    0.000    0.000    3.000    0.000    0.000 
#    0.000    0.000    0.000    0.000    0.000    0.000 
#
# Total GULP energy -89199.988438 kJ/mol
# GULP energy per Si atom -5574.999277 kJ/mol
# Density = 2.116598 g / cm^3
# Si number density = 21.214264 Si / 1000 Ang^3
#
#
#
# Elastic Constant Matrix: (Units=GPa)
#
#
# Indices 1 2 3 4 5 6 
#
# 1 149.2437 74.7365 32.0422 45.9133 11.3366 -42.0822
# 2 74.7365 129.3251 48.3013 55.1939 6.9257 -25.3204
# 3 32.0422 48.3013 58.2943 33.1803 0.4438 -13.5396
# 4 45.9133 55.1939 33.1803 54.6201 2.1021 -13.6171
# 5 11.3366 6.9257 0.4438 2.1021 26.5229 1.4455
# 6 -42.0822 -25.3204 -13.5396 -13.6171 1.4455 30.1859
#
#
#
# Elastic Compliance Matrix: (Units=1/GPa)
#
#
# Indices 1 2 3 4 5 6 
#
# 1 0.014818 -0.003089 0.001717 -0.006062 -0.005968 0.016388
# 2 -0.003089 0.016499 -0.005741 -0.009847 -0.002254 0.002624
# 3 0.001717 -0.005741 0.028985 -0.012011 0.000954 0.005115
# 4 -0.006062 -0.009847 -0.012011 0.039453 0.002477 -0.004419
# 5 -0.005968 -0.002254 0.000954 0.002477 0.041210 -0.010640
# 6 0.016388 0.002624 0.005115 -0.004419 -0.010640 0.058985
#
#
# Mechanical properties :
#
#
# Convention : Reuss Voigt Hill
#
# Bulk Modulus (GPa) = 21.70416 71.89148 46.79782
# Shear Modulus (GPa) = 21.78309 34.38465 28.08387
#
# Velocity S-wave (km/s) = 3.20787 4.03032 3.64238
# Velocity P-wave (km/s) = 4.89630 7.45787 6.30847
#
# Compressibility (1/GPa) = 0.04607412
#
# Stress axis : x y z
#
# Youngs Moduli (GPa) = 67.48612 60.61008 34.50095
#
# Poissons Ratio (x) = 0.18723 -0.05923
# Poissons Ratio (y) = 0.20847 0.19808
# Poissons Ratio (z) = -0.11586 0.34798
#
# Static dielectric constant tensor:
#      x y z
#    x 1.802700 -0.126490 -0.079840 
#    y -0.126490 1.798140 -0.084290 
#    z -0.079840 -0.084290 1.781390 
# 
# From -- ./inp_files/201435.got.cif
#   From: 2010.05.17/outbox.cif.g08.bks.cpg/sg2_101_cif.got.tgz:201435.got - 2010.06.03 11:33:40.
