data_PCOD9002423
_publ_section_title
;
Structure prediction by ZEFSAII (Michael W. Deem and Ramdas Pophale) SiO2 
 PCOD9002423
Probable space group: P -1
;
_chemical_formula_sum "Si O2"
_cell_formula_units_Z 12
_cell_length_a 6.974176
_cell_length_b 19.998467
_cell_length_c 10.771045
_cell_angle_alpha 32.091624
_cell_angle_beta 57.596204
_cell_angle_gamma 44.391014
_cell_volume 548.471545
_symmetry_space_group_name_H-M "P -1"
_symmetry_group_IT_number 2
_symmetry_cell_setting 'triclinic'
loop_
_space_group_symop_operation_xyz
x,y,z
-x,-y,-z
loop_
_atom_site_type_symbol
_atom_site_label
_atom_site_fract_x
_atom_site_fract_y
_atom_site_fract_z
Si Si1 0.206311 0.549998 0.367581
Si Si2 0.118191 0.174788 0.144240
Si Si3 0.692000 0.324299 0.257752
Si Si4 0.563323 0.827115 0.485332
Si Si5 0.827131 0.386249 0.429943
Si Si6 0.790887 0.685712 0.885174
O O1 0.535104 0.423189 0.421546
O O2 0.204361 0.591969 0.444631
O O3 0.000000 0.500000 0.500000
O O4 0.072661 0.696873 0.093226
O O5 0.278865 0.223122 0.103253
O O6 0.894926 0.192666 0.291574
O O7 0.333371 0.008484 0.274853
O O8 0.494573 0.269423 0.438331
O O9 0.932476 0.327545 0.236323
O O10 0.500000 0.500000 0.000000
O O11 0.581395 0.769529 0.712298
O O12 0.874875 0.776855 0.430975
O O13 0.848573 0.523150 0.155248
#
# Coordination Sequence:
#
# PCOD9002423 Si02
#       6
#     2   2   2   2   2   2
#     4  11  23  45  63  83 117 162 216 248 290 365
#     4  10  23  39  62  90 129 160 192 253 307 347
#     4  10  21  36  60  93 123 163 193 237 301 364
#     4  12  22  39  60  97 129 152 195 256 305 357
#     4  11  24  38  68  87 112 166 209 249 295 352
#     4  10  22  37  61  93 122 158 200 237 304 367
#
# _framework density 21.878985
#
# number of rings (size 3 to 8) (size 9 to 14) (size 15 to 20)
#    1.000    0.333    3.333    2.500    2.333    0.667 
#    0.000    0.833    0.000    0.000    0.000    0.000 
#    0.000    0.000    0.000    0.000    0.000    0.000 
#
# Total GULP energy -66836.192296 kJ/mol
# GULP energy per Si atom -5569.682691 kJ/mol
# Density = 2.182919 g / cm^3
# Si number density = 21.878985 Si / 1000 Ang^3
#
#
#
# Elastic Constant Matrix: (Units=GPa)
#
#
# Indices 1 2 3 4 5 6 
#
# 1 122.3614 7.2769 2.9373 -5.0144 -18.1722 0.6720
# 2 7.2769 70.7063 5.7062 -20.2457 -13.0717 -15.9949
# 3 2.9373 5.7062 17.9794 -5.1295 -3.4612 2.1739
# 4 -5.0144 -20.2457 -5.1295 34.2041 8.0844 1.4141
# 5 -18.1722 -13.0717 -3.4612 8.0844 25.8574 4.9725
# 6 0.6720 -15.9949 2.1739 1.4141 4.9725 39.3123
#
#
#
# Elastic Compliance Matrix: (Units=1/GPa)
#
#
# Indices 1 2 3 4 5 6 
#
# 1 0.009164 0.000026 -0.000159 -0.000204 0.006684 -0.000975
# 2 0.000026 0.019775 -0.003403 0.009684 0.005141 0.007235
# 3 -0.000159 -0.003403 0.060142 0.005927 0.005444 -0.005609
# 4 -0.000204 0.009684 0.005927 0.037285 -0.006712 0.003124
# 5 0.006684 0.005141 0.005444 -0.006712 0.049636 -0.004361
# 6 -0.000975 0.007235 -0.005609 0.003124 -0.004361 0.029147
#
#
# Mechanical properties :
#
#
# Convention : Reuss Voigt Hill
#
# Bulk Modulus (GPa) = 12.19355 26.98756 19.59056
# Shear Modulus (GPa) = 20.87186 32.88320 26.87753
#
# Velocity S-wave (km/s) = 3.09199 3.88101 3.50875
# Velocity P-wave (km/s) = 4.28164 5.69602 5.03871
#
# Compressibility (1/GPa) = 0.08201054
#
# Stress axis : x y z
#
# Youngs Moduli (GPa) = 109.11773 50.56916 16.62724
#
# Poissons Ratio (x) = -0.00133 0.00265
# Poissons Ratio (y) = -0.00286 0.05658
# Poissons Ratio (z) = 0.01737 0.17207
#
# Static dielectric constant tensor:
#      x y z
#    x 1.919880 0.045650 -0.028850 
#    y 0.045650 1.926360 0.058810 
#    z -0.028850 0.058810 1.753300 
# 
# From -- ./inp_files/369921.got.cif
#   From: 2010.05.17/outbox.cif.g08.bks.cpg/sg2_185_cif.got.tgz:369921.got - 2010.06.03 11:33:40.
