data_PCOD9002138
_publ_section_title
;
Structure prediction by ZEFSAII (Michael W. Deem and Ramdas Pophale) SiO2 
 PCOD9002138
Probable space group: P -1
;
_chemical_formula_sum "Si O2"
_cell_formula_units_Z 12
_cell_length_a 13.647831
_cell_length_b 8.019752
_cell_length_c 10.836827
_cell_angle_alpha 69.201172
_cell_angle_beta 61.546246
_cell_angle_gamma 30.604732
_cell_volume 526.898048
_symmetry_space_group_name_H-M "P -1"
_symmetry_group_IT_number 2
_symmetry_cell_setting 'triclinic'
loop_
_space_group_symop_operation_xyz
x,y,z
-x,-y,-z
loop_
_atom_site_type_symbol
_atom_site_label
_atom_site_fract_x
_atom_site_fract_y
_atom_site_fract_z
Si Si1 0.178701 0.274871 0.554517
Si Si2 0.943340 0.899162 0.629166
Si Si3 0.612999 0.655182 0.044577
Si Si4 0.457348 0.716741 0.371630
Si Si5 0.981958 0.699028 0.130874
Si Si6 0.231798 0.004752 0.069388
O O1 0.000000 0.500000 0.500000
O O2 0.137633 0.508716 0.593187
O O3 0.136208 0.176230 0.704080
O O4 0.388412 0.972107 0.434203
O O5 0.874109 0.007512 0.783252
O O6 0.743760 0.078379 0.637592
O O7 0.000000 0.000000 0.500000
O O8 0.602954 0.596698 0.207476
O O9 0.152708 0.622128 0.059102
O O10 0.470416 0.716574 0.032992
O O11 0.500000 0.000000 0.000000
O O12 0.500000 0.500000 0.500000
O O13 0.109508 0.346977 0.106070
O O14 0.820964 0.945486 0.053796
#
# Coordination Sequence:
#
# PCOD9002138 Si02
#       6
#     2   2   2   2   2   2
#     4   9  18  36  59  83 110 152 190 229 283 347
#     4   9  18  33  58  79 113 151 183 229 289 340
#     4   9  17  32  56  80 105 153 188 229 286 340
#     4  10  21  36  58  83 117 145 191 241 282 337
#     4   9  16  30  58  77 105 146 191 227 279 337
#     4   8  16  29  50  82 107 141 186 230 277 336
#
# _framework density 22.774802999999999
#
# number of rings (size 3 to 8) (size 9 to 14) (size 15 to 20)
#    0.000    3.000    0.000    3.000    2.333    0.000 
#    0.000    1.667   11.000    2.000    0.000    0.000 
#    0.000    0.000    0.000    0.000    0.000    0.000 
#
# Total GULP energy -66952.396736 kJ/mol
# GULP energy per Si atom -5579.366395 kJ/mol
# Density = 2.272297 g / cm^3
# Si number density = 22.774803 Si / 1000 Ang^3
#
#
#
# Elastic Constant Matrix: (Units=GPa)
#
#
# Indices 1 2 3 4 5 6 
#
# 1 54.9537 13.5890 49.4086 8.5018 -2.3427 -12.7496
# 2 13.5890 38.7243 17.6687 -11.5452 3.9660 -3.7253
# 3 49.4086 17.6687 189.5489 -13.8602 5.0364 -11.8787
# 4 8.5018 -11.5452 -13.8602 27.6417 -4.0255 -0.0419
# 5 -2.3427 3.9660 5.0364 -4.0255 41.5611 -9.8896
# 6 -12.7496 -3.7253 -11.8787 -0.0419 -9.8896 22.9821
#
#
#
# Elastic Compliance Matrix: (Units=1/GPa)
#
#
# Indices 1 2 3 4 5 6 
#
# 1 0.037147 -0.014242 -0.009032 -0.020945 0.006410 0.016350
# 2 -0.014242 0.036027 0.001733 0.019839 -0.003117 -0.002471
# 3 -0.009032 0.001733 0.007966 0.007320 -0.001196 -0.001114
# 4 -0.020945 0.019839 0.007320 0.054611 0.000282 -0.004399
# 5 0.006410 -0.003117 -0.001196 0.000282 0.028376 0.014644
# 6 0.016350 -0.002471 -0.001114 -0.004399 0.014644 0.057900
#
#
# Mechanical properties :
#
#
# Convention : Reuss Voigt Hill
#
# Bulk Modulus (GPa) = 26.27684 49.39548 37.83616
# Shear Modulus (GPa) = 17.99881 31.94103 24.96992
#
# Velocity S-wave (km/s) = 2.81427 3.74902 3.31476
# Velocity P-wave (km/s) = 4.70350 6.36207 5.59459
#
# Compressibility (1/GPa) = 0.03805633
#
# Stress axis : x y z
#
# Youngs Moduli (GPa) = 26.92006 27.75682 125.53602
#
# Poissons Ratio (x) = 0.39532 1.13390
# Poissons Ratio (y) = 0.38340 -0.21754
# Poissons Ratio (z) = 0.24316 -0.04810
#
# Static dielectric constant tensor:
#      x y z
#    x 1.837140 0.062280 0.008470 
#    y 0.062280 1.928450 -0.022620 
#    z 0.008470 -0.022620 1.872970 
# 
# From -- ./inp_files/445637.got.cif
#   From: 2010.05.17/outbox.cif.g08.bks.cpg/sg2_223_cif.got.tgz:445637.got - 2010.06.03 11:33:40.
