data_PCOD9002186
_publ_section_title
;
Structure prediction by ZEFSAII (Michael W. Deem and Ramdas Pophale) SiO2 
 PCOD9002186
Probable space group: P -1
;
_chemical_formula_sum "Si O2"
_cell_formula_units_Z 16
_cell_length_a 17.208771
_cell_length_b 20.762284
_cell_length_c 8.383385
_cell_angle_alpha 115.438670
_cell_angle_beta 127.135075
_cell_angle_gamma 20.067870
_cell_volume 708.342449
_symmetry_space_group_name_H-M "P -1"
_symmetry_group_IT_number 2
_symmetry_cell_setting 'triclinic'
loop_
_space_group_symop_operation_xyz
x,y,z
-x,-y,-z
loop_
_atom_site_type_symbol
_atom_site_label
_atom_site_fract_x
_atom_site_fract_y
_atom_site_fract_z
Si Si1 0.313993 0.739930 0.113883
Si Si2 0.725712 0.643701 0.237508
Si Si3 0.346726 0.560725 0.073009
Si Si4 0.310216 0.980561 0.350708
Si Si5 0.428798 0.313299 0.435454
Si Si6 0.765943 0.484684 0.911009
Si Si7 0.420512 0.078489 0.221614
Si Si8 0.774543 0.719941 0.127219
O O1 0.403708 0.644615 0.952700
O O2 0.541902 0.640903 0.358191
O O3 0.338391 0.652471 0.162979
O O4 0.000000 0.000000 0.000000
O O5 0.448295 0.845778 0.225235
O O6 0.687804 0.706371 0.084258
O O7 0.000000 0.500000 0.500000
O O8 0.759382 0.538222 0.119230
O O9 0.344756 0.517613 0.187499
O O10 0.025442 0.765204 0.816719
O O11 0.333978 0.909506 0.452718
O O12 0.511564 0.911300 0.549208
O O13 0.421566 0.351283 0.291053
O O14 0.118321 0.487390 0.265001
O O15 0.112160 0.249769 0.039065
O O16 0.685700 0.840345 0.275188
O O17 0.398018 0.139774 0.096361
#
# Coordination Sequence:
#
# PCOD9002186 Si02
#       8
#     2   2   2   2   2   2   2   2
#     4  11  24  48  74  96 121 162 221 276 334 384
#     4  12  22  34  59  94 132 175 213 253 303 377
#     4  11  26  43  71  99 124 164 220 274 322 387
#     4  12  22  37  66  94 128 177 213 264 315 380
#     4  11  22  41  67  90 129 175 212 268 327 381
#     4  11  24  41  60  97 135 169 213 261 322 385
#     4  10  21  36  58  89 134 170 214 254 313 391
#     4  10  21  37  56  91 130 174 211 261 316 380
#
# _framework density 22.587945999999999
#
# number of rings (size 3 to 8) (size 9 to 14) (size 15 to 20)
#    0.000    1.000    3.750    3.000    1.750    3.500 
#    0.000    1.875    0.000    0.000    0.000    0.000 
#    0.000    0.000    0.000    0.000    0.000    0.000 
#
# Total GULP energy -89418.742408 kJ/mol
# GULP energy per Si atom -5588.671401 kJ/mol
# Density = 2.253653 g / cm^3
# Si number density = 22.587946 Si / 1000 Ang^3
#
#
#
# Elastic Constant Matrix: (Units=GPa)
#
#
# Indices 1 2 3 4 5 6 
#
# 1 135.7360 26.1017 3.9667 -3.5160 -10.1881 17.3695
# 2 26.1017 108.5117 8.2239 0.2840 -12.5135 8.3304
# 3 3.9667 8.2239 24.3065 4.0860 -2.1180 4.4045
# 4 -3.5160 0.2840 4.0860 28.8573 8.4550 2.9775
# 5 -10.1881 -12.5135 -2.1180 8.4550 26.5388 3.9664
# 6 17.3695 8.3304 4.4045 2.9775 3.9664 29.7707
#
#
#
# Elastic Compliance Matrix: (Units=1/GPa)
#
#
# Indices 1 2 3 4 5 6 
#
# 1 0.008528 -0.001296 0.000157 0.000607 0.003248 -0.005130
# 2 -0.001296 0.010459 -0.002268 -0.001152 0.004976 -0.002382
# 3 0.000157 -0.002268 0.044737 -0.007368 0.005822 -0.006115
# 4 0.000607 -0.001152 -0.007368 0.039830 -0.013418 -0.001138
# 5 0.003248 0.004976 0.005822 -0.013418 0.047376 -0.009119
# 6 -0.005130 -0.002382 -0.006115 -0.001138 -0.009119 0.039483
#
#
# Mechanical properties :
#
#
# Convention : Reuss Voigt Hill
#
# Bulk Modulus (GPa) = 17.57182 38.34877 27.96029
# Shear Modulus (GPa) = 23.12699 32.38416 27.75558
#
# Velocity S-wave (km/s) = 3.20326 3.79052 3.50920
# Velocity P-wave (km/s) = 4.63436 6.01430 5.36885
#
# Compressibility (1/GPa) = 0.05690932
#
# Stress axis : x y z
#
# Youngs Moduli (GPa) = 117.26223 95.61061 22.35290
#
# Poissons Ratio (x) = 0.12396 -0.00352
# Poissons Ratio (y) = 0.15203 0.05070
# Poissons Ratio (z) = -0.01846 0.21687
#
# Static dielectric constant tensor:
#      x y z
#    x 1.896390 0.031410 -0.009490 
#    y 0.031410 1.842210 0.025580 
#    z -0.009490 0.025580 1.862460 
# 
# From -- ./inp_files/337764.got.cif
#   From: 2010.05.17/outbox.cif.g08.bks.cpg/sg2_169_cif.got.tgz:337764.got - 2010.06.03 11:33:40.
