data_PCOD9002718
_publ_section_title
;
Structure prediction by ZEFSAII (Michael W. Deem and Ramdas Pophale) SiO2 
 PCOD9002718
Probable space group: P -1
;
_chemical_formula_sum "Si O2"
_cell_formula_units_Z 16
_cell_length_a 9.985705
_cell_length_b 11.587787
_cell_length_c 7.918080
_cell_angle_alpha 112.332868
_cell_angle_beta 121.140682
_cell_angle_gamma 91.911268
_cell_volume 694.125552
_symmetry_space_group_name_H-M "P -1"
_symmetry_group_IT_number 2
_symmetry_cell_setting 'triclinic'
loop_
_space_group_symop_operation_xyz
x,y,z
-x,-y,-z
loop_
_atom_site_type_symbol
_atom_site_label
_atom_site_fract_x
_atom_site_fract_y
_atom_site_fract_z
Si Si1 0.772408 0.830907 0.071879
Si Si2 0.906353 0.775050 0.439034
Si Si3 0.576340 0.226571 0.086170
Si Si4 0.566524 0.152484 0.429390
Si Si5 0.419691 0.360150 0.447162
Si Si6 0.330531 0.477695 0.777960
Si Si7 0.824868 0.104731 0.077715
Si Si8 0.761312 0.988522 0.647943
O O1 0.922894 0.825509 0.284020
O O2 0.798001 0.973384 0.094231
O O3 0.615963 0.795245 0.077911
O O4 0.704746 0.729343 0.819209
O O5 0.814153 0.620911 0.268588
O O6 0.829079 0.879770 0.544047
O O7 0.060414 0.786702 0.666648
O O8 0.576447 0.164946 0.239127
O O9 0.667359 0.379596 0.206123
O O10 0.659057 0.146503 0.973748
O O11 0.567749 0.299965 0.556358
O O12 0.394276 0.082618 0.372895
O O13 0.695364 0.081122 0.534314
O O14 0.500000 0.500000 0.500000
O O15 0.329636 0.384881 0.566808
O O16 0.500000 0.500000 0.000000
O O17 0.883571 0.079664 0.915735
#
# Coordination Sequence:
#
# PCOD9002718 Si02
#       8
#     2   2   2   2   2   2   2   2
#     4  11  22  41  66  94 122 170 212 260 307 379
#     4  12  25  42  63  95 131 167 209 256 326 381
#     4  11  23  41  65  91 127 163 216 256 309 368
#     4  10  21  36  63  97 121 157 215 262 304 360
#     4  11  19  39  63  96 125 158 211 265 310 359
#     4  12  23  39  67  96 125 166 214 261 308 377
#     4  12  25  41  63  94 134 167 202 266 324 374
#     4  11  23  37  64  95 130 160 207 266 317 369
#
# _framework density 23.050583
#
# number of rings (size 3 to 8) (size 9 to 14) (size 15 to 20)
#    0.000    0.750    7.500    1.875    5.250    0.500 
#    0.000    0.000    0.000    1.500    0.000    0.000 
#    0.000    0.000    0.000    0.000    0.000    0.000 
#
# Total GULP energy -89282.697504 kJ/mol
# GULP energy per Si atom -5580.168594 kJ/mol
# Density = 2.299812 g / cm^3
# Si number density = 23.050583 Si / 1000 Ang^3
#
#
#
# Elastic Constant Matrix: (Units=GPa)
#
#
# Indices 1 2 3 4 5 6 
#
# 1 39.3306 15.8898 2.8404 4.7736 -9.0160 -15.0855
# 2 15.8898 127.6510 23.4634 3.5015 0.9020 12.1115
# 3 2.8404 23.4634 113.6644 3.1278 -2.7325 7.5989
# 4 4.7736 3.5015 3.1278 39.1602 2.9163 0.4233
# 5 -9.0160 0.9020 -2.7325 2.9163 31.6559 6.9460
# 6 -15.0855 12.1115 7.5989 0.4233 6.9460 26.2091
#
#
#
# Elastic Compliance Matrix: (Units=1/GPa)
#
#
# Indices 1 2 3 4 5 6 
#
# 1 0.040000 -0.007087 -0.000911 -0.004923 0.006502 0.024919
# 2 -0.007087 0.009716 -0.001316 0.000237 -0.000672 -0.008013
# 3 -0.000911 -0.001316 0.009337 -0.000581 0.001286 -0.002955
# 4 -0.004923 0.000237 -0.000581 0.026439 -0.003389 -0.002303
# 5 0.006502 -0.000672 0.001286 -0.003389 0.035106 -0.005569
# 6 0.024919 -0.008013 -0.002955 -0.002303 -0.005569 0.058571
#
#
# Mechanical properties :
#
#
# Convention : Reuss Voigt Hill
#
# Bulk Modulus (GPa) = 24.73621 40.55923 32.64772
# Shear Modulus (GPa) = 23.66634 35.30187 29.48410
#
# Velocity S-wave (km/s) = 3.20771 3.91768 3.58034
# Velocity P-wave (km/s) = 4.94710 6.17238 5.59339
#
# Compressibility (1/GPa) = 0.04042656
#
# Stress axis : x y z
#
# Youngs Moduli (GPa) = 24.99985 102.91869 107.10549
#
# Poissons Ratio (x) = 0.72938 0.09755
# Poissons Ratio (y) = 0.17717 0.14091
# Poissons Ratio (z) = 0.02277 0.13540
#
# Static dielectric constant tensor:
#      x y z
#    x 2.057480 0.075440 0.091590 
#    y 0.075440 1.890810 0.002120 
#    z 0.091590 0.002120 1.942090 
# 
# From -- ./inp_files/260394.got.cif
#   From: 2010.05.17/outbox.cif.g08.bks.cpg/sg2_131_cif.got.tgz:260394.got - 2010.06.03 11:33:40.
