data_PCOD9002280
_publ_section_title
;
Structure prediction by ZEFSAII (Michael W. Deem and Ramdas Pophale) SiO2 
 PCOD9002280
Probable space group: P -1
;
_chemical_formula_sum "Si O2"
_cell_formula_units_Z 16
_cell_length_a 18.998044
_cell_length_b 8.199949
_cell_length_c 5.994564
_cell_angle_alpha 94.197781
_cell_angle_beta 134.420876
_cell_angle_gamma 87.562251
_cell_volume 665.134102
_symmetry_space_group_name_H-M "P -1"
_symmetry_group_IT_number 2
_symmetry_cell_setting 'triclinic'
loop_
_space_group_symop_operation_xyz
x,y,z
-x,-y,-z
loop_
_atom_site_type_symbol
_atom_site_label
_atom_site_fract_x
_atom_site_fract_y
_atom_site_fract_z
Si Si1 0.615360 0.463359 0.257936
Si Si2 0.965040 0.378490 0.719573
Si Si3 0.620288 0.483055 0.774431
Si Si4 0.895273 0.162427 0.915700
Si Si5 0.268467 0.840582 0.104556
Si Si6 0.786046 0.929146 0.366372
Si Si7 0.390215 0.934845 0.754542
Si Si8 0.086893 0.308613 0.596441
O O1 0.652145 0.531412 0.590929
O O2 0.620794 0.262658 0.252150
O O3 0.500000 0.500000 0.000000
O O4 0.651300 0.535729 0.103990
O O5 0.897824 0.259354 0.699639
O O6 0.914119 0.498825 0.443912
O O7 0.055708 0.297336 0.783545
O O8 0.000000 0.500000 0.000000
O O9 0.500000 0.500000 0.500000
O O10 0.663624 0.299593 0.855611
O O11 0.810017 0.224478 0.894372
O O12 0.860181 0.983254 0.737064
O O13 0.998438 0.202560 0.269099
O O14 0.342271 0.961670 0.409646
O O15 0.205789 0.945533 0.807943
O O16 0.815596 0.761666 0.301162
O O17 0.676814 0.963138 0.215233
O O18 0.500000 0.000000 0.000000
#
# Coordination Sequence:
#
# PCOD9002280 Si02
#       8
#     2   2   2   2   2   2   2   2
#     4   9  17  34  60  83 113 155 206 255 314 375
#     4   9  20  39  63  84 125 165 206 251 310 382
#     4   9  17  33  57  83 115 156 202 256 314 367
#     4  10  21  37  63  94 122 164 205 259 311 381
#     4  10  21  36  59  89 120 160 208 260 315 374
#     4  11  22  38  62  92 128 158 212 265 313 389
#     4  10  22  40  59  84 119 163 207 261 322 378
#     4  10  21  39  63  92 127 168 201 253 323 380
#
# _framework density 24.055298000000001
#
# number of rings (size 3 to 8) (size 9 to 14) (size 15 to 20)
#    0.000    2.250    1.250    1.125    0.000    6.500 
#    0.000    5.000   22.000    1.500    0.000    0.000 
#    0.000    0.000    0.000    0.000    0.000    0.000 
#
# Total GULP energy -89099.251102 kJ/mol
# GULP energy per Si atom -5568.703194 kJ/mol
# Density = 2.400055 g / cm^3
# Si number density = 24.055298 Si / 1000 Ang^3
#
#
#
# Elastic Constant Matrix: (Units=GPa)
#
#
# Indices 1 2 3 4 5 6 
#
# 1 177.8579 53.4061 32.4464 10.5378 -20.0413 -23.4829
# 2 53.4061 46.6762 17.8901 -6.0523 0.2207 -22.9208
# 3 32.4464 17.8901 93.0107 11.9656 -32.9855 11.5397
# 4 10.5378 -6.0523 11.9656 26.0729 1.3919 3.2400
# 5 -20.0413 0.2207 -32.9855 1.3919 42.9294 -4.4324
# 6 -23.4829 -22.9208 11.5397 3.2400 -4.4324 41.4447
#
#
#
# Elastic Compliance Matrix: (Units=1/GPa)
#
#
# Indices 1 2 3 4 5 6 
#
# 1 0.011261 -0.017010 0.004015 -0.010498 0.008521 -0.002413
# 2 -0.017010 0.068916 -0.023756 0.031350 -0.024465 0.030023
# 3 0.004015 -0.023756 0.025308 -0.018072 0.020552 -0.014299
# 4 -0.010498 0.031350 -0.018072 0.058012 -0.019820 0.009767
# 5 0.008521 -0.024465 0.020552 -0.019820 0.042977 -0.008279
# 6 -0.002413 0.030023 -0.014299 0.009767 -0.008279 0.041698
#
#
# Mechanical properties :
#
#
# Convention : Reuss Voigt Hill
#
# Bulk Modulus (GPa) = 31.26713 58.33668 44.80190
# Shear Modulus (GPa) = 15.04508 36.34287 25.69398
#
# Velocity S-wave (km/s) = 2.50359 3.89112 3.27176
# Velocity P-wave (km/s) = 4.62423 6.67020 5.73912
#
# Compressibility (1/GPa) = 0.03198247
#
# Stress axis : x y z
#
# Youngs Moduli (GPa) = 88.79991 14.51047 39.51384
#
# Poissons Ratio (x) = 0.24682 -0.15865
# Poissons Ratio (y) = 1.51049 0.93869
# Poissons Ratio (z) = -0.35654 0.34471
#
# Static dielectric constant tensor:
#      x y z
#    x 2.040710 -0.007350 -0.079820 
#    y -0.007350 1.975630 0.010140 
#    z -0.079820 0.010140 2.053130 
# 
# From -- ./inp_files/81230.got.cif
#   From: 2010.05.17/outbox.cif.g08.bks.cpg/sg2_41_cif.got.tgz:81230.got - 2010.06.03 11:33:40.
