data_PCOD9002581
_publ_section_title
;
Structure prediction by ZEFSAII (Michael W. Deem and Ramdas Pophale) SiO2 
 PCOD9002581
Probable space group: P -1
;
_chemical_formula_sum "Si O2"
_cell_formula_units_Z 14
_cell_length_a 12.481508
_cell_length_b 8.034774
_cell_length_c 9.046402
_cell_angle_alpha 87.362624
_cell_angle_beta 51.428988
_cell_angle_gamma 83.385293
_cell_volume 704.193048
_symmetry_space_group_name_H-M "P -1"
_symmetry_group_IT_number 2
_symmetry_cell_setting 'triclinic'
loop_
_space_group_symop_operation_xyz
x,y,z
-x,-y,-z
loop_
_atom_site_type_symbol
_atom_site_label
_atom_site_fract_x
_atom_site_fract_y
_atom_site_fract_z
Si Si1 0.882583 0.908990 0.185692
Si Si2 0.304030 0.513123 0.405794
Si Si3 0.032116 0.451719 0.803924
Si Si4 0.651248 0.161035 0.495320
Si Si5 0.644186 0.776028 0.200476
Si Si6 0.601423 0.400832 0.251082
Si Si7 0.760312 0.553747 0.871459
O O1 0.960079 0.747939 0.205673
O O2 0.773971 0.841300 0.165717
O O3 0.782067 0.024457 0.375949
O O4 0.000000 0.000000 0.000000
O O5 0.179847 0.495118 0.624422
O O6 0.334305 0.704951 0.392702
O O7 0.444939 0.401190 0.332816
O O8 0.260284 0.468216 0.281558
O O9 0.916373 0.542778 0.793806
O O10 0.000000 0.500000 0.000000
O O11 0.497951 0.107377 0.653994
O O12 0.647819 0.263174 0.338244
O O13 0.615783 0.590089 0.292863
O O14 0.681062 0.724503 0.001811
O O15 0.696245 0.405586 0.024132
#
# Coordination Sequence:
#
# PCOD9002581 Si02
#       7
#     2   2   2   2   2   2   2
#     4  12  23  36  59  88 116 152 196 245 287 336
#     4  11  21  37  63  90 117 151 193 239 296 344
#     4  12  22  40  61  86 114 155 204 239 279 346
#     4  11  21  35  62  91 118 148 192 243 292 340
#     4   9  20  36  59  84 118 147 198 235 285 335
#     4   9  19  36  62  90 112 148 197 236 281 343
#     4  10  21  36  62  88 120 147 197 239 289 339
#
# _framework density 19.880913
#
# number of rings (size 3 to 8) (size 9 to 14) (size 15 to 20)
#    0.857    0.571    1.429    7.286    0.000    0.000 
#    0.000    0.714    3.143    1.714    0.000    0.000 
#    0.000    0.000    0.000    0.000    0.000    0.000 
#
# Total GULP energy -78086.411755 kJ/mol
# GULP energy per Si atom -5577.600840 kJ/mol
# Density = 1.983566 g / cm^3
# Si number density = 19.880913 Si / 1000 Ang^3
#
#
#
# Elastic Constant Matrix: (Units=GPa)
#
#
# Indices 1 2 3 4 5 6 
#
# 1 83.0019 1.2674 26.9690 -3.1218 -5.9224 15.4357
# 2 1.2674 34.3735 -0.3799 13.3077 -9.8297 -1.1253
# 3 26.9690 -0.3799 68.6788 7.2655 -15.8161 6.6731
# 4 -3.1218 13.3077 7.2655 30.2993 8.8775 -11.5204
# 5 -5.9224 -9.8297 -15.8161 8.8775 47.8529 3.4700
# 6 15.4357 -1.1253 6.6731 -11.5204 3.4700 23.4252
#
#
#
# Elastic Compliance Matrix: (Units=1/GPa)
#
#
# Indices 1 2 3 4 5 6 
#
# 1 0.015408 -0.000050 -0.004671 -0.001328 0.001300 -0.009670
# 2 -0.000050 0.052501 0.013308 -0.043701 0.025203 -0.026461
# 3 -0.004671 0.013308 0.024153 -0.023107 0.015647 -0.016845
# 4 -0.001328 -0.043701 -0.023107 0.089401 -0.037342 0.054857
# 5 0.001300 0.025203 0.015647 -0.037342 0.040398 -0.028452
# 6 -0.009670 -0.026461 -0.016845 0.054857 -0.028452 0.083782
#
#
# Mechanical properties :
#
#
# Convention : Reuss Voigt Hill
#
# Bulk Modulus (GPa) = 9.15450 26.86301 18.00875
# Shear Modulus (GPa) = 15.39033 30.86199 23.12616
#
# Velocity S-wave (km/s) = 2.78533 3.94425 3.41432
# Velocity P-wave (km/s) = 3.86765 5.85526 4.96200
#
# Compressibility (1/GPa) = 0.10923591
#
# Stress axis : x y z
#
# Youngs Moduli (GPa) = 64.90327 19.04724 41.40276
#
# Poissons Ratio (x) = 0.00096 0.19339
# Poissons Ratio (y) = 0.00326 -0.55100
# Poissons Ratio (z) = 0.30316 -0.25349
#
# Static dielectric constant tensor:
#      x y z
#    x 1.702610 0.024360 -0.032170 
#    y 0.024360 1.757770 -0.009360 
#    z -0.032170 -0.009360 1.755670 
# 
# From -- ./inp_files/239458.got.cif
#   From: 2010.05.17/outbox.cif.g08.bks.cpg/sg2_120_cif.got.tgz:239458.got - 2010.06.03 11:33:40.
