data_PCOD9002455
_publ_section_title
;
Structure prediction by ZEFSAII (Michael W. Deem and Ramdas Pophale) SiO2 
 PCOD9002455
Probable space group: P -1
;
_chemical_formula_sum "Si O2"
_cell_formula_units_Z 12
_cell_length_a 9.075303
_cell_length_b 9.696471
_cell_length_c 16.541924
_cell_angle_alpha 44.449925
_cell_angle_beta 144.621566
_cell_angle_gamma 115.983355
_cell_volume 551.752598
_symmetry_space_group_name_H-M "P -1"
_symmetry_group_IT_number 2
_symmetry_cell_setting 'triclinic'
loop_
_space_group_symop_operation_xyz
x,y,z
-x,-y,-z
loop_
_atom_site_type_symbol
_atom_site_label
_atom_site_fract_x
_atom_site_fract_y
_atom_site_fract_z
Si Si1 0.132606 0.633921 0.098786
Si Si2 0.545236 0.732849 0.361287
Si Si3 0.107786 0.904562 0.227034
Si Si4 0.927233 0.202944 0.438975
Si Si5 0.442594 0.787385 0.579369
Si Si6 0.063724 0.411300 0.804327
O O1 0.369056 0.676197 0.239006
O O2 0.281989 0.416164 0.211711
O O3 0.925147 0.613681 0.083959
O O4 0.011391 0.850637 0.905578
O O5 0.332978 0.883820 0.266673
O O6 0.773885 0.809390 0.391753
O O7 0.254522 0.457824 0.415151
O O8 0.254410 0.773702 0.425118
O O9 0.895842 0.806992 0.132859
O O10 0.725160 0.197343 0.420910
O O11 0.808216 0.425807 0.243551
O O12 0.000000 0.000000 0.500000
O O13 0.500000 0.000000 0.500000
#
# Coordination Sequence:
#
# PCOD9002455 Si02
#       6
#     2   2   2   2   2   2
#     4  11  20  36  62  90 116 150 188 234 285 340
#     4   9  17  35  61  85 115 149 190 225 282 332
#     4  11  20  36  62  90 116 150 188 234 285 340
#     4  10  21  36  61  83 109 159 195 232 289 338
#     4  12  23  40  59  81 119 151 193 240 285 344
#     4   9  17  35  61  85 115 149 190 225 282 332
#
# _framework density 21.748878999999999
#
# number of rings (size 3 to 8) (size 9 to 14) (size 15 to 20)
#    1.000    0.667    3.333    5.000    0.000    3.333 
#    0.000    5.000    0.000    7.000    0.000    0.000 
#    0.000    0.000    0.000    0.000    0.000    0.000 
#
# Total GULP energy -66907.354451 kJ/mol
# GULP energy per Si atom -5575.612871 kJ/mol
# Density = 2.169938 g / cm^3
# Si number density = 21.748879 Si / 1000 Ang^3
#
#
#
# Elastic Constant Matrix: (Units=GPa)
#
#
# Indices 1 2 3 4 5 6 
#
# 1 140.8385 52.9190 23.6190 -32.8245 -5.9791 9.4805
# 2 52.9190 70.7403 16.5127 -34.4970 6.5951 4.2176
# 3 23.6190 16.5127 88.9726 -36.2347 -2.3665 -4.5473
# 4 -32.8245 -34.4970 -36.2347 43.1962 -5.0829 0.1595
# 5 -5.9791 6.5951 -2.3665 -5.0829 18.1439 -10.2947
# 6 9.4805 4.2176 -4.5473 0.1595 -10.2947 32.2052
#
#
#
# Elastic Compliance Matrix: (Units=1/GPa)
#
#
# Indices 1 2 3 4 5 6 
#
# 1 0.010881 -0.007142 0.000021 0.003424 0.007145 0.000002
# 2 -0.007142 0.029816 0.004509 0.021118 -0.009049 -0.004163
# 3 0.000021 0.004509 0.019525 0.021127 0.009772 0.005179
# 4 0.003424 0.021118 0.021127 0.062194 0.015890 0.003981
# 5 0.007145 -0.009049 0.009772 0.015890 0.081480 0.026429
# 6 0.000002 -0.004163 0.005179 0.003981 0.026429 0.040755
#
#
# Mechanical properties :
#
#
# Convention : Reuss Voigt Hill
#
# Bulk Modulus (GPa) = 18.18161 54.07252 36.12707
# Shear Modulus (GPa) = 18.64228 32.54244 25.59236
#
# Velocity S-wave (km/s) = 2.93091 3.87238 3.43406
# Velocity P-wave (km/s) = 4.45326 6.70149 5.68953
#
# Compressibility (1/GPa) = 0.05500063
#
# Stress axis : x y z
#
# Youngs Moduli (GPa) = 91.90061 33.53896 51.21511
#
# Poissons Ratio (x) = 0.23952 -0.00110
# Poissons Ratio (y) = 0.65631 -0.23093
# Poissons Ratio (z) = -0.00197 -0.15123
#
# Static dielectric constant tensor:
#      x y z
#    x 1.773860 0.026280 -0.014450 
#    y 0.026280 1.881190 -0.013650 
#    z -0.014450 -0.013650 1.847630 
# 
# From -- ./inp_files/327765.got.cif
#   From: 2010.05.17/outbox.cif.g08.bks.cpg/sg2_164_cif.got.tgz:327765.got - 2010.06.03 11:33:40.
