data_PCOD9002523
_publ_section_title
;
Structure prediction by ZEFSAII (Michael W. Deem and Ramdas Pophale) SiO2 
 PCOD9002523
Probable space group: P -1
;
_chemical_formula_sum "Si O2"
_cell_formula_units_Z 16
_cell_length_a 11.615872
_cell_length_b 7.969823
_cell_length_c 13.202215
_cell_angle_alpha 56.827681
_cell_angle_beta 134.305810
_cell_angle_gamma 136.895081
_cell_volume 595.944613
_symmetry_space_group_name_H-M "P -1"
_symmetry_group_IT_number 2
_symmetry_cell_setting 'triclinic'
loop_
_space_group_symop_operation_xyz
x,y,z
-x,-y,-z
loop_
_atom_site_type_symbol
_atom_site_label
_atom_site_fract_x
_atom_site_fract_y
_atom_site_fract_z
Si Si1 0.383308 0.072919 0.475171
Si Si2 0.862584 0.073720 0.987781
Si Si3 0.810076 0.170557 0.146001
Si Si4 0.977695 0.772266 0.241157
Si Si5 0.315281 0.525983 0.121023
Si Si6 0.733856 0.380445 0.719657
Si Si7 0.766053 0.215244 0.316277
Si Si8 0.582617 0.476651 0.163850
O O1 0.196798 0.009021 0.315817
O O2 0.251176 0.906552 0.546807
O O3 0.500000 0.000000 0.500000
O O4 0.571739 0.322458 0.555988
O O5 0.775198 0.168298 0.821584
O O6 0.771523 0.048002 0.052412
O O7 0.084567 0.311836 0.055645
O O8 0.888076 0.849863 0.071084
O O9 0.752330 0.065330 0.258913
O O10 0.048835 0.365841 0.234543
O O11 0.688240 0.290785 0.019850
O O12 0.947526 0.507735 0.306544
O O13 0.813634 0.693631 0.253787
O O14 0.360734 0.627299 0.228763
O O15 0.454396 0.456872 0.184280
O O16 0.591876 0.249568 0.217594
O O17 0.500000 0.500000 0.000000
#
# Coordination Sequence:
#
# PCOD9002523 Si02
#       8
#     2   2   2   2   2   2   2   2
#     4  12  26  43  61  86 123 167 209 246 309 373
#     4   9  20  37  68  95 123 154 204 257 299 353
#     4   9  17  40  63  95 123 159 199 253 306 363
#     4  10  24  39  58  92 124 155 203 252 302 352
#     4   9  17  38  62  94 130 156 199 252 304 360
#     4   9  21  38  66  91 122 168 203 243 305 360
#     4  10  23  39  61  83 125 161 200 247 314 357
#     4  10  21  36  61  93 125 153 202 251 308 350
#
# _framework density 26.848134000000002
#
# number of rings (size 3 to 8) (size 9 to 14) (size 15 to 20)
#    0.750    1.500    1.250    2.625    3.500    1.000 
#    0.000   10.000    0.000    0.000    0.000    0.000 
#    0.000    0.000    0.000    0.000    0.000    0.000 
#
# Total GULP energy -89144.993179 kJ/mol
# GULP energy per Si atom -5571.562074 kJ/mol
# Density = 2.678703 g / cm^3
# Si number density = 26.848134 Si / 1000 Ang^3
#
#
#
# Elastic Constant Matrix: (Units=GPa)
#
#
# Indices 1 2 3 4 5 6 
#
# 1 169.7280 0.6455 47.6778 8.0954 -14.3873 6.4548
# 2 0.6455 42.4994 13.4900 11.3780 9.8330 15.8692
# 3 47.6778 13.4900 85.7992 24.5209 5.8115 -2.7245
# 4 8.0954 11.3780 24.5209 39.9450 13.9935 4.4587
# 5 -14.3873 9.8330 5.8115 13.9935 50.8550 7.0249
# 6 6.4548 15.8692 -2.7245 4.4587 7.0249 33.8095
#
#
#
# Elastic Compliance Matrix: (Units=1/GPa)
#
#
# Indices 1 2 3 4 5 6 
#
# 1 0.007612 0.002001 -0.004936 0.000349 0.002704 -0.003398
# 2 0.002001 0.032349 -0.005422 -0.003942 -0.001900 -0.015088
# 3 -0.004936 -0.005422 0.018067 -0.008963 -0.000816 0.006295
# 4 0.000349 -0.003942 -0.008963 0.034364 -0.007301 -0.001954
# 5 0.002704 -0.001900 -0.000816 -0.007301 0.023394 -0.003588
# 6 -0.003398 -0.015088 0.006295 -0.001954 -0.003588 0.038818
#
#
# Mechanical properties :
#
#
# Convention : Reuss Voigt Hill
#
# Bulk Modulus (GPa) = 24.20423 46.85035 35.52729
# Shear Modulus (GPa) = 27.01390 40.66944 33.84167
#
# Velocity S-wave (km/s) = 3.17547 3.89626 3.55418
# Velocity P-wave (km/s) = 4.74126 6.14240 5.48674
#
# Compressibility (1/GPa) = 0.04131510
#
# Stress axis : x y z
#
# Youngs Moduli (GPa) = 131.36485 30.91279 55.34995
#
# Poissons Ratio (x) = -0.06185 0.27318
# Poissons Ratio (y) = -0.26282 0.30010
# Poissons Ratio (z) = 0.64835 0.16760
#
# Static dielectric constant tensor:
#      x y z
#    x 2.098610 -0.007890 -0.003570 
#    y -0.007890 2.362850 -0.034110 
#    z -0.003570 -0.034110 2.171680 
# 
# From -- ./inp_files/515541.got.cif
#   From: 2010.05.17/outbox.cif.g08.bks.cpg/sg2_258_cif.got.tgz:515541.got - 2010.06.03 11:33:40.
