data_PCOD9002308
_publ_section_title
;
Structure prediction by ZEFSAII (Michael W. Deem and Ramdas Pophale) SiO2 
 PCOD9002308
Probable space group: P -1
;
_chemical_formula_sum "Si O2"
_cell_formula_units_Z 14
_cell_length_a 7.458696
_cell_length_b 13.715696
_cell_length_c 7.478683
_cell_angle_alpha 71.871057
_cell_angle_beta 121.061747
_cell_angle_gamma 72.552480
_cell_volume 513.682150
_symmetry_space_group_name_H-M "P -1"
_symmetry_group_IT_number 2
_symmetry_cell_setting 'triclinic'
loop_
_space_group_symop_operation_xyz
x,y,z
-x,-y,-z
loop_
_atom_site_type_symbol
_atom_site_label
_atom_site_fract_x
_atom_site_fract_y
_atom_site_fract_z
Si Si1 0.233823 0.627047 0.055767
Si Si2 0.960972 0.122714 0.315053
Si Si3 0.849534 0.647933 0.328929
Si Si4 0.326649 0.273258 0.206357
Si Si5 0.677917 0.348386 0.490443
Si Si6 0.393030 0.868073 0.117624
Si Si7 0.493533 0.031045 0.238635
O O1 0.462563 0.485321 0.226512
O O2 0.282181 0.648213 0.276365
O O3 0.221863 0.726206 0.855082
O O4 0.954354 0.651332 0.893436
O O5 0.415401 0.132531 0.290278
O O6 0.230873 0.091356 0.517066
O O7 0.865401 0.114655 0.077359
O O8 0.049288 0.687229 0.418240
O O9 0.000000 0.500000 0.500000
O O10 0.632692 0.724476 0.323918
O O11 0.727866 0.674161 0.053667
O O12 0.558425 0.271255 0.418377
O O13 0.332851 0.974265 0.162592
O O14 0.485417 0.907290 0.966062
O O15 0.000000 0.000000 0.500000
#
# Coordination Sequence:
#
# PCOD9002308 Si02
#       7
#     2   2   2   2   2   2   2
#     4  10  22  40  61  88 121 159 206 254 305 367
#     4  10  21  37  61  89 118 156 202 251 308 366
#     4  10  21  36  59  92 122 154 203 256 306 362
#     4  10  22  39  59  87 121 162 208 249 302 367
#     4  10  22  40  62  87 122 163 203 252 307 364
#     4   9  19  36  56  83 121 154 191 249 307 357
#     4   9  20  36  56  82 117 157 200 244 297 364
#
# _framework density 27.254207999999998
#
# number of rings (size 3 to 8) (size 9 to 14) (size 15 to 20)
#    0.000    2.286    0.000    1.286    0.000   11.429 
#    0.000    1.429    0.000    0.000    0.000    0.000 
#    0.000    0.000    0.000    0.000    0.000    0.000 
#
# Total GULP energy -78119.869022 kJ/mol
# GULP energy per Si atom -5579.990644 kJ/mol
# Density = 2.719218 g / cm^3
# Si number density = 27.254208 Si / 1000 Ang^3
#
#
#
# Elastic Constant Matrix: (Units=GPa)
#
#
# Indices 1 2 3 4 5 6 
#
# 1 105.7442 20.2522 18.7381 -1.5585 12.9848 -10.1718
# 2 20.2522 113.2439 38.2086 -2.5704 3.2427 12.8078
# 3 18.7381 38.2086 114.1978 -8.1043 8.7593 1.6084
# 4 -1.5585 -2.5704 -8.1043 65.9193 21.3694 9.5374
# 5 12.9848 3.2427 8.7593 21.3694 60.0540 -3.2686
# 6 -10.1718 12.8078 1.6084 9.5374 -3.2686 29.1670
#
#
#
# Elastic Compliance Matrix: (Units=1/GPa)
#
#
# Indices 1 2 3 4 5 6 
#
# 1 0.010673 -0.002026 -0.000999 -0.000010 -0.001806 0.004468
# 2 -0.002026 0.010928 -0.003154 0.000916 -0.000327 -0.005667
# 3 -0.000999 -0.003154 0.010234 0.001714 -0.001732 -0.000282
# 4 -0.000010 0.000916 0.001714 0.018915 -0.007437 -0.007519
# 5 -0.001806 -0.000327 -0.001732 -0.007437 0.020193 0.004304
# 6 0.004468 -0.005667 -0.000282 -0.007519 0.004304 0.041289
#
#
# Mechanical properties :
#
#
# Convention : Reuss Voigt Hill
#
# Bulk Modulus (GPa) = 51.33817 54.17598 52.75707
# Shear Modulus (GPa) = 38.14411 48.09385 43.11898
#
# Velocity S-wave (km/s) = 3.74514 4.20532 3.98188
# Velocity P-wave (km/s) = 6.13018 6.59551 6.36710
#
# Compressibility (1/GPa) = 0.01947869
#
# Stress axis : x y z
#
# Youngs Moduli (GPa) = 93.69391 91.50742 97.71027
#
# Poissons Ratio (x) = 0.18536 0.09758
# Poissons Ratio (y) = 0.18979 0.30819
# Poissons Ratio (z) = 0.09357 0.28862
#
# Static dielectric constant tensor:
#      x y z
#    x 2.222810 -0.015850 -0.078710 
#    y -0.015850 2.295730 0.022990 
#    z -0.078710 0.022990 2.117490 
# 
# From -- ./inp_files/201594.got.cif
#   From: 2010.05.17/outbox.cif.g08.bks.cpg/sg2_101_cif.got.tgz:201594.got - 2010.06.03 11:33:40.
