data_PCOD9002325
_publ_section_title
;
Structure prediction by ZEFSAII (Michael W. Deem and Ramdas Pophale) SiO2 
 PCOD9002325
Probable space group: P -1
;
_chemical_formula_sum "Si O2"
_cell_formula_units_Z 16
_cell_length_a 17.311711
_cell_length_b 23.674062
_cell_length_c 8.964367
_cell_angle_alpha 27.782683
_cell_angle_beta 146.930075
_cell_angle_gamma 150.523780
_cell_volume 804.994321
_symmetry_space_group_name_H-M "P -1"
_symmetry_group_IT_number 2
_symmetry_cell_setting 'triclinic'
loop_
_space_group_symop_operation_xyz
x,y,z
-x,-y,-z
loop_
_atom_site_type_symbol
_atom_site_label
_atom_site_fract_x
_atom_site_fract_y
_atom_site_fract_z
Si Si1 0.211307 0.872215 0.519973
Si Si2 0.854696 0.443794 0.280828
Si Si3 0.456520 0.542663 0.177361
Si Si4 0.390642 0.149041 0.294143
Si Si5 0.458646 0.586616 0.615784
Si Si6 0.329655 0.861171 0.403865
Si Si7 0.094436 0.424610 0.265108
Si Si8 0.494542 0.128812 0.842630
O O1 0.298605 0.887891 0.462116
O O2 0.027953 0.741040 0.522536
O O3 0.227512 0.014456 0.280997
O O4 0.325070 0.845102 0.883728
O O5 0.818527 0.291193 0.525277
O O6 0.000000 0.500000 0.500000
O O7 0.700046 0.438345 0.124574
O O8 0.882595 0.537605 0.960837
O O9 0.500000 0.500000 0.500000
O O10 0.431152 0.412923 0.341146
O O11 0.602324 0.704423 0.007469
O O12 0.517780 0.162875 0.334961
O O13 0.451607 0.116780 0.625633
O O14 0.271227 0.497727 0.460846
O O15 0.501402 0.734321 0.405569
O O16 0.500000 0.500000 0.000000
O O17 0.367125 0.990848 0.053518
O O18 0.000000 0.500000 0.000000
#
# Coordination Sequence:
#
# PCOD9002325 Si02
#       8
#     2   2   2   2   2   2   2   2
#     4  11  22  37  63  91 131 161 212 267 313 373
#     4  11  25  40  67  96 129 164 214 268 315 374
#     4  11  24  43  64  92 127 167 220 253 313 382
#     4  10  22  37  61  93 124 169 212 259 316 373
#     4  12  25  43  67  92 128 171 213 261 316 389
#     4  10  21  36  59  94 124 163 215 258 315 365
#     4  12  24  41  64  97 129 167 212 261 327 367
#     4  11  21  37  63  93 125 165 215 263 311 374
#
# _framework density 19.875917000000001
#
# number of rings (size 3 to 8) (size 9 to 14) (size 15 to 20)
#    0.000    1.000    5.000    3.000   10.500    0.000 
#    0.000    0.625    2.750    1.500    0.000    0.000 
#    0.000    0.000    0.000    0.000    0.000    0.000 
#
# Total GULP energy -89163.186381 kJ/mol
# GULP energy per Si atom -5572.699149 kJ/mol
# Density = 1.983068 g / cm^3
# Si number density = 19.875917 Si / 1000 Ang^3
#
#
#
# Elastic Constant Matrix: (Units=GPa)
#
#
# Indices 1 2 3 4 5 6 
#
# 1 60.8207 38.4756 3.8504 3.6842 -0.0118 -16.7095
# 2 38.4756 127.1210 33.9253 -5.1751 -1.0538 -15.7482
# 3 3.8504 33.9253 79.5187 3.2553 -3.8148 -3.2721
# 4 3.6842 -5.1751 3.2553 35.7457 -8.4004 -3.9018
# 5 -0.0118 -1.0538 -3.8148 -8.4004 32.6095 -6.8796
# 6 -16.7095 -15.7482 -3.2721 -3.9018 -6.8796 32.7512
#
#
#
# Elastic Compliance Matrix: (Units=1/GPa)
#
#
# Indices 1 2 3 4 5 6 
#
# 1 0.022995 -0.006532 0.002192 -0.002237 0.001339 0.008825
# 2 -0.006532 0.011502 -0.004571 0.003294 0.001186 0.002383
# 3 0.002192 -0.004571 0.014569 -0.001901 0.001150 0.000391
# 4 -0.002237 0.003294 -0.001901 0.031697 0.009311 0.005984
# 5 0.001339 0.001186 0.001150 0.009311 0.035326 0.009898
# 6 0.008825 0.002383 0.000391 0.005984 0.009898 0.039013
#
#
# Mechanical properties :
#
#
# Convention : Reuss Voigt Hill
#
# Bulk Modulus (GPa) = 32.00449 46.66256 39.33353
# Shear Modulus (GPa) = 27.27185 32.96854 30.12020
#
# Velocity S-wave (km/s) = 3.70821 4.07715 3.89705
# Velocity P-wave (km/s) = 5.87125 6.75960 6.33102
#
# Compressibility (1/GPa) = 0.03124562
#
# Stress axis : x y z
#
# Youngs Moduli (GPa) = 43.48699 86.93775 68.64023
#
# Poissons Ratio (x) = 0.56785 -0.15047
# Poissons Ratio (y) = 0.28404 0.31375
# Poissons Ratio (z) = -0.09533 0.39739
#
# Static dielectric constant tensor:
#      x y z
#    x 1.717580 0.062540 -0.012300 
#    y 0.062540 1.726520 -0.037540 
#    z -0.012300 -0.037540 1.667200 
# 
# From -- ./inp_files/338577.got.cif
#   From: 2010.05.17/outbox.cif.g08.bks.cpg/sg2_170_cif.got.tgz:338577.got - 2010.06.03 11:33:40.
