data_PCOD9002108
_publ_section_title
;
Structure prediction by ZEFSAII (Michael W. Deem and Ramdas Pophale) SiO2 
 PCOD9002108
Probable space group: P -1
;
_chemical_formula_sum "Si O2"
_cell_formula_units_Z 16
_cell_length_a 7.496529
_cell_length_b 7.568125
_cell_length_c 12.674627
_cell_angle_alpha 84.765769
_cell_angle_beta 109.063613
_cell_angle_gamma 75.550043
_cell_volume 646.326405
_symmetry_space_group_name_H-M "P -1"
_symmetry_group_IT_number 2
_symmetry_cell_setting 'triclinic'
loop_
_space_group_symop_operation_xyz
x,y,z
-x,-y,-z
loop_
_atom_site_type_symbol
_atom_site_label
_atom_site_fract_x
_atom_site_fract_y
_atom_site_fract_z
Si Si1 0.768240 0.118545 0.758084
Si Si2 0.414295 0.810476 0.073399
Si Si3 0.779964 0.753883 0.026583
Si Si4 0.136669 0.783115 0.840707
Si Si5 0.964158 0.190466 0.415611
Si Si6 0.149211 0.465774 0.154998
Si Si7 0.677883 0.318938 0.520741
Si Si8 0.645013 0.808385 0.629172
O O1 0.643844 0.242831 0.820531
O O2 0.788930 0.235662 0.653597
O O3 0.650894 0.975792 0.699399
O O4 0.979427 0.976219 0.836393
O O5 0.313837 0.034295 0.041052
O O6 0.646672 0.748504 0.102284
O O7 0.321412 0.744899 0.955609
O O8 0.758343 0.622784 0.932646
O O9 0.012121 0.676176 0.102188
O O10 0.156088 0.805818 0.717689
O O11 0.022293 0.631977 0.845648
O O12 0.829616 0.341667 0.460331
O O13 0.172071 0.214220 0.415309
O O14 0.000000 0.000000 0.500000
O O15 0.303343 0.379881 0.280419
O O16 0.500000 0.500000 0.500000
O O17 0.563514 0.174691 0.464400
#
# Coordination Sequence:
#
# PCOD9002108 Si02
#       8
#     2   2   2   2   2   2   2   2
#     4  10  21  41  60  90 131 164 202 260 314 373
#     4  11  22  37  61  95 122 159 207 256 302 366
#     4  10  21  36  57  89 123 156 209 244 302 378
#     4  10  21  38  66  87 124 165 203 252 309 370
#     4  10  21  43  67  93 122 169 221 244 314 394
#     4   9  20  41  57  85 125 162 199 250 316 368
#     4  12  26  42  66  99 124 162 217 271 317 366
#     4  10  22  43  69  87 128 174 205 262 317 377
#
# _framework density 24.755296000000001
#
# number of rings (size 3 to 8) (size 9 to 14) (size 15 to 20)
#    0.000    2.000    5.000    0.750    1.750    4.000 
#    2.250    0.000    0.000    0.000    0.000    0.000 
#    0.000    0.000    0.000    0.000    0.000    0.000 
#
# Total GULP energy -89452.019797 kJ/mol
# GULP energy per Si atom -5590.751237 kJ/mol
# Density = 2.469895 g / cm^3
# Si number density = 24.755296 Si / 1000 Ang^3
#
#
#
# Elastic Constant Matrix: (Units=GPa)
#
#
# Indices 1 2 3 4 5 6 
#
# 1 82.2752 10.8076 40.9103 14.4997 -22.1327 -28.8564
# 2 10.8076 88.1922 8.2179 -1.3218 -7.6933 -15.5518
# 3 40.9103 8.2179 125.8652 8.0020 -31.3263 -18.7836
# 4 14.4997 -1.3218 8.0020 27.2047 -6.4576 -1.7493
# 5 -22.1327 -7.6933 -31.3263 -6.4576 44.6909 8.6620
# 6 -28.8564 -15.5518 -18.7836 -1.7493 8.6620 37.5781
#
#
#
# Elastic Compliance Matrix: (Units=1/GPa)
#
#
# Indices 1 2 3 4 5 6 
#
# 1 0.021036 0.000323 -0.003250 -0.008338 0.004422 0.013255
# 2 0.000323 0.012341 0.000177 0.001078 0.001570 0.005132
# 3 -0.003250 0.000177 0.010608 0.000041 0.005552 0.001603
# 4 -0.008338 0.001078 0.000041 0.041656 0.003014 -0.004692
# 5 0.004422 0.001570 0.005552 0.003014 0.029115 0.000249
# 6 0.013255 0.005132 0.001603 -0.004692 0.000249 0.039439
#
#
# Mechanical properties :
#
#
# Convention : Reuss Voigt Hill
#
# Bulk Modulus (GPa) = 25.98320 46.24493 36.11406
# Shear Modulus (GPa) = 28.98171 37.65452 33.31811
#
# Velocity S-wave (km/s) = 3.42530 3.90432 3.67263
# Velocity P-wave (km/s) = 5.11492 6.24871 5.71002
#
# Compressibility (1/GPa) = 0.03848641
#
# Stress axis : x y z
#
# Youngs Moduli (GPa) = 47.53815 81.03137 94.26740
#
# Poissons Ratio (x) = -0.02619 0.30634
# Poissons Ratio (y) = -0.01536 -0.01671
# Poissons Ratio (z) = 0.15448 -0.01437
#
# Static dielectric constant tensor:
#      x y z
#    x 1.938550 0.088680 -0.003460 
#    y 0.088680 2.085640 -0.002220 
#    z -0.003460 -0.002220 2.020230 
# 
# From -- ./inp_files/379225.got.cif
#   From: 2010.05.17/outbox.cif.g08.bks.cpg/sg2_190_cif.got.tgz:379225.got - 2010.06.03 11:33:40.
