data_PCOD9002806
_publ_section_title
;
Structure prediction by ZEFSAII (Michael W. Deem and Ramdas Pophale) SiO2 
 PCOD9002806
Probable space group: P -1
;
_chemical_formula_sum "Si O2"
_cell_formula_units_Z 14
_cell_length_a 9.155246
_cell_length_b 6.609798
_cell_length_c 17.372729
_cell_angle_alpha 71.901520
_cell_angle_beta 33.488534
_cell_angle_gamma 88.533607
_cell_volume 493.720396
_symmetry_space_group_name_H-M "P -1"
_symmetry_group_IT_number 2
_symmetry_cell_setting 'triclinic'
loop_
_space_group_symop_operation_xyz
x,y,z
-x,-y,-z
loop_
_atom_site_type_symbol
_atom_site_label
_atom_site_fract_x
_atom_site_fract_y
_atom_site_fract_z
Si Si1 0.131122 0.222360 0.361144
Si Si2 0.270441 0.313154 0.520428
Si Si3 0.758834 0.011885 0.167251
Si Si4 0.138221 0.411728 0.849493
Si Si5 0.616375 0.193571 0.504286
Si Si6 0.643154 0.543478 0.015623
Si Si7 0.658975 0.260331 0.760311
O O1 0.150443 0.455096 0.369318
O O2 0.933014 0.197228 0.375967
O O3 0.461429 0.309930 0.176013
O O4 0.000000 0.000000 0.500000
O O5 0.512242 0.423177 0.332384
O O6 0.408914 0.169956 0.526090
O O7 0.313446 0.543114 0.524745
O O8 0.919837 0.186136 0.672983
O O9 0.904040 0.833619 0.145068
O O10 0.571549 0.993917 0.325798
O O11 0.463448 0.122345 0.789768
O O12 0.994147 0.277293 0.009231
O O13 0.960875 0.542724 0.873922
O O14 0.500000 0.500000 0.000000
O O15 0.554524 0.733561 0.075950
#
# Coordination Sequence:
#
# PCOD9002806 Si02
#       7
#     2   2   2   2   2   2   2
#     4   9  18  33  57  86 118 155 192 240 292 356
#     4   9  18  35  61  87 109 156 203 239 279 355
#     4  10  21  38  62  90 118 152 202 247 293 342
#     4  10  21  36  65  86 119 157 198 241 297 354
#     4   9  17  31  61  84 113 151 203 230 290 352
#     4  10  21  37  60  82 122 159 194 232 308 356
#     4   9  22  38  64  87 119 154 201 245 291 352
#
# _framework density 28.356127000000001
#
# number of rings (size 3 to 8) (size 9 to 14) (size 15 to 20)
#    0.857    1.714    0.000    1.714    4.000    6.857 
#    0.000    0.714    3.143    0.000    0.000    9.000 
#    0.000    0.000    0.000    0.000    0.000    0.000 
#
# Total GULP energy -78259.170259 kJ/mol
# GULP energy per Si atom -5589.940733 kJ/mol
# Density = 2.829159 g / cm^3
# Si number density = 28.356127 Si / 1000 Ang^3
#
#
#
# Elastic Constant Matrix: (Units=GPa)
#
#
# Indices 1 2 3 4 5 6 
#
# 1 199.8260 55.5437 62.1562 14.6592 -24.3096 -11.3777
# 2 55.5437 144.5233 26.2066 43.1945 -12.6718 -4.6269
# 3 62.1562 26.2066 115.7496 27.6273 -30.9612 -18.5544
# 4 14.6592 43.1945 27.6273 42.0757 -18.9586 -15.4384
# 5 -24.3096 -12.6718 -30.9612 -18.9586 45.2169 9.3290
# 6 -11.3777 -4.6269 -18.5544 -15.4384 9.3290 52.1003
#
#
#
# Elastic Compliance Matrix: (Units=1/GPa)
#
#
# Indices 1 2 3 4 5 6 
#
# 1 0.006896 -0.003111 -0.003285 0.004277 0.002187 0.000936
# 2 -0.003111 0.011787 0.001130 -0.014140 -0.002927 -0.002896
# 3 -0.003285 0.001130 0.013053 -0.005943 0.004701 0.001428
# 4 0.004277 -0.014140 -0.005943 0.050405 0.013314 0.010114
# 5 0.002187 -0.002927 0.004701 0.013314 0.031222 0.000247
# 6 0.000936 -0.002896 0.001428 0.010114 0.000247 0.022602
#
#
# Mechanical properties :
#
#
# Convention : Reuss Voigt Hill
#
# Bulk Modulus (GPa) = 47.16258 83.10132 65.13195
# Shear Modulus (GPa) = 32.55948 48.95807 40.75878
#
# Velocity S-wave (km/s) = 3.39224 4.15968 3.79540
# Velocity P-wave (km/s) = 5.65786 7.24158 6.49815
#
# Compressibility (1/GPa) = 0.02120325
#
# Stress axis : x y z
#
# Youngs Moduli (GPa) = 145.00127 84.84042 76.61344
#
# Poissons Ratio (x) = 0.26397 0.25166
# Poissons Ratio (y) = 0.45116 -0.08656
# Poissons Ratio (z) = 0.47630 -0.09586
#
# Static dielectric constant tensor:
#      x y z
#    x 2.257570 0.063090 0.011330 
#    y 0.063090 2.263440 0.051720 
#    z 0.011330 0.051720 2.249460 
# 
# From -- ./inp_files/197557.got.cif
#   From: 2010.05.17/outbox.cif.g08.bks.cpg/sg2_99_cif.got.tgz:197557.got - 2010.06.03 11:33:40.
