data_PCOD9002315
_publ_section_title
;
Structure prediction by ZEFSAII (Michael W. Deem and Ramdas Pophale) SiO2 
 PCOD9002315
Probable space group: P -1
;
_chemical_formula_sum "Si O2"
_cell_formula_units_Z 14
_cell_length_a 5.212338
_cell_length_b 13.110744
_cell_length_c 23.663572
_cell_angle_alpha 26.443708
_cell_angle_beta 69.657349
_cell_angle_gamma 72.522239
_cell_volume 674.984410
_symmetry_space_group_name_H-M "P -1"
_symmetry_group_IT_number 2
_symmetry_cell_setting 'triclinic'
loop_
_space_group_symop_operation_xyz
x,y,z
-x,-y,-z
loop_
_atom_site_type_symbol
_atom_site_label
_atom_site_fract_x
_atom_site_fract_y
_atom_site_fract_z
Si Si1 0.319772 0.349637 0.245409
Si Si2 0.125473 0.408092 0.359885
Si Si3 0.157310 0.388666 0.892257
Si Si4 0.919453 0.879241 0.182026
Si Si5 0.752917 0.660583 0.420171
Si Si6 0.469268 0.830842 0.466887
Si Si7 0.296896 0.130456 0.909853
O O1 0.404900 0.092495 0.355335
O O2 0.584575 0.518994 0.138668
O O3 0.202542 0.370426 0.307609
O O4 0.088450 0.436913 0.177549
O O5 0.113559 0.676098 0.245299
O O6 0.344640 0.279126 0.444656
O O7 0.178243 0.694597 0.553211
O O8 0.256525 0.363575 0.831449
O O9 0.332182 0.135985 0.836999
O O10 0.049585 0.135397 0.043589
O O11 0.500000 0.500000 0.500000
O O12 0.642192 0.805627 0.408932
O O13 0.838349 0.811728 0.284718
O O14 0.000000 0.500000 0.500000
O O15 0.500000 0.000000 0.000000
O O16 0.000000 0.000000 0.000000
#
# Coordination Sequence:
#
# PCOD9002315 Si02
#       7
#     2   2   2   2   2   2   2
#     4  12  25  42  65  97 140 179 214 269 337 418
#     4  12  24  41  71  98 135 173 223 282 335 390
#     4  11  24  39  64 100 134 174 214 272 344 397
#     4  11  24  42  69 102 136 168 229 280 338 387
#     4  12  25  45  69  98 130 177 229 283 328 385
#     4  12  25  46  65  98 134 180 229 269 330 398
#     4  10  21  36  59  92 132 164 203 265 329 385
#
# _framework density 20.741219999999998
#
# number of rings (size 3 to 8) (size 9 to 14) (size 15 to 20)
#    0.000    0.571    4.286    4.286    2.000    4.571 
#    0.000    1.429    0.000    0.000    0.000    0.000 
#    0.000    0.000    0.000    0.000    0.000    0.000 
#
# Total GULP energy -78306.447559 kJ/mol
# GULP energy per Si atom -5593.317683 kJ/mol
# Density = 2.069401 g / cm^3
# Si number density = 20.741220 Si / 1000 Ang^3
#
#
#
# Elastic Constant Matrix: (Units=GPa)
#
#
# Indices 1 2 3 4 5 6 
#
# 1 141.7042 33.0633 51.4163 6.3054 25.1264 0.4316
# 2 33.0633 94.9521 62.6331 9.4375 7.5669 -25.3454
# 3 51.4163 62.6331 138.1004 4.8219 14.8266 -19.5699
# 4 6.3054 9.4375 4.8219 41.7832 -4.6155 7.1901
# 5 25.1264 7.5669 14.8266 -4.6155 43.7235 -1.3613
# 6 0.4316 -25.3454 -19.5699 7.1901 -1.3613 29.0875
#
#
#
# Elastic Compliance Matrix: (Units=1/GPa)
#
#
# Indices 1 2 3 4 5 6 
#
# 1 0.009274 -0.002215 -0.002525 -0.000413 -0.004254 -0.003863
# 2 -0.002215 0.019669 -0.005754 -0.006026 -0.000356 0.014773
# 3 -0.002525 -0.005754 0.011314 -0.000225 -0.001332 0.002629
# 4 -0.000413 -0.006026 -0.000225 0.027899 0.003924 -0.012108
# 5 -0.004254 -0.000356 -0.001332 0.003924 0.026216 -0.000886
# 6 -0.003863 0.014773 0.002629 -0.012108 -0.000886 0.052030
#
#
# Mechanical properties :
#
#
# Convention : Reuss Voigt Hill
#
# Bulk Modulus (GPa) = 51.89377 74.33135 63.11256
# Shear Modulus (GPa) = 28.76665 38.09511 33.43088
#
# Velocity S-wave (km/s) = 3.72819 4.29031 4.01909
# Velocity P-wave (km/s) = 6.60352 7.77545 7.21333
#
# Compressibility (1/GPa) = 0.01927013
#
# Stress axis : x y z
#
# Youngs Moduli (GPa) = 107.82464 50.84144 88.38703
#
# Poissons Ratio (x) = 0.11263 0.22314
# Poissons Ratio (y) = 0.23887 0.50854
# Poissons Ratio (z) = 0.27221 0.29252
#
# Static dielectric constant tensor:
#      x y z
#    x 1.846710 -0.017190 -0.006500 
#    y -0.017190 1.753540 0.020000 
#    z -0.006500 0.020000 1.762600 
# 
# From -- ./inp_files/581793.got.cif
#   From: 2010.05.17/outbox.cif.g08.bks.cpg/sg2_291_cif.got.tgz:581793.got - 2010.06.03 11:33:40.
