data_PCOD9002119
_publ_section_title
;
Structure prediction by ZEFSAII (Michael W. Deem and Ramdas Pophale) SiO2 
 PCOD9002119
Probable space group: P -1
;
_chemical_formula_sum "Si O2"
_cell_formula_units_Z 12
_cell_length_a 8.248322
_cell_length_b 12.234259
_cell_length_c 9.601947
_cell_angle_alpha 65.868692
_cell_angle_beta 117.113192
_cell_angle_gamma 146.227310
_cell_volume 478.566706
_symmetry_space_group_name_H-M "P -1"
_symmetry_group_IT_number 2
_symmetry_cell_setting 'triclinic'
loop_
_space_group_symop_operation_xyz
x,y,z
-x,-y,-z
loop_
_atom_site_type_symbol
_atom_site_label
_atom_site_fract_x
_atom_site_fract_y
_atom_site_fract_z
Si Si1 0.741535 0.496964 0.771187
Si Si2 0.556247 0.785039 0.824955
Si Si3 0.675942 0.516795 0.286890
Si Si4 0.242299 0.093049 0.431622
Si Si5 0.139820 0.773499 0.543779
Si Si6 0.627204 0.196112 0.982006
O O1 0.486253 0.443471 0.768541
O O2 0.850844 0.619633 0.611283
O O3 0.038338 0.648302 0.906149
O O4 0.648645 0.309677 0.813178
O O5 0.392687 0.572447 0.846260
O O6 0.569402 0.841639 0.954517
O O7 0.330470 0.761631 0.675394
O O8 0.839212 0.933704 0.752706
O O9 0.014073 0.700096 0.376624
O O10 0.511083 0.328472 0.415250
O O11 0.300460 0.982482 0.528346
O O12 0.000000 0.000000 0.500000
O O13 0.500000 0.000000 0.000000
#
# Coordination Sequence:
#
# PCOD9002119 Si02
#       6
#     2   2   2   2   2   2
#     4  10  22  39  63  92 119 161 214 250 299 373
#     4   9  22  40  60  95 125 162 207 251 298 373
#     4  10  22  37  61  95 127 159 197 257 313 363
#     4  10  21  36  57  92 132 158 198 248 303 371
#     4  11  19  38  62  94 128 162 195 247 322 366
#     4  10  23  45  63  83 123 170 210 252 303 354
#
# _framework density 25.074877000000001
#
# number of rings (size 3 to 8) (size 9 to 14) (size 15 to 20)
#    1.000    1.000    1.667    1.500    0.000    4.667 
#    9.000    0.833    0.000    0.000    0.000    0.000 
#    0.000    0.000    0.000    0.000    0.000    0.000 
#
# Total GULP energy -66962.517856 kJ/mol
# GULP energy per Si atom -5580.209821 kJ/mol
# Density = 2.501781 g / cm^3
# Si number density = 25.074877 Si / 1000 Ang^3
#
#
#
# Elastic Constant Matrix: (Units=GPa)
#
#
# Indices 1 2 3 4 5 6 
#
# 1 89.9725 38.1031 21.0223 3.3143 -1.5767 -9.1395
# 2 38.1031 140.8470 29.9444 -14.3419 21.9060 -29.4249
# 3 21.0223 29.9444 58.7236 -5.1731 5.6427 -4.8656
# 4 3.3143 -14.3419 -5.1731 26.8690 -5.0381 8.4295
# 5 -1.5767 21.9060 5.6427 -5.0381 42.5330 -15.3683
# 6 -9.1395 -29.4249 -4.8656 8.4295 -15.3683 37.4308
#
#
#
# Elastic Compliance Matrix: (Units=1/GPa)
#
#
# Indices 1 2 3 4 5 6 
#
# 1 0.013893 -0.003374 -0.003736 -0.004443 0.003142 0.002545
# 2 -0.003374 0.010543 -0.003176 0.003282 -0.002893 0.005124
# 3 -0.003736 -0.003176 0.020230 0.003025 -0.001592 -0.002114
# 4 -0.004443 0.003282 0.003025 0.042511 0.000003 -0.007684
# 5 0.003142 -0.002893 -0.001592 0.000003 0.029014 0.010198
# 6 0.002545 0.005124 -0.002114 -0.007684 0.010198 0.037008
#
#
# Mechanical properties :
#
#
# Convention : Reuss Voigt Hill
#
# Bulk Modulus (GPa) = 41.50328 51.96473 46.73400
# Shear Modulus (GPa) = 27.50238 34.73146 31.11692
#
# Velocity S-wave (km/s) = 3.31541 3.72574 3.52655
# Velocity P-wave (km/s) = 5.58959 6.26714 5.93804
#
# Compressibility (1/GPa) = 0.02409448
#
# Stress axis : x y z
#
# Youngs Moduli (GPa) = 71.97681 94.85374 49.43077
#
# Poissons Ratio (x) = 0.32000 0.18466
# Poissons Ratio (y) = 0.24282 0.15702
# Poissons Ratio (z) = 0.26889 0.30130
#
# Static dielectric constant tensor:
#      x y z
#    x 2.066300 0.026130 -0.113720 
#    y 0.026130 2.014530 0.027060 
#    z -0.113720 0.027060 2.046740 
# 
# From -- ./inp_files/389545.got.cif
#   From: 2010.05.17/outbox.cif.g08.bks.cpg/sg2_195_cif.got.tgz:389545.got - 2010.06.03 11:33:40.
