data_PCOD9002316
_publ_section_title
;
Structure prediction by ZEFSAII (Michael W. Deem and Ramdas Pophale) SiO2 
 PCOD9002316
Probable space group: P -1
;
_chemical_formula_sum "Si O2"
_cell_formula_units_Z 14
_cell_length_a 13.849043
_cell_length_b 11.223307
_cell_length_c 13.405280
_cell_angle_alpha 57.770869
_cell_angle_beta 159.086316
_cell_angle_gamma 114.467029
_cell_volume 604.334073
_symmetry_space_group_name_H-M "P -1"
_symmetry_group_IT_number 2
_symmetry_cell_setting 'triclinic'
loop_
_space_group_symop_operation_xyz
x,y,z
-x,-y,-z
loop_
_atom_site_type_symbol
_atom_site_label
_atom_site_fract_x
_atom_site_fract_y
_atom_site_fract_z
Si Si1 0.457932 0.992268 0.345035
Si Si2 0.196559 0.067888 0.725917
Si Si3 0.705843 0.290504 0.642988
Si Si4 0.019755 0.415941 0.378520
Si Si5 0.949424 0.102158 0.681152
Si Si6 0.885915 0.542519 0.979886
Si Si7 0.596475 0.388441 0.273132
O O1 0.361503 0.844107 0.306108
O O2 0.500000 0.000000 0.500000
O O3 0.734702 0.010161 0.548934
O O4 0.181365 0.112117 0.983637
O O5 0.104001 0.244173 0.555430
O O6 0.139392 0.033374 0.800683
O O7 0.000000 0.000000 0.500000
O O8 0.500000 0.000000 0.000000
O O9 0.004209 0.316784 0.944688
O O10 0.648811 0.289924 0.469480
O O11 0.448334 0.429226 0.361699
O O12 0.998814 0.435575 0.229128
O O13 0.248972 0.487686 0.612857
O O14 0.726661 0.522656 0.089361
O O15 0.746107 0.266479 0.391871
O O16 0.000000 0.500000 0.000000
#
# Coordination Sequence:
#
# PCOD9002316 Si02
#       7
#     2   2   2   2   2   2   2
#     4  12  24  40  67 103 145 181 216 281 359 419
#     4  12  28  50  70  97 140 185 240 291 334 417
#     4  10  21  36  59  92 134 172 207 278 333 402
#     4  10  23  42  68  93 132 181 219 294 347 390
#     4  12  26  42  70 105 139 187 236 282 351 423
#     4  10  21  37  60  92 126 173 230 271 327 405
#     4  10  21  40  67 101 130 169 227 279 353 413
#
# _framework density 23.165994000000001
#
# number of rings (size 3 to 8) (size 9 to 14) (size 15 to 20)
#    0.000    1.143    1.429    4.286    4.000    4.571 
#    0.000    0.000    0.000    0.000    0.000    0.000 
#    0.000    0.000    0.000    0.000    0.000    0.000 
#
# Total GULP energy -78257.431857 kJ/mol
# GULP energy per Si atom -5589.816561 kJ/mol
# Density = 2.311327 g / cm^3
# Si number density = 23.165994 Si / 1000 Ang^3
#
#
#
# Elastic Constant Matrix: (Units=GPa)
#
#
# Indices 1 2 3 4 5 6 
#
# 1 126.4591 27.9933 51.8010 -8.0516 24.4381 5.2956
# 2 27.9933 91.5411 17.5861 5.7160 0.5941 31.2783
# 3 51.8010 17.5861 107.1877 13.7520 28.7951 16.4354
# 4 -8.0516 5.7160 13.7520 33.5262 1.7282 4.7511
# 5 24.4381 0.5941 28.7951 1.7282 35.8161 -0.8024
# 6 5.2956 31.2783 16.4354 4.7511 -0.8024 31.5115
#
#
#
# Elastic Compliance Matrix: (Units=1/GPa)
#
#
# Indices 1 2 3 4 5 6 
#
# 1 0.012018 -0.004403 -0.005361 0.005443 -0.003985 0.004225
# 2 -0.004403 0.018165 0.001996 -0.002473 0.000815 -0.017939
# 3 -0.005361 0.001996 0.016308 -0.006583 -0.009366 -0.008832
# 4 0.005443 -0.002473 -0.006583 0.034286 -0.000039 -0.000197
# 5 -0.003985 0.000815 -0.009366 -0.000039 0.038286 0.005726
# 6 0.004225 -0.017939 -0.008832 -0.000197 0.005726 0.053612
#
#
# Mechanical properties :
#
#
# Convention : Reuss Voigt Hill
#
# Bulk Modulus (GPa) = 32.30401 57.77209 45.03805
# Shear Modulus (GPa) = 25.18506 35.35792 30.27149
#
# Velocity S-wave (km/s) = 3.30078 3.91101 3.61878
# Velocity P-wave (km/s) = 5.33870 6.73700 6.07819
#
# Compressibility (1/GPa) = 0.03095591
#
# Stress axis : x y z
#
# Youngs Moduli (GPa) = 83.20796 55.04972 61.32015
#
# Poissons Ratio (x) = 0.24236 0.32875
# Poissons Ratio (y) = 0.36633 -0.12241
# Poissons Ratio (z) = 0.44610 -0.10989
#
# Static dielectric constant tensor:
#      x y z
#    x 1.991170 -0.012490 -0.029290 
#    y -0.012490 1.882740 -0.032530 
#    z -0.029290 -0.032530 1.866920 
# 
# From -- ./inp_files/531774.got.cif
#   From: 2010.05.17/outbox.cif.g08.bks.cpg/sg2_266_cif.got.tgz:531774.got - 2010.06.03 11:33:40.
