data_PCOD9002911
_publ_section_title
;
Structure prediction by ZEFSAII (Michael W. Deem and Ramdas Pophale) SiO2 
 PCOD9002911
Probable space group: P -1
;
_chemical_formula_sum "Si O2"
_cell_formula_units_Z 16
_cell_length_a 5.542633
_cell_length_b 16.526273
_cell_length_c 16.246811
_cell_angle_alpha 144.383633
_cell_angle_beta 92.254972
_cell_angle_gamma 103.951940
_cell_volume 764.693879
_symmetry_space_group_name_H-M "P -1"
_symmetry_group_IT_number 2
_symmetry_cell_setting 'triclinic'
loop_
_space_group_symop_operation_xyz
x,y,z
-x,-y,-z
loop_
_atom_site_type_symbol
_atom_site_label
_atom_site_fract_x
_atom_site_fract_y
_atom_site_fract_z
Si Si1 0.724726 0.888829 0.356588
Si Si2 0.333518 0.874016 0.557333
Si Si3 0.742643 0.574488 0.499876
Si Si4 0.204841 0.634598 0.228237
Si Si5 0.842745 0.871246 0.652187
Si Si6 0.241636 0.733949 0.763579
Si Si7 0.191809 0.993392 0.068394
Si Si8 0.794256 0.628393 0.076518
O O1 0.512783 0.757198 0.306011
O O2 0.787442 0.791935 0.206309
O O3 0.601757 0.993827 0.402189
O O4 0.000000 0.000000 0.500000
O O5 0.172160 0.702886 0.370339
O O6 0.611931 0.890435 0.613221
O O7 0.119423 0.894891 0.631065
O O8 0.500000 0.500000 0.500000
O O9 0.706755 0.691029 0.533648
O O10 0.757843 0.424989 0.338301
O O11 0.008757 0.678101 0.644451
O O12 0.012094 0.648861 0.167173
O O13 0.155311 0.456326 0.071492
O O14 0.905424 0.983311 0.824919
O O15 0.515681 0.857274 0.822848
O O16 0.203333 0.832336 0.918339
O O17 0.000000 0.000000 0.000000
O O18 0.500000 0.500000 0.000000
#
# Coordination Sequence:
#
# PCOD9002911 Si02
#       8
#     2   2   2   2   2   2   2   2
#     4  11  21  40  71 100 128 181 237 269 318 410
#     4  12  27  42  65 101 146 174 214 287 353 391
#     4  11  21  41  67  97 121 174 229 277 321 417
#     4  10  21  41  68  97 129 180 227 270 321 403
#     4  12  27  43  64 101 141 177 216 286 357 393
#     4  10  21  36  72  94 124 159 239 276 320 380
#     4  11  21  41  67  97 125 174 224 284 324 410
#     4   9  20  37  69  96 124 162 242 268 311 374
#
# _framework density 20.923404000000001
#
# number of rings (size 3 to 8) (size 9 to 14) (size 15 to 20)
#    0.000    1.250    3.750    1.875    7.000    0.000 
#    0.000    2.500    0.000    0.000    0.000    0.000 
#    0.000    0.000    0.000    0.000    0.000    0.000 
#
# Total GULP energy -89368.755137 kJ/mol
# GULP energy per Si atom -5585.547196 kJ/mol
# Density = 2.087578 g / cm^3
# Si number density = 20.923404 Si / 1000 Ang^3
#
#
#
# Elastic Constant Matrix: (Units=GPa)
#
#
# Indices 1 2 3 4 5 6 
#
# 1 111.8872 26.1094 58.8027 -4.4680 1.3628 -5.5565
# 2 26.1094 53.9824 23.5964 3.3613 -7.6966 -16.2050
# 3 58.8027 23.5964 166.3466 -4.4902 -28.0063 -5.4541
# 4 -4.4680 3.3613 -4.4902 33.5110 3.2002 -8.8384
# 5 1.3628 -7.6966 -28.0063 3.2002 60.9076 2.1898
# 6 -5.5565 -16.2050 -5.4541 -8.8384 2.1898 41.8629
#
#
#
# Elastic Compliance Matrix: (Units=1/GPa)
#
#
# Indices 1 2 3 4 5 6 
#
# 1 0.012300 -0.004730 -0.004116 0.001780 -0.002851 -0.000210
# 2 -0.004730 0.024184 -0.001117 -0.001277 0.002421 0.008192
# 3 -0.004116 -0.001117 0.008261 0.000305 0.003735 -0.000033
# 4 0.001780 -0.001277 0.000305 0.032200 -0.001993 0.006684
# 5 -0.002851 0.002421 0.003735 -0.001993 0.018623 -0.000350
# 6 -0.000210 0.008192 -0.000033 0.006684 -0.000350 0.028456
#
#
# Mechanical properties :
#
#
# Convention : Reuss Voigt Hill
#
# Bulk Modulus (GPa) = 40.29106 61.02590 50.65848
# Shear Modulus (GPa) = 32.84653 42.17015 37.50834
#
# Velocity S-wave (km/s) = 3.96643 4.49425 4.23856
# Velocity P-wave (km/s) = 6.34626 7.49404 6.94391
#
# Compressibility (1/GPa) = 0.02481940
#
# Stress axis : x y z
#
# Youngs Moduli (GPa) = 81.30147 41.34891 121.05385
#
# Poissons Ratio (x) = 0.19559 0.49824
# Poissons Ratio (y) = 0.38458 0.13518
# Poissons Ratio (z) = 0.33463 0.04617
#
# Static dielectric constant tensor:
#      x y z
#    x 1.814780 0.007460 -0.070450 
#    y 0.007460 1.746040 -0.000360 
#    z -0.070450 -0.000360 1.804670 
# 
# From -- ./inp_files/484518.got.cif
#   From: 2010.05.17/outbox.cif.g08.bks.cpg/sg2_243_cif.got.tgz:484518.got - 2010.06.03 11:33:40.
