data_PCOD9002476
_publ_section_title
;
Structure prediction by ZEFSAII (Michael W. Deem and Ramdas Pophale) SiO2 
 PCOD9002476
Probable space group: P -1
;
_chemical_formula_sum "Si O2"
_cell_formula_units_Z 16
_cell_length_a 11.048425
_cell_length_b 11.021305
_cell_length_c 15.733233
_cell_angle_alpha 54.119577
_cell_angle_beta 37.370754
_cell_angle_gamma 80.480796
_cell_volume 745.974710
_symmetry_space_group_name_H-M "P -1"
_symmetry_group_IT_number 2
_symmetry_cell_setting 'triclinic'
loop_
_space_group_symop_operation_xyz
x,y,z
-x,-y,-z
loop_
_atom_site_type_symbol
_atom_site_label
_atom_site_fract_x
_atom_site_fract_y
_atom_site_fract_z
Si Si1 0.191130 0.737066 0.712352
Si Si2 0.813284 0.537939 0.484134
Si Si3 0.613756 0.164121 0.246670
Si Si4 0.961975 0.556067 0.216410
Si Si5 0.843270 0.823506 0.817837
Si Si6 0.797600 0.633838 0.762220
Si Si7 0.632374 0.222050 0.841933
Si Si8 0.757435 0.748591 0.562227
O O1 0.258186 0.757136 0.765094
O O2 0.175559 0.577219 0.733996
O O3 0.928477 0.708215 0.861984
O O4 0.407107 0.939230 0.464977
O O5 0.692825 0.330357 0.673892
O O6 0.693561 0.620272 0.569493
O O7 0.800696 0.550210 0.385166
O O8 0.106551 0.672795 0.295652
O O9 0.466688 0.251771 0.277754
O O10 0.818167 0.238806 0.028234
O O11 0.085646 0.467062 0.229417
O O12 0.900766 0.813816 0.691279
O O13 0.561635 0.752989 0.014578
O O14 0.021013 0.032973 0.670839
O O15 0.849181 0.687457 0.613252
O O16 0.500000 0.500000 0.000000
O O17 0.500000 0.000000 0.000000
#
# Coordination Sequence:
#
# PCOD9002476 Si02
#       8
#     2   2   2   2   2   2   2   2
#     4   9  22  41  63  90 110 151 206 253 284 348
#     4  11  24  38  56  87 128 155 197 232 296 363
#     4  10  21  41  67  83 118 152 200 249 298 334
#     4  11  22  37  60  88 116 157 194 246 293 353
#     4  10  21  36  61  87 114 155 203 244 295 339
#     4  11  19  33  55  87 120 146 195 244 292 348
#     4  11  22  39  57  83 126 169 190 234 295 362
#     4  11  21  38  57  90 121 159 190 240 295 361
#
# _framework density 21.448447999999999
#
# number of rings (size 3 to 8) (size 9 to 14) (size 15 to 20)
#    0.000    1.500    2.500    3.750    1.750    1.000 
#    0.000    0.625    0.000    2.250    0.000    0.000 
#    0.000    0.000    0.000    0.000    0.000    0.000 
#
# Total GULP energy -89399.925012 kJ/mol
# GULP energy per Si atom -5587.495313 kJ/mol
# Density = 2.139963 g / cm^3
# Si number density = 21.448448 Si / 1000 Ang^3
#
#
#
# Elastic Constant Matrix: (Units=GPa)
#
#
# Indices 1 2 3 4 5 6 
#
# 1 26.5603 -4.8636 -2.7379 -2.2023 7.8079 5.6837
# 2 -4.8636 75.1190 31.1335 -0.5551 9.9963 13.7671
# 3 -2.7379 31.1335 78.4903 -7.2876 23.7304 8.0657
# 4 -2.2023 -0.5551 -7.2876 33.0070 3.8728 4.2243
# 5 7.8079 9.9963 23.7304 3.8728 29.0986 2.1598
# 6 5.6837 13.7671 8.0657 4.2243 2.1598 12.1325
#
#
#
# Elastic Compliance Matrix: (Units=1/GPa)
#
#
# Indices 1 2 3 4 5 6 
#
# 1 0.063543 0.012524 0.013858 0.018059 -0.031053 -0.053952
# 2 0.012524 0.021470 -0.002374 0.005268 -0.007335 -0.029180
# 3 0.013858 -0.002374 0.024081 0.011380 -0.022590 -0.019748
# 4 0.018059 0.005268 0.011380 0.040510 -0.018897 -0.032744
# 5 -0.031053 -0.007335 -0.022590 -0.018897 0.063697 0.033130
# 6 -0.053952 -0.029180 -0.019748 -0.032744 0.033130 0.159442
#
#
# Mechanical properties :
#
#
# Convention : Reuss Voigt Hill
#
# Bulk Modulus (GPa) = 6.36492 25.24820 15.80656
# Shear Modulus (GPa) = 13.25919 25.29013 19.27466
#
# Velocity S-wave (km/s) = 2.48904 3.43755 3.00100
# Velocity P-wave (km/s) = 3.35177 5.24907 4.40381
#
# Compressibility (1/GPa) = 0.15711117
#
# Stress axis : x y z
#
# Youngs Moduli (GPa) = 15.73727 46.57697 41.52631
#
# Poissons Ratio (x) = -0.58334 -0.57547
# Poissons Ratio (y) = -0.19710 0.09858
# Poissons Ratio (z) = -0.21809 0.11057
#
# Static dielectric constant tensor:
#      x y z
#    x 1.785720 0.009440 -0.015980 
#    y 0.009440 1.813550 0.000760 
#    z -0.015980 0.000760 1.804090 
# 
# From -- ./inp_files/256035.got.cif
#   From: 2010.05.17/outbox.cif.g08.bks.cpg/sg2_129_cif.got.tgz:256035.got - 2010.06.03 11:33:40.
