data_PCOD9002705
_publ_section_title
;
Structure prediction by ZEFSAII (Michael W. Deem and Ramdas Pophale) SiO2 
 PCOD9002705
Probable space group: P -1
;
_chemical_formula_sum "Si O2"
_cell_formula_units_Z 16
_cell_length_a 5.699197
_cell_length_b 4.999700
_cell_length_c 20.748950
_cell_angle_alpha 92.935710
_cell_angle_beta 86.568136
_cell_angle_gamma 96.320421
_cell_volume 585.985229
_symmetry_space_group_name_H-M "P -1"
_symmetry_group_IT_number 2
_symmetry_cell_setting 'triclinic'
loop_
_space_group_symop_operation_xyz
x,y,z
-x,-y,-z
loop_
_atom_site_type_symbol
_atom_site_label
_atom_site_fract_x
_atom_site_fract_y
_atom_site_fract_z
Si Si1 0.490983 0.842475 0.730231
Si Si2 0.455414 0.469246 0.399704
Si Si3 0.292442 0.776425 0.977078
Si Si4 0.183288 0.967080 0.440518
Si Si5 0.152670 0.192884 0.658844
Si Si6 0.047015 0.898775 0.098476
Si Si7 0.461183 0.347210 0.142960
Si Si8 0.113897 0.716102 0.222262
O O1 0.554751 0.611363 0.677182
O O2 0.386885 0.745671 0.800363
O O3 0.327766 0.023981 0.694265
O O4 0.731341 0.021263 0.749017
O O5 0.713686 0.630494 0.397604
O O6 0.276882 0.677412 0.427474
O O7 0.403634 0.198774 0.438239
O O8 0.398130 0.567744 0.924139
O O9 0.127760 0.933833 0.935369
O O10 0.145069 0.692636 0.042963
O O11 0.500000 0.000000 0.000000
O O12 0.039831 0.005154 0.377573
O O13 0.000000 0.000000 0.500000
O O14 0.037880 0.382108 0.714620
O O15 0.948804 0.776641 0.165598
O O16 0.273637 0.100630 0.119447
O O17 0.302586 0.548817 0.182928
#
# Coordination Sequence:
#
# PCOD9002705 Si02
#       8
#     2   2   2   2   2   2   2   2
#     4  11  23  44  68 104 142 185 246 300 362 447
#     4  12  26  51  74 115 148 194 252 298 366 447
#     4   9  18  38  58  87 129 185 233 309 361 443
#     4  12  29  52  78 112 155 195 246 305 364 443
#     4  12  25  44  77 102 151 196 240 309 373 430
#     4   9  20  37  61  88 133 180 243 294 377 440
#     4  10  21  36  63  94 136 177 243 302 370 440
#     4  11  23  42  65 103 138 187 241 307 370 443
#
# _framework density 27.304444
#
# number of rings (size 3 to 8) (size 9 to 14) (size 15 to 20)
#    0.000    1.250    2.500    2.625    1.750    5.500 
#    0.000    5.625    0.000    0.000    0.000    0.000 
#    0.000    0.000    0.000    0.000    0.000    0.000 
#
# Total GULP energy -89635.614243 kJ/mol
# GULP energy per Si atom -5602.225890 kJ/mol
# Density = 2.724230 g / cm^3
# Si number density = 27.304444 Si / 1000 Ang^3
#
#
#
# Elastic Constant Matrix: (Units=GPa)
#
#
# Indices 1 2 3 4 5 6 
#
# 1 60.9110 14.0254 47.0456 13.1993 -6.7088 -12.8425
# 2 14.0254 90.3666 33.5501 18.0867 -12.7375 -7.7728
# 3 47.0456 33.5501 205.1872 24.0844 -39.0503 -11.7405
# 4 13.1993 18.0867 24.0844 43.5506 -5.1294 -9.9719
# 5 -6.7088 -12.7375 -39.0503 -5.1294 67.2783 8.4676
# 6 -12.8425 -7.7728 -11.7405 -9.9719 8.4676 44.3451
#
#
#
# Elastic Compliance Matrix: (Units=1/GPa)
#
#
# Indices 1 2 3 4 5 6 
#
# 1 0.021473 -0.000930 -0.004452 -0.002790 -0.001400 0.004517
# 2 -0.000930 0.012665 -0.001102 -0.004104 0.001291 0.000489
# 3 -0.004452 -0.001102 0.006867 -0.001761 0.003286 -0.000688
# 4 -0.002790 -0.004104 -0.001761 0.027401 -0.000526 0.004268
# 5 -0.001400 0.001291 0.003286 -0.000526 0.017176 -0.002707
# 6 0.004517 0.000489 -0.000688 0.004268 -0.002707 0.025239
#
#
# Mechanical properties :
#
#
# Convention : Reuss Voigt Hill
#
# Bulk Modulus (GPa) = 35.66737 60.63411 48.15074
# Shear Modulus (GPa) = 37.55576 48.49105 43.02341
#
# Velocity S-wave (km/s) = 3.71272 4.21876 3.97381
# Velocity P-wave (km/s) = 5.60984 6.78126 6.22317
#
# Compressibility (1/GPa) = 0.02803683
#
# Stress axis : x y z
#
# Youngs Moduli (GPa) = 46.57073 78.95698 145.62019
#
# Poissons Ratio (x) = 0.07345 0.64825
# Poissons Ratio (y) = 0.04332 0.16050
# Poissons Ratio (z) = 0.20732 0.08702
#
# Static dielectric constant tensor:
#      x y z
#    x 2.153120 0.003360 -0.044860 
#    y 0.003360 2.162890 -0.043000 
#    z -0.044860 -0.043000 2.115540 
# 
# From -- ./inp_files/581155.got.cif
#   From: 2010.05.17/outbox.cif.g08.bks.cpg/sg2_291_cif.got.tgz:581155.got - 2010.06.03 11:33:40.
