data_PCOD9002027
_publ_section_title
;
Structure prediction by ZEFSAII (Michael W. Deem and Ramdas Pophale) SiO2 
 PCOD9002027
Probable space group: P -1
;
_chemical_formula_sum "Si O2"
_cell_formula_units_Z 14
_cell_length_a 11.924112
_cell_length_b 7.367327
_cell_length_c 16.173542
_cell_angle_alpha 62.225151
_cell_angle_beta 41.082487
_cell_angle_gamma 91.019679
_cell_volume 638.371371
_symmetry_space_group_name_H-M "P -1"
_symmetry_group_IT_number 2
_symmetry_cell_setting 'triclinic'
loop_
_space_group_symop_operation_xyz
x,y,z
-x,-y,-z
loop_
_atom_site_type_symbol
_atom_site_label
_atom_site_fract_x
_atom_site_fract_y
_atom_site_fract_z
Si Si1 0.515167 0.727120 0.350050
Si Si2 0.044184 0.478869 0.694688
Si Si3 0.085067 0.056793 0.802303
Si Si4 0.656153 0.815535 0.518771
Si Si5 0.797259 0.498994 0.114727
Si Si6 0.831037 0.043963 0.557778
Si Si7 0.356586 0.750856 0.916091
O O1 0.307796 0.665064 0.530181
O O2 0.697443 0.764536 0.299586
O O3 0.404657 0.471450 0.406084
O O4 0.622254 0.000971 0.184632
O O5 0.993665 0.197575 0.785516
O O6 0.059791 0.645604 0.573147
O O7 0.847711 0.417316 0.872893
O O8 0.173837 0.995743 0.687278
O O9 0.901971 0.798539 0.011206
O O10 0.412141 0.726945 0.667886
O O11 0.758527 0.936026 0.526044
O O12 0.702946 0.437574 0.087996
O O13 0.000000 0.500000 0.000000
O O14 0.608122 0.884291 0.770657
O O15 0.000000 0.000000 0.500000
#
# Coordination Sequence:
#
# PCOD9002027 Si02
#       7
#     2   2   2   2   2   2   2
#     4  10  21  36  56  87 125 162 182 222 279 348
#     4  10  21  37  59  84 114 150 194 239 281 342
#     4  11  22  36  57  86 127 161 185 219 281 349
#     4  10  22  38  56  83 117 152 196 237 280 343
#     4  11  22  32  53  86 120 158 191 223 273 338
#     4  10  23  44  63  81 108 149 200 254 298 327
#     4  10  21  38  58  88 120 149 195 235 282 344
#
# _framework density 21.930807000000001
#
# number of rings (size 3 to 8) (size 9 to 14) (size 15 to 20)
#    0.000    1.714    1.429    3.429    4.000    2.286 
#    0.000    6.429    0.000    7.714    0.000    0.000 
#    0.000    0.000    0.000    0.000    0.000    0.000 
#
# Total GULP energy -78003.128598 kJ/mol
# GULP energy per Si atom -5571.652043 kJ/mol
# Density = 2.188089 g / cm^3
# Si number density = 21.930807 Si / 1000 Ang^3
#
#
#
# Elastic Constant Matrix: (Units=GPa)
#
#
# Indices 1 2 3 4 5 6 
#
# 1 55.0398 27.7933 17.9887 4.4074 -11.3319 -29.2397
# 2 27.7933 69.4389 17.0977 -2.3581 -9.8201 -18.4192
# 3 17.9887 17.0977 144.6216 19.8628 -9.4341 -9.9070
# 4 4.4074 -2.3581 19.8628 49.8875 -4.6773 -0.6496
# 5 -11.3319 -9.8201 -9.4341 -4.6773 14.2197 7.8843
# 6 -29.2397 -18.4192 -9.9070 -0.6496 7.8843 40.4189
#
#
#
# Elastic Compliance Matrix: (Units=1/GPa)
#
#
# Indices 1 2 3 4 5 6 
#
# 1 0.034860 -0.006986 -0.001240 -0.001656 0.010713 0.019614
# 2 -0.006986 0.019057 -0.001175 0.002623 0.006503 0.002116
# 3 -0.001240 -0.001175 0.007749 -0.002802 0.002451 -0.000056
# 4 -0.001656 0.002623 -0.002802 0.022048 0.006807 -0.001663
# 5 0.010713 0.006503 0.002451 0.006807 0.090693 -0.006267
# 6 0.019614 0.002116 -0.000056 -0.001663 -0.006267 0.041077
#
#
# Mechanical properties :
#
#
# Convention : Reuss Voigt Hill
#
# Bulk Modulus (GPa) = 23.33011 43.87331 33.60171
# Shear Modulus (GPa) = 20.11485 34.65327 27.38406
#
# Velocity S-wave (km/s) = 3.03181 3.97938 3.53747
# Velocity P-wave (km/s) = 4.78717 6.41582 5.66038
#
# Compressibility (1/GPa) = 0.04286307
#
# Stress axis : x y z
#
# Youngs Moduli (GPa) = 28.68619 52.47495 129.05522
#
# Poissons Ratio (x) = 0.36658 0.16005
# Poissons Ratio (y) = 0.20040 0.15165
# Poissons Ratio (z) = 0.03558 0.06166
#
# Static dielectric constant tensor:
#      x y z
#    x 1.756200 0.007190 -0.005510 
#    y 0.007190 1.920760 0.008090 
#    z -0.005510 0.008090 1.868510 
# 
# From -- ./inp_files/269776.got.cif
#   From: 2010.05.17/outbox.cif.g08.bks.cpg/sg2_135_cif.got.tgz:269776.got - 2010.06.03 11:33:40.
