data_PCOD9002708
_publ_section_title
;
Structure prediction by ZEFSAII (Michael W. Deem and Ramdas Pophale) SiO2 
 PCOD9002708
Probable space group: P -1
;
_chemical_formula_sum "Si O2"
_cell_formula_units_Z 14
_cell_length_a 14.939157
_cell_length_b 16.091051
_cell_length_c 15.244118
_cell_angle_alpha 152.652669
_cell_angle_beta 28.464570
_cell_angle_gamma 155.695830
_cell_volume 644.211639
_symmetry_space_group_name_H-M "P -1"
_symmetry_group_IT_number 2
_symmetry_cell_setting 'triclinic'
loop_
_space_group_symop_operation_xyz
x,y,z
-x,-y,-z
loop_
_atom_site_type_symbol
_atom_site_label
_atom_site_fract_x
_atom_site_fract_y
_atom_site_fract_z
Si Si1 0.644616 0.897034 0.280667
Si Si2 0.045347 0.760079 0.960675
Si Si3 0.502878 0.900083 0.995221
Si Si4 0.820109 0.877027 0.936778
Si Si5 0.138093 0.731818 0.299767
Si Si6 0.361829 0.196602 0.615900
Si Si7 0.658103 0.615363 0.646034
O O1 0.550860 0.736818 0.296921
O O2 0.500000 0.000000 0.500000
O O3 0.647618 0.790089 0.086202
O O4 0.929679 0.077007 0.218318
O O5 0.916839 0.495322 0.825897
O O6 0.866313 0.807707 0.196135
O O7 0.274676 0.896967 0.951669
O O8 0.115916 0.878336 0.915689
O O9 0.533085 0.699865 0.778188
O O10 0.269810 0.794708 0.153599
O O11 0.500000 0.000000 0.000000
O O12 0.710854 0.732559 0.806922
O O13 0.892979 0.693128 0.468929
O O14 0.297225 0.950528 0.428426
O O15 0.520639 0.357431 0.551078
#
# Coordination Sequence:
#
# PCOD9002708 Si02
#       7
#     2   2   2   2   2   2   2
#     4  10  21  36  63  95 131 172 223 268 316 374
#     4  10  22  44  69  93 135 174 217 269 328 388
#     4  11  25  45  71 101 130 166 218 276 328 393
#     4   9  21  41  59  94 136 168 221 275 310 379
#     4  12  23  43  72  93 128 180 214 261 337 386
#     4  11  23  44  66  98 133 177 223 262 323 395
#     4  11  23  43  68  96 132 175 220 264 329 399
#
# _framework density 21.731988999999999
#
# number of rings (size 3 to 8) (size 9 to 14) (size 15 to 20)
#    0.000    1.429    5.714    0.857    6.000    1.714 
#    0.000    5.714    0.000    0.000    0.000    0.000 
#    0.000    0.000    0.000    0.000    0.000    0.000 
#
# Total GULP energy -78179.483038 kJ/mol
# GULP energy per Si atom -5584.248788 kJ/mol
# Density = 2.168253 g / cm^3
# Si number density = 21.731989 Si / 1000 Ang^3
#
#
#
# Elastic Constant Matrix: (Units=GPa)
#
#
# Indices 1 2 3 4 5 6 
#
# 1 92.2370 44.3245 44.9762 -12.4336 -26.8979 -25.1859
# 2 44.3245 109.3585 54.7396 10.4112 -9.9896 -27.7739
# 3 44.9762 54.7396 115.8209 -8.9026 -19.1691 -16.1422
# 4 -12.4336 10.4112 -8.9026 50.9750 3.7613 0.9925
# 5 -26.8979 -9.9896 -19.1691 3.7613 13.2639 3.2533
# 6 -25.1859 -27.7739 -16.1422 0.9925 3.2533 26.8000
#
#
#
# Elastic Compliance Matrix: (Units=1/GPa)
#
#
# Indices 1 2 3 4 5 6 
#
# 1 0.043799 -0.005661 0.003325 0.005913 0.081003 0.027245
# 2 -0.005661 0.016680 -0.006220 -0.005417 -0.008694 0.009476
# 3 0.003325 -0.006220 0.014425 0.002969 0.021412 0.002659
# 4 0.005913 -0.005417 0.002969 0.022249 0.005844 0.000198
# 5 0.081003 -0.008694 0.021412 0.005844 0.250277 0.049413
# 6 0.027245 0.009476 0.002659 0.000198 0.049413 0.068334
#
#
# Mechanical properties :
#
#
# Convention : Reuss Voigt Hill
#
# Bulk Modulus (GPa) = 17.30300 67.27744 42.29022
# Shear Modulus (GPa) = 11.05854 29.76619 20.41236
#
# Velocity S-wave (km/s) = 2.25824 3.70495 3.06809
# Velocity P-wave (km/s) = 3.84432 7.02334 5.66154
#
# Compressibility (1/GPa) = 0.05779345
#
# Stress axis : x y z
#
# Youngs Moduli (GPa) = 22.83170 59.95168 69.32491
#
# Poissons Ratio (x) = 0.33937 -0.23053
# Poissons Ratio (y) = 0.12924 0.43118
# Poissons Ratio (z) = -0.07592 0.37288
#
# Static dielectric constant tensor:
#      x y z
#    x 1.788080 0.020400 0.012090 
#    y 0.020400 1.867250 0.013150 
#    z 0.012090 0.013150 1.814200 
# 
# From -- ./inp_files/534527.got.cif
#   From: 2010.05.17/outbox.cif.g08.bks.cpg/sg2_268_cif.got.tgz:534527.got - 2010.06.03 11:33:40.
