data_PCOD9002603
_publ_section_title
;
Structure prediction by ZEFSAII (Michael W. Deem and Ramdas Pophale) SiO2 
 PCOD9002603
Probable space group: P -1
;
_chemical_formula_sum "Si O2"
_cell_formula_units_Z 16
_cell_length_a 5.349982
_cell_length_b 12.160421
_cell_length_c 14.292722
_cell_angle_alpha 116.342807
_cell_angle_beta 95.448661
_cell_angle_gamma 108.400097
_cell_volume 759.893918
_symmetry_space_group_name_H-M "P -1"
_symmetry_group_IT_number 2
_symmetry_cell_setting 'triclinic'
loop_
_space_group_symop_operation_xyz
x,y,z
-x,-y,-z
loop_
_atom_site_type_symbol
_atom_site_label
_atom_site_fract_x
_atom_site_fract_y
_atom_site_fract_z
Si Si1 0.761766 0.657685 0.670949
Si Si2 0.578880 0.124038 0.696993
Si Si3 0.833401 0.159730 0.403920
Si Si4 0.906766 0.820598 0.394683
Si Si5 0.060306 0.376535 0.140071
Si Si6 0.307801 0.451700 0.801525
Si Si7 0.284181 0.607209 0.511666
Si Si8 0.979631 0.349124 0.925346
O O1 0.895180 0.692441 0.790385
O O2 0.484408 0.667730 0.630105
O O3 0.655092 0.494858 0.592681
O O4 0.983592 0.752716 0.640918
O O5 0.350538 0.154554 0.643506
O O6 0.722288 0.243615 0.820964
O O7 0.819679 0.119149 0.636951
O O8 0.411727 0.978971 0.682189
O O9 0.725631 0.263634 0.487964
O O10 0.021009 0.133721 0.479354
O O11 0.818258 0.661161 0.323129
O O12 0.368452 0.483731 0.172108
O O13 0.842610 0.445058 0.172751
O O14 0.987983 0.295733 0.009505
O O15 0.226894 0.377902 0.871687
O O16 0.000000 0.500000 0.500000
O O17 0.000000 0.500000 0.000000
#
# Coordination Sequence:
#
# PCOD9002603 Si02
#       8
#     2   2   2   2   2   2   2   2
#     4  10  23  37  60  90 122 158 207 243 299 356
#     4  11  25  41  61  90 122 160 204 246 302 364
#     4  11  24  38  61  84 128 163 195 247 300 362
#     4  11  23  39  61  90 121 158 201 241 303 368
#     4  11  22  36  63  90 122 155 199 254 299 354
#     4  10  21  36  62  92 120 152 197 249 309 351
#     4   9  21  39  58  86 122 159 203 244 296 346
#     4   9  20  42  62  91 119 155 201 256 302 347
#
# _framework density 21.055568999999998
#
# number of rings (size 3 to 8) (size 9 to 14) (size 15 to 20)
#    0.000    1.750    0.000    4.125   12.250    3.000 
#    0.000    0.625    0.000    0.750    0.000    0.000 
#    0.000    0.000    0.000    0.000    0.000    0.000 
#
# Total GULP energy -89222.899205 kJ/mol
# GULP energy per Si atom -5576.431200 kJ/mol
# Density = 2.100765 g / cm^3
# Si number density = 21.055569 Si / 1000 Ang^3
#
#
#
# Elastic Constant Matrix: (Units=GPa)
#
#
# Indices 1 2 3 4 5 6 
#
# 1 84.1065 32.7692 26.4096 -1.0371 17.1994 2.8849
# 2 32.7692 92.6838 66.1227 3.3759 10.2512 15.4214
# 3 26.4096 66.1227 128.7238 -19.5096 13.2814 6.3649
# 4 -1.0371 3.3759 -19.5096 41.2079 -3.0554 1.3555
# 5 17.1994 10.2512 13.2814 -3.0554 23.0647 -4.7160
# 6 2.8849 15.4214 6.3649 1.3555 -4.7160 29.7035
#
#
#
# Elastic Compliance Matrix: (Units=1/GPa)
#
#
# Indices 1 2 3 4 5 6 
#
# 1 0.015617 -0.004373 0.000125 0.000102 -0.009935 -0.000855
# 2 -0.004373 0.022069 -0.010729 -0.006935 -0.003110 -0.008911
# 3 0.000125 -0.010729 0.014555 0.007542 -0.002355 0.001721
# 4 0.000102 -0.006935 0.007542 0.028571 0.002672 0.001095
# 5 -0.009935 -0.003110 -0.002355 0.002672 0.056290 0.011900
# 6 -0.000855 -0.008911 0.001721 0.001095 0.011900 0.039846
#
#
# Mechanical properties :
#
#
# Convention : Reuss Voigt Hill
#
# Bulk Modulus (GPa) = 44.86904 61.79079 53.32992
# Shear Modulus (GPa) = 23.32850 30.80941 27.06895
#
# Velocity S-wave (km/s) = 3.33220 3.82939 3.58941
# Velocity P-wave (km/s) = 6.01339 6.99732 6.52393
#
# Compressibility (1/GPa) = 0.02228708
#
# Stress axis : x y z
#
# Youngs Moduli (GPa) = 64.03477 45.31234 68.70537
#
# Poissons Ratio (x) = 0.19817 -0.00862
# Poissons Ratio (y) = 0.28005 0.73712
# Poissons Ratio (z) = -0.00803 0.48614
#
# Static dielectric constant tensor:
#      x y z
#    x 1.852590 -0.032770 -0.014190 
#    y -0.032770 1.790690 -0.046730 
#    z -0.014190 -0.046730 1.810570 
# 
# From -- ./inp_files/109005.got.cif
#   From: 2010.05.17/outbox.cif.g08.bks.cpg/sg2_55_cif.got.tgz:109005.got - 2010.06.03 11:33:40.
