data_PCOD9002600
_publ_section_title
;
Structure prediction by ZEFSAII (Michael W. Deem and Ramdas Pophale) SiO2 
 PCOD9002600
Probable space group: P -1
;
_chemical_formula_sum "Si O2"
_cell_formula_units_Z 14
_cell_length_a 4.881644
_cell_length_b 9.415978
_cell_length_c 17.677537
_cell_angle_alpha 134.737838
_cell_angle_beta 108.743539
_cell_angle_gamma 73.600603
_cell_volume 544.668432
_symmetry_space_group_name_H-M "P -1"
_symmetry_group_IT_number 2
_symmetry_cell_setting 'triclinic'
loop_
_space_group_symop_operation_xyz
x,y,z
-x,-y,-z
loop_
_atom_site_type_symbol
_atom_site_label
_atom_site_fract_x
_atom_site_fract_y
_atom_site_fract_z
Si Si1 0.109440 0.995384 0.422148
Si Si2 0.064373 0.972587 0.814122
Si Si3 0.632944 0.739873 0.761762
Si Si4 0.166945 0.357641 0.779466
Si Si5 0.372112 0.337997 0.627423
Si Si6 0.500000 0.000000 0.000000
Si Si7 0.791043 0.384596 0.886057
Si Si8 0.000000 0.000000 0.000000
O O1 0.393703 0.837794 0.386898
O O2 0.867657 0.884151 0.315043
O O3 0.194926 0.221567 0.504826
O O4 0.000000 0.000000 0.500000
O O5 0.884951 0.782844 0.743470
O O6 0.359386 0.891662 0.771744
O O7 0.884232 0.151855 0.825660
O O8 0.156127 0.037347 0.933120
O O9 0.531404 0.521435 0.678020
O O10 0.716815 0.841614 0.888778
O O11 0.189808 0.410154 0.712793
O O12 0.448370 0.405933 0.868318
O O13 0.885547 0.440808 0.831066
O O14 0.700592 0.164283 0.036034
O O15 0.000000 0.500000 0.000000
#
# Coordination Sequence:
#
# PCOD9002600 Si02
#       8
#     2   2   2   2   2   1   2   1
#     4   9  20  40  68 105 130 163 215 287 337 392
#     4  10  22  40  58  89 126 171 217 268 322 374
#     4  10  21  36  62  91 131 165 202 276 325 394
#     4  11  23  43  66  97 132 177 215 280 324 389
#     4  10  21  40  70 107 129 163 222 277 354 380
#     4   8  16  34  54  76 112 158 202 264 300 352
#     4  12  26  44  65  92 134 188 230 262 310 402
#     4   8  16  32  48  82 114 156 190 230 316 364
#
# _framework density 25.703710999999998
#
# number of rings (size 3 to 8) (size 9 to 14) (size 15 to 20)
#    0.000    2.000    1.429    1.286    4.000    3.429 
#    5.143    0.000    0.000    5.143    0.000    0.000 
#    0.000    0.000    0.000    0.000    0.000    0.000 
#
# Total GULP energy -77961.224244 kJ/mol
# GULP energy per Si atom -5568.658875 kJ/mol
# Density = 2.564521 g / cm^3
# Si number density = 25.703711 Si / 1000 Ang^3
#
#
#
# Elastic Constant Matrix: (Units=GPa)
#
#
# Indices 1 2 3 4 5 6 
#
# 1 182.3925 13.0942 21.5851 1.3473 24.4343 19.5120
# 2 13.0942 103.0661 16.1736 22.5774 14.6638 -0.3842
# 3 21.5851 16.1736 83.1119 28.0736 26.9740 15.2320
# 4 1.3473 22.5774 28.0736 31.3748 16.0657 3.2213
# 5 24.4343 14.6638 26.9740 16.0657 45.4536 1.5703
# 6 19.5120 -0.3842 15.2320 3.2213 1.5703 26.5659
#
#
#
# Elastic Compliance Matrix: (Units=1/GPa)
#
#
# Indices 1 2 3 4 5 6 
#
# 1 0.006631 -0.000956 -0.000516 0.003395 -0.003985 -0.004764
# 2 -0.000956 0.011768 0.000999 -0.009108 -0.000706 0.001446
# 3 -0.000516 0.000999 0.020995 -0.014993 -0.006879 -0.009419
# 4 0.003395 -0.009108 -0.014993 0.056896 -0.010088 -0.000331
# 5 -0.003985 -0.000706 -0.006879 -0.010088 0.031804 0.006204
# 6 -0.004764 0.001446 -0.009419 -0.000331 0.006204 0.046236
#
#
# Mechanical properties :
#
#
# Convention : Reuss Voigt Hill
#
# Bulk Modulus (GPa) = 26.00945 52.25293 39.13119
# Shear Modulus (GPa) = 26.58257 41.86002 34.22130
#
# Velocity S-wave (km/s) = 3.21937 4.03992 3.65276
# Velocity P-wave (km/s) = 4.89490 6.49110 5.74867
#
# Compressibility (1/GPa) = 0.03844756
#
# Stress axis : x y z
#
# Youngs Moduli (GPa) = 150.81047 84.97447 47.63046
#
# Poissons Ratio (x) = 0.08122 0.02459
# Poissons Ratio (y) = 0.14415 -0.04758
# Poissons Ratio (z) = 0.07787 -0.08488
#
# Static dielectric constant tensor:
#      x y z
#    x 2.396230 0.013650 -0.046130 
#    y 0.013650 2.042070 -0.039800 
#    z -0.046130 -0.039800 2.275500 
# 
# From -- ./inp_files/89332.got.cif
#   From: 2010.05.17/outbox.cif.g08.bks.cpg/sg2_45_cif.got.tgz:89332.got - 2010.06.03 11:33:40.
