data_PCOD9002683
_publ_section_title
;
Structure prediction by ZEFSAII (Michael W. Deem and Ramdas Pophale) SiO2 
 PCOD9002683
Probable space group: P -1
;
_chemical_formula_sum "Si O2"
_cell_formula_units_Z 16
_cell_length_a 11.746304
_cell_length_b 11.848699
_cell_length_c 12.410598
_cell_angle_alpha 58.385334
_cell_angle_beta 138.883944
_cell_angle_gamma 142.700277
_cell_volume 675.970623
_symmetry_space_group_name_H-M "P -1"
_symmetry_group_IT_number 2
_symmetry_cell_setting 'triclinic'
loop_
_space_group_symop_operation_xyz
x,y,z
-x,-y,-z
loop_
_atom_site_type_symbol
_atom_site_label
_atom_site_fract_x
_atom_site_fract_y
_atom_site_fract_z
Si Si1 0.239819 0.689174 0.136896
Si Si2 0.460952 0.734142 0.056047
Si Si3 0.889291 0.000253 0.809104
Si Si4 0.662374 0.280157 0.400941
Si Si5 0.336952 0.409579 0.820939
Si Si6 0.752408 0.566046 0.619587
Si Si7 0.058922 0.854839 0.886844
Si Si8 0.947029 0.400513 0.337905
O O1 0.305451 0.620781 0.308243
O O2 0.436541 0.783822 0.132647
O O3 0.154563 0.786788 0.063053
O O4 0.000000 0.500000 0.000000
O O5 0.221394 0.637435 0.861031
O O6 0.524610 0.612996 0.153990
O O7 0.693999 0.929931 0.069166
O O8 0.078363 0.201522 0.780958
O O9 0.617565 0.910556 0.677237
O O10 0.865470 0.852625 0.796209
O O11 0.000000 0.000000 0.000000
O O12 0.668290 0.441723 0.295295
O O13 0.766743 0.267390 0.374983
O O14 0.863528 0.386280 0.586522
O O15 0.500000 0.500000 0.000000
O O16 0.500000 0.500000 0.500000
O O17 0.947377 0.728776 0.763574
O O18 0.894869 0.638595 0.571832
#
# Coordination Sequence:
#
# PCOD9002683 Si02
#       8
#     2   2   2   2   2   2   2   2
#     4  10  21  36  63  92 118 166 211 252 316 378
#     4  11  21  40  63  95 124 165 210 263 320 378
#     4  11  22  39  66 101 126 168 219 260 324 379
#     4  11  24  42  64  92 134 174 206 270 320 383
#     4  11  22  38  69  95 126 169 216 264 315 390
#     4  11  24  41  63  95 126 168 212 267 321 379
#     4  10  22  39  64  92 129 158 212 270 304 389
#     4  11  23  41  63  89 133 170 209 261 333 368
#
# _framework density 23.669668000000001
#
# number of rings (size 3 to 8) (size 9 to 14) (size 15 to 20)
#    0.000    1.250    5.000    1.875    5.250    1.000 
#    0.000    6.875    0.000    0.000    0.000    0.000 
#    0.000    0.000    0.000    0.000    0.000    0.000 
#
# Total GULP energy -89402.708463 kJ/mol
# GULP energy per Si atom -5587.669279 kJ/mol
# Density = 2.361579 g / cm^3
# Si number density = 23.669668 Si / 1000 Ang^3
#
#
#
# Elastic Constant Matrix: (Units=GPa)
#
#
# Indices 1 2 3 4 5 6 
#
# 1 139.5703 9.1857 28.7220 12.7494 24.9490 4.4675
# 2 9.1857 68.2520 16.9027 2.8818 16.5475 5.4967
# 3 28.7220 16.9027 72.7727 12.6617 17.7591 5.1056
# 4 12.7494 2.8818 12.6617 34.4429 0.6456 12.6634
# 5 24.9490 16.5475 17.7591 0.6456 45.2934 6.9796
# 6 4.4675 5.4967 5.1056 12.6634 6.9796 32.3046
#
#
#
# Elastic Compliance Matrix: (Units=1/GPa)
#
#
# Indices 1 2 3 4 5 6 
#
# 1 0.008519 0.000398 -0.002034 -0.002748 -0.004163 0.001052
# 2 0.000398 0.016591 -0.002702 0.000064 -0.005007 -0.001394
# 3 -0.002034 -0.002702 0.017246 -0.005749 -0.004772 0.001300
# 4 -0.002748 0.000064 -0.005749 0.037412 0.005456 -0.014567
# 5 -0.004163 -0.005007 -0.004772 0.005456 0.028951 -0.006212
# 6 0.001052 -0.001394 0.001300 -0.014567 -0.006212 0.037894
#
#
# Mechanical properties :
#
#
# Convention : Reuss Voigt Hill
#
# Bulk Modulus (GPa) = 29.69285 43.35731 36.52508
# Shear Modulus (GPa) = 30.02720 37.46047 33.74384
#
# Velocity S-wave (km/s) = 3.56560 3.98255 3.77983
# Velocity P-wave (km/s) = 5.43353 6.28531 5.87487
#
# Compressibility (1/GPa) = 0.03367814
#
# Stress axis : x y z
#
# Youngs Moduli (GPa) = 117.38725 60.27460 57.98543
#
# Poissons Ratio (x) = -0.02399 0.11797
# Poissons Ratio (y) = -0.04671 0.15668
# Poissons Ratio (z) = 0.23882 0.16286
#
# Static dielectric constant tensor:
#      x y z
#    x 2.096760 0.017780 0.028790 
#    y 0.017780 1.907340 -0.035340 
#    z 0.028790 -0.035340 1.947240 
# 
# From -- ./inp_files/519632.got.cif
#   From: 2010.05.17/outbox.cif.g08.bks.cpg/sg2_260_cif.got.tgz:519632.got - 2010.06.03 11:33:40.
