data_PCOD9002767
_publ_section_title
;
Structure prediction by ZEFSAII (Michael W. Deem and Ramdas Pophale) SiO2 
 PCOD9002767
Probable space group: P -1
;
_chemical_formula_sum "Si O2"
_cell_formula_units_Z 16
_cell_length_a 17.489087
_cell_length_b 8.913096
_cell_length_c 6.691664
_cell_angle_alpha 104.392318
_cell_angle_beta 122.243879
_cell_angle_gamma 58.811586
_cell_volume 754.179770
_symmetry_space_group_name_H-M "P -1"
_symmetry_group_IT_number 2
_symmetry_cell_setting 'triclinic'
loop_
_space_group_symop_operation_xyz
x,y,z
-x,-y,-z
loop_
_atom_site_type_symbol
_atom_site_label
_atom_site_fract_x
_atom_site_fract_y
_atom_site_fract_z
Si Si1 0.108715 0.216615 0.008685
Si Si2 0.599747 0.724306 0.576681
Si Si3 0.211949 0.123525 0.523970
Si Si4 0.241812 0.405049 0.893961
Si Si5 0.116660 0.962571 0.605394
Si Si6 0.897501 0.424209 0.935806
Si Si7 0.437500 0.981759 0.715901
Si Si8 0.733714 0.440355 0.404061
O O1 0.190342 0.171661 0.279729
O O2 0.085376 0.405885 0.951376
O O3 0.001399 0.256267 0.972825
O O4 0.142646 0.061370 0.850409
O O5 0.499808 0.811322 0.606572
O O6 0.639203 0.535734 0.459115
O O7 0.587417 0.858763 0.424261
O O8 0.686224 0.699150 0.854379
O O9 0.196249 0.291077 0.686326
O O10 0.134502 0.054152 0.465491
O O11 0.333139 0.993686 0.661800
O O12 0.296583 0.452888 0.809440
O O13 0.156569 0.582313 0.937110
O O14 0.204926 0.762970 0.636943
O O15 0.000000 0.000000 0.500000
O O16 0.822559 0.461144 0.655968
O O17 0.500000 0.000000 0.000000
#
# Coordination Sequence:
#
# PCOD9002767 Si02
#       8
#     2   2   2   2   2   2   2   2
#     4  11  23  39  62  93 128 171 230 272 323 386
#     4  10  21  37  71 102 132 158 215 278 334 388
#     4  12  24  40  66  97 131 175 221 271 333 395
#     4  11  20  38  67  97 127 170 221 269 325 388
#     4  12  28  44  60  93 144 184 220 271 329 387
#     4  10  21  36  64  93 123 169 229 275 314 388
#     4  11  21  40  71 110 130 160 218 286 341 386
#     4  11  22  42  63  96 134 177 218 271 333 387
#
# _framework density 21.215098999999999
#
# number of rings (size 3 to 8) (size 9 to 14) (size 15 to 20)
#    0.000    1.000    6.250    0.750    1.750    3.000 
#    0.000    0.625    0.000    3.750    0.000    0.000 
#    0.000    0.000    0.000    0.000    0.000    0.000 
#
# Total GULP energy -89146.893377 kJ/mol
# GULP energy per Si atom -5571.680836 kJ/mol
# Density = 2.116681 g / cm^3
# Si number density = 21.215099 Si / 1000 Ang^3
#
#
#
# Elastic Constant Matrix: (Units=GPa)
#
#
# Indices 1 2 3 4 5 6 
#
# 1 72.0461 14.8642 13.4188 9.1938 -18.1021 -26.0904
# 2 14.8642 106.9535 30.3880 27.3665 -21.7661 -27.4023
# 3 13.4188 30.3880 109.9146 6.0305 -21.4393 -6.4622
# 4 9.1938 27.3665 6.0305 30.4855 -11.6844 -10.3896
# 5 -18.1021 -21.7661 -21.4393 -11.6844 27.7334 4.9113
# 6 -26.0904 -27.4023 -6.4622 -10.3896 4.9113 39.8799
#
#
#
# Elastic Compliance Matrix: (Units=1/GPa)
#
#
# Indices 1 2 3 4 5 6 
#
# 1 0.022488 0.003708 0.000082 0.001092 0.015337 0.015669
# 2 0.003708 0.015702 -0.002256 -0.008518 0.007696 0.009682
# 3 0.000082 -0.002256 0.011138 0.002933 0.008116 0.000073
# 4 0.001092 -0.008518 0.002933 0.047347 0.015216 0.005798
# 5 0.015337 0.007696 0.008116 0.015216 0.062509 0.012903
# 6 0.015669 0.009682 0.000073 0.005798 0.012903 0.041913
#
#
# Mechanical properties :
#
#
# Convention : Reuss Voigt Hill
#
# Bulk Modulus (GPa) = 19.08530 45.13960 32.11245
# Shear Modulus (GPa) = 23.20248 34.96930 29.08589
#
# Velocity S-wave (km/s) = 3.31067 4.06436 3.70672
# Velocity P-wave (km/s) = 4.86103 6.58397 5.78698
#
# Compressibility (1/GPa) = 0.05239635
#
# Stress axis : x y z
#
# Youngs Moduli (GPa) = 44.46769 63.68631 89.78183
#
# Poissons Ratio (x) = -0.23612 -0.00740
# Poissons Ratio (y) = -0.16487 0.20255
# Poissons Ratio (z) = -0.00366 0.14368
#
# Static dielectric constant tensor:
#      x y z
#    x 1.861010 -0.024790 -0.006400 
#    y -0.024790 1.828130 -0.034550 
#    z -0.006400 -0.034550 1.758820 
# 
# From -- ./inp_files/107268.got.cif
#   From: 2010.05.17/outbox.cif.g08.bks.cpg/sg2_54_cif.got.tgz:107268.got - 2010.06.03 11:33:40.
