data_PCOD9002969
_publ_section_title
;
Structure prediction by ZEFSAII (Michael W. Deem and Ramdas Pophale) SiO2 
 PCOD9002969
Probable space group: P -1
;
_chemical_formula_sum "Si O2"
_cell_formula_units_Z 16
_cell_length_a 13.868820
_cell_length_b 8.596186
_cell_length_c 11.114532
_cell_angle_alpha 105.271422
_cell_angle_beta 119.797531
_cell_angle_gamma 125.336079
_cell_volume 589.258671
_symmetry_space_group_name_H-M "P -1"
_symmetry_group_IT_number 2
_symmetry_cell_setting 'triclinic'
loop_
_space_group_symop_operation_xyz
x,y,z
-x,-y,-z
loop_
_atom_site_type_symbol
_atom_site_label
_atom_site_fract_x
_atom_site_fract_y
_atom_site_fract_z
Si Si1 0.609585 0.325917 0.200724
Si Si2 0.185585 0.720284 0.560832
Si Si3 0.976490 0.734538 0.771736
Si Si4 0.685664 0.259859 0.764176
Si Si5 0.250452 0.442704 0.919223
Si Si6 0.213180 0.204973 0.413374
Si Si7 0.179553 0.923156 0.145628
Si Si8 0.731432 0.898290 0.181177
O O1 0.647077 0.210875 0.277663
O O2 0.737121 0.457856 0.182512
O O3 0.671290 0.562101 0.361101
O O4 0.384771 0.104274 0.967305
O O5 0.000000 0.500000 0.500000
O O6 0.108683 0.552304 0.352048
O O7 0.250805 0.988272 0.657490
O O8 0.819362 0.688548 0.682029
O O9 0.048082 0.847802 0.700309
O O10 0.178975 0.010678 0.035303
O O11 0.726704 0.136589 0.823453
O O12 0.500000 0.000000 0.500000
O O13 0.640251 0.333447 0.855654
O O14 0.922131 0.596945 0.931851
O O15 0.339523 0.373875 0.928912
O O16 0.010616 0.131282 0.746113
O O17 0.288438 0.148602 0.368098
#
# Coordination Sequence:
#
# PCOD9002969 Si02
#       8
#     2   2   2   2   2   2   2   2
#     4  11  21  36  60  90 119 154 197 245 300 352
#     4   9  20  36  56  82 120 153 193 241 290 358
#     4   9  19  38  61  83 118 160 194 238 306 355
#     4  10  24  42  61  91 120 154 207 251 291 362
#     4  10  22  39  60  84 120 159 194 246 304 353
#     4   9  20  38  60  87 118 152 201 245 294 363
#     4  10  21  42  64  85 120 164 196 248 304 353
#     4  10  21  37  55  90 122 151 197 251 289 358
#
# _framework density 27.152759
#
# number of rings (size 3 to 8) (size 9 to 14) (size 15 to 20)
#    0.000    2.250    0.000    2.250    5.250    1.000 
#    9.000    0.625    0.000    0.000    0.000    0.000 
#    0.000    0.000    0.000    0.000    0.000    0.000 
#
# Total GULP energy -89297.741261 kJ/mol
# GULP energy per Si atom -5581.108829 kJ/mol
# Density = 2.709096 g / cm^3
# Si number density = 27.152759 Si / 1000 Ang^3
#
#
#
# Elastic Constant Matrix: (Units=GPa)
#
#
# Indices 1 2 3 4 5 6 
#
# 1 147.5772 22.1562 41.3771 5.2907 -37.8810 -13.4340
# 2 22.1562 35.2717 26.0536 8.5513 -9.7444 -8.2090
# 3 41.3771 26.0536 137.5235 3.1439 -39.2839 -8.3052
# 4 5.2907 8.5513 3.1439 37.3115 -6.2069 1.0536
# 5 -37.8810 -9.7444 -39.2839 -6.2069 67.4549 3.5908
# 6 -13.4340 -8.2090 -8.3052 1.0536 3.5908 30.6093
#
#
#
# Elastic Compliance Matrix: (Units=1/GPa)
#
#
# Indices 1 2 3 4 5 6 
#
# 1 0.008675 -0.003357 -0.000742 0.000179 0.003851 0.002248
# 2 -0.003357 0.038283 -0.005861 -0.008172 -0.000925 0.007593
# 3 -0.000742 -0.005861 0.009906 0.001377 0.004621 0.000201
# 4 0.000179 -0.008172 0.001377 0.029044 0.002556 -0.003039
# 5 0.003851 -0.000925 0.004621 0.002556 0.019765 0.000290
# 6 0.002248 0.007593 0.000201 -0.003039 0.000290 0.035818
#
#
# Mechanical properties :
#
#
# Convention : Reuss Voigt Hill
#
# Bulk Modulus (GPa) = 27.06959 55.50514 41.28737
# Shear Modulus (GPa) = 28.78097 42.46084 35.62090
#
# Velocity S-wave (km/s) = 3.25924 3.95875 3.62590
# Velocity P-wave (km/s) = 4.91473 6.43287 5.72435
#
# Compressibility (1/GPa) = 0.03694183
#
# Stress axis : x y z
#
# Youngs Moduli (GPa) = 115.27354 26.12154 100.94913
#
# Poissons Ratio (x) = 0.08770 0.07493
# Poissons Ratio (y) = 0.38701 0.59169
# Poissons Ratio (z) = 0.08556 0.15310
#
# Static dielectric constant tensor:
#      x y z
#    x 2.158880 0.091240 -0.087470 
#    y 0.091240 2.413480 0.076790 
#    z -0.087470 0.076790 2.270880 
# 
# From -- ./inp_files/447869.got.cif
#   From: 2010.05.17/outbox.cif.g08.bks.cpg/sg2_224_cif.got.tgz:447869.got - 2010.06.03 11:33:40.
