data_PCOD9002958
_publ_section_title
;
Structure prediction by ZEFSAII (Michael W. Deem and Ramdas Pophale) SiO2 
 PCOD9002958
Probable space group: P -1
;
_chemical_formula_sum "Si O2"
_cell_formula_units_Z 16
_cell_length_a 14.549915
_cell_length_b 20.025846
_cell_length_c 8.929144
_cell_angle_alpha 77.167065
_cell_angle_beta 89.105179
_cell_angle_gamma 21.246359
_cell_volume 772.707119
_symmetry_space_group_name_H-M "P -1"
_symmetry_group_IT_number 2
_symmetry_cell_setting 'triclinic'
loop_
_space_group_symop_operation_xyz
x,y,z
-x,-y,-z
loop_
_atom_site_type_symbol
_atom_site_label
_atom_site_fract_x
_atom_site_fract_y
_atom_site_fract_z
Si Si1 0.854492 0.469701 0.344637
Si Si2 0.198626 0.501564 0.315556
Si Si3 0.381620 0.751905 0.807221
Si Si4 0.175002 0.948139 0.003150
Si Si5 0.079279 0.437659 0.854902
Si Si6 0.005262 0.259360 0.209251
Si Si7 0.661968 0.956829 0.985419
Si Si8 0.842733 0.233973 0.141912
O O1 0.835723 0.484202 0.515382
O O2 0.994411 0.440226 0.290258
O O3 0.024011 0.286870 0.349390
O O4 0.507094 0.709254 0.183060
O O5 0.515708 0.293856 0.333159
O O6 0.082331 0.514712 0.231498
O O7 0.983016 0.719105 0.173669
O O8 0.225122 0.918245 0.838353
O O9 0.174360 0.831330 0.766127
O O10 0.695471 0.506536 0.009766
O O11 0.000000 0.000000 0.000000
O O12 0.993160 0.128309 0.025423
O O13 0.000000 0.500000 0.000000
O O14 0.437312 0.172273 0.949521
O O15 0.989395 0.188867 0.260697
O O16 0.272940 0.083236 0.172632
O O17 0.500000 0.000000 0.000000
O O18 0.500000 0.500000 0.000000
#
# Coordination Sequence:
#
# PCOD9002958 Si02
#       8
#     2   2   2   2   2   2   2   2
#     4  11  21  35  55  84 116 144 179 234 283 324
#     4  10  21  37  55  83 115 141 179 238 288 323
#     4   8  16  32  53  76 104 140 183 229 274 327
#     4   9  17  32  55  80 105 145 189 222 266 332
#     4  11  21  37  60  82 107 149 192 223 270 342
#     4   9  17  31  52  76 105 144 185 220 267 334
#     4   9  18  35  56  77 104 143 185 223 269 333
#     4   9  16  29  53  78 101 138 190 231 260 315
#
# _framework density 20.706423000000001
#
# number of rings (size 3 to 8) (size 9 to 14) (size 15 to 20)
#    0.000    2.500    0.000    4.875    0.000    0.000 
#    0.000   11.250    0.000    0.000    0.000    0.000 
#    0.000    0.000    0.000    0.000    0.000    0.000 
#
# Total GULP energy -89193.483911 kJ/mol
# GULP energy per Si atom -5574.592744 kJ/mol
# Density = 2.065929 g / cm^3
# Si number density = 20.706423 Si / 1000 Ang^3
#
#
#
# Elastic Constant Matrix: (Units=GPa)
#
#
# Indices 1 2 3 4 5 6 
#
# 1 110.7023 54.1078 35.7881 33.5047 6.2180 9.3435
# 2 54.1078 172.6383 44.0980 53.8059 1.0588 10.3022
# 3 35.7881 44.0980 58.9251 45.9571 -0.2604 4.6876
# 4 33.5047 53.8059 45.9571 46.2294 -3.0229 3.0064
# 5 6.2180 1.0588 -0.2604 -3.0229 12.6534 8.5929
# 6 9.3435 10.3022 4.6876 3.0064 8.5929 38.3171
#
#
#
# Elastic Compliance Matrix: (Units=1/GPa)
#
#
# Indices 1 2 3 4 5 6 
#
# 1 0.012640 -0.001578 -0.001933 -0.005859 -0.007298 -0.000325
# 2 -0.001578 0.010256 0.008501 -0.019430 -0.003854 -0.001024
# 3 -0.001933 0.008501 0.086241 -0.095562 -0.020657 -0.000234
# 4 -0.005859 -0.019430 -0.095562 0.146136 0.038669 -0.001794
# 5 -0.007298 -0.003854 -0.020657 0.038669 0.106385 -0.021549
# 6 -0.000325 -0.001024 -0.000234 -0.001794 -0.021549 0.031455
#
#
# Mechanical properties :
#
#
# Convention : Reuss Voigt Hill
#
# Bulk Modulus (GPa) = 8.39504 67.80593 38.10049
# Shear Modulus (GPa) = 11.82490 33.32477 22.57483
#
# Velocity S-wave (km/s) = 2.39231 4.01608 3.30545
# Velocity P-wave (km/s) = 3.41964 7.37038 5.74528
#
# Compressibility (1/GPa) = 0.11911798
#
# Stress axis : x y z
#
# Youngs Moduli (GPa) = 79.11496 97.50626 11.59542
#
# Poissons Ratio (x) = 0.15382 0.02241
# Poissons Ratio (y) = 0.12480 -0.09857
# Poissons Ratio (z) = 0.15291 -0.82890
#
# Static dielectric constant tensor:
#      x y z
#    x 1.771030 0.005290 -0.001930 
#    y 0.005290 1.793330 -0.030030 
#    z -0.001930 -0.030030 1.764250 
# 
# From -- ./inp_files/200190.got.cif
#   From: 2010.05.17/outbox.cif.g08.bks.cpg/sg2_101_cif.got.tgz:200190.got - 2010.06.03 11:33:40.
