data_PCOD9002931
_publ_section_title
;
Structure prediction by ZEFSAII (Michael W. Deem and Ramdas Pophale) SiO2 
 PCOD9002931
Probable space group: P -1
;
_chemical_formula_sum "Si O2"
_cell_formula_units_Z 16
_cell_length_a 29.539639
_cell_length_b 27.388365
_cell_length_c 18.060551
_cell_angle_alpha 158.792271
_cell_angle_beta 21.280415
_cell_angle_gamma 170.546048
_cell_volume 849.714022
_symmetry_space_group_name_H-M "P -1"
_symmetry_group_IT_number 2
_symmetry_cell_setting 'triclinic'
loop_
_space_group_symop_operation_xyz
x,y,z
-x,-y,-z
loop_
_atom_site_type_symbol
_atom_site_label
_atom_site_fract_x
_atom_site_fract_y
_atom_site_fract_z
Si Si1 0.529924 0.131937 0.571591
Si Si2 0.131375 0.626983 0.342055
Si Si3 0.651604 0.852026 0.635207
Si Si4 0.136579 0.913275 0.955097
Si Si5 0.181556 0.745018 0.133219
Si Si6 0.456982 0.542873 0.781455
Si Si7 0.176314 0.040496 0.314894
Si Si8 0.161828 0.555527 0.033141
O O1 0.863403 0.468339 0.526946
O O2 0.500000 0.000000 0.500000
O O3 0.380103 0.920303 0.429852
O O4 0.347771 0.083266 0.806461
O O5 0.007982 0.367426 0.196062
O O6 0.219915 0.679504 0.198259
O O7 0.496922 0.571756 0.442716
O O8 0.820964 0.963536 0.606243
O O9 0.433793 0.743906 0.852073
O O10 0.813491 0.092294 0.665217
O O11 0.865601 0.741171 0.108085
O O12 0.327926 0.163738 0.081658
O O13 0.075160 0.585886 0.148903
O O14 0.000000 0.500000 0.000000
O O15 0.500000 0.000000 0.000000
O O16 0.523485 0.647623 0.742615
O O17 0.000000 0.000000 0.500000
O O18 0.058153 0.781341 0.101902
#
# Coordination Sequence:
#
# PCOD9002931 Si02
#       8
#     2   2   2   2   2   2   2   2
#     4  10  21  37  54  79 113 151 184 236 284 348
#     4  11  21  34  56  82 113 148 190 231 288 341
#     4  11  24  37  56  81 123 153 200 233 278 336
#     4  11  21  36  53  79 113 148 186 223 288 344
#     4  10  22  40  59  78 110 160 203 241 275 321
#     4  12  23  33  54  84 113 156 182 224 281 346
#     4  12  22  36  52  83 126 160 188 227 283 344
#     4  11  23  37  59  83 118 158 195 236 285 336
#
# _framework density 18.829864000000001
#
# number of rings (size 3 to 8) (size 9 to 14) (size 15 to 20)
#    0.000    1.000    3.750    5.625    1.750    0.000 
#    0.000    0.000    0.000    0.000    0.000    5.250 
#    0.000    0.000    0.000    0.000    0.000    0.000 
#
# Total GULP energy -89333.482267 kJ/mol
# GULP energy per Si atom -5583.342642 kJ/mol
# Density = 1.878701 g / cm^3
# Si number density = 18.829864 Si / 1000 Ang^3
#
#
#
# Elastic Constant Matrix: (Units=GPa)
#
#
# Indices 1 2 3 4 5 6 
#
# 1 89.2487 17.6348 33.3607 18.5653 -3.8423 -1.3906
# 2 17.6348 52.2611 17.5978 0.3775 -10.3178 8.5055
# 3 33.3607 17.5978 51.5784 -0.6683 0.1669 -12.8180
# 4 18.5653 0.3775 -0.6683 35.0224 0.2839 -2.9036
# 5 -3.8423 -10.3178 0.1669 0.2839 27.9993 6.8288
# 6 -1.3906 8.5055 -12.8180 -2.9036 6.8288 33.6027
#
#
#
# Elastic Compliance Matrix: (Units=1/GPa)
#
#
# Indices 1 2 3 4 5 6 
#
# 1 0.018685 0.000447 -0.014015 -0.010755 0.004515 -0.006533
# 2 0.000447 0.029452 -0.014437 -0.002293 0.014971 -0.016184
# 3 -0.014015 -0.014437 0.038866 0.010203 -0.012794 0.021382
# 4 -0.010755 -0.002293 0.010203 0.035177 -0.004695 0.008021
# 5 0.004515 0.014971 -0.012794 -0.004695 0.046445 -0.018327
# 6 -0.006533 -0.016184 0.021382 0.008021 -0.018327 0.046159
#
#
# Mechanical properties :
#
#
# Convention : Reuss Voigt Hill
#
# Bulk Modulus (GPa) = 32.26791 36.69719 34.48255
# Shear Modulus (GPa) = 17.78554 27.62455 22.70504
#
# Velocity S-wave (km/s) = 3.07667 3.83438 3.47623
# Velocity P-wave (km/s) = 5.45848 6.25575 5.87066
#
# Compressibility (1/GPa) = 0.03099054
#
# Stress axis : x y z
#
# Youngs Moduli (GPa) = 53.51843 33.95387 25.72936
#
# Poissons Ratio (x) = -0.01516 0.36060
# Poissons Ratio (y) = -0.02390 0.37147
# Poissons Ratio (z) = 0.75008 0.49021
#
# Static dielectric constant tensor:
#      x y z
#    x 1.683000 0.009190 -0.021720 
#    y 0.009190 1.736400 -0.039620 
#    z -0.021720 -0.039620 1.708900 
# 
# From -- ./inp_files/95334.got.cif
#   From: 2010.05.17/outbox.cif.g08.bks.cpg/sg2_48_cif.got.tgz:95334.got - 2010.06.03 11:33:40.
