data_PCOD9002738
_publ_section_title
;
Structure prediction by ZEFSAII (Michael W. Deem and Ramdas Pophale) SiO2 
 PCOD9002738
Probable space group: P -1
;
_chemical_formula_sum "Si O2"
_cell_formula_units_Z 15
_cell_length_a 7.820643
_cell_length_b 11.203742
_cell_length_c 16.538711
_cell_angle_alpha 49.731062
_cell_angle_beta 134.225417
_cell_angle_gamma 94.957096
_cell_volume 590.708040
_symmetry_space_group_name_H-M "P -1"
_symmetry_group_IT_number 2
_symmetry_cell_setting 'triclinic'
loop_
_space_group_symop_operation_xyz
x,y,z
-x,-y,-z
loop_
_atom_site_type_symbol
_atom_site_label
_atom_site_fract_x
_atom_site_fract_y
_atom_site_fract_z
Si Si1 0.738261 0.660693 0.224652
Si Si2 0.339294 0.599196 0.781138
Si Si3 0.500000 0.000000 0.500000
Si Si4 0.426927 0.023715 0.093720
Si Si5 0.927898 0.463865 0.122693
Si Si6 0.383787 0.473254 0.348947
Si Si7 0.465671 0.275395 0.626864
Si Si8 0.069961 0.885242 0.424219
O O1 0.552914 0.595079 0.153588
O O2 0.556857 0.828300 0.162782
O O3 0.091433 0.441539 0.456433
O O4 0.787518 0.774561 0.123179
O O5 0.173981 0.588726 0.807708
O O6 0.096975 0.808811 0.557422
O O7 0.629178 0.579961 0.914797
O O8 0.798220 0.998489 0.592020
O O9 0.243568 0.248607 0.284434
O O10 0.356271 0.955230 0.181096
O O11 0.716585 0.012335 0.218861
O O12 0.063555 0.569697 0.152423
O O13 0.451721 0.309314 0.511189
O O14 0.381000 0.639831 0.318765
O O15 0.690913 0.327389 0.456637
#
# Coordination Sequence:
#
# PCOD9002738 Si02
#       8
#     2   2   1   2   2   2   2   2
#     4  11  21  37  65  96 121 160 213 270 293 386
#     4  11  22  40  70  87 122 173 227 247 319 381
#     4  10  24  38  58  90 132 152 208 264 324 362
#     4  11  22  37  66  96 124 163 221 249 324 373
#     4  10  22  42  62  93 123 172 208 271 310 386
#     4  10  21  36  64  86 129 167 204 257 330 362
#     4  11  20  40  64  91 127 170 201 263 314 380
#     4  11  21  40  63  88 126 168 204 267 313 378
#
# _framework density 25.393255
#
# number of rings (size 3 to 8) (size 9 to 14) (size 15 to 20)
#    0.000    1.333    4.000    2.000    0.000    2.667 
#    0.000   10.667   11.733    0.000    0.000    0.000 
#    0.000    0.000    0.000    0.000    0.000    0.000 
#
# Total GULP energy -83735.130090 kJ/mol
# GULP energy per Si atom -5582.342006 kJ/mol
# Density = 2.533546 g / cm^3
# Si number density = 25.393255 Si / 1000 Ang^3
#
#
#
# Elastic Constant Matrix: (Units=GPa)
#
#
# Indices 1 2 3 4 5 6 
#
# 1 67.8583 14.0038 15.8716 3.1987 -18.6340 18.9407
# 2 14.0038 90.1834 44.5398 21.1545 -7.0538 27.5323
# 3 15.8716 44.5398 88.8999 14.1673 -12.8039 7.5484
# 4 3.1987 21.1545 14.1673 43.3432 16.7485 12.2604
# 5 -18.6340 -7.0538 -12.8039 16.7485 39.9977 2.4330
# 6 18.9407 27.5323 7.5484 12.2604 2.4330 34.7085
#
#
#
# Elastic Compliance Matrix: (Units=1/GPa)
#
#
# Indices 1 2 3 4 5 6 
#
# 1 0.022082 0.003885 -0.002282 -0.003632 0.012629 -0.014237
# 2 0.003885 0.021099 -0.008061 -0.006076 0.006432 -0.015408
# 3 -0.002282 -0.008061 0.016599 -0.004528 0.004401 0.005321
# 4 -0.003632 -0.006076 -0.004528 0.036226 -0.019160 -0.003666
# 5 0.012629 0.006432 0.004401 -0.019160 0.042006 -0.009127
# 6 -0.014237 -0.015408 0.005321 -0.003666 -0.009127 0.049580
#
#
# Mechanical properties :
#
#
# Convention : Reuss Voigt Hill
#
# Bulk Modulus (GPa) = 21.33927 43.97466 32.65696
# Shear Modulus (GPa) = 23.13416 35.11165 29.12290
#
# Velocity S-wave (km/s) = 3.02161 3.72252 3.39023
# Velocity P-wave (km/s) = 4.53820 5.98592 5.31162
#
# Compressibility (1/GPa) = 0.04686196
#
# Stress axis : x y z
#
# Youngs Moduli (GPa) = 45.28613 47.39575 60.24613
#
# Poissons Ratio (x) = -0.18411 0.13747
# Poissons Ratio (y) = -0.17591 0.48567
# Poissons Ratio (z) = 0.10334 0.38207
#
# Static dielectric constant tensor:
#      x y z
#    x 2.069440 -0.049700 0.021580 
#    y -0.049700 2.014520 0.004520 
#    z 0.021580 0.004520 1.893580 
# 
# From -- ./inp_files/327043.got.cif
#   From: 2010.05.17/outbox.cif.g08.bks.cpg/sg2_164_cif.got.tgz:327043.got - 2010.06.03 11:33:40.
