data_PCOD9002745
_publ_section_title
;
Structure prediction by ZEFSAII (Michael W. Deem and Ramdas Pophale) SiO2 
 PCOD9002745
Probable space group: P -1
;
_chemical_formula_sum "Si O2"
_cell_formula_units_Z 16
_cell_length_a 17.518712
_cell_length_b 6.153632
_cell_length_c 23.832509
_cell_angle_alpha 114.472716
_cell_angle_beta 18.809862
_cell_angle_gamma 107.570533
_cell_volume 717.424849
_symmetry_space_group_name_H-M "P -1"
_symmetry_group_IT_number 2
_symmetry_cell_setting 'triclinic'
loop_
_space_group_symop_operation_xyz
x,y,z
-x,-y,-z
loop_
_atom_site_type_symbol
_atom_site_label
_atom_site_fract_x
_atom_site_fract_y
_atom_site_fract_z
Si Si1 0.532398 0.525239 0.045360
Si Si2 0.888531 0.392216 0.214635
Si Si3 0.713109 0.770481 0.558947
Si Si4 0.488444 0.110469 0.456812
Si Si5 0.910135 0.996522 0.738059
Si Si6 0.014102 0.271249 0.234979
Si Si7 0.974113 0.466919 0.580198
Si Si8 0.240901 0.087953 0.857587
O O1 0.253654 0.648649 0.272616
O O2 0.500000 0.500000 0.000000
O O3 0.719545 0.681939 0.942236
O O4 0.670050 0.239319 0.937309
O O5 0.666098 0.285655 0.339504
O O6 0.779706 0.681824 0.337816
O O7 0.975791 0.231845 0.192901
O O8 0.104462 0.343428 0.013134
O O9 0.809964 0.521538 0.426697
O O10 0.795066 0.686650 0.557232
O O11 0.888049 0.933133 0.433467
O O12 0.432019 0.911183 0.750604
O O13 0.500000 0.000000 0.500000
O O14 0.593410 0.907469 0.312608
O O15 0.000199 0.931202 0.731726
O O16 0.879400 0.742677 0.705470
O O17 0.000000 0.500000 0.500000
O O18 0.000000 0.000000 0.000000
#
# Coordination Sequence:
#
# PCOD9002745 Si02
#       8
#     2   2   2   2   2   2   2   2
#     4  11  20  39  60  87 122 164 213 256 310 385
#     4  10  22  40  62  93 122 165 208 261 324 374
#     4  10  21  41  60  88 132 165 209 270 320 378
#     4  10  22  40  66  90 125 164 210 262 321 384
#     4  10  21  37  65  89 119 169 211 260 324 375
#     4  10  21  36  64  89 122 165 218 265 312 386
#     4  11  24  39  60  94 128 166 209 266 318 375
#     4  10  22  42  65  93 132 166 206 269 321 380
#
# _framework density 22.301987
#
# number of rings (size 3 to 8) (size 9 to 14) (size 15 to 20)
#    0.000    1.750    5.000    0.375    1.750    3.000 
#    0.000    6.250    0.000    0.000    0.000    0.000 
#    0.000    0.000    0.000    0.000    0.000    0.000 
#
# Total GULP energy -89174.048647 kJ/mol
# GULP energy per Si atom -5573.378040 kJ/mol
# Density = 2.225123 g / cm^3
# Si number density = 22.301987 Si / 1000 Ang^3
#
#
#
# Elastic Constant Matrix: (Units=GPa)
#
#
# Indices 1 2 3 4 5 6 
#
# 1 97.1160 16.8314 62.7663 5.1688 13.6969 -30.3436
# 2 16.8314 56.1271 19.8353 7.2094 -1.1223 -14.3552
# 3 62.7663 19.8353 125.0649 -3.8680 2.3643 -13.8121
# 4 5.1688 7.2094 -3.8680 13.4303 -4.1945 -4.5589
# 5 13.6969 -1.1223 2.3643 -4.1945 48.8881 -11.2096
# 6 -30.3436 -14.3552 -13.8121 -4.5589 -11.2096 43.5034
#
#
#
# Elastic Compliance Matrix: (Units=1/GPa)
#
#
# Indices 1 2 3 4 5 6 
#
# 1 0.020217 0.000749 -0.009424 -0.008871 -0.003785 0.009451
# 2 0.000749 0.021687 -0.003542 -0.010777 0.000827 0.005638
# 3 -0.009424 -0.003542 0.013321 0.009418 0.002278 -0.001938
# 4 -0.008871 -0.010777 0.009418 0.091720 0.010954 0.005681
# 5 -0.003785 0.000827 0.002278 0.010954 0.023647 0.005597
# 6 0.009451 0.005638 -0.001938 0.005681 0.005597 0.032862
#
#
# Mechanical properties :
#
#
# Convention : Reuss Voigt Hill
#
# Bulk Modulus (GPa) = 32.47677 53.01934 42.74806
# Shear Modulus (GPa) = 20.99502 33.08935 27.04218
#
# Velocity S-wave (km/s) = 3.07155 3.85605 3.48594
# Velocity P-wave (km/s) = 5.21278 6.60685 5.95078
#
# Compressibility (1/GPa) = 0.03079123
#
# Stress axis : x y z
#
# Youngs Moduli (GPa) = 49.46315 46.11146 75.06744
#
# Poissons Ratio (x) = -0.03453 0.70744
# Poissons Ratio (y) = -0.03704 0.26586
# Poissons Ratio (z) = 0.46615 0.16331
#
# Static dielectric constant tensor:
#      x y z
#    x 1.866880 -0.005440 -0.006400 
#    y -0.005440 1.819100 0.029490 
#    z -0.006400 0.029490 1.809870 
# 
# From -- ./inp_files/110888.got.cif
#   From: 2010.05.17/outbox.cif.g08.bks.cpg/sg2_56_cif.got.tgz:110888.got - 2010.06.03 11:33:40.
