data_PCOD9002370
_publ_section_title
;
Structure prediction by ZEFSAII (Michael W. Deem and Ramdas Pophale) SiO2 
 PCOD9002370
Probable space group: P -1
;
_chemical_formula_sum "Si O2"
_cell_formula_units_Z 16
_cell_length_a 19.583773
_cell_length_b 19.397797
_cell_length_c 7.718188
_cell_angle_alpha 44.457649
_cell_angle_beta 122.686420
_cell_angle_gamma 159.378772
_cell_volume 618.238033
_symmetry_space_group_name_H-M "P -1"
_symmetry_group_IT_number 2
_symmetry_cell_setting 'triclinic'
loop_
_space_group_symop_operation_xyz
x,y,z
-x,-y,-z
loop_
_atom_site_type_symbol
_atom_site_label
_atom_site_fract_x
_atom_site_fract_y
_atom_site_fract_z
Si Si1 0.928364 0.643070 0.871030
Si Si2 0.539458 0.645149 0.108164
Si Si3 0.228096 0.278825 0.683008
Si Si4 0.584154 0.911611 0.691906
Si Si5 0.713817 0.455076 0.564909
Si Si6 0.781057 0.171405 0.850536
Si Si7 0.138397 0.086594 0.403673
Si Si8 0.388614 0.817197 0.334595
O O1 0.672651 0.363351 0.094622
O O2 0.046193 0.680855 0.042053
O O3 0.890001 0.612299 0.667665
O O4 0.078803 0.905448 0.675321
O O5 0.400517 0.501656 0.356459
O O6 0.751767 0.816017 0.123649
O O7 0.391628 0.407019 0.209002
O O8 0.587028 0.805259 0.809360
O O9 0.285277 0.425744 0.640657
O O10 0.973184 0.016010 0.748341
O O11 0.590882 0.008029 0.392549
O O12 0.763132 0.116734 0.724365
O O13 0.738668 0.424682 0.474142
O O14 0.463640 0.141727 0.849603
O O15 0.771366 0.279182 0.636272
O O16 0.000000 0.000000 0.500000
O O17 0.500000 0.000000 0.000000
#
# Coordination Sequence:
#
# PCOD9002370 Si02
#       8
#     2   2   2   2   2   2   2   2
#     4  10  19  33  59  87 112 138 181 234 273 322
#     4  10  17  27  52  85 111 139 175 222 269 321
#     4   9  16  28  51  81 111 142 170 216 265 328
#     4  11  21  36  55  87 114 138 186 238 273 316
#     4   9  18  38  55  81 114 148 185 217 273 337
#     4  10  20  36  59  83 107 140 186 242 277 320
#     4   9  15  26  46  81 113 136 164 208 273 323
#     4  10  23  41  60  73 108 157 186 229 284 327
#
# _framework density 25.879999000000002
#
# number of rings (size 3 to 8) (size 9 to 14) (size 15 to 20)
#    0.000    2.250    5.000    1.125    3.500    1.000 
#    0.000    3.125    0.000    3.000    0.000    0.000 
#    0.000    0.000    0.000    0.000    0.000    0.000 
#
# Total GULP energy -89442.823248 kJ/mol
# GULP energy per Si atom -5590.176453 kJ/mol
# Density = 2.582109 g / cm^3
# Si number density = 25.879999 Si / 1000 Ang^3
#
#
#
# Elastic Constant Matrix: (Units=GPa)
#
#
# Indices 1 2 3 4 5 6 
#
# 1 76.3286 9.6817 20.9829 -0.7780 21.0484 -4.7437
# 2 9.6817 80.1609 7.4231 10.8903 5.3487 9.3533
# 3 20.9829 7.4231 71.3371 13.7637 15.9673 21.3572
# 4 -0.7780 10.8903 13.7637 39.3613 6.7887 18.0161
# 5 21.0484 5.3487 15.9673 6.7887 36.7122 4.6292
# 6 -4.7437 9.3533 21.3572 18.0161 4.6292 37.4695
#
#
#
# Elastic Compliance Matrix: (Units=1/GPa)
#
#
# Indices 1 2 3 4 5 6 
#
# 1 0.017492 -0.001960 -0.005092 0.001401 -0.008543 0.005988
# 2 -0.001960 0.013343 0.000524 -0.002709 -0.000226 -0.002547
# 3 -0.005092 0.000524 0.019953 -0.001510 -0.004181 -0.010906
# 4 0.001401 -0.002709 -0.001510 0.033873 -0.004244 -0.014048
# 5 -0.008543 -0.000226 -0.004181 -0.004244 0.034888 -0.000911
# 6 0.005988 -0.002547 -0.010906 -0.014048 -0.000911 0.041166
#
#
# Mechanical properties :
#
#
# Convention : Reuss Voigt Hill
#
# Bulk Modulus (GPa) = 26.50249 33.77798 30.14024
# Shear Modulus (GPa) = 26.83138 35.35785 31.09461
#
# Velocity S-wave (km/s) = 3.22337 3.70026 3.47002
# Velocity P-wave (km/s) = 4.91083 5.59785 5.26556
#
# Compressibility (1/GPa) = 0.03773231
#
# Stress axis : x y z
#
# Youngs Moduli (GPa) = 57.16975 74.94318 50.11665
#
# Poissons Ratio (x) = 0.14690 0.25519
# Poissons Ratio (y) = 0.11206 -0.02626
# Poissons Ratio (z) = 0.29111 -0.03926
#
# Static dielectric constant tensor:
#      x y z
#    x 2.075070 -0.032800 -0.072890 
#    y -0.032800 2.094000 0.004890 
#    z -0.072890 0.004890 2.186530 
# 
# From -- ./inp_files/349432.got.cif
#   From: 2010.05.17/outbox.cif.g08.bks.cpg/sg2_175_cif.got.tgz:349432.got - 2010.06.03 11:33:40.
