data_PCOD9002268
_publ_section_title
;
Structure prediction by ZEFSAII (Michael W. Deem and Ramdas Pophale) SiO2 
 PCOD9002268
Probable space group: P -1
;
_chemical_formula_sum "Si O2"
_cell_formula_units_Z 14
_cell_length_a 11.676420
_cell_length_b 11.270886
_cell_length_c 9.043204
_cell_angle_alpha 67.953695
_cell_angle_beta 142.792721
_cell_angle_gamma 96.045219
_cell_volume 625.969491
_symmetry_space_group_name_H-M "P -1"
_symmetry_group_IT_number 2
_symmetry_cell_setting 'triclinic'
loop_
_space_group_symop_operation_xyz
x,y,z
-x,-y,-z
loop_
_atom_site_type_symbol
_atom_site_label
_atom_site_fract_x
_atom_site_fract_y
_atom_site_fract_z
Si Si1 0.828200 0.797066 0.173936
Si Si2 0.266464 0.012431 0.270820
Si Si3 0.487309 0.720957 0.685587
Si Si4 0.010327 0.743581 0.936318
Si Si5 0.539341 0.338196 0.632686
Si Si6 0.182973 0.586583 0.487129
Si Si7 0.759848 0.698994 0.432194
O O1 0.767295 0.817117 0.273255
O O2 0.045189 0.680912 0.427015
O O3 0.824400 0.926456 0.010017
O O4 0.659251 0.745338 0.947391
O O5 0.145603 0.116227 0.224155
O O6 0.500000 0.000000 0.500000
O O7 0.290246 0.859209 0.410057
O O8 0.559887 0.694907 0.603169
O O9 0.401129 0.604422 0.701479
O O10 0.912148 0.686815 0.729297
O O11 0.223551 0.744360 0.094304
O O12 0.076982 0.646578 0.193428
O O13 0.500000 0.500000 0.500000
O O14 0.443826 0.296092 0.697263
O O15 0.189848 0.433222 0.558967
#
# Coordination Sequence:
#
# PCOD9002268 Si02
#       7
#     2   2   2   2   2   2   2
#     4  10  23  36  59  90 119 160 190 249 303 342
#     4   9  19  42  65  86 112 162 209 243 286 345
#     4  10  21  41  64  83 118 153 210 244 280 360
#     4  10  22  37  63  88 118 159 200 245 287 354
#     4  11  22  38  60  92 116 161 198 238 299 351
#     4  10  21  36  59  88 112 162 198 236 302 347
#     4  12  22  37  57  92 128 150 192 249 305 355
#
# _framework density 22.365307999999999
#
# number of rings (size 3 to 8) (size 9 to 14) (size 15 to 20)
#    0.000    1.714    2.857    3.429    2.000    6.857 
#    0.000    6.429    0.000    7.714    0.000    0.000 
#    0.000    0.000    0.000    0.000    0.000    0.000 
#
# Total GULP energy -78180.140597 kJ/mol
# GULP energy per Si atom -5584.295757 kJ/mol
# Density = 2.231440 g / cm^3
# Si number density = 22.365308 Si / 1000 Ang^3
#
#
#
# Elastic Constant Matrix: (Units=GPa)
#
#
# Indices 1 2 3 4 5 6 
#
# 1 128.2152 -9.3419 19.8622 -2.9271 5.3554 -4.1950
# 2 -9.3419 47.0799 7.3380 1.5639 -3.9669 0.5602
# 3 19.8622 7.3380 24.2452 1.4640 11.7187 -2.3125
# 4 -2.9271 1.5639 1.4640 23.7484 3.1288 10.4881
# 5 5.3554 -3.9669 11.7187 3.1288 32.8091 -1.5725
# 6 -4.1950 0.5602 -2.3125 10.4881 -1.5725 20.6776
#
#
#
# Elastic Compliance Matrix: (Units=1/GPa)
#
#
# Indices 1 2 3 4 5 6 
#
# 1 0.009572 0.003643 -0.010145 0.001100 0.002413 0.000334
# 2 0.003643 0.024841 -0.014113 -0.001155 0.007543 -0.000353
# 3 -0.010145 -0.014113 0.065677 -0.003991 -0.022843 0.005957
# 4 0.001100 -0.001155 -0.003991 0.056165 -0.005645 -0.029109
# 5 0.002413 0.007543 -0.022843 -0.005645 0.039869 0.003625
# 6 0.000334 -0.000353 0.005957 -0.029109 0.003625 0.064145
#
#
# Mechanical properties :
#
#
# Convention : Reuss Voigt Hill
#
# Bulk Modulus (GPa) = 16.98891 26.13965 21.56428
# Shear Modulus (GPa) = 15.57064 27.55917 21.56490
#
# Velocity S-wave (km/s) = 2.64142 3.51412 3.10855
# Velocity P-wave (km/s) = 4.11283 5.30833 4.74835
#
# Compressibility (1/GPa) = 0.05886193
#
# Stress axis : x y z
#
# Youngs Moduli (GPa) = 104.47541 40.25586 15.22602
#
# Poissons Ratio (x) = -0.14666 0.15446
# Poissons Ratio (y) = -0.38063 0.21488
# Poissons Ratio (z) = 1.05986 0.56811
#
# Static dielectric constant tensor:
#      x y z
#    x 1.880280 0.040800 -0.007400 
#    y 0.040800 1.898340 -0.033770 
#    z -0.007400 -0.033770 1.839590 
# 
# From -- ./inp_files/253078.got.cif
#   From: 2010.05.17/outbox.cif.g08.bks.cpg/sg2_127_cif.got.tgz:253078.got - 2010.06.03 11:33:40.
