data_PCOD9002295
_publ_section_title
;
Structure prediction by ZEFSAII (Michael W. Deem and Ramdas Pophale) SiO2 
 PCOD9002295
Probable space group: P -1
;
_chemical_formula_sum "Si O2"
_cell_formula_units_Z 16
_cell_length_a 8.382124
_cell_length_b 5.747403
_cell_length_c 15.902289
_cell_angle_alpha 96.898109
_cell_angle_beta 70.364055
_cell_angle_gamma 70.284785
_cell_volume 655.281010
_symmetry_space_group_name_H-M "P -1"
_symmetry_group_IT_number 2
_symmetry_cell_setting 'triclinic'
loop_
_space_group_symop_operation_xyz
x,y,z
-x,-y,-z
loop_
_atom_site_type_symbol
_atom_site_label
_atom_site_fract_x
_atom_site_fract_y
_atom_site_fract_z
Si Si1 0.775271 0.886279 0.575257
Si Si2 0.258377 0.828361 0.867785
Si Si3 0.905319 0.331923 0.964204
Si Si4 0.121527 0.488578 0.211844
Si Si5 0.773230 0.362449 0.497241
Si Si6 0.179726 0.678179 0.702719
Si Si7 0.776709 0.109655 0.756524
Si Si8 0.540066 0.025093 0.896918
O O1 0.713264 0.657425 0.551355
O O2 0.001108 0.757769 0.536415
O O3 0.718106 0.143734 0.539697
O O4 0.713608 0.989254 0.684289
O O5 0.291227 0.692485 0.766143
O O6 0.383423 0.981908 0.871496
O O7 0.252183 0.668244 0.944555
O O8 0.047890 0.040801 0.912133
O O9 0.858652 0.439079 0.884200
O O10 0.000000 0.500000 0.000000
O O11 0.194415 0.638205 0.270026
O O12 0.261762 0.194513 0.174300
O O13 0.915557 0.519586 0.269356
O O14 0.727042 0.374288 0.406431
O O15 0.993287 0.941932 0.736365
O O16 0.607289 0.235558 0.859419
O O17 0.500000 0.000000 0.000000
#
# Coordination Sequence:
#
# PCOD9002295 Si02
#       8
#     2   2   2   2   2   2   2   2
#     4   9  19  33  58  90 124 159 202 258 318 372
#     4  11  23  38  58  86 121 154 203 256 303 364
#     4  11  21  36  59  83 114 157 201 246 305 358
#     4  11  22  38  60  84 120 161 203 249 305 366
#     4   9  19  32  58  92 125 153 204 263 316 373
#     4  10  21  36  59  91 119 154 199 260 308 361
#     4  10  22  38  59  87 120 161 200 252 305 370
#     4  11  25  40  58  86 124 160 206 252 301 367
#
# _framework density 24.417003000000001
#
# number of rings (size 3 to 8) (size 9 to 14) (size 15 to 20)
#    0.000    1.750    2.500    1.500   14.000    3.000 
#    0.000    0.000    0.000    1.500    0.000    0.000 
#    0.000    0.000    0.000    0.000    0.000    0.000 
#
# Total GULP energy -89240.349576 kJ/mol
# GULP energy per Si atom -5577.521848 kJ/mol
# Density = 2.436143 g / cm^3
# Si number density = 24.417003 Si / 1000 Ang^3
#
#
#
# Elastic Constant Matrix: (Units=GPa)
#
#
# Indices 1 2 3 4 5 6 
#
# 1 37.8909 13.5619 27.8044 -3.7819 12.0349 14.6069
# 2 13.5619 61.9310 46.3268 -4.1917 9.6648 22.0893
# 3 27.8044 46.3268 160.1869 -18.3557 37.8328 16.1235
# 4 -3.7819 -4.1917 -18.3557 39.4446 1.9352 2.8526
# 5 12.0349 9.6648 37.8328 1.9352 26.5205 8.4396
# 6 14.6069 22.0893 16.1235 2.8526 8.4396 35.0256
#
#
#
# Elastic Compliance Matrix: (Units=1/GPa)
#
#
# Indices 1 2 3 4 5 6 
#
# 1 0.036146 -0.000172 -0.002381 0.003662 -0.009424 -0.011897
# 2 -0.000172 0.025883 -0.007352 0.000065 0.005659 -0.014236
# 3 -0.002381 -0.007352 0.012889 0.005550 -0.016020 0.003104
# 4 0.003662 0.000065 0.005550 0.029093 -0.010462 -0.003971
# 5 -0.009424 0.005659 -0.016020 -0.010462 0.065855 -0.007280
# 6 -0.011897 -0.014236 0.003104 -0.003971 -0.007280 0.043139
#
#
# Mechanical properties :
#
#
# Convention : Reuss Voigt Hill
#
# Bulk Modulus (GPa) = 18.14636 48.37722 33.26179
# Shear Modulus (GPa) = 19.90567 31.68586 25.79576
#
# Velocity S-wave (km/s) = 2.85833 3.60626 3.25386
# Velocity P-wave (km/s) = 4.28269 6.09886 5.26961
#
# Compressibility (1/GPa) = 0.05510746
#
# Stress axis : x y z
#
# Youngs Moduli (GPa) = 27.66594 38.63525 77.58309
#
# Poissons Ratio (x) = 0.00665 0.18475
# Poissons Ratio (y) = 0.00477 0.57037
# Poissons Ratio (z) = 0.06588 0.28404
#
# Static dielectric constant tensor:
#      x y z
#    x 1.952530 0.237160 -0.084720 
#    y 0.237160 3.057160 -0.320200 
#    z -0.084720 -0.320200 2.032230 
# 
# From -- ./inp_files/37918.got.cif
#   From: 2010.05.17/outbox.cif.g08.bks.cpg/sg2_19_cif.got.tgz:37918.got - 2010.06.03 11:33:40.
