data_PCOD9002034
_publ_section_title
;
Structure prediction by ZEFSAII (Michael W. Deem and Ramdas Pophale) SiO2 
 PCOD9002034
Probable space group: P -1
;
_chemical_formula_sum "Si O2"
_cell_formula_units_Z 16
_cell_length_a 23.969484
_cell_length_b 12.486737
_cell_length_c 12.366377
_cell_angle_alpha 22.838662
_cell_angle_beta 36.236484
_cell_angle_gamma 34.593133
_cell_volume 796.106054
_symmetry_space_group_name_H-M "P -1"
_symmetry_group_IT_number 2
_symmetry_cell_setting 'triclinic'
loop_
_space_group_symop_operation_xyz
x,y,z
-x,-y,-z
loop_
_atom_site_type_symbol
_atom_site_label
_atom_site_fract_x
_atom_site_fract_y
_atom_site_fract_z
Si Si1 0.550633 0.242203 0.812980
Si Si2 0.896359 0.564297 0.168775
Si Si3 0.167727 0.884535 0.583038
Si Si4 0.100013 0.493298 0.415288
Si Si5 0.209415 0.864539 0.785353
Si Si6 0.253632 0.257734 0.957290
Si Si7 0.941315 0.062001 0.732424
Si Si8 0.574311 0.137470 0.614893
O O1 0.575926 0.178460 0.704736
O O2 0.515857 0.592139 0.548199
O O3 0.642297 0.016162 0.946171
O O4 0.453769 0.154028 0.078017
O O5 0.905440 0.266843 0.492891
O O6 0.802453 0.678652 0.128407
O O7 0.000000 0.500000 0.000000
O O8 0.890560 0.816369 0.030657
O O9 0.166367 0.924578 0.675331
O O10 0.186576 0.152551 0.244824
O O11 0.252390 0.572581 0.709901
O O12 0.060798 0.885414 0.708720
O O13 0.075322 0.718316 0.344469
O O14 0.000000 0.500000 0.500000
O O15 0.153284 0.151290 0.677633
O O16 0.178578 0.594265 0.127089
O O17 0.324068 0.846243 0.609629
#
# Coordination Sequence:
#
# PCOD9002034 Si02
#       8
#     2   2   2   2   2   2   2   2
#     4  10  21  36  56  89 121 153 190 245 299 357
#     4  12  23  39  60  85 118 161 201 238 294 355
#     4  12  22  34  59  86 124 157 199 236 284 352
#     4  12  26  40  60  87 120 160 207 244 288 349
#     4  12  24  39  60  89 118 168 197 235 299 359
#     4  12  23  36  58  91 120 162 195 234 298 361
#     4  12  24  41  56  85 122 159 200 249 279 340
#     4  10  21  37  58  85 122 155 191 242 299 362
#
# _framework density 20.097825
#
# number of rings (size 3 to 8) (size 9 to 14) (size 15 to 20)
#    0.000    0.500    5.000    4.500    5.250    0.000 
#    0.000    0.000    0.000    0.000    0.000   17.500 
#    0.000    0.000    0.000    0.000    0.000    0.000 
#
# Total GULP energy -89378.059388 kJ/mol
# GULP energy per Si atom -5586.128712 kJ/mol
# Density = 2.005208 g / cm^3
# Si number density = 20.097825 Si / 1000 Ang^3
#
#
#
# Elastic Constant Matrix: (Units=GPa)
#
#
# Indices 1 2 3 4 5 6 
#
# 1 84.7328 33.9645 13.2453 -5.3750 12.0523 -8.9732
# 2 33.9645 50.4247 24.7965 -9.0534 4.5377 -9.3505
# 3 13.2453 24.7965 85.2419 -9.8339 -3.7211 -0.4454
# 4 -5.3750 -9.0534 -9.8339 37.7223 -2.2967 -1.2756
# 5 12.0523 4.5377 -3.7211 -2.2967 29.8735 -8.7588
# 6 -8.9732 -9.3505 -0.4454 -1.2756 -8.7588 32.9077
#
#
#
# Elastic Compliance Matrix: (Units=1/GPa)
#
#
# Indices 1 2 3 4 5 6 
#
# 1 0.016938 -0.011195 0.000345 -0.000492 -0.005109 0.000063
# 2 -0.011195 0.032912 -0.007217 0.004703 0.000924 0.006629
# 3 0.000345 -0.007217 0.014130 0.002125 0.002589 -0.000994
# 4 -0.000492 0.004703 0.002125 0.028399 0.002837 0.003087
# 5 -0.005109 0.000924 0.002589 0.002837 0.038664 0.009305
# 6 0.000063 0.006629 -0.000994 0.003087 0.009305 0.034872
#
#
# Mechanical properties :
#
#
# Convention : Reuss Voigt Hill
#
# Bulk Modulus (GPa) = 35.91224 40.49022 38.20123
# Shear Modulus (GPa) = 23.65965 29.99356 26.82660
#
# Velocity S-wave (km/s) = 3.43479 3.86732 3.65746
# Velocity P-wave (km/s) = 5.79982 6.33497 6.07329
#
# Compressibility (1/GPa) = 0.02784566
#
# Stress axis : x y z
#
# Youngs Moduli (GPa) = 59.04037 30.38424 70.77162
#
# Poissons Ratio (x) = 0.34016 -0.02444
# Poissons Ratio (y) = 0.66098 0.51075
# Poissons Ratio (z) = -0.02039 0.21928
#
# Static dielectric constant tensor:
#      x y z
#    x 1.721580 -0.020560 -0.021190 
#    y -0.020560 1.746850 0.004380 
#    z -0.021190 0.004380 1.694300 
# 
# From -- ./inp_files/455723.got.cif
#   From: 2010.05.17/outbox.cif.g08.bks.cpg/sg2_228_cif.got.tgz:455723.got - 2010.06.03 11:33:40.
