data_PCOD9002487
_publ_section_title
;
Structure prediction by ZEFSAII (Michael W. Deem and Ramdas Pophale) SiO2 
 PCOD9002487
Probable space group: P -1
;
_chemical_formula_sum "Si O2"
_cell_formula_units_Z 12
_cell_length_a 11.162632
_cell_length_b 9.529250
_cell_length_c 10.805513
_cell_angle_alpha 137.038397
_cell_angle_beta 98.892874
_cell_angle_gamma 60.898364
_cell_volume 644.127304
_symmetry_space_group_name_H-M "P -1"
_symmetry_group_IT_number 2
_symmetry_cell_setting 'triclinic'
loop_
_space_group_symop_operation_xyz
x,y,z
-x,-y,-z
loop_
_atom_site_type_symbol
_atom_site_label
_atom_site_fract_x
_atom_site_fract_y
_atom_site_fract_z
Si Si1 0.677159 0.257147 0.008054
Si Si2 0.344921 0.470310 0.062244
Si Si3 0.847365 0.745842 0.094317
Si Si4 0.938426 0.767186 0.608727
Si Si5 0.876673 0.085879 0.140307
Si Si6 0.147033 0.992758 0.500042
O O1 0.680458 0.441106 0.028423
O O2 0.796520 0.981672 0.798822
O O3 0.516267 0.315666 0.015892
O O4 0.728855 0.272389 0.163003
O O5 0.266402 0.723912 0.291703
O O6 0.268592 0.326673 0.986035
O O7 0.805716 0.937304 0.323395
O O8 0.868947 0.866198 0.054672
O O9 0.000000 0.500000 0.000000
O O10 0.891747 0.806775 0.484183
O O11 0.000000 0.500000 0.500000
O O12 0.066529 0.815362 0.680225
O O13 0.000000 0.000000 0.000000
O O14 0.000000 0.000000 0.500000
#
# Coordination Sequence:
#
# PCOD9002487 Si02
#       6
#     2   2   2   2   2   2
#     4   9  21  42  59  85 119 155 197 239 295 350
#     4  10  22  42  62  83 122 158 192 246 293 348
#     4  12  22  36  63  88 117 158 195 244 298 344
#     4  10  21  36  61  88 117 151 194 248 288 344
#     4  10  21  37  58  87 113 153 200 236 295 352
#     4  11  21  38  58  91 117 149 202 240 289 354
#
# _framework density 18.629857999999999
#
# number of rings (size 3 to 8) (size 9 to 14) (size 15 to 20)
#    0.000    1.667    3.333    2.000    7.000    0.667 
#    3.000    3.333    0.000    0.000    0.000    0.000 
#    0.000    0.000    0.000    0.000    0.000    0.000 
#
# Total GULP energy -66960.523768 kJ/mol
# GULP energy per Si atom -5580.043647 kJ/mol
# Density = 1.858746 g / cm^3
# Si number density = 18.629858 Si / 1000 Ang^3
#
#
#
# Elastic Constant Matrix: (Units=GPa)
#
#
# Indices 1 2 3 4 5 6 
#
# 1 125.7134 67.7820 31.5739 20.8751 8.7835 5.7417
# 2 67.7820 119.2282 34.8939 3.9237 4.1960 3.8894
# 3 31.5739 34.8939 50.0092 2.1152 6.4169 2.8818
# 4 20.8751 3.9237 2.1152 29.6384 3.4638 0.8285
# 5 8.7835 4.1960 6.4169 3.4638 22.6727 8.4727
# 6 5.7417 3.8894 2.8818 0.8285 8.4727 35.8403
#
#
#
# Elastic Compliance Matrix: (Units=1/GPa)
#
#
# Indices 1 2 3 4 5 6 
#
# 1 0.013922 -0.006486 -0.003660 -0.008478 -0.001617 -0.000654
# 2 -0.006486 0.013600 -0.005665 0.003034 0.001267 -0.000351
# 3 -0.003660 -0.005665 0.026869 0.002052 -0.005567 0.000309
# 4 -0.008478 0.003034 0.002052 0.039636 -0.004271 0.000957
# 5 -0.001617 0.001267 -0.005567 -0.004271 0.050980 -0.011384
# 6 -0.000654 -0.000351 0.000309 0.000957 -0.011384 0.030688
#
#
# Mechanical properties :
#
#
# Convention : Reuss Voigt Hill
#
# Bulk Modulus (GPa) = 43.91953 62.60561 53.26257
# Shear Modulus (GPa) = 23.26590 28.34369 25.80480
#
# Velocity S-wave (km/s) = 3.53774 3.90476 3.72577
# Velocity P-wave (km/s) = 6.34929 7.34898 6.86735
#
# Compressibility (1/GPa) = 0.02276891
#
# Stress axis : x y z
#
# Youngs Moduli (GPa) = 71.82977 73.53185 37.21702
#
# Poissons Ratio (x) = 0.47694 0.13622
# Poissons Ratio (y) = 0.46590 0.21082
# Poissons Ratio (z) = 0.26291 0.41653
#
# Static dielectric constant tensor:
#      x y z
#    x 1.631190 0.006390 0.002240 
#    y 0.006390 1.679990 -0.043730 
#    z 0.002240 -0.043730 1.675830 
# 
# From -- ./inp_files/147452.got.cif
#   From: 2010.05.17/outbox.cif.g08.bks.cpg/sg2_74_cif.got.tgz:147452.got - 2010.06.03 11:33:40.
