data_PCOD9002404
_publ_section_title
;
Structure prediction by ZEFSAII (Michael W. Deem and Ramdas Pophale) SiO2 
 PCOD9002404
Probable space group: P -1
;
_chemical_formula_sum "Si O2"
_cell_formula_units_Z 14
_cell_length_a 18.498195
_cell_length_b 10.456435
_cell_length_c 7.018784
_cell_angle_alpha 97.671336
_cell_angle_beta 86.474445
_cell_angle_gamma 153.097796
_cell_volume 603.744034
_symmetry_space_group_name_H-M "P -1"
_symmetry_group_IT_number 2
_symmetry_cell_setting 'triclinic'
loop_
_space_group_symop_operation_xyz
x,y,z
-x,-y,-z
loop_
_atom_site_type_symbol
_atom_site_label
_atom_site_fract_x
_atom_site_fract_y
_atom_site_fract_z
Si Si1 0.648657 0.325399 0.987719
Si Si2 0.931586 0.855534 0.274778
Si Si3 0.659878 0.766744 0.407475
Si Si4 0.992199 0.282891 0.657827
Si Si5 0.060055 0.323413 0.223619
Si Si6 0.489146 0.629137 0.947500
Si Si7 0.814620 0.162156 0.138589
O O1 0.749509 0.521641 0.200552
O O2 0.584597 0.363364 0.932884
O O3 0.769865 0.438422 0.854925
O O4 0.500000 0.000000 0.000000
O O5 0.014825 0.850257 0.227551
O O6 0.000000 0.000000 0.500000
O O7 0.973774 0.046320 0.181904
O O8 0.500000 0.500000 0.500000
O O9 0.636440 0.602113 0.248463
O O10 0.809935 0.011398 0.570578
O O11 0.697438 0.945962 0.296046
O O12 0.077365 0.389088 0.459164
O O13 0.081955 0.545892 0.787714
O O14 0.941687 0.245552 0.142139
O O15 0.500000 0.500000 0.000000
O O16 0.681097 0.963553 0.953638
#
# Coordination Sequence:
#
# PCOD9002404 Si02
#       7
#     2   2   2   2   2   2   2
#     4  12  25  41  62  94 128 158 201 261 311 353
#     4  10  21  40  62  86 119 162 203 243 300 371
#     4  10  21  36  60  91 122 155 201 255 302 352
#     4  10  21  41  64  91 121 162 210 252 298 366
#     4  10  22  41  65  89 123 167 204 246 306 372
#     4  10  22  41  61  88 122 159 201 249 301 361
#     4  10  21  42  65  89 121 163 207 250 301 365
#
# _framework density 23.188635000000001
#
# number of rings (size 3 to 8) (size 9 to 14) (size 15 to 20)
#    0.000    1.714    0.000    6.429    0.000    5.714 
#    0.000    8.571    0.000    0.000    0.000    0.000 
#    0.000    0.000    0.000    0.000    0.000    0.000 
#
# Total GULP energy -77972.003366 kJ/mol
# GULP energy per Si atom -5569.428812 kJ/mol
# Density = 2.313586 g / cm^3
# Si number density = 23.188635 Si / 1000 Ang^3
#
#
#
# Elastic Constant Matrix: (Units=GPa)
#
#
# Indices 1 2 3 4 5 6 
#
# 1 72.9917 36.6299 28.2819 1.1834 -12.9835 -12.5712
# 2 36.6299 200.0117 59.9772 19.9472 -9.1852 -9.2012
# 3 28.2819 59.9772 77.2111 6.0861 -16.4564 -2.3706
# 4 1.1834 19.9472 6.0861 57.4583 6.2210 -9.7717
# 5 -12.9835 -9.1852 -16.4564 6.2210 30.7949 7.9664
# 6 -12.5712 -9.2012 -2.3706 -9.7717 7.9664 40.2071
#
#
#
# Elastic Compliance Matrix: (Units=1/GPa)
#
#
# Indices 1 2 3 4 5 6 
#
# 1 0.017561 -0.001646 -0.004429 0.001101 0.003161 0.004494
# 2 -0.001646 0.006890 -0.004823 -0.001635 -0.001038 0.000586
# 3 -0.004429 -0.004823 0.020242 -0.001929 0.008809 -0.003509
# 4 0.001101 -0.001635 -0.001929 0.019892 -0.006626 0.006003
# 5 0.003161 -0.001038 0.008809 -0.006626 0.041771 -0.008616
# 6 0.004494 0.000586 -0.003509 0.006003 -0.008616 0.029370
#
#
# Mechanical properties :
#
#
# Convention : Reuss Voigt Hill
#
# Bulk Modulus (GPa) = 43.67483 66.66584 55.17033
# Shear Modulus (GPa) = 30.27487 40.71377 35.49432
#
# Velocity S-wave (km/s) = 3.61722 4.19473 3.91663
# Velocity P-wave (km/s) = 6.02670 7.22999 6.65560
#
# Compressibility (1/GPa) = 0.02289648
#
# Stress axis : x y z
#
# Youngs Moduli (GPa) = 56.94562 145.13995 49.40131
#
# Poissons Ratio (x) = 0.23887 0.21879
# Poissons Ratio (y) = 0.09372 0.23829
# Poissons Ratio (z) = 0.25221 0.70008
#
# Static dielectric constant tensor:
#      x y z
#    x 1.940750 0.103870 0.084030 
#    y 0.103870 1.841000 -0.018420 
#    z 0.084030 -0.018420 2.116350 
# 
# From -- ./inp_files/345440.got.cif
#   From: 2010.05.17/outbox.cif.g08.bks.cpg/sg2_173_cif.got.tgz:345440.got - 2010.06.03 11:33:40.
