data_PCOD9002395
_publ_section_title
;
Structure prediction by ZEFSAII (Michael W. Deem and Ramdas Pophale) SiO2 
 PCOD9002395
Probable space group: P -1
;
_chemical_formula_sum "Si O2"
_cell_formula_units_Z 16
_cell_length_a 5.268322
_cell_length_b 20.031631
_cell_length_c 8.985177
_cell_angle_alpha 130.919533
_cell_angle_beta 66.529333
_cell_angle_gamma 97.555762
_cell_volume 645.680355
_symmetry_space_group_name_H-M "P -1"
_symmetry_group_IT_number 2
_symmetry_cell_setting 'triclinic'
loop_
_space_group_symop_operation_xyz
x,y,z
-x,-y,-z
loop_
_atom_site_type_symbol
_atom_site_label
_atom_site_fract_x
_atom_site_fract_y
_atom_site_fract_z
Si Si1 0.216162 0.321113 0.795700
Si Si2 0.775776 0.225046 0.818932
Si Si3 0.355659 0.474385 0.148931
Si Si4 0.152794 0.067126 0.654809
Si Si5 0.262934 0.421839 0.619865
Si Si6 0.390350 0.870695 0.546812
Si Si7 0.143066 0.869236 0.904349
Si Si8 0.653457 0.765039 0.828111
O O1 0.215764 0.376715 0.725353
O O2 0.393133 0.220820 0.588451
O O3 0.897711 0.314581 0.899591
O O4 0.347944 0.370058 0.970096
O O5 0.985483 0.167432 0.802981
O O6 0.812141 0.169798 0.576860
O O7 0.474053 0.224589 0.960850
O O8 0.513541 0.513995 0.304320
O O9 0.030886 0.523107 0.289588
O O10 0.500000 0.500000 0.000000
O O11 0.451145 0.068368 0.507302
O O12 0.068390 0.063554 0.841956
O O13 0.000000 0.000000 0.500000
O O14 0.352250 0.336383 0.368295
O O15 0.242363 0.908979 0.787541
O O16 0.430096 0.829215 0.868380
O O17 0.959528 0.792583 0.792023
#
# Coordination Sequence:
#
# PCOD9002395 Si02
#       8
#     2   2   2   2   2   2   2   2
#     4  10  21  36  60  89 124 166 220 274 313 391
#     4  10  23  40  66  92 127 173 216 271 328 384
#     4  10  22  35  55  92 126 166 216 273 333 373
#     4  10  24  46  65  99 138 168 210 270 329 394
#     4  11  21  37  60  90 123 170 219 271 326 380
#     4  11  22  40  68  97 124 176 222 264 324 387
#     4  11  23  42  69  97 132 174 218 265 323 388
#     4  11  22  42  63  95 130 172 221 273 322 385
#
# _framework density 24.780062999999998
#
# number of rings (size 3 to 8) (size 9 to 14) (size 15 to 20)
#    0.000    1.500    2.500    3.000    8.750    1.000 
#    0.000    1.875    0.000    0.000    0.000    0.000 
#    0.000    0.000    0.000    0.000    0.000    0.000 
#
# Total GULP energy -89471.872139 kJ/mol
# GULP energy per Si atom -5591.992009 kJ/mol
# Density = 2.472366 g / cm^3
# Si number density = 24.780063 Si / 1000 Ang^3
#
#
#
# Elastic Constant Matrix: (Units=GPa)
#
#
# Indices 1 2 3 4 5 6 
#
# 1 130.8019 26.5301 27.3336 2.1954 12.2590 15.6650
# 2 26.5301 95.5945 44.0529 -18.7843 4.3391 14.2912
# 3 27.3336 44.0529 146.0353 -12.7156 12.0135 3.0548
# 4 2.1954 -18.7843 -12.7156 34.4618 1.4986 6.9887
# 5 12.2590 4.3391 12.0135 1.4986 38.2490 12.2045
# 6 15.6650 14.2912 3.0548 6.9887 12.2045 36.8225
#
#
#
# Elastic Compliance Matrix: (Units=1/GPa)
#
#
# Indices 1 2 3 4 5 6 
#
# 1 0.008648 -0.001824 -0.001024 -0.001429 -0.001513 -0.002114
# 2 -0.001824 0.015226 -0.003522 0.008469 0.001889 -0.007075
# 3 -0.001024 -0.003522 0.008356 0.000982 -0.002493 0.001749
# 4 -0.001429 0.008469 0.000982 0.036057 0.000940 -0.009915
# 5 -0.001513 0.001889 -0.002493 0.000940 0.030395 -0.010135
# 6 -0.002114 -0.007075 0.001749 -0.009915 -0.010135 0.035898
#
#
# Mechanical properties :
#
#
# Convention : Reuss Voigt Hill
#
# Bulk Modulus (GPa) = 51.30894 63.14053 57.22474
# Shear Modulus (GPa) = 32.50613 40.20766 36.35689
#
# Velocity S-wave (km/s) = 3.62579 4.03250 3.83454
# Velocity P-wave (km/s) = 6.18701 6.87147 6.53820
#
# Compressibility (1/GPa) = 0.01948978
#
# Stress axis : x y z
#
# Youngs Moduli (GPa) = 115.63314 65.67713 119.67809
#
# Poissons Ratio (x) = 0.11981 0.12256
# Poissons Ratio (y) = 0.21094 0.42146
# Poissons Ratio (z) = 0.11842 0.23129
#
# Static dielectric constant tensor:
#      x y z
#    x 1.990320 -0.034070 -0.034500 
#    y -0.034070 2.000820 0.002180 
#    z -0.034500 0.002180 1.997550 
# 
# From -- ./inp_files/46851.got.cif
#   From: 2010.05.17/outbox.cif.g08.bks.cpg/sg2_24_cif.got.tgz:46851.got - 2010.06.03 11:33:40.
