data_PCOD9002855
_publ_section_title
;
Structure prediction by ZEFSAII (Michael W. Deem and Ramdas Pophale) SiO2 
 PCOD9002855
Probable space group: P -1
;
_chemical_formula_sum "Si O2"
_cell_formula_units_Z 16
_cell_length_a 9.755740
_cell_length_b 16.098850
_cell_length_c 11.650177
_cell_angle_alpha 142.426047
_cell_angle_beta 57.256933
_cell_angle_gamma 139.153063
_cell_volume 721.801524
_symmetry_space_group_name_H-M "P -1"
_symmetry_group_IT_number 2
_symmetry_cell_setting 'triclinic'
loop_
_space_group_symop_operation_xyz
x,y,z
-x,-y,-z
loop_
_atom_site_type_symbol
_atom_site_label
_atom_site_fract_x
_atom_site_fract_y
_atom_site_fract_z
Si Si1 0.716159 0.296873 0.142060
Si Si2 0.132177 0.245906 0.108957
Si Si3 0.254160 0.387012 0.956145
Si Si4 0.882411 0.174716 0.757460
Si Si5 0.856597 0.367925 0.777874
Si Si6 0.243221 0.589376 0.504358
Si Si7 0.316623 0.076571 0.934659
Si Si8 0.535396 0.120125 0.467358
O O1 0.679839 0.288747 0.284984
O O2 0.501094 0.224730 0.097961
O O3 0.920242 0.501827 0.248353
O O4 0.777820 0.184950 0.932044
O O5 0.240434 0.423935 0.330064
O O6 0.253491 0.168310 0.982928
O O7 0.142806 0.305532 0.040167
O O8 0.893907 0.088226 0.085670
O O9 0.105526 0.230408 0.758143
O O10 0.500000 0.500000 0.000000
O O11 0.229244 0.524527 0.066110
O O12 0.901329 0.315167 0.817841
O O13 0.715419 0.996348 0.565956
O O14 0.665761 0.192568 0.605243
O O15 0.363936 0.707315 0.467442
O O16 0.000000 0.500000 0.500000
O O17 0.407205 0.995646 0.738418
#
# Coordination Sequence:
#
# PCOD9002855 Si02
#       8
#     2   2   2   2   2   2   2   2
#     4  10  21  36  66  92 124 157 213 258 316 370
#     4  11  23  42  60  91 132 162 208 250 332 370
#     4  11  24  40  66  88 127 173 210 258 317 372
#     4  10  24  39  64  97 123 165 222 257 305 377
#     4  11  21  43  66  94 124 168 218 260 305 380
#     4  12  20  39  65  92 124 160 206 258 317 376
#     4  10  24  38  64  94 125 164 200 268 317 380
#     4  11  22  40  68  94 122 164 214 267 311 368
#
# _framework density 22.166758999999999
#
# number of rings (size 3 to 8) (size 9 to 14) (size 15 to 20)
#    0.000    1.250    3.750    2.625    7.000    1.500 
#    0.000    0.625    0.000    0.000    0.000    0.000 
#    0.000    0.000    0.000    0.000    0.000    0.000 
#
# Total GULP energy -89287.465578 kJ/mol
# GULP energy per Si atom -5580.466599 kJ/mol
# Density = 2.211631 g / cm^3
# Si number density = 22.166759 Si / 1000 Ang^3
#
#
#
# Elastic Constant Matrix: (Units=GPa)
#
#
# Indices 1 2 3 4 5 6 
#
# 1 147.2371 29.9178 52.7773 6.1492 31.4720 6.0386
# 2 29.9178 56.9717 12.0778 8.9674 4.0964 -5.7713
# 3 52.7773 12.0778 75.4191 15.4011 24.1488 -2.0997
# 4 6.1492 8.9674 15.4011 27.7469 -5.1546 8.5569
# 5 31.4720 4.0964 24.1488 -5.1546 51.0441 6.2818
# 6 6.0386 -5.7713 -2.0997 8.5569 6.2818 24.4098
#
#
#
# Elastic Compliance Matrix: (Units=1/GPa)
#
#
# Indices 1 2 3 4 5 6 
#
# 1 0.010953 -0.005466 -0.007521 0.005102 -0.001497 -0.006052
# 2 -0.005466 0.023118 0.004241 -0.013146 -0.003377 0.012661
# 3 -0.007521 0.004241 0.026769 -0.021844 -0.012549 0.016053
# 4 0.005102 -0.013146 -0.021844 0.065316 0.019029 -0.034043
# 5 -0.001497 -0.003377 -0.012549 0.019029 0.030619 -0.016058
# 6 -0.006052 0.012661 0.016053 -0.034043 -0.016058 0.062905
#
#
# Mechanical properties :
#
#
# Convention : Reuss Voigt Hill
#
# Bulk Modulus (GPa) = 23.06847 52.13041 37.59944
# Shear Modulus (GPa) = 19.87105 32.96384 26.41745
#
# Velocity S-wave (km/s) = 2.99730 3.86046 3.45593
# Velocity P-wave (km/s) = 4.73369 6.59085 5.73790
#
# Compressibility (1/GPa) = 0.04334921
#
# Stress axis : x y z
#
# Youngs Moduli (GPa) = 91.29616 43.25542 37.35702
#
# Poissons Ratio (x) = 0.23644 0.28096
# Poissons Ratio (y) = 0.49904 -0.15844
# Poissons Ratio (z) = 0.68662 -0.18346
#
# Static dielectric constant tensor:
#      x y z
#    x 1.831580 0.029940 0.041950 
#    y 0.029940 1.862880 0.041050 
#    z 0.041950 0.041050 1.922720 
# 
# From -- ./inp_files/186165.got.cif
#   From: 2010.05.17/outbox.cif.g08.bks.cpg/sg2_94_cif.got.tgz:186165.got - 2010.06.03 11:33:40.
