data_PCOD9002347
_publ_section_title
;
Structure prediction by ZEFSAII (Michael W. Deem and Ramdas Pophale) SiO2 
 PCOD9002347
Probable space group: P -1
;
_chemical_formula_sum "Si O2"
_cell_formula_units_Z 16
_cell_length_a 9.605663
_cell_length_b 15.361599
_cell_length_c 9.010772
_cell_angle_alpha 118.653976
_cell_angle_beta 122.585728
_cell_angle_gamma 99.648834
_cell_volume 803.675852
_symmetry_space_group_name_H-M "P -1"
_symmetry_group_IT_number 2
_symmetry_cell_setting 'triclinic'
loop_
_space_group_symop_operation_xyz
x,y,z
-x,-y,-z
loop_
_atom_site_type_symbol
_atom_site_label
_atom_site_fract_x
_atom_site_fract_y
_atom_site_fract_z
Si Si1 0.567005 0.183551 0.081819
Si Si2 0.856666 0.711382 0.415785
Si Si3 0.500568 0.279756 0.835791
Si Si4 0.084827 0.631410 0.994088
Si Si5 0.306701 0.003698 0.414279
Si Si6 0.098264 0.812744 0.916479
Si Si7 0.137963 0.954649 0.587722
Si Si8 0.110936 0.637204 0.360966
O O1 0.713622 0.159183 0.054997
O O2 0.683754 0.254636 0.355114
O O3 0.544161 0.267612 0.022689
O O4 0.345033 0.060573 0.873023
O O5 0.632350 0.668467 0.214632
O O6 0.907902 0.748225 0.646852
O O7 0.006694 0.835327 0.511311
O O8 0.930937 0.628475 0.342484
O O9 0.704840 0.347613 0.915354
O O10 0.373369 0.139944 0.589228
O O11 0.091746 0.657480 0.193574
O O12 0.067875 0.720455 0.951783
O O13 0.914576 0.490050 0.750177
O O14 0.500000 0.000000 0.500000
O O15 0.205751 0.934062 0.452460
O O16 0.160429 0.934269 0.135237
O O17 0.000000 0.000000 0.500000
#
# Coordination Sequence:
#
# PCOD9002347 Si02
#       8
#     2   2   2   2   2   2   2   2
#     4   9  19  37  58  86 112 156 191 237 278 350
#     4  11  23  37  56  93 118 154 192 233 293 353
#     4  10  21  37  58  85 125 147 191 237 293 347
#     4  10  21  43  61  84 112 153 198 252 282 340
#     4  11  18  36  60  85 114 164 188 236 289 340
#     4  10  21  36  60  83 119 156 198 231 286 348
#     4  11  20  37  58  86 125 153 185 239 289 343
#     4  10  23  39  65  85 107 151 209 240 290 339
#
# _framework density 19.908522000000001
#
# number of rings (size 3 to 8) (size 9 to 14) (size 15 to 20)
#    0.000    1.750    6.250    0.750    0.000    8.500 
#    2.250    0.000    0.000    3.000    0.000    0.000 
#    0.000    0.000    0.000    0.000    0.000    0.000 
#
# Total GULP energy -89336.305685 kJ/mol
# GULP energy per Si atom -5583.519105 kJ/mol
# Density = 1.986321 g / cm^3
# Si number density = 19.908522 Si / 1000 Ang^3
#
#
#
# Elastic Constant Matrix: (Units=GPa)
#
#
# Indices 1 2 3 4 5 6 
#
# 1 45.4996 -0.0037 11.1619 -10.8874 -5.4346 1.8323
# 2 -0.0037 32.6145 16.0676 1.2727 -13.4870 0.7914
# 3 11.1619 16.0676 82.6272 -7.0595 -27.5701 1.2275
# 4 -10.8874 1.2727 -7.0595 29.4884 -1.4944 3.1219
# 5 -5.4346 -13.4870 -27.5701 -1.4944 29.6295 -5.7095
# 6 1.8323 0.7914 1.2275 3.1219 -5.7095 28.4339
#
#
#
# Elastic Compliance Matrix: (Units=1/GPa)
#
#
# Indices 1 2 3 4 5 6 
#
# 1 0.025156 0.002239 -0.001594 0.009213 0.004274 -0.001768
# 2 0.002239 0.038494 -0.002591 -0.000881 0.015898 0.002185
# 3 -0.001594 -0.002591 0.018725 0.004615 0.016607 0.002194
# 4 0.009213 -0.000881 0.004615 0.039195 0.006848 -0.003697
# 5 0.004274 0.015898 0.016607 0.006848 0.059448 0.009750
# 6 -0.001768 0.002185 0.002194 -0.003697 0.009750 0.037491
#
#
# Mechanical properties :
#
#
# Convention : Reuss Voigt Hill
#
# Bulk Modulus (GPa) = 12.74178 23.91032 18.32605
# Shear Modulus (GPa) = 20.11583 26.41140 23.26361
#
# Velocity S-wave (km/s) = 3.18215 3.64626 3.42208
# Velocity P-wave (km/s) = 4.46268 5.45555 4.98390
#
# Compressibility (1/GPa) = 0.07848197
#
# Stress axis : x y z
#
# Youngs Moduli (GPa) = 39.75236 25.97836 53.40544
#
# Poissons Ratio (x) = -0.05816 0.08514
# Poissons Ratio (y) = -0.08900 0.13836
# Poissons Ratio (z) = 0.06337 0.06730
#
# Static dielectric constant tensor:
#      x y z
#    x 1.723710 -0.005980 0.009450 
#    y -0.005980 1.714630 0.010170 
#    z 0.009450 0.010170 1.717530 
# 
# From -- ./inp_files/176690.got.cif
#   From: 2010.05.17/outbox.cif.g08.bks.cpg/sg2_89_cif.got.tgz:176690.got - 2010.06.03 11:33:40.
