data_PCOD9002717
_publ_section_title
;
Structure prediction by ZEFSAII (Michael W. Deem and Ramdas Pophale) SiO2 
 PCOD9002717
Probable space group: P -1
;
_chemical_formula_sum "Si O2"
_cell_formula_units_Z 16
_cell_length_a 25.805581
_cell_length_b 10.262685
_cell_length_c 6.380203
_cell_angle_alpha 85.924289
_cell_angle_beta 85.586161
_cell_angle_gamma 22.511200
_cell_volume 645.005988
_symmetry_space_group_name_H-M "P -1"
_symmetry_group_IT_number 2
_symmetry_cell_setting 'triclinic'
loop_
_space_group_symop_operation_xyz
x,y,z
-x,-y,-z
loop_
_atom_site_type_symbol
_atom_site_label
_atom_site_fract_x
_atom_site_fract_y
_atom_site_fract_z
Si Si1 0.439630 0.143195 0.253187
Si Si2 0.778301 0.583820 0.691024
Si Si3 0.075884 0.189152 0.533306
Si Si4 0.999303 0.169862 0.903197
Si Si5 0.799049 0.156305 0.877957
Si Si6 0.437470 0.783353 0.064388
Si Si7 0.769516 0.733853 0.250489
Si Si8 0.281887 0.843396 0.774057
O O1 0.327700 0.287457 0.274169
O O2 0.348013 0.484147 0.215177
O O3 0.500000 0.000000 0.500000
O O4 0.500000 0.000000 0.000000
O O5 0.920556 0.231611 0.810492
O O6 0.805195 0.556885 0.447726
O O7 0.690312 0.911091 0.773589
O O8 0.000000 0.500000 0.500000
O O9 0.996050 0.281635 0.702274
O O10 0.097664 0.076298 0.316646
O O11 0.222360 0.889371 0.610319
O O12 0.891869 0.453282 0.082148
O O13 0.150971 0.848056 0.974223
O O14 0.802363 0.009726 0.012525
O O15 0.563719 0.549114 0.176234
O O16 0.500000 0.500000 0.000000
O O17 0.365625 0.007393 0.853906
O O18 0.737877 0.958478 0.290444
#
# Coordination Sequence:
#
# PCOD9002717 Si02
#       8
#     2   2   2   2   2   2   2   2
#     4  12  32  54  80 108 147 200 261 315 374 438
#     4  11  24  43  73  98 143 192 242 312 369 445
#     4  11  22  38  66 104 144 192 235 304 375 448
#     4  10  22  41  66  98 141 175 246 289 378 429
#     4  11  25  43  70 101 146 193 250 305 365 451
#     4   9  21  37  60  97 138 178 235 295 370 441
#     4  10  21  39  63 103 139 188 227 304 365 455
#     4  10  21  36  63  96 146 182 240 294 375 437
#
# _framework density 24.805973000000002
#
# number of rings (size 3 to 8) (size 9 to 14) (size 15 to 20)
#    0.000    1.500    0.000    3.750   10.500    6.500 
#    0.000    2.500    0.000    0.000    0.000    0.000 
#    0.000    0.000    0.000    0.000    0.000    0.000 
#
# Total GULP energy -89089.198683 kJ/mol
# GULP energy per Si atom -5568.074918 kJ/mol
# Density = 2.474951 g / cm^3
# Si number density = 24.805973 Si / 1000 Ang^3
#
#
#
# Elastic Constant Matrix: (Units=GPa)
#
#
# Indices 1 2 3 4 5 6 
#
# 1 81.6104 8.8031 26.4549 -15.6748 1.8658 -33.4520
# 2 8.8031 70.7912 26.4881 -11.8304 22.3014 -29.5822
# 3 26.4549 26.4881 135.4172 -1.7887 0.3437 -21.1191
# 4 -15.6748 -11.8304 -1.7887 46.5855 -20.1617 18.4359
# 5 1.8658 22.3014 0.3437 -20.1617 42.1397 -13.8220
# 6 -33.4520 -29.5822 -21.1191 18.4359 -13.8220 48.7924
#
#
#
# Elastic Compliance Matrix: (Units=1/GPa)
#
#
# Indices 1 2 3 4 5 6 
#
# 1 0.018822 0.003850 -0.002209 0.003064 0.003217 0.014037
# 2 0.003850 0.022880 -0.003134 -0.002188 -0.008884 0.013465
# 3 -0.002209 -0.003134 0.008587 -0.000962 0.001592 0.001117
# 4 0.003064 -0.002188 -0.000962 0.030571 0.013213 -0.007451
# 5 0.003217 -0.008884 0.001592 0.013213 0.035436 0.002555
# 6 0.014037 0.013465 0.001117 -0.007451 0.002555 0.042304
#
#
# Mechanical properties :
#
#
# Convention : Reuss Voigt Hill
#
# Bulk Modulus (GPa) = 21.14025 45.70122 33.42074
# Shear Modulus (GPa) = 28.19228 42.57505 35.38367
#
# Velocity S-wave (km/s) = 3.37488 4.14735 3.78089
# Velocity P-wave (km/s) = 4.87105 6.43409 5.70634
#
# Compressibility (1/GPa) = 0.04730312
#
# Stress axis : x y z
#
# Youngs Moduli (GPa) = 53.12791 43.70716 116.46174
#
# Poissons Ratio (x) = -0.16827 0.25724
# Poissons Ratio (y) = -0.20454 0.36498
# Poissons Ratio (z) = 0.11735 0.13697
#
# Static dielectric constant tensor:
#      x y z
#    x 2.018310 -0.042530 0.065220 
#    y -0.042530 1.995620 -0.070870 
#    z 0.065220 -0.070870 2.020720 
# 
# From -- ./inp_files/128473.got.cif
#   From: 2010.05.17/outbox.cif.g08.bks.cpg/sg2_65_cif.got.tgz:128473.got - 2010.06.03 11:33:40.
