data_PCOD9002763
_publ_section_title
;
Structure prediction by ZEFSAII (Michael W. Deem and Ramdas Pophale) SiO2 
 PCOD9002763
Probable space group: P -1
;
_chemical_formula_sum "Si O2"
_cell_formula_units_Z 14
_cell_length_a 17.787354
_cell_length_b 8.495658
_cell_length_c 9.846463
_cell_angle_alpha 57.632408
_cell_angle_beta 33.053190
_cell_angle_gamma 42.549412
_cell_volume 535.017315
_symmetry_space_group_name_H-M "P -1"
_symmetry_group_IT_number 2
_symmetry_cell_setting 'triclinic'
loop_
_space_group_symop_operation_xyz
x,y,z
-x,-y,-z
loop_
_atom_site_type_symbol
_atom_site_label
_atom_site_fract_x
_atom_site_fract_y
_atom_site_fract_z
Si Si1 0.970299 0.731617 0.260591
Si Si2 0.820100 0.758196 0.189614
Si Si3 0.979181 0.980513 0.756480
Si Si4 0.354603 0.386337 0.807520
Si Si5 0.326719 0.560205 0.077732
Si Si6 0.369341 0.118700 0.269757
Si Si7 0.353341 0.475020 0.463778
O O1 0.850196 0.801011 0.277887
O O2 0.819610 0.776673 0.563980
O O3 0.006635 0.908109 0.177587
O O4 0.153804 0.477388 0.067809
O O5 0.672917 0.726237 0.409761
O O6 0.000000 0.500000 0.000000
O O7 0.834605 0.937226 0.004098
O O8 0.173497 0.728789 0.567142
O O9 0.877132 0.203920 0.705674
O O10 0.349461 0.488556 0.915434
O O11 0.365872 0.496032 0.600321
O O12 0.515386 0.106509 0.697863
O O13 0.483160 0.577308 0.840748
O O14 0.351812 0.351754 0.222066
O O15 0.500000 0.000000 0.000000
#
# Coordination Sequence:
#
# PCOD9002763 Si02
#       7
#     2   2   2   2   2   2   2
#     4  11  21  39  66  91 122 161 205 255 303 361
#     4  10  21  38  60  94 128 155 199 252 319 358
#     4  10  21  36  64  92 121 149 209 253 306 353
#     4  10  21  36  65  92 122 158 205 257 306 355
#     4  10  23  37  60  92 121 164 204 246 306 363
#     4  10  23  41  59  94 125 162 206 248 305 365
#     4  11  22  39  62  92 129 155 199 260 306 359
#
# _framework density 26.167375
#
# number of rings (size 3 to 8) (size 9 to 14) (size 15 to 20)
#    0.000    1.714    2.857    2.571    4.000    6.857 
#    0.000    0.714    0.000    2.571    0.000    0.000 
#    0.000    0.000    0.000    0.000    0.000    0.000 
#
# Total GULP energy -78065.434145 kJ/mol
# GULP energy per Si atom -5576.102439 kJ/mol
# Density = 2.610782 g / cm^3
# Si number density = 26.167375 Si / 1000 Ang^3
#
#
#
# Elastic Constant Matrix: (Units=GPa)
#
#
# Indices 1 2 3 4 5 6 
#
# 1 2.9655 72.1879 67.3252 49.3359 55.7520 -32.6398
# 2 72.1879 141.7731 15.8327 10.9668 -65.2214 -14.4517
# 3 67.3252 15.8327 47.8772 -14.9330 -100.7653 -3.4601
# 4 49.3359 10.9668 -14.9330 13.9644 -42.0684 8.1671
# 5 55.7520 -65.2214 -100.7653 -42.0684 -12.2476 26.5858
# 6 -32.6398 -14.4517 -3.4601 8.1671 26.5858 36.3305
#
#
#
# Elastic Compliance Matrix: (Units=1/GPa)
#
#
# Indices 1 2 3 4 5 6 
#
# 1 0.013059 -0.001454 0.007966 -0.001131 0.012342 0.003136
# 2 -0.001454 0.009018 -0.002802 -0.006955 0.000023 0.003561
# 3 0.007966 -0.002802 0.012505 -0.010630 0.002200 0.008013
# 4 -0.001131 -0.006955 -0.010630 0.035724 -0.012056 -0.004004
# 5 0.012342 0.000023 0.002200 -0.012056 0.010873 0.006060
# 6 0.003136 0.003561 0.008013 -0.004004 0.006060 0.028987
#
#
# Mechanical properties :
#
#
# Convention : Reuss Voigt Hill
#
# Bulk Modulus (GPa) = 23.80770 55.92306 39.86538
# Shear Modulus (GPa) = 42.82717 10.09412 26.46065
#
# Velocity S-wave (km/s) = 4.04996 1.96619 3.18340
# Velocity P-wave (km/s) = 5.56664 5.15482 5.36469
#
# Compressibility (1/GPa) = 0.04200322
#
# Stress axis : x y z
#
# Youngs Moduli (GPa) = 76.57476 110.88641 79.96583
#
# Poissons Ratio (x) = 0.16126 -0.63701
# Poissons Ratio (y) = 0.11136 0.22403
# Poissons Ratio (z) = -0.61000 0.31065
#
# Static dielectric constant tensor:
#      x y z
#    x 2.126780 -0.001770 -0.036890 
#    y -0.001770 2.062250 -0.046780 
#    z -0.036890 -0.046780 1.149650 
# 
# From -- ./inp_files/380992.got.cif
#   From: 2010.05.17/outbox.cif.g08.bks.cpg/sg2_191_cif.got.tgz:380992.got - 2010.06.03 11:33:40.
