data_PCOD9002123
_publ_section_title
;
Structure prediction by ZEFSAII (Michael W. Deem and Ramdas Pophale) SiO2 
 PCOD9002123
Probable space group: P -1
;
_chemical_formula_sum "Si O2"
_cell_formula_units_Z 14
_cell_length_a 11.948935
_cell_length_b 9.296174
_cell_length_c 8.433774
_cell_angle_alpha 51.671563
_cell_angle_beta 129.407903
_cell_angle_gamma 103.750990
_cell_volume 548.691174
_symmetry_space_group_name_H-M "P -1"
_symmetry_group_IT_number 2
_symmetry_cell_setting 'triclinic'
loop_
_space_group_symop_operation_xyz
x,y,z
-x,-y,-z
loop_
_atom_site_type_symbol
_atom_site_label
_atom_site_fract_x
_atom_site_fract_y
_atom_site_fract_z
Si Si1 0.320290 0.845541 0.131757
Si Si2 0.988706 0.296433 0.361068
Si Si3 0.862643 0.380051 0.729849
Si Si4 0.543715 0.988813 0.364939
Si Si5 0.137498 0.199461 0.907020
Si Si6 0.800096 0.038391 0.388012
Si Si7 0.366657 0.404163 0.892374
O O1 0.234920 0.682515 0.178562
O O2 0.492069 0.817034 0.353895
O O3 0.294825 0.942015 0.872366
O O4 0.237097 0.990944 0.095711
O O5 0.042002 0.475598 0.229765
O O6 0.066985 0.265546 0.625562
O O7 0.834539 0.241923 0.299790
O O8 0.057916 0.134179 0.404412
O O9 0.736400 0.472103 0.420771
O O10 0.997021 0.218982 0.881916
O O11 0.715120 0.979509 0.498464
O O12 0.500000 0.000000 0.500000
O O13 0.457032 0.190013 0.068851
O O14 0.243848 0.342849 0.940972
O O15 0.500000 0.500000 0.000000
#
# Coordination Sequence:
#
# PCOD9002123 Si02
#       7
#     2   2   2   2   2   2   2
#     4  10  22  40  61  97 125 170 209 254 321 380
#     4   9  20  38  64  90 122 172 208 256 322 366
#     4  11  21  38  66  93 133 161 216 263 308 374
#     4  11  24  41  65  91 125 169 215 261 317 376
#     4   9  20  37  62  92 127 169 210 264 310 366
#     4  10  22  42  63  88 131 167 209 257 318 385
#     4  10  21  36  57  94 126 160 207 262 320 360
#
# _framework density 25.515262
#
# number of rings (size 3 to 8) (size 9 to 14) (size 15 to 20)
#    0.000    2.000    0.000    4.286    6.000    0.571 
#    7.714    4.286    0.000    0.000    0.000    0.000 
#    0.000    0.000    0.000    0.000    0.000    0.000 
#
# Total GULP energy -78106.739436 kJ/mol
# GULP energy per Si atom -5579.052817 kJ/mol
# Density = 2.545719 g / cm^3
# Si number density = 25.515262 Si / 1000 Ang^3
#
#
#
# Elastic Constant Matrix: (Units=GPa)
#
#
# Indices 1 2 3 4 5 6 
#
# 1 141.6141 41.1531 10.7661 13.5228 -2.1385 37.5674
# 2 41.1531 115.7647 -3.5488 11.7187 8.6643 41.3360
# 3 10.7661 -3.5488 62.3090 18.8411 7.7266 0.8640
# 4 13.5228 11.7187 18.8411 35.4016 3.8345 10.0721
# 5 -2.1385 8.6643 7.7266 3.8345 26.6246 3.6019
# 6 37.5674 41.3360 0.8640 10.0721 3.6019 42.8778
#
#
#
# Elastic Compliance Matrix: (Units=1/GPa)
#
#
# Indices 1 2 3 4 5 6 
#
# 1 0.009556 -0.000891 -0.001761 -0.000553 0.002673 -0.007573
# 2 -0.000891 0.013606 0.001952 -0.001507 -0.003259 -0.011747
# 3 -0.001761 0.001952 0.020398 -0.010885 -0.005435 0.002264
# 4 -0.000553 -0.001507 -0.010885 0.036655 -0.000810 -0.006386
# 5 0.002673 -0.003259 -0.005435 -0.000810 0.040844 -0.002331
# 6 -0.007573 -0.011747 0.002264 -0.006386 -0.002331 0.042932
#
#
# Mechanical properties :
#
#
# Convention : Reuss Voigt Hill
#
# Bulk Modulus (GPa) = 23.71957 46.26985 34.99471
# Shear Modulus (GPa) = 27.86339 39.06863 33.46601
#
# Velocity S-wave (km/s) = 3.30817 3.91728 3.62554
# Velocity P-wave (km/s) = 4.88962 6.21560 5.59205
#
# Compressibility (1/GPa) = 0.04215928
#
# Stress axis : x y z
#
# Youngs Moduli (GPa) = 104.64174 73.49692 49.02322
#
# Poissons Ratio (x) = 0.06550 0.08634
# Poissons Ratio (y) = 0.09326 -0.09567
# Poissons Ratio (z) = 0.18430 -0.14344
#
# Static dielectric constant tensor:
#      x y z
#    x 2.076940 0.068260 0.087920 
#    y 0.068260 2.082290 -0.020770 
#    z 0.087920 -0.020770 2.082590 
# 
# From -- ./inp_files/240395.got.cif
#   From: 2010.05.17/outbox.cif.g08.bks.cpg/sg2_121_cif.got.tgz:240395.got - 2010.06.03 11:33:40.
