data_PCOD9002393
_publ_section_title
;
Structure prediction by ZEFSAII (Michael W. Deem and Ramdas Pophale) SiO2 
 PCOD9002393
Probable space group: P -1
;
_chemical_formula_sum "Si O2"
_cell_formula_units_Z 14
_cell_length_a 8.011682
_cell_length_b 6.213994
_cell_length_c 20.073295
_cell_angle_alpha 72.812121
_cell_angle_beta 40.775735
_cell_angle_gamma 91.702465
_cell_volume 569.743416
_symmetry_space_group_name_H-M "P -1"
_symmetry_group_IT_number 2
_symmetry_cell_setting 'triclinic'
loop_
_space_group_symop_operation_xyz
x,y,z
-x,-y,-z
loop_
_atom_site_type_symbol
_atom_site_label
_atom_site_fract_x
_atom_site_fract_y
_atom_site_fract_z
Si Si1 0.760745 0.332425 0.896235
Si Si2 0.177229 0.407009 0.536668
Si Si3 0.231954 0.898096 0.421403
Si Si4 0.592210 0.405749 0.077431
Si Si5 0.359279 0.610135 0.699919
Si Si6 0.220940 0.885758 0.218589
Si Si7 0.267859 0.252969 0.879864
O O1 0.507174 0.398872 0.944331
O O2 0.764953 0.118435 0.866015
O O3 0.053222 0.559716 0.771202
O O4 0.750737 0.319960 0.980374
O O5 0.237920 0.693888 0.489869
O O6 0.423671 0.369264 0.426312
O O7 0.892327 0.258003 0.593444
O O8 0.086364 0.286260 0.646962
O O9 0.515640 0.141919 0.316136
O O10 0.000000 0.000000 0.500000
O O11 0.739394 0.535422 0.087785
O O12 0.321650 0.155762 0.194351
O O13 0.314515 0.370443 0.781084
O O14 0.450963 0.784419 0.182094
O O15 0.000000 0.000000 0.000000
#
# Coordination Sequence:
#
# PCOD9002393 Si02
#       7
#     2   2   2   2   2   2   2
#     4  10  24  41  61  89 121 163 209 248 298 364
#     4  10  21  36  60  89 122 160 198 248 303 356
#     4   9  18  35  57  85 121 158 196 242 299 354
#     4  10  23  44  64  85 122 166 200 252 311 353
#     4  11  23  39  61  92 124 156 200 252 302 361
#     4  11  22  41  63  88 124 164 202 244 303 368
#     4  11  24  39  64  97 120 150 206 257 303 363
#
# _framework density 24.572464
#
# number of rings (size 3 to 8) (size 9 to 14) (size 15 to 20)
#    0.000    1.714    0.000    4.714    0.000   12.000 
#    0.000    1.429    0.000    0.000    0.000    0.000 
#    0.000    0.000    0.000    0.000    0.000    0.000 
#
# Total GULP energy -78216.054297 kJ/mol
# GULP energy per Si atom -5586.861021 kJ/mol
# Density = 2.451654 g / cm^3
# Si number density = 24.572464 Si / 1000 Ang^3
#
#
#
# Elastic Constant Matrix: (Units=GPa)
#
#
# Indices 1 2 3 4 5 6 
#
# 1 39.6851 19.4516 20.1324 9.8678 0.8335 9.1486
# 2 19.4516 106.5483 39.1653 -19.6353 8.4852 15.0980
# 3 20.1324 39.1653 147.1890 4.4169 15.3599 6.5039
# 4 9.8678 -19.6353 4.4169 42.9409 3.9142 -1.3742
# 5 0.8335 8.4852 15.3599 3.9142 36.6331 -3.8444
# 6 9.1486 15.0980 6.5039 -1.3742 -3.8444 38.6216
#
#
#
# Elastic Compliance Matrix: (Units=1/GPa)
#
#
# Indices 1 2 3 4 5 6 
#
# 1 0.033584 -0.006696 -0.002520 -0.010908 0.002479 -0.005055
# 2 -0.006696 0.013803 -0.002518 0.008295 -0.003234 -0.003412
# 3 -0.002520 -0.002518 0.008124 -0.001169 -0.002651 -0.000093
# 4 -0.010908 0.008295 -0.001169 0.030113 -0.004382 0.000173
# 5 0.002479 -0.003234 -0.002651 -0.004382 0.029985 0.003952
# 6 -0.005055 -0.003412 -0.000093 0.000173 0.003952 0.028839
#
#
# Mechanical properties :
#
#
# Convention : Reuss Voigt Hill
#
# Bulk Modulus (GPa) = 31.20672 50.10233 40.65453
# Shear Modulus (GPa) = 27.99600 37.95067 32.97333
#
# Velocity S-wave (km/s) = 3.37905 3.93420 3.66714
# Velocity P-wave (km/s) = 5.28691 6.40867 5.87463
#
# Compressibility (1/GPa) = 0.03204438
#
# Stress axis : x y z
#
# Youngs Moduli (GPa) = 29.77570 72.44786 123.08693
#
# Poissons Ratio (x) = 0.48513 0.31015
# Poissons Ratio (y) = 0.19939 0.30988
# Poissons Ratio (z) = 0.07503 0.18239
#
# Static dielectric constant tensor:
#      x y z
#    x 1.997290 0.047430 0.025970 
#    y 0.047430 1.942100 0.014630 
#    z 0.025970 0.014630 2.012230 
# 
# From -- ./inp_files/246255.got.cif
#   From: 2010.05.17/outbox.cif.g08.bks.cpg/sg2_124_cif.got.tgz:246255.got - 2010.06.03 11:33:40.
