data_PCOD9002303
_publ_section_title
;
Structure prediction by ZEFSAII (Michael W. Deem and Ramdas Pophale) SiO2 
 PCOD9002303
Probable space group: P -1
;
_chemical_formula_sum "Si O2"
_cell_formula_units_Z 16
_cell_length_a 13.645682
_cell_length_b 11.421050
_cell_length_c 15.041353
_cell_angle_alpha 32.823573
_cell_angle_beta 150.676772
_cell_angle_gamma 140.714136
_cell_volume 614.703342
_symmetry_space_group_name_H-M "P -1"
_symmetry_group_IT_number 2
_symmetry_cell_setting 'triclinic'
loop_
_space_group_symop_operation_xyz
x,y,z
-x,-y,-z
loop_
_atom_site_type_symbol
_atom_site_label
_atom_site_fract_x
_atom_site_fract_y
_atom_site_fract_z
Si Si1 0.879438 0.702885 0.018894
Si Si2 0.257955 0.380665 0.221482
Si Si3 0.271337 0.563974 0.465254
Si Si4 0.245175 0.793994 0.701162
Si Si5 0.635406 0.742537 0.957366
Si Si6 0.654660 0.146461 0.962487
Si Si7 0.268566 0.226817 0.522349
Si Si8 0.116800 0.221128 0.702606
O O1 0.793956 0.446189 0.134893
O O2 0.725475 0.813186 0.887410
O O3 0.111487 0.727180 0.218303
O O4 0.866132 0.741533 0.879420
O O5 0.492075 0.353481 0.409175
O O6 0.242645 0.637964 0.043177
O O7 0.205250 0.306420 0.326574
O O8 0.214155 0.372071 0.467969
O O9 0.235687 0.438904 0.610234
O O10 0.106917 0.793179 0.504666
O O11 0.195188 0.967737 0.623353
O O12 0.474919 0.864061 0.804471
O O13 0.830778 0.751026 0.170388
O O14 0.500000 0.500000 0.000000
O O15 0.512630 0.243743 0.715846
O O16 0.500000 0.000000 0.000000
O O17 0.792155 0.985884 0.132039
#
# Coordination Sequence:
#
# PCOD9002303 Si02
#       8
#     2   2   2   2   2   2   2   2
#     4  10  23  38  63  87 118 156 203 244 298 347
#     4  11  23  39  58  90 125 163 189 246 299 354
#     4  10  21  36  59  92 119 153 195 245 299 355
#     4  10  22  38  61  91 118 157 198 249 292 358
#     4  10  21  39  61  89 122 151 201 251 298 345
#     4  11  19  36  64  88 125 154 195 246 304 354
#     4  11  22  39  58  90 129 156 195 240 304 359
#     4  11  21  35  64  94 115 156 199 249 301 343
#
# _framework density 26.028815999999999
#
# number of rings (size 3 to 8) (size 9 to 14) (size 15 to 20)
#    0.000    1.500    3.750    3.750    1.750    7.000 
#    2.250    0.625    0.000    1.500    0.000    0.000 
#    0.000    0.000    0.000    0.000    0.000    0.000 
#
# Total GULP energy -89609.535586 kJ/mol
# GULP energy per Si atom -5600.595974 kJ/mol
# Density = 2.596957 g / cm^3
# Si number density = 26.028816 Si / 1000 Ang^3
#
#
#
# Elastic Constant Matrix: (Units=GPa)
#
#
# Indices 1 2 3 4 5 6 
#
# 1 66.8026 10.9984 41.5801 2.3451 -0.2649 -12.0852
# 2 10.9984 81.5762 8.8513 0.7270 -1.6792 -9.3861
# 3 41.5801 8.8513 88.7823 21.4101 -7.1766 5.2378
# 4 2.3451 0.7270 21.4101 41.0575 -0.7104 -4.6972
# 5 -0.2649 -1.6792 -7.1766 -0.7104 53.8832 9.2259
# 6 -12.0852 -9.3861 5.2378 -4.6972 9.2259 29.3480
#
#
#
# Elastic Compliance Matrix: (Units=1/GPa)
#
#
# Indices 1 2 3 4 5 6 
#
# 1 0.028412 -0.000136 -0.016956 0.009163 -0.005038 0.017733
# 2 -0.000136 0.013016 -0.001890 0.001307 -0.000662 0.004861
# 3 -0.016956 -0.001890 0.023951 -0.013190 0.005566 -0.015722
# 4 0.009163 0.001307 -0.013190 0.032088 -0.003433 0.012760
# 5 -0.005038 -0.000662 0.005566 -0.003433 0.020995 -0.010429
# 6 0.017733 0.004861 -0.015722 0.012760 -0.010429 0.051058
#
#
# Mechanical properties :
#
#
# Convention : Reuss Voigt Hill
#
# Bulk Modulus (GPa) = 36.47457 40.00231 38.23844
# Shear Modulus (GPa) = 23.08161 36.57316 29.82739
#
# Velocity S-wave (km/s) = 2.98110 3.75254 3.38884
# Velocity P-wave (km/s) = 5.08850 5.84613 5.48042
#
# Compressibility (1/GPa) = 0.02741636
#
# Stress axis : x y z
#
# Youngs Moduli (GPa) = 35.19599 76.82924 41.75117
#
# Poissons Ratio (x) = 0.01044 0.70794
# Poissons Ratio (y) = 0.00478 0.07889
# Poissons Ratio (z) = 0.59679 0.14517
#
# Static dielectric constant tensor:
#      x y z
#    x 2.034950 0.036110 0.013450 
#    y 0.036110 2.078140 -0.028170 
#    z 0.013450 -0.028170 2.066370 
# 
# From -- ./inp_files/189188.got.cif
#   From: 2010.05.17/outbox.cif.g08.bks.cpg/sg2_95_cif.got.tgz:189188.got - 2010.06.03 11:33:40.
