data_PCOD9002775
_publ_section_title
;
Structure prediction by ZEFSAII (Michael W. Deem and Ramdas Pophale) SiO2 
 PCOD9002775
Probable space group: P -1
;
_chemical_formula_sum "Si O2"
_cell_formula_units_Z 16
_cell_length_a 14.258505
_cell_length_b 9.764261
_cell_length_c 17.773423
_cell_angle_alpha 124.766503
_cell_angle_beta 38.019568
_cell_angle_gamma 148.403819
_cell_volume 758.582335
_symmetry_space_group_name_H-M "P -1"
_symmetry_group_IT_number 2
_symmetry_cell_setting 'triclinic'
loop_
_space_group_symop_operation_xyz
x,y,z
-x,-y,-z
loop_
_atom_site_type_symbol
_atom_site_label
_atom_site_fract_x
_atom_site_fract_y
_atom_site_fract_z
Si Si1 0.573752 0.392161 0.240987
Si Si2 0.478875 0.936369 0.117659
Si Si3 0.187809 0.927412 0.676803
Si Si4 0.991764 0.591109 0.112761
Si Si5 0.268962 0.239553 0.865119
Si Si6 0.602117 0.451748 0.861485
Si Si7 0.082906 0.538680 0.721697
Si Si8 0.407844 0.517975 0.490182
O O1 0.665326 0.529338 0.144324
O O2 0.392305 0.368510 0.386368
O O3 0.819515 0.599110 0.204593
O O4 0.476396 0.119888 0.211138
O O5 0.502345 0.817292 0.129437
O O6 0.209902 0.676746 0.169607
O O7 0.714894 0.116121 0.969325
O O8 0.208585 0.760654 0.647053
O O9 0.904255 0.707909 0.757201
O O10 0.243096 0.090167 0.765428
O O11 0.382699 0.161543 0.564881
O O12 0.869377 0.388534 0.196842
O O13 0.000000 0.500000 0.000000
O O14 0.486590 0.388872 0.833606
O O15 0.000000 0.000000 0.000000
O O16 0.500000 0.500000 0.000000
O O17 0.158300 0.411056 0.624405
O O18 0.500000 0.500000 0.500000
#
# Coordination Sequence:
#
# PCOD9002775 Si02
#       8
#     2   2   2   2   2   2   2   2
#     4  10  23  41  61  98 128 169 221 263 329 391
#     4  10  24  39  62  98 133 163 219 264 330 391
#     4  10  25  42  63  97 128 171 226 262 329 394
#     4  10  21  36  64  94 128 163 211 261 322 386
#     4  11  22  37  65  91 136 174 207 273 331 384
#     4  11  23  39  64  97 135 174 214 269 330 395
#     4  11  23  42  66  92 131 176 212 270 326 383
#     4  11  23  43  69  91 126 176 220 270 320 387
#
# _framework density 21.091975000000001
#
# number of rings (size 3 to 8) (size 9 to 14) (size 15 to 20)
#    0.000    1.500    2.500    1.500    8.750    2.500 
#    0.000    1.250    0.000    8.250    0.000    0.000 
#    0.000    0.000    0.000    0.000    0.000    0.000 
#
# Total GULP energy -89282.974612 kJ/mol
# GULP energy per Si atom -5580.185913 kJ/mol
# Density = 2.104397 g / cm^3
# Si number density = 21.091975 Si / 1000 Ang^3
#
#
#
# Elastic Constant Matrix: (Units=GPa)
#
#
# Indices 1 2 3 4 5 6 
#
# 1 164.9495 39.0920 30.6179 -13.1447 13.3734 -12.9193
# 2 39.0920 59.6779 -3.4823 2.9095 9.2062 -15.8748
# 3 30.6179 -3.4823 46.8437 -0.5667 7.2620 -3.8460
# 4 -13.1447 2.9095 -0.5667 25.8004 -8.9491 -0.3156
# 5 13.3734 9.2062 7.2620 -8.9491 32.9303 -3.6916
# 6 -12.9193 -15.8748 -3.8460 -0.3156 -3.6916 36.8915
#
#
#
# Elastic Compliance Matrix: (Units=1/GPa)
#
#
# Indices 1 2 3 4 5 6 
#
# 1 0.009334 -0.007063 -0.006771 0.005825 0.001226 -0.000304
# 2 -0.007063 0.025774 0.008315 -0.008856 -0.007608 0.008647
# 3 -0.006771 0.008315 0.027672 -0.006158 -0.006976 0.003341
# 4 0.005825 -0.008856 -0.006158 0.047553 0.014327 -0.000572
# 5 0.001226 -0.007608 -0.006976 0.014327 0.037462 0.000299
# 6 -0.000304 0.008647 0.003341 -0.000572 0.000299 0.031094
#
#
# Mechanical properties :
#
#
# Convention : Reuss Voigt Hill
#
# Bulk Modulus (GPa) = 19.32629 44.88073 32.10351
# Shear Modulus (GPa) = 24.13415 32.80734 28.47074
#
# Velocity S-wave (km/s) = 3.38632 3.94819 3.67800
# Velocity P-wave (km/s) = 4.94695 6.48915 5.76981
#
# Compressibility (1/GPa) = 0.05174298
#
# Stress axis : x y z
#
# Youngs Moduli (GPa) = 107.13314 38.79834 36.13702
#
# Poissons Ratio (x) = 0.27405 0.24467
# Poissons Ratio (y) = 0.75672 -0.30048
# Poissons Ratio (z) = 0.72536 -0.32261
#
# Static dielectric constant tensor:
#      x y z
#    x 1.797360 -0.012690 0.000400 
#    y -0.012690 1.799110 -0.022670 
#    z 0.000400 -0.022670 1.788990 
# 
# From -- ./inp_files/243628.got.cif
#   From: 2010.05.17/outbox.cif.g08.bks.cpg/sg2_122_cif.got.tgz:243628.got - 2010.06.03 11:33:40.
