data_PCOD9002771
_publ_section_title
;
Structure prediction by ZEFSAII (Michael W. Deem and Ramdas Pophale) SiO2 
 PCOD9002771
Probable space group: P -1
;
_chemical_formula_sum "Si O2"
_cell_formula_units_Z 16
_cell_length_a 12.284958
_cell_length_b 5.447321
_cell_length_c 10.774174
_cell_angle_alpha 79.623096
_cell_angle_beta 81.178410
_cell_angle_gamma 115.991556
_cell_volume 615.089804
_symmetry_space_group_name_H-M "P -1"
_symmetry_group_IT_number 2
_symmetry_cell_setting 'triclinic'
loop_
_space_group_symop_operation_xyz
x,y,z
-x,-y,-z
loop_
_atom_site_type_symbol
_atom_site_label
_atom_site_fract_x
_atom_site_fract_y
_atom_site_fract_z
Si Si1 0.007159 0.044273 0.297074
Si Si2 0.745719 0.973791 0.381671
Si Si3 0.180565 0.588115 0.049915
Si Si4 0.614742 0.360707 0.373546
Si Si5 0.018074 0.263781 0.891158
Si Si6 0.237825 0.027494 0.345001
Si Si7 0.424558 0.848024 0.324138
Si Si8 0.590841 0.445774 0.897587
O O1 0.100474 0.307281 0.171968
O O2 0.095811 0.975048 0.374732
O O3 0.939473 0.767573 0.247882
O O4 0.895761 0.108059 0.344685
O O5 0.680906 0.702058 0.326285
O O6 0.711119 0.854221 0.538454
O O7 0.700897 0.207863 0.354776
O O8 0.122713 0.780765 0.093578
O O9 0.323915 0.666670 0.032999
O O10 0.121608 0.527302 0.926881
O O11 0.563615 0.277252 0.532962
O O12 0.509110 0.186607 0.304893
O O13 0.000000 0.000000 0.000000
O O14 0.311838 0.251973 0.205369
O O15 0.278734 0.782375 0.342324
O O16 0.460955 0.748948 0.200069
O O17 0.500000 0.500000 0.000000
#
# Coordination Sequence:
#
# PCOD9002771 Si02
#       8
#     2   2   2   2   2   2   2   2
#     4  10  21  36  64  93 131 172 214 273 334 403
#     4  11  23  42  65 105 133 177 223 276 335 403
#     4   9  20  38  59  93 129 172 219 273 334 398
#     4  10  24  41  70  96 138 175 226 276 334 399
#     4   9  18  37  62  86 126 172 217 269 331 396
#     4  10  22  42  63  92 136 173 222 272 337 400
#     4  10  22  42  66  93 128 182 217 281 333 393
#     4  11  23  40  65  96 130 177 225 279 334 398
#
# _framework density 26.012460000000001
#
# number of rings (size 3 to 8) (size 9 to 14) (size 15 to 20)
#    0.000    2.000    1.250    1.125    3.500    3.000 
#    0.000    1.875    0.000    0.000    0.000    0.000 
#    0.000    0.000    0.000    0.000    0.000    0.000 
#
# Total GULP energy -89328.992600 kJ/mol
# GULP energy per Si atom -5583.062037 kJ/mol
# Density = 2.595325 g / cm^3
# Si number density = 26.012460 Si / 1000 Ang^3
#
#
#
# Elastic Constant Matrix: (Units=GPa)
#
#
# Indices 1 2 3 4 5 6 
#
# 1 218.0702 34.1160 64.6800 23.8378 -14.4058 -21.6312
# 2 34.1160 100.4490 30.8272 24.8022 -3.3155 -0.8591
# 3 64.6800 30.8272 67.4623 25.6556 -16.8685 5.5844
# 4 23.8378 24.8022 25.6556 37.6762 -2.3646 -2.1988
# 5 -14.4058 -3.3155 -16.8685 -2.3646 43.0915 5.3492
# 6 -21.6312 -0.8591 5.5844 -2.1988 5.3492 32.9219
#
#
#
# Elastic Compliance Matrix: (Units=1/GPa)
#
#
# Indices 1 2 3 4 5 6 
#
# 1 0.007634 -0.000297 -0.008804 0.001657 -0.001681 0.006885
# 2 -0.000297 0.012518 -0.003548 -0.005664 -0.000898 0.000501
# 3 -0.008804 -0.003548 0.035122 -0.016152 0.011481 -0.014779
# 4 0.001657 -0.005664 -0.016152 0.040334 -0.004882 0.007167
# 5 -0.001681 -0.000898 0.011481 -0.004882 0.027784 -0.007916
# 6 0.006885 0.000501 -0.014779 0.007167 -0.007916 0.039184
#
#
# Mechanical properties :
#
#
# Convention : Reuss Voigt Hill
#
# Bulk Modulus (GPa) = 33.35835 71.69199 52.52517
# Shear Modulus (GPa) = 25.26969 39.82849 32.54909
#
# Velocity S-wave (km/s) = 3.12018 3.91721 3.54119
# Velocity P-wave (km/s) = 5.08257 6.93396 6.07916
#
# Compressibility (1/GPa) = 0.02997750
#
# Stress axis : x y z
#
# Youngs Moduli (GPa) = 130.98822 79.88481 28.47212
#
# Poissons Ratio (x) = 0.02369 0.25067
# Poissons Ratio (y) = 0.03884 0.10101
# Poissons Ratio (z) = 1.15324 0.28341
#
# Static dielectric constant tensor:
#      x y z
#    x 2.127110 0.010590 -0.017460 
#    y 0.010590 2.130900 0.024430 
#    z -0.017460 0.024430 2.059490 
# 
# From -- ./inp_files/410487.got.cif
#   From: 2010.05.17/outbox.cif.g08.bks.cpg/sg2_206_cif.got.tgz:410487.got - 2010.06.03 11:33:40.
