data_PCOD9002629
_publ_section_title
;
Structure prediction by ZEFSAII (Michael W. Deem and Ramdas Pophale) SiO2 
 PCOD9002629
Probable space group: P -1
;
_chemical_formula_sum "Si O2"
_cell_formula_units_Z 14
_cell_length_a 11.447737
_cell_length_b 6.430442
_cell_length_c 8.654503
_cell_angle_alpha 83.720443
_cell_angle_beta 90.008192
_cell_angle_gamma 76.362743
_cell_volume 615.195118
_symmetry_space_group_name_H-M "P -1"
_symmetry_group_IT_number 2
_symmetry_cell_setting 'triclinic'
loop_
_space_group_symop_operation_xyz
x,y,z
-x,-y,-z
loop_
_atom_site_type_symbol
_atom_site_label
_atom_site_fract_x
_atom_site_fract_y
_atom_site_fract_z
Si Si1 0.753271 0.092397 0.687726
Si Si2 0.390248 0.203500 0.450388
Si Si3 0.861871 0.804292 0.962944
Si Si4 0.994328 0.441144 0.764547
Si Si5 0.544051 0.470829 0.774928
Si Si6 0.404516 0.228079 0.972406
Si Si7 0.826298 0.426263 0.468475
O O1 0.659603 0.280134 0.759945
O O2 0.786405 0.203546 0.521516
O O3 0.689299 0.901500 0.660242
O O4 0.853733 0.995689 0.823536
O O5 0.465892 0.369290 0.378387
O O6 0.283449 0.361257 0.535261
O O7 0.500000 0.000000 0.500000
O O8 0.911082 0.593969 0.875323
O O9 0.941330 0.769997 0.120781
O O10 0.727031 0.810164 0.017445
O O11 0.097166 0.552239 0.685427
O O12 0.913247 0.420036 0.618850
O O13 0.435781 0.359643 0.815290
O O14 0.570618 0.619318 0.902134
O O15 0.500000 0.000000 0.000000
#
# Coordination Sequence:
#
# PCOD9002629 Si02
#       7
#     2   2   2   2   2   2   2
#     4  11  21  41  68  92 130 168 215 272 327 384
#     4  11  23  41  65  94 129 167 214 266 330 394
#     4  11  21  40  68  93 128 170 215 266 326 377
#     4  10  23  43  64  93 128 171 221 268 313 395
#     4  10  21  36  62  95 128 169 206 263 330 385
#     4  11  20  37  64  93 130 166 205 265 330 381
#     4  10  23  44  66  91 131 170 217 268 325 382
#
# _framework density 22.757007000000002
#
# number of rings (size 3 to 8) (size 9 to 14) (size 15 to 20)
#    0.000    1.429    4.286    0.857    0.000    6.857 
#    0.000    0.000    0.000    0.000    0.000    0.000 
#    0.000    0.000    0.000    0.000    0.000    0.000 
#
# Total GULP energy -78077.561415 kJ/mol
# GULP energy per Si atom -5576.968672 kJ/mol
# Density = 2.270521 g / cm^3
# Si number density = 22.757007 Si / 1000 Ang^3
#
#
#
# Elastic Constant Matrix: (Units=GPa)
#
#
# Indices 1 2 3 4 5 6 
#
# 1 109.5034 37.0109 36.5335 -15.8128 -2.2360 -10.8826
# 2 37.0109 99.4715 26.1827 -23.9978 5.4000 -5.7678
# 3 36.5335 26.1827 58.2282 -14.1825 18.4365 -3.5763
# 4 -15.8128 -23.9978 -14.1825 25.5517 1.2192 4.1633
# 5 -2.2360 5.4000 18.4365 1.2192 39.8846 -6.0111
# 6 -10.8826 -5.7678 -3.5763 4.1633 -6.0111 38.6753
#
#
#
# Elastic Compliance Matrix: (Units=1/GPa)
#
#
# Indices 1 2 3 4 5 6 
#
# 1 0.013474 -0.002814 -0.008793 -0.000020 0.005721 0.003450
# 2 -0.002814 0.014189 -0.001393 0.010941 -0.001809 -0.000264
# 3 -0.008793 -0.001393 0.030833 0.011669 -0.015439 -0.003487
# 4 -0.000020 0.010941 0.011669 0.057121 -0.009361 -0.004899
# 5 0.005721 -0.001809 -0.015439 -0.009361 0.033996 0.006204
# 6 0.003450 -0.000264 -0.003487 -0.004899 0.006204 0.027957
#
#
# Mechanical properties :
#
#
# Convention : Reuss Voigt Hill
#
# Bulk Modulus (GPa) = 30.77305 51.85080 41.31193
# Shear Modulus (GPa) = 23.32065 31.98740 27.65402
#
# Velocity S-wave (km/s) = 3.20467 3.75321 3.48974
# Velocity P-wave (km/s) = 5.21968 6.45106 5.86776
#
# Compressibility (1/GPa) = 0.03249597
#
# Stress axis : x y z
#
# Youngs Moduli (GPa) = 74.21941 70.47515 32.43239
#
# Poissons Ratio (x) = 0.19834 0.28517
# Poissons Ratio (y) = 0.20887 0.04519
# Poissons Ratio (z) = 0.65259 0.09819
#
# Static dielectric constant tensor:
#      x y z
#    x 1.919020 -0.034870 -0.029210 
#    y -0.034870 1.884870 -0.015050 
#    z -0.029210 -0.015050 1.981000 
# 
# From -- ./inp_files/27864.got.cif
#   From: 2010.05.17/outbox.cif.g08.bks.cpg/sg2_14_cif.got.tgz:27864.got - 2010.06.03 11:33:40.
