data_PCOD9002041
_publ_section_title
;
Structure prediction by ZEFSAII (Michael W. Deem and Ramdas Pophale) SiO2 
 PCOD9002041
Probable space group: P -1
;
_chemical_formula_sum "Si O2"
_cell_formula_units_Z 16
_cell_length_a 13.016264
_cell_length_b 17.281041
_cell_length_c 8.187527
_cell_angle_alpha 126.965879
_cell_angle_beta 66.304290
_cell_angle_gamma 154.738541
_cell_volume 570.943175
_symmetry_space_group_name_H-M "P -1"
_symmetry_group_IT_number 2
_symmetry_cell_setting 'triclinic'
loop_
_space_group_symop_operation_xyz
x,y,z
-x,-y,-z
loop_
_atom_site_type_symbol
_atom_site_label
_atom_site_fract_x
_atom_site_fract_y
_atom_site_fract_z
Si Si1 0.342914 0.246129 0.593783
Si Si2 0.170516 0.025209 0.070169
Si Si3 0.075042 0.366304 0.286172
Si Si4 0.730870 0.995753 0.529844
Si Si5 0.415821 0.391282 0.236641
Si Si6 0.415306 0.825838 0.212976
Si Si7 0.072309 0.422792 0.728893
Si Si8 0.353737 0.836626 0.737089
O O1 0.233290 0.119529 0.329077
O O2 0.185254 0.050486 0.567211
O O3 0.383482 0.393514 0.738374
O O4 0.639117 0.445199 0.713481
O O5 0.379856 0.249158 0.109532
O O6 0.138327 0.884551 0.932075
O O7 0.879445 0.815368 0.905945
O O8 0.111966 0.405986 0.507633
O O9 0.953763 0.372872 0.307106
O O10 0.591470 0.909341 0.337724
O O11 0.972473 0.261667 0.713129
O O12 0.508826 0.858142 0.628690
O O13 0.500000 0.500000 0.500000
O O14 0.149463 0.666494 0.250194
O O15 0.564637 0.033331 0.304049
O O16 0.321041 0.678120 0.949510
O O17 0.500000 0.000000 0.000000
#
# Coordination Sequence:
#
# PCOD9002041 Si02
#       8
#     2   2   2   2   2   2   2   2
#     4  10  22  32  57  88 114 143 192 233 282 336
#     4   9  18  34  56  84 120 141 179 236 287 330
#     4  11  21  34  53  86 113 147 192 238 283 332
#     4  11  21  39  53  78 116 156 191 234 280 333
#     4   8  16  35  57  84 114 149 177 226 284 346
#     4  10  21  39  55  71 108 163 198 230 282 333
#     4  10  21  36  57  71 106 157 201 226 282 334
#     4  11  22  36  56  81 116 149 195 247 282 320
#
# _framework density 28.023803000000001
#
# number of rings (size 3 to 8) (size 9 to 14) (size 15 to 20)
#    0.000    2.000    2.500    1.500    3.500    5.500 
#    0.000    0.000    0.000    0.750    0.000   30.625 
#    0.000    0.000    0.000    0.000    0.000    0.000 
#
# Total GULP energy -89381.760265 kJ/mol
# GULP energy per Si atom -5586.360017 kJ/mol
# Density = 2.796002 g / cm^3
# Si number density = 28.023803 Si / 1000 Ang^3
#
#
#
# Elastic Constant Matrix: (Units=GPa)
#
#
# Indices 1 2 3 4 5 6 
#
# 1 127.7597 30.8765 20.4964 19.4559 -11.2346 -24.6620
# 2 30.8765 66.3791 12.4905 36.2016 2.6762 -11.1943
# 3 20.4964 12.4905 152.3106 26.5804 -3.1299 -10.0096
# 4 19.4559 36.2016 26.5804 52.1247 -9.5108 0.5014
# 5 -11.2346 2.6762 -3.1299 -9.5108 53.1486 18.1023
# 6 -24.6620 -11.1943 -10.0096 0.5014 18.1023 56.0051
#
#
#
# Elastic Compliance Matrix: (Units=1/GPa)
#
#
# Indices 1 2 3 4 5 6 
#
# 1 0.009557 -0.003480 -0.000662 -0.000661 0.000989 0.003081
# 2 -0.003480 0.030288 0.002271 -0.022595 -0.008897 0.008005
# 3 -0.000662 0.002271 0.007524 -0.005456 -0.001481 0.002034
# 4 -0.000661 -0.022595 -0.005456 0.040037 0.011162 -0.009749
# 5 0.000989 -0.008897 -0.001481 0.011162 0.024681 -0.009685
# 6 0.003081 0.008005 0.002034 -0.009749 -0.009685 0.024393
#
#
# Mechanical properties :
#
#
# Convention : Reuss Voigt Hill
#
# Bulk Modulus (GPa) = 22.92263 52.68626 37.80445
# Shear Modulus (GPa) = 32.30686 51.09475 41.70081
#
# Velocity S-wave (km/s) = 3.39903 4.27460 3.86171
# Velocity P-wave (km/s) = 4.85819 6.57300 5.77954
#
# Compressibility (1/GPa) = 0.04362500
#
# Stress axis : x y z
#
# Youngs Moduli (GPa) = 104.63588 33.01636 132.90913
#
# Poissons Ratio (x) = 0.11491 0.08805
# Poissons Ratio (y) = 0.36418 -0.30183
# Poissons Ratio (z) = 0.06932 -0.07498
#
# Static dielectric constant tensor:
#      x y z
#    x 2.258700 0.071600 -0.004900 
#    y 0.071600 2.319340 -0.006290 
#    z -0.004900 -0.006290 2.133170 
# 
# From -- ./inp_files/212964.got.cif
#   From: 2010.05.17/outbox.cif.g08.bks.cpg/sg2_107_cif.got.tgz:212964.got - 2010.06.03 11:33:40.
