data_PCOD9002959
_publ_section_title
;
Structure prediction by ZEFSAII (Michael W. Deem and Ramdas Pophale) SiO2 
 PCOD9002959
Probable space group: P -1
;
_chemical_formula_sum "Si O2"
_cell_formula_units_Z 16
_cell_length_a 19.641948
_cell_length_b 5.359353
_cell_length_c 14.157584
_cell_angle_alpha 106.311585
_cell_angle_beta 34.900359
_cell_angle_gamma 113.653874
_cell_volume 777.752877
_symmetry_space_group_name_H-M "P -1"
_symmetry_group_IT_number 2
_symmetry_cell_setting 'triclinic'
loop_
_space_group_symop_operation_xyz
x,y,z
-x,-y,-z
loop_
_atom_site_type_symbol
_atom_site_label
_atom_site_fract_x
_atom_site_fract_y
_atom_site_fract_z
Si Si1 0.138487 0.109323 0.144894
Si Si2 0.678112 0.773373 0.893933
Si Si3 0.522097 0.057722 0.223162
Si Si4 0.865024 0.959018 0.366931
Si Si5 0.239852 0.595390 0.931440
Si Si6 0.870679 0.566323 0.160890
Si Si7 0.546338 0.775077 0.868682
Si Si8 0.729615 0.350888 0.477887
O O1 0.192475 0.195169 0.197801
O O2 0.205940 0.363846 0.026520
O O3 0.172772 0.833366 0.047743
O O4 0.992018 0.056987 0.291797
O O5 0.568507 0.497547 0.014439
O O6 0.625130 0.989795 0.031804
O O7 0.667630 0.785099 0.794405
O O8 0.609959 0.259665 0.219740
O O9 0.446868 0.175839 0.245055
O O10 0.417899 0.797864 0.357649
O O11 0.895222 0.854723 0.217764
O O12 0.778034 0.672865 0.478135
O O13 0.801912 0.192208 0.444027
O O14 0.191057 0.452913 0.872751
O O15 0.776312 0.351091 0.316686
O O16 0.000000 0.500000 0.000000
O O17 0.500000 0.000000 0.000000
#
# Coordination Sequence:
#
# PCOD9002959 Si02
#       8
#     2   2   2   2   2   2   2   2
#     4  11  20  36  57  87 112 141 192 241 277 323
#     4   9  19  33  60  87 111 142 182 231 288 329
#     4  10  21  37  55  83 121 146 185 226 288 347
#     4  10  22  38  56  81 108 157 195 233 273 325
#     4  11  22  32  59  84 111 149 185 240 287 321
#     4  10  21  38  56  82 110 152 199 237 275 320
#     4   9  17  34  56  88 111 142 178 225 288 342
#     4  10  24  37  56  80 114 159 189 228 282 334
#
# _framework density 20.572085000000001
#
# number of rings (size 3 to 8) (size 9 to 14) (size 15 to 20)
#    0.750    1.250    2.500    1.500    3.500    1.500 
#    0.000    0.625    0.000    1.500    0.000    0.000 
#    0.000    0.000    0.000    0.000    0.000    0.000 
#
# Total GULP energy -89123.223515 kJ/mol
# GULP energy per Si atom -5570.201470 kJ/mol
# Density = 2.052526 g / cm^3
# Si number density = 20.572085 Si / 1000 Ang^3
#
#
#
# Elastic Constant Matrix: (Units=GPa)
#
#
# Indices 1 2 3 4 5 6 
#
# 1 144.5061 24.4640 17.1395 -3.0079 -18.6713 22.0769
# 2 24.4640 71.2478 4.1197 -1.8553 -9.3507 -10.8950
# 3 17.1395 4.1197 53.9380 -6.6913 -9.3882 2.9127
# 4 -3.0079 -1.8553 -6.6913 27.6722 1.0431 -5.9699
# 5 -18.6713 -9.3507 -9.3882 1.0431 26.6933 -6.8546
# 6 22.0769 -10.8950 2.9127 -5.9699 -6.8546 37.3184
#
#
#
# Elastic Compliance Matrix: (Units=1/GPa)
#
#
# Indices 1 2 3 4 5 6 
#
# 1 0.008986 -0.003510 -0.001896 -0.001085 0.002935 -0.005827
# 2 -0.003510 0.017369 0.000685 0.002579 0.005979 0.008605
# 3 -0.001896 0.000685 0.020738 0.004974 0.006445 0.001683
# 4 -0.001085 0.002579 0.004974 0.038961 0.002341 0.007669
# 5 0.002935 0.005979 0.006445 0.002341 0.045920 0.008315
# 6 -0.005827 0.008605 0.001683 0.007669 0.008315 0.035379
#
#
# Mechanical properties :
#
#
# Convention : Reuss Voigt Hill
#
# Bulk Modulus (GPa) = 26.56069 40.12646 33.34358
# Shear Modulus (GPa) = 26.40657 33.26805 29.83731
#
# Velocity S-wave (km/s) = 3.58664 4.02574 3.81252
# Velocity P-wave (km/s) = 5.48553 6.41532 5.96856
#
# Compressibility (1/GPa) = 0.03764962
#
# Stress axis : x y z
#
# Youngs Moduli (GPa) = 111.28190 57.57456 48.22045
#
# Poissons Ratio (x) = 0.20209 0.09145
# Poissons Ratio (y) = 0.39060 -0.03302
# Poissons Ratio (z) = 0.21104 -0.03942
#
# Static dielectric constant tensor:
#      x y z
#    x 1.858450 0.220730 0.236340 
#    y 0.220730 2.433690 0.673950 
#    z 0.236340 0.673950 2.441040 
# 
# From -- ./inp_files/128394.got.cif
#   From: 2010.05.17/outbox.cif.g08.bks.cpg/sg2_65_cif.got.tgz:128394.got - 2010.06.03 11:33:40.
