data_PCOD9002796
_publ_section_title
;
Structure prediction by ZEFSAII (Michael W. Deem and Ramdas Pophale) SiO2 
 PCOD9002796
Probable space group: P -1
;
_chemical_formula_sum "Si O2"
_cell_formula_units_Z 14
_cell_length_a 9.344340
_cell_length_b 8.752871
_cell_length_c 11.511175
_cell_angle_alpha 87.359366
_cell_angle_beta 142.416046
_cell_angle_gamma 79.267716
_cell_volume 533.927510
_symmetry_space_group_name_H-M "P -1"
_symmetry_group_IT_number 2
_symmetry_cell_setting 'triclinic'
loop_
_space_group_symop_operation_xyz
x,y,z
-x,-y,-z
loop_
_atom_site_type_symbol
_atom_site_label
_atom_site_fract_x
_atom_site_fract_y
_atom_site_fract_z
Si Si1 0.999701 0.689121 0.481066
Si Si2 0.331436 0.306203 0.933022
Si Si3 0.773757 0.884833 0.560399
Si Si4 0.213027 0.907199 0.235288
Si Si5 0.137839 0.574766 0.238175
Si Si6 0.739880 0.337103 0.068793
Si Si7 0.472738 0.526799 0.675044
O O1 0.818380 0.759156 0.252743
O O2 0.886763 0.810340 0.511279
O O3 0.000000 0.500000 0.500000
O O4 0.282853 0.670938 0.628010
O O5 0.280361 0.500763 0.878422
O O6 0.163077 0.334671 0.940698
O O7 0.618970 0.233369 0.074619
O O8 0.481515 0.914751 0.372234
O O9 0.965980 0.740424 0.770054
O O10 0.819211 0.032188 0.652715
O O11 0.225779 0.723460 0.255516
O O12 0.000000 0.000000 0.000000
O O13 0.276731 0.508809 0.453013
O O14 0.295396 0.449566 0.244419
O O15 0.585682 0.384753 0.848802
#
# Coordination Sequence:
#
# PCOD9002796 Si02
#       7
#     2   2   2   2   2   2   2
#     4  11  17  35  64  98 132 171 220 272 330 403
#     4  10  22  36  65 103 141 172 215 278 347 404
#     4  11  25  41  72  99 129 180 240 270 327 421
#     4  11  26  50  69  92 133 189 234 280 333 401
#     4  10  23  42  64  99 134 181 225 280 341 396
#     4  11  20  38  64 105 137 175 218 272 347 413
#     4  10  21  36  65 101 137 168 208 282 345 394
#
# _framework density 26.220789
#
# number of rings (size 3 to 8) (size 9 to 14) (size 15 to 20)
#    0.000    1.429    2.857    2.571    6.000    0.571 
#    5.143    3.571    0.000    0.000    0.000    0.000 
#    0.000    0.000    0.000    0.000    0.000    0.000 
#
# Total GULP energy -77969.927737 kJ/mol
# GULP energy per Si atom -5569.280553 kJ/mol
# Density = 2.616111 g / cm^3
# Si number density = 26.220789 Si / 1000 Ang^3
#
#
#
# Elastic Constant Matrix: (Units=GPa)
#
#
# Indices 1 2 3 4 5 6 
#
# 1 162.0965 40.9816 50.3571 22.0920 19.2948 -48.3789
# 2 40.9816 55.7756 33.1212 18.9820 -9.3115 -38.4771
# 3 50.3571 33.1212 151.8201 11.3968 8.9870 -5.3042
# 4 22.0920 18.9820 11.3968 30.0273 -12.8178 -6.8077
# 5 19.2948 -9.3115 8.9870 -12.8178 49.3248 5.1953
# 6 -48.3789 -38.4771 -5.3042 -6.8077 5.1953 45.4762
#
#
#
# Elastic Compliance Matrix: (Units=1/GPa)
#
#
# Indices 1 2 3 4 5 6 
#
# 1 0.015570 0.014046 -0.005524 -0.016275 -0.009448 0.026447
# 2 0.014046 0.087963 -0.017431 -0.043206 -0.005525 0.081498
# 3 -0.005524 -0.017431 0.011018 0.007001 0.000616 -0.018362
# 4 -0.016275 -0.043206 0.007001 0.067969 0.019346 -0.045089
# 5 -0.009448 -0.005525 0.000616 0.019346 0.029434 -0.015120
# 6 0.026447 0.081498 -0.018362 -0.045089 -0.015120 0.111915
#
#
# Mechanical properties :
#
#
# Convention : Reuss Voigt Hill
#
# Bulk Modulus (GPa) = 10.33769 68.73465 39.53617
# Shear Modulus (GPa) = 13.37143 41.31449 27.34296
#
# Velocity S-wave (km/s) = 2.26067 3.97374 3.23274
# Velocity P-wave (km/s) = 3.28105 6.87930 5.38935
#
# Compressibility (1/GPa) = 0.09673343
#
# Stress axis : x y z
#
# Youngs Moduli (GPa) = 64.22643 11.36837 90.75934
#
# Poissons Ratio (x) = -0.15968 0.50133
# Poissons Ratio (y) = -0.90212 1.58205
# Poissons Ratio (z) = 0.35477 0.19817
#
# Static dielectric constant tensor:
#      x y z
#    x 2.259570 -0.128880 0.094710 
#    y -0.128880 2.232270 -0.064060 
#    z 0.094710 -0.064060 2.175480 
# 
# From -- ./inp_files/390274.got.cif
#   From: 2010.05.17/outbox.cif.g08.bks.cpg/sg2_196_cif.got.tgz:390274.got - 2010.06.03 11:33:40.
