data_PCOD9002568
_publ_section_title
;
Structure prediction by ZEFSAII (Michael W. Deem and Ramdas Pophale) SiO2 
 PCOD9002568
Probable space group: P -1
;
_chemical_formula_sum "Si O2"
_cell_formula_units_Z 14
_cell_length_a 18.033828
_cell_length_b 21.026543
_cell_length_c 8.147431
_cell_angle_alpha 138.140091
_cell_angle_beta 51.180773
_cell_angle_gamma 161.982381
_cell_volume 586.004047
_symmetry_space_group_name_H-M "P -1"
_symmetry_group_IT_number 2
_symmetry_cell_setting 'triclinic'
loop_
_space_group_symop_operation_xyz
x,y,z
-x,-y,-z
loop_
_atom_site_type_symbol
_atom_site_label
_atom_site_fract_x
_atom_site_fract_y
_atom_site_fract_z
Si Si1 0.879138 0.483000 0.425227
Si Si2 0.696494 0.975139 0.142473
Si Si3 0.865933 0.480567 0.836173
Si Si4 0.203924 0.269795 0.786515
Si Si5 0.374447 0.494508 0.302159
Si Si6 0.330516 0.042708 0.244612
Si Si7 0.593718 0.477551 0.319974
O O1 0.858257 0.473376 0.633767
O O2 0.024416 0.519486 0.261215
O O3 0.586771 0.217439 0.254595
O O4 0.054910 0.731996 0.583525
O O5 0.423846 0.770634 0.179900
O O6 0.715667 0.995441 0.958555
O O7 0.638893 0.811935 0.954133
O O8 0.082228 0.760475 0.127066
O O9 0.473832 0.463651 0.803124
O O10 0.219117 0.353581 0.772151
O O11 0.169862 0.287952 0.043197
O O12 0.000000 0.000000 0.500000
O O13 0.573602 0.760704 0.468711
O O14 0.296306 0.445716 0.504402
O O15 0.500000 0.500000 0.500000
#
# Coordination Sequence:
#
# PCOD9002568 Si02
#       7
#     2   2   2   2   2   2   2
#     4  10  22  40  61  90 124 164 202 262 319 365
#     4  10  22  39  61  90 123 161 212 255 308 384
#     4  10  22  39  63  90 122 161 212 256 310 384
#     4  10  21  36  62  85 119 165 204 252 314 366
#     4   9  21  39  54  90 122 154 211 253 304 380
#     4  10  22  38  60  88 129 157 202 264 311 368
#     4   9  20  39  58  87 126 160 204 259 314 363
#
# _framework density 23.890620999999999
#
# number of rings (size 3 to 8) (size 9 to 14) (size 15 to 20)
#    0.000    2.286    0.000    0.857    4.000    5.714 
#    0.000    2.857    0.000    0.000    0.000    0.000 
#    0.000    0.000    0.000    0.000    0.000    0.000 
#
# Total GULP energy -78204.924433 kJ/mol
# GULP energy per Si atom -5586.066031 kJ/mol
# Density = 2.383624 g / cm^3
# Si number density = 23.890621 Si / 1000 Ang^3
#
#
#
# Elastic Constant Matrix: (Units=GPa)
#
#
# Indices 1 2 3 4 5 6 
#
# 1 77.0135 16.4543 34.1000 1.2671 -10.0122 -8.7975
# 2 16.4543 86.3476 31.3446 10.3377 1.9589 -8.0035
# 3 34.1000 31.3446 92.2486 6.2724 0.3703 -19.3937
# 4 1.2671 10.3377 6.2724 29.2009 6.8030 -7.4411
# 5 -10.0122 1.9589 0.3703 6.8030 45.1356 -8.2895
# 6 -8.7975 -8.0035 -19.3937 -7.4411 -8.2895 43.2887
#
#
#
# Elastic Compliance Matrix: (Units=1/GPa)
#
#
# Indices 1 2 3 4 5 6 
#
# 1 0.016276 -0.001148 -0.005347 0.000317 0.003933 0.001508
# 2 -0.001148 0.013714 -0.004013 -0.003938 -0.000264 -0.000223
# 3 -0.005347 -0.004013 0.015234 -0.000326 -0.000187 0.004905
# 4 0.000317 -0.003938 -0.000326 0.038000 -0.004594 0.004842
# 5 0.003933 -0.000264 -0.000187 -0.004594 0.024575 0.004583
# 6 0.001508 -0.000223 0.004905 0.004842 0.004583 0.027273
#
#
# Mechanical properties :
#
#
# Convention : Reuss Voigt Hill
#
# Bulk Modulus (GPa) = 41.30937 46.60082 43.95510
# Shear Modulus (GPa) = 30.45851 35.10577 32.78214
#
# Velocity S-wave (km/s) = 3.57447 3.83748 3.70831
# Velocity P-wave (km/s) = 5.86211 6.25966 6.06414
#
# Compressibility (1/GPa) = 0.02420758
#
# Stress axis : x y z
#
# Youngs Moduli (GPa) = 61.44105 72.92062 65.64071
#
# Poissons Ratio (x) = 0.08371 0.35096
# Poissons Ratio (y) = 0.07053 0.26344
# Poissons Ratio (z) = 0.32850 0.29266
#
# Static dielectric constant tensor:
#      x y z
#    x 1.930200 0.026270 0.002110 
#    y 0.026270 1.951780 -0.006470 
#    z 0.002110 -0.006470 1.970000 
# 
# From -- ./inp_files/48485.got.cif
#   From: 2010.05.17/outbox.cif.g08.bks.cpg/sg2_25_cif.got.tgz:48485.got - 2010.06.03 11:33:40.
