data_PCOD9002501
_publ_section_title
;
Structure prediction by ZEFSAII (Michael W. Deem and Ramdas Pophale) SiO2 
 PCOD9002501
Probable space group: P -1
;
_chemical_formula_sum "Si O2"
_cell_formula_units_Z 16
_cell_length_a 8.895559
_cell_length_b 20.172592
_cell_length_c 11.394655
_cell_angle_alpha 28.832950
_cell_angle_beta 108.188758
_cell_angle_gamma 119.652718
_cell_volume 820.296005
_symmetry_space_group_name_H-M "P -1"
_symmetry_group_IT_number 2
_symmetry_cell_setting 'triclinic'
loop_
_space_group_symop_operation_xyz
x,y,z
-x,-y,-z
loop_
_atom_site_type_symbol
_atom_site_label
_atom_site_fract_x
_atom_site_fract_y
_atom_site_fract_z
Si Si1 0.882345 0.813018 0.663321
Si Si2 0.664111 0.525551 0.916540
Si Si3 0.523679 0.918753 0.807384
Si Si4 0.211753 0.729542 0.646861
Si Si5 0.147671 0.706477 0.949536
Si Si6 0.243370 0.133751 0.229291
Si Si7 0.844493 0.598328 0.615447
Si Si8 0.652398 0.681105 0.255434
O O1 0.734176 0.816899 0.706860
O O2 0.973016 0.726967 0.893439
O O3 0.800234 0.707650 0.694452
O O4 0.043775 0.984158 0.406753
O O5 0.734793 0.405080 0.159429
O O6 0.500000 0.500000 0.000000
O O7 0.673379 0.519138 0.787378
O O8 0.312569 0.841037 0.852715
O O9 0.613459 0.916064 0.706990
O O10 0.629514 0.094150 0.609814
O O11 0.569281 0.797977 0.077528
O O12 0.175101 0.720317 0.792683
O O13 0.029892 0.687486 0.596011
O O14 0.142179 0.542627 0.228812
O O15 0.265910 0.265767 0.937500
O O16 0.802210 0.699968 0.356281
O O17 0.500000 0.500000 0.500000
#
# Coordination Sequence:
#
# PCOD9002501 Si02
#       8
#     2   2   2   2   2   2   2   2
#     4  11  20  38  57  92 124 146 197 251 315 341
#     4  11  24  35  60  90 121 155 193 250 312 348
#     4  10  21  36  61  90 114 157 205 246 289 349
#     4  11  21  37  58  92 117 154 202 244 303 348
#     4  11  18  34  59  88 116 152 197 251 291 349
#     4   9  22  36  60  88 119 152 195 254 293 350
#     4  11  20  39  61  81 122 157 200 244 284 368
#     4  10  21  39  61  89 115 161 214 233 291 352
#
# _framework density 19.505153
#
# number of rings (size 3 to 8) (size 9 to 14) (size 15 to 20)
#    0.750    0.750    5.000    1.125    5.250    1.500 
#    0.000    0.625    2.750    0.750    0.000    0.000 
#    0.000    0.000    0.000    0.000    0.000    0.000 
#
# Total GULP energy -89147.610596 kJ/mol
# GULP energy per Si atom -5571.725662 kJ/mol
# Density = 1.946076 g / cm^3
# Si number density = 19.505153 Si / 1000 Ang^3
#
#
#
# Elastic Constant Matrix: (Units=GPa)
#
#
# Indices 1 2 3 4 5 6 
#
# 1 49.0526 7.0555 -3.7559 4.8464 0.0743 -8.4708
# 2 7.0555 59.3207 21.3285 -10.6867 6.8665 7.8393
# 3 -3.7559 21.3285 75.6262 -5.8698 10.0079 -5.2451
# 4 4.8464 -10.6867 -5.8698 30.6394 5.0997 7.6841
# 5 0.0743 6.8665 10.0079 5.0997 22.8707 2.2899
# 6 -8.4708 7.8393 -5.2451 7.6841 2.2899 25.6278
#
#
#
# Elastic Compliance Matrix: (Units=1/GPa)
#
#
# Indices 1 2 3 4 5 6 
#
# 1 0.025347 -0.008230 0.003588 -0.010102 0.001618 0.014514
# 2 -0.008230 0.025539 -0.006794 0.013831 -0.006198 -0.015516
# 3 0.003588 -0.006794 0.016546 -0.000648 -0.005805 0.007363
# 4 -0.010102 0.013831 -0.000648 0.046069 -0.012062 -0.020437
# 5 0.001618 -0.006198 -0.005805 -0.012062 0.050777 0.000322
# 6 0.014514 -0.015516 0.007363 -0.020437 0.000322 0.056170
#
#
# Mechanical properties :
#
#
# Convention : Reuss Voigt Hill
#
# Bulk Modulus (GPa) = 22.44130 25.91730 24.17930
# Shear Modulus (GPa) = 19.36702 26.45234 22.90968
#
# Velocity S-wave (km/s) = 3.15448 3.68662 3.43088
# Velocity P-wave (km/s) = 4.97975 5.60694 5.30263
#
# Compressibility (1/GPa) = 0.04456069
#
# Stress axis : x y z
#
# Youngs Moduli (GPa) = 39.45275 39.15642 60.43857
#
# Poissons Ratio (x) = 0.32226 -0.21688
# Poissons Ratio (y) = 0.32470 0.41060
# Poissons Ratio (z) = -0.14157 0.26601
#
# Static dielectric constant tensor:
#      x y z
#    x 1.722490 0.019340 0.000810 
#    y 0.019340 1.706300 -0.037060 
#    z 0.000810 -0.037060 1.700660 
# 
# From -- ./inp_files/305816.got.cif
#   From: 2010.05.17/outbox.cif.g08.bks.cpg/sg2_153_cif.got.tgz:305816.got - 2010.06.03 11:33:40.
