data_PCOD9002031
_publ_section_title
;
Structure prediction by ZEFSAII (Michael W. Deem and Ramdas Pophale) SiO2 
 PCOD9002031
Probable space group: P -1
;
_chemical_formula_sum "Si O2"
_cell_formula_units_Z 16
_cell_length_a 16.965759
_cell_length_b 8.010073
_cell_length_c 8.204039
_cell_angle_alpha 127.827638
_cell_angle_beta 51.713244
_cell_angle_gamma 129.432644
_cell_volume 629.949442
_symmetry_space_group_name_H-M "P -1"
_symmetry_group_IT_number 2
_symmetry_cell_setting 'triclinic'
loop_
_space_group_symop_operation_xyz
x,y,z
-x,-y,-z
loop_
_atom_site_type_symbol
_atom_site_label
_atom_site_fract_x
_atom_site_fract_y
_atom_site_fract_z
Si Si1 0.087834 0.053377 0.162019
Si Si2 0.311107 0.061318 0.022432
Si Si3 0.139060 0.193151 0.806610
Si Si4 0.016639 0.425058 0.616623
Si Si5 0.336799 0.589983 0.618126
Si Si6 0.791184 0.154074 0.680830
Si Si7 0.442547 0.176398 0.641776
Si Si8 0.250316 0.725844 0.512786
O O1 0.195306 0.038333 0.086419
O O2 0.058285 0.221276 0.421013
O O3 0.116829 0.166798 0.011835
O O4 0.973780 0.825426 0.146596
O O5 0.300463 0.052608 0.225028
O O6 0.406158 0.247228 0.901850
O O7 0.328078 0.825839 0.828605
O O8 0.250326 0.399090 0.728843
O O9 0.152487 0.968544 0.583249
O O10 0.122945 0.634834 0.678243
O O11 0.000000 0.500000 0.500000
O O12 0.889803 0.319077 0.772252
O O13 0.464375 0.630368 0.468573
O O14 0.297063 0.574582 0.470514
O O15 0.749990 0.299277 0.697688
O O16 0.500000 0.000000 0.500000
O O17 0.328068 0.998905 0.601849
#
# Coordination Sequence:
#
# PCOD9002031 Si02
#       8
#     2   2   2   2   2   2   2   2
#     4  10  22  38  58  86 127 152 186 241 296 350
#     4  10  21  37  60  85 120 151 194 243 292 336
#     4  10  22  38  59  85 119 156 192 233 298 350
#     4   9  20  34  58  86 123 151 186 233 292 353
#     4  10  22  39  64  82 114 157 207 234 286 351
#     4  10  21  36  56  88 124 149 188 240 296 347
#     4   8  18  41  59  80 115 155 197 249 281 337
#     4   9  18  36  60  79 114 157 189 230 294 334
#
# _framework density 25.398864
#
# number of rings (size 3 to 8) (size 9 to 14) (size 15 to 20)
#    0.000    2.750    0.000    1.500    7.000    3.500 
#    0.000    8.750    2.750    0.000    0.000    0.000 
#    0.000    0.000    0.000    0.000    0.000    0.000 
#
# Total GULP energy -89250.620686 kJ/mol
# GULP energy per Si atom -5578.163793 kJ/mol
# Density = 2.534106 g / cm^3
# Si number density = 25.398864 Si / 1000 Ang^3
#
#
#
# Elastic Constant Matrix: (Units=GPa)
#
#
# Indices 1 2 3 4 5 6 
#
# 1 55.0102 14.8446 16.4485 -13.2180 9.5705 8.7530
# 2 14.8446 125.0368 28.8498 -38.7198 -1.3295 27.7421
# 3 16.4485 28.8498 93.5247 -29.4802 0.7374 1.6000
# 4 -13.2180 -38.7198 -29.4802 46.0705 0.8082 -2.9554
# 5 9.5705 -1.3295 0.7374 0.8082 19.5510 -2.7456
# 6 8.7530 27.7421 1.6000 -2.9554 -2.7456 32.4789
#
#
#
# Elastic Compliance Matrix: (Units=1/GPa)
#
#
# Indices 1 2 3 4 5 6 
#
# 1 0.023421 0.001182 -0.002389 0.005910 -0.012625 -0.007734
# 2 0.001182 0.013874 -0.000900 0.010728 -0.001630 -0.011286
# 3 -0.002389 -0.000900 0.013696 0.007407 0.000490 0.001453
# 4 0.005910 0.010728 0.007407 0.036720 -0.005114 -0.008212
# 5 -0.012625 -0.001630 0.000490 -0.005114 0.058712 0.009268
# 6 -0.007734 -0.011286 0.001453 -0.008212 0.009268 0.042478
#
#
# Mechanical properties :
#
#
# Convention : Reuss Voigt Hill
#
# Bulk Modulus (GPa) = 21.37788 43.76194 32.56991
# Shear Modulus (GPa) = 23.95700 33.84868 28.90284
#
# Velocity S-wave (km/s) = 3.07454 3.65456 3.37702
# Velocity P-wave (km/s) = 4.58681 5.92241 5.29688
#
# Compressibility (1/GPa) = 0.04677731
#
# Stress axis : x y z
#
# Youngs Moduli (GPa) = 42.69729 72.07784 73.01304
#
# Poissons Ratio (x) = -0.08523 0.17443
# Poissons Ratio (y) = -0.05049 0.06572
# Poissons Ratio (z) = 0.10201 0.06488
#
# Static dielectric constant tensor:
#      x y z
#    x 2.077680 0.037520 0.059960 
#    y 0.037520 2.142850 0.002740 
#    z 0.059960 0.002740 2.133440 
# 
# From -- ./inp_files/329407.got.cif
#   From: 2010.05.17/outbox.cif.g08.bks.cpg/sg2_165_cif.got.tgz:329407.got - 2010.06.03 11:33:40.
