data_PCOD9002389
_publ_section_title
;
Structure prediction by ZEFSAII (Michael W. Deem and Ramdas Pophale) SiO2 
 PCOD9002389
Probable space group: P -1
;
_chemical_formula_sum "Si O2"
_cell_formula_units_Z 16
_cell_length_a 14.412983
_cell_length_b 11.461349
_cell_length_c 11.707003
_cell_angle_alpha 84.499085
_cell_angle_beta 149.072425
_cell_angle_gamma 114.517011
_cell_volume 751.518898
_symmetry_space_group_name_H-M "P -1"
_symmetry_group_IT_number 2
_symmetry_cell_setting 'triclinic'
loop_
_space_group_symop_operation_xyz
x,y,z
-x,-y,-z
loop_
_atom_site_type_symbol
_atom_site_label
_atom_site_fract_x
_atom_site_fract_y
_atom_site_fract_z
Si Si1 0.661599 0.856154 0.943476
Si Si2 0.282200 0.790159 0.685594
Si Si3 0.799817 0.683629 0.193565
Si Si4 0.690413 0.344635 0.582149
Si Si5 0.500408 0.871031 0.154321
Si Si6 0.564439 0.542546 0.335508
Si Si7 0.768753 0.399265 0.923743
Si Si8 0.887526 0.830419 0.522033
O O1 0.433929 0.748883 0.797193
O O2 0.523096 0.822199 0.683033
O O3 0.806460 0.796062 0.102001
O O4 0.843145 0.020445 0.180220
O O5 0.001754 0.673096 0.386856
O O6 0.378561 0.951349 0.714036
O O7 0.344240 0.820997 0.880842
O O8 0.850669 0.761917 0.363275
O O9 0.551650 0.523840 0.907451
O O10 0.606957 0.441443 0.456525
O O11 0.720955 0.339894 0.748866
O O12 0.952345 0.448318 0.791848
O O13 0.332156 0.743421 0.084755
O O14 0.710586 0.866864 0.346958
O O15 0.389517 0.554055 0.217605
O O16 0.810256 0.708501 0.550476
#
# Coordination Sequence:
#
# PCOD9002389 Si02
#       8
#     2   2   2   2   2   2   2   2
#     4  11  22  38  60  89 123 154 202 240 296 356
#     4  11  21  35  60  86 123 158 188 241 304 346
#     4  11  21  37  58  89 124 157 194 240 294 363
#     4  10  23  42  66  85 115 162 199 251 294 344
#     4  10  21  36  60  89 117 161 195 239 297 354
#     4  10  23  38  63  89 117 156 201 243 300 348
#     4  10  22  44  63  85 120 152 209 248 291 345
#     4  11  20  38  57  90 127 156 192 244 293 359
#
# _framework density 21.290217999999999
#
# number of rings (size 3 to 8) (size 9 to 14) (size 15 to 20)
#    0.000    1.500    2.500    3.375    3.500    0.000 
#    0.000    5.000    2.750    0.000    0.000    0.000 
#    0.000    0.000    0.000    0.000    0.000    0.000 
#
# Total GULP energy -89266.980038 kJ/mol
# GULP energy per Si atom -5579.186252 kJ/mol
# Density = 2.124176 g / cm^3
# Si number density = 21.290218 Si / 1000 Ang^3
#
#
#
# Elastic Constant Matrix: (Units=GPa)
#
#
# Indices 1 2 3 4 5 6 
#
# 1 86.7110 20.2766 39.6057 -2.2398 -1.1246 10.6054
# 2 20.2766 41.3279 3.1459 -8.0327 9.6779 14.6188
# 3 39.6057 3.1459 109.0363 2.0135 4.9222 14.6441
# 4 -2.2398 -8.0327 2.0135 17.4204 -5.8297 2.7244
# 5 -1.1246 9.6779 4.9222 -5.8297 30.5923 -2.2875
# 6 10.6054 14.6188 14.6441 2.7244 -2.2875 21.9675
#
#
#
# Elastic Compliance Matrix: (Units=1/GPa)
#
#
# Indices 1 2 3 4 5 6 
#
# 1 0.016425 -0.010217 -0.006385 -0.000775 0.004995 0.003742
# 2 -0.010217 0.049881 0.007671 0.021291 -0.016151 -0.037698
# 3 -0.006385 0.007671 0.013023 0.001194 -0.005382 -0.011412
# 4 -0.000775 0.021291 0.001194 0.072291 0.005098 -0.023026
# 5 0.004995 -0.016151 -0.005382 0.005098 0.040982 0.015560
# 6 0.003742 -0.037698 -0.011412 -0.023026 0.015560 0.080886
#
#
# Mechanical properties :
#
#
# Convention : Reuss Voigt Hill
#
# Bulk Modulus (GPa) = 16.26893 40.34795 28.30844
# Shear Modulus (GPa) = 16.03395 25.59917 20.81656
#
# Velocity S-wave (km/s) = 2.74727 3.47131 3.13030
# Velocity P-wave (km/s) = 4.20968 5.92108 5.13715
#
# Compressibility (1/GPa) = 0.06146687
#
# Stress axis : x y z
#
# Youngs Moduli (GPa) = 60.88213 20.04786 76.78783
#
# Poissons Ratio (x) = 0.20482 0.49030
# Poissons Ratio (y) = 0.62201 -0.58903
# Poissons Ratio (z) = 0.38874 -0.15378
#
# Static dielectric constant tensor:
#      x y z
#    x 1.793230 -0.047370 -0.009760 
#    y -0.047370 1.789040 0.024080 
#    z -0.009760 0.024080 1.770500 
# 
# From -- ./inp_files/390419.got.cif
#   From: 2010.05.17/outbox.cif.g08.bks.cpg/sg2_196_cif.got.tgz:390419.got - 2010.06.03 11:33:40.
