data_PCOD9002589
_publ_section_title
;
Structure prediction by ZEFSAII (Michael W. Deem and Ramdas Pophale) SiO2 
 PCOD9002589
Probable space group: P -1
;
_chemical_formula_sum "Si O2"
_cell_formula_units_Z 16
_cell_length_a 14.776306
_cell_length_b 18.917454
_cell_length_c 9.636621
_cell_angle_alpha 33.029546
_cell_angle_beta 33.581827
_cell_angle_gamma 28.554084
_cell_volume 651.704386
_symmetry_space_group_name_H-M "P -1"
_symmetry_group_IT_number 2
_symmetry_cell_setting 'triclinic'
loop_
_space_group_symop_operation_xyz
x,y,z
-x,-y,-z
loop_
_atom_site_type_symbol
_atom_site_label
_atom_site_fract_x
_atom_site_fract_y
_atom_site_fract_z
Si Si1 0.159165 0.808362 0.144300
Si Si2 0.579443 0.316626 0.540402
Si Si3 0.593452 0.965913 0.712674
Si Si4 0.892106 0.318352 0.291041
Si Si5 0.734846 0.013013 0.713046
Si Si6 0.246216 0.352714 0.093183
Si Si7 0.387343 0.286063 0.322692
Si Si8 0.679603 0.496380 0.705632
O O1 0.132872 0.758154 0.413907
O O2 0.150085 0.691141 0.240734
O O3 0.391440 0.752846 0.927866
O O4 0.000000 0.000000 0.000000
O O5 0.691743 0.388819 0.337101
O O6 0.414579 0.413082 0.470313
O O7 0.757654 0.143649 0.531712
O O8 0.462720 0.301907 0.839011
O O9 0.687334 0.035401 0.573286
O O10 0.755074 0.793184 0.721976
O O11 0.442340 0.109480 0.567265
O O12 0.461676 0.945082 0.022944
O O13 0.084558 0.173998 0.199350
O O14 0.909418 0.462546 0.060799
O O15 0.248824 0.356988 0.247813
O O16 0.288162 0.402113 0.393673
O O17 0.500000 0.500000 0.000000
#
# Coordination Sequence:
#
# PCOD9002589 Si02
#       8
#     2   2   2   2   2   2   2   2
#     4  11  23  37  61  97 130 159 198 263 323 367
#     4  11  20  41  63  91 127 162 205 256 317 378
#     4  10  22  43  64  86 125 170 223 240 307 377
#     4  12  22  39  63  98 129 153 210 263 319 369
#     4  10  23  39  63  91 120 169 208 261 304 368
#     4  11  23  39  66  94 125 170 205 260 310 373
#     4  11  21  43  63  91 123 168 213 251 308 376
#     4  10  21  36  62  89 126 166 203 247 314 379
#
# _framework density 24.551010000000002
#
# number of rings (size 3 to 8) (size 9 to 14) (size 15 to 20)
#    0.000    1.250    3.750    3.375    1.750    0.500 
#    2.250    1.875    0.000    0.000    0.000    0.000 
#    0.000    0.000    0.000    0.000    0.000    0.000 
#
# Total GULP energy -89406.825502 kJ/mol
# GULP energy per Si atom -5587.926594 kJ/mol
# Density = 2.449513 g / cm^3
# Si number density = 24.551010 Si / 1000 Ang^3
#
#
#
# Elastic Constant Matrix: (Units=GPa)
#
#
# Indices 1 2 3 4 5 6 
#
# 1 91.9326 49.1873 31.9200 -4.8408 17.7580 28.0094
# 2 49.1873 201.7317 24.3133 -27.8511 3.9313 38.5947
# 3 31.9200 24.3133 52.6914 -17.4860 24.3705 8.3884
# 4 -4.8408 -27.8511 -17.4860 46.9291 -6.0924 -7.3850
# 5 17.7580 3.9313 24.3705 -6.0924 28.4928 -4.6605
# 6 28.0094 38.5947 8.3884 -7.3850 -4.6605 36.8871
#
#
#
# Elastic Compliance Matrix: (Units=1/GPa)
#
#
# Indices 1 2 3 4 5 6 
#
# 1 0.020017 -0.001940 -0.005560 -0.004801 -0.010806 -0.014231
# 2 -0.001940 0.006823 -0.000409 0.002981 0.000450 -0.004919
# 3 -0.005560 -0.000409 0.040768 0.009389 -0.030417 -0.006584
# 4 -0.004801 0.002981 0.009389 0.026810 0.000916 0.003874
# 5 -0.010806 0.000450 -0.030417 0.000916 0.071894 0.023918
# 6 -0.014231 -0.004919 -0.006584 0.003874 0.023918 0.048358
#
#
# Mechanical properties :
#
#
# Convention : Reuss Voigt Hill
#
# Bulk Modulus (GPa) = 19.30891 61.91077 40.60984
# Shear Modulus (GPa) = 20.18147 38.52413 29.35280
#
# Velocity S-wave (km/s) = 2.87020 3.96554 3.46147
# Velocity P-wave (km/s) = 4.34350 6.79995 5.70549
#
# Compressibility (1/GPa) = 0.05178956
#
# Stress axis : x y z
#
# Youngs Moduli (GPa) = 49.95876 146.55512 24.52893
#
# Poissons Ratio (x) = 0.28430 0.13639
# Poissons Ratio (y) = 0.09691 0.01003
# Poissons Ratio (z) = 0.27779 0.05995
#
# Static dielectric constant tensor:
#      x y z
#    x 1.981120 0.009410 -0.010310 
#    y 0.009410 1.982880 -0.028040 
#    z -0.010310 -0.028040 1.939380 
# 
# From -- ./inp_files/242462.got.cif
#   From: 2010.05.17/outbox.cif.g08.bks.cpg/sg2_122_cif.got.tgz:242462.got - 2010.06.03 11:33:40.
