data_PCOD9002346
_publ_section_title
;
Structure prediction by ZEFSAII (Michael W. Deem and Ramdas Pophale) SiO2 
 PCOD9002346
Probable space group: P -1
;
_chemical_formula_sum "Si O2"
_cell_formula_units_Z 14
_cell_length_a 8.439628
_cell_length_b 7.927810
_cell_length_c 11.551479
_cell_angle_alpha 68.469531
_cell_angle_beta 94.818613
_cell_angle_gamma 131.707039
_cell_volume 522.269039
_symmetry_space_group_name_H-M "P -1"
_symmetry_group_IT_number 2
_symmetry_cell_setting 'triclinic'
loop_
_space_group_symop_operation_xyz
x,y,z
-x,-y,-z
loop_
_atom_site_type_symbol
_atom_site_label
_atom_site_fract_x
_atom_site_fract_y
_atom_site_fract_z
Si Si1 0.492612 0.013246 0.264262
Si Si2 0.199143 0.452460 0.950938
Si Si3 0.703031 0.615012 0.604306
Si Si4 0.241590 0.640673 0.516901
Si Si5 0.749193 0.661689 0.236620
Si Si6 0.731656 0.268310 0.904413
Si Si7 0.130999 0.971143 0.667426
O O1 0.384895 0.921557 0.408204
O O2 0.314588 0.792612 0.219652
O O3 0.706485 0.052944 0.270016
O O4 0.589825 0.275145 0.157474
O O5 0.213164 0.288417 0.910082
O O6 0.955272 0.337742 0.935210
O O7 0.237384 0.522084 0.071093
O O8 0.674574 0.455011 0.537350
O O9 0.490834 0.464963 0.706861
O O10 0.763928 0.847976 0.483464
O O11 0.910356 0.723052 0.664893
O O12 0.227563 0.528423 0.667551
O O13 0.000000 0.500000 0.500000
O O14 0.903821 0.908178 0.263782
O O15 0.500000 0.000000 0.000000
#
# Coordination Sequence:
#
# PCOD9002346 Si02
#       7
#     2   2   2   2   2   2   2
#     4  11  21  37  62  92 122 157 206 255 293 355
#     4  10  23  38  66  90 116 161 204 252 308 358
#     4  10  21  39  56  82 132 172 194 235 302 362
#     4  11  22  36  60  94 128 159 206 249 291 357
#     4  11  21  40  58  89 129 161 197 243 302 362
#     4   9  21  43  62  87 122 153 202 257 311 355
#     4  10  21  36  60  82 124 172 198 234 302 357
#
# _framework density 26.806106
#
# number of rings (size 3 to 8) (size 9 to 14) (size 15 to 20)
#    0.000    1.714    2.857    1.714    4.000    6.286 
#    0.000    0.714    0.000    8.571    0.000    0.000 
#    0.000    0.000    0.000    0.000    0.000    0.000 
#
# Total GULP energy -78244.657711 kJ/mol
# GULP energy per Si atom -5588.904122 kJ/mol
# Density = 2.674509 g / cm^3
# Si number density = 26.806106 Si / 1000 Ang^3
#
#
#
# Elastic Constant Matrix: (Units=GPa)
#
#
# Indices 1 2 3 4 5 6 
#
# 1 65.9920 9.5373 -1.1939 12.3104 -12.8285 25.9890
# 2 9.5373 131.0045 29.0507 20.3150 -2.9037 28.8404
# 3 -1.1939 29.0507 100.7465 33.1707 -18.6803 3.1505
# 4 12.3104 20.3150 33.1707 63.4616 2.5181 5.1833
# 5 -12.8285 -2.9037 -18.6803 2.5181 40.0517 10.8244
# 6 25.9890 28.8404 3.1505 5.1833 10.8244 42.9123
#
#
#
# Elastic Compliance Matrix: (Units=1/GPa)
#
#
# Indices 1 2 3 4 5 6 
#
# 1 0.030877 0.003851 0.007181 -0.009693 0.021149 -0.025979
# 2 0.003851 0.010284 -0.000792 -0.002990 0.004489 -0.009957
# 3 0.007181 -0.000792 0.015741 -0.009282 0.012029 -0.006885
# 4 -0.009693 -0.002990 -0.009282 0.023195 -0.011446 0.008647
# 5 0.021149 0.004489 0.012029 -0.011446 0.045651 -0.026841
# 6 -0.025979 -0.009957 -0.006885 0.008647 -0.026841 0.051960
#
#
# Mechanical properties :
#
#
# Convention : Reuss Voigt Hill
#
# Bulk Modulus (GPa) = 12.92290 41.39235 27.15763
# Shear Modulus (GPa) = 27.31915 46.64171 36.98043
#
# Velocity S-wave (km/s) = 3.19586 4.17582 3.71826
# Velocity P-wave (km/s) = 4.29527 6.22293 5.34669
#
# Compressibility (1/GPa) = 0.07738202
#
# Stress axis : x y z
#
# Youngs Moduli (GPa) = 32.38621 97.24225 63.52821
#
# Poissons Ratio (x) = -0.37447 -0.45617
# Poissons Ratio (y) = -0.12472 0.05029
# Poissons Ratio (z) = -0.23255 0.07697
#
# Static dielectric constant tensor:
#      x y z
#    x 2.077330 -0.085310 0.039180 
#    y -0.085310 2.170800 -0.044290 
#    z 0.039180 -0.044290 2.190320 
# 
# From -- ./inp_files/177250.got.cif
#   From: 2010.05.17/outbox.cif.g08.bks.cpg/sg2_89_cif.got.tgz:177250.got - 2010.06.03 11:33:40.
