data_PCOD9002909
_publ_section_title
;
Structure prediction by ZEFSAII (Michael W. Deem and Ramdas Pophale) SiO2 
 PCOD9002909
Probable space group: P -1
;
_chemical_formula_sum "Si O2"
_cell_formula_units_Z 12
_cell_length_a 10.445633
_cell_length_b 10.043036
_cell_length_c 10.771984
_cell_angle_alpha 114.416575
_cell_angle_beta 143.141022
_cell_angle_gamma 76.666451
_cell_volume 606.771321
_symmetry_space_group_name_H-M "P -1"
_symmetry_group_IT_number 2
_symmetry_cell_setting 'triclinic'
loop_
_space_group_symop_operation_xyz
x,y,z
-x,-y,-z
loop_
_atom_site_type_symbol
_atom_site_label
_atom_site_fract_x
_atom_site_fract_y
_atom_site_fract_z
Si Si1 0.317634 0.971354 0.537004
Si Si2 0.290959 0.916088 0.957445
Si Si3 0.993308 0.668564 0.195939
Si Si4 0.714996 0.856352 0.183527
Si Si5 0.746712 0.583926 0.714973
Si Si6 0.874761 0.872040 0.763849
O O1 0.211775 0.049549 0.599689
O O2 0.289434 0.059362 0.424384
O O3 0.189040 0.804132 0.365507
O O4 0.563624 0.992815 0.784607
O O5 0.065222 0.836831 0.806913
O O6 0.260924 0.035629 0.875608
O O7 0.453892 0.814628 0.988025
O O8 0.101437 0.528723 0.259889
O O9 0.847315 0.727438 0.209965
O O10 0.841832 0.631524 0.943407
O O11 0.500000 0.500000 0.500000
O O12 0.769367 0.728169 0.702350
O O13 0.000000 0.000000 0.000000
#
# Coordination Sequence:
#
# PCOD9002909 Si02
#       6
#     2   2   2   2   2   2
#     4  10  21  36  71  97 124 162 216 266 311 371
#     4   9  21  35  65 101 125 155 218 260 311 370
#     4  11  22  42  66  92 128 173 212 262 317 389
#     4   9  19  39  66 102 126 162 215 263 320 372
#     4  11  28  44  62  91 133 175 210 259 333 377
#     4  12  23  42  63  98 128 165 224 265 307 380
#
# _framework density 19.776807999999999
#
# number of rings (size 3 to 8) (size 9 to 14) (size 15 to 20)
#    1.000    0.667    3.333    0.500    4.667    3.333 
#    0.000    1.667    0.000    0.000    0.000    0.000 
#    0.000    0.000    0.000    0.000    0.000    0.000 
#
# Total GULP energy -66965.126706 kJ/mol
# GULP energy per Si atom -5580.427226 kJ/mol
# Density = 1.973180 g / cm^3
# Si number density = 19.776808 Si / 1000 Ang^3
#
#
#
# Elastic Constant Matrix: (Units=GPa)
#
#
# Indices 1 2 3 4 5 6 
#
# 1 79.5568 41.0495 24.1964 5.6181 13.1852 -0.2856
# 2 41.0495 109.7520 42.7591 1.8611 -14.2091 14.4132
# 3 24.1964 42.7591 94.5351 -10.1457 -0.9279 12.4160
# 4 5.6181 1.8611 -10.1457 33.4703 3.9096 -4.0322
# 5 13.1852 -14.2091 -0.9279 3.9096 33.8127 0.0394
# 6 -0.2856 14.4132 12.4160 -4.0322 0.0394 38.4467
#
#
#
# Elastic Compliance Matrix: (Units=1/GPa)
#
#
# Indices 1 2 3 4 5 6 
#
# 1 0.019449 -0.008399 -0.001959 -0.001655 -0.010980 0.003763
# 2 -0.008399 0.016082 -0.004671 -0.002682 0.010221 -0.004874
# 3 -0.001959 -0.004671 0.013985 0.004711 -0.001358 -0.002284
# 4 -0.001655 -0.002682 0.004711 0.032562 -0.004120 0.002891
# 5 -0.010980 0.010221 -0.001358 -0.004120 0.038595 -0.003947
# 6 0.003763 -0.004874 -0.002284 0.002891 -0.003947 0.028910
#
#
# Mechanical properties :
#
#
# Convention : Reuss Voigt Hill
#
# Bulk Modulus (GPa) = 51.39530 55.53933 53.46732
# Shear Modulus (GPa) = 26.86335 32.86854 29.86595
#
# Velocity S-wave (km/s) = 3.68955 4.08115 3.89028
# Velocity P-wave (km/s) = 6.64789 7.09590 6.87554
#
# Compressibility (1/GPa) = 0.01945703
#
# Stress axis : x y z
#
# Youngs Moduli (GPa) = 51.41559 62.18260 71.50710
#
# Poissons Ratio (x) = 0.52228 0.14007
# Poissons Ratio (y) = 0.43184 0.33404
# Poissons Ratio (z) = 0.10071 0.29048
#
# Static dielectric constant tensor:
#      x y z
#    x 1.760140 -0.052530 0.007830 
#    y -0.052530 1.664430 -0.025330 
#    z 0.007830 -0.025330 1.698110 
# 
# From -- ./inp_files/415748.got.cif
#   From: 2010.05.17/outbox.cif.g08.bks.cpg/sg2_208_cif.got.tgz:415748.got - 2010.06.03 11:33:40.
