data_PCOD9002755
_publ_section_title
;
Structure prediction by ZEFSAII (Michael W. Deem and Ramdas Pophale) SiO2 
 PCOD9002755
Probable space group: P -1
;
_chemical_formula_sum "Si O2"
_cell_formula_units_Z 14
_cell_length_a 5.456997
_cell_length_b 20.169848
_cell_length_c 8.726265
_cell_angle_alpha 46.610367
_cell_angle_beta 123.674384
_cell_angle_gamma 114.314385
_cell_volume 580.099484
_symmetry_space_group_name_H-M "P -1"
_symmetry_group_IT_number 2
_symmetry_cell_setting 'triclinic'
loop_
_space_group_symop_operation_xyz
x,y,z
-x,-y,-z
loop_
_atom_site_type_symbol
_atom_site_label
_atom_site_fract_x
_atom_site_fract_y
_atom_site_fract_z
Si Si1 0.347533 0.964952 0.848974
Si Si2 0.563357 0.234124 0.789051
Si Si3 0.445160 0.495298 0.672233
Si Si4 0.029690 0.356256 0.653138
Si Si5 0.875559 0.635618 0.689140
Si Si6 0.734627 0.245449 0.149096
Si Si7 0.220373 0.125732 0.329732
O O1 0.001600 0.929839 0.777150
O O2 0.366067 0.046439 0.604745
O O3 0.507806 0.870398 0.030483
O O4 0.500000 0.000000 0.000000
O O5 0.353232 0.282108 0.522718
O O6 0.893207 0.256611 0.805413
O O7 0.571245 0.280351 0.885077
O O8 0.500000 0.500000 0.500000
O O9 0.288032 0.395734 0.793181
O O10 0.712256 0.535429 0.805926
O O11 0.213858 0.571701 0.502935
O O12 0.038827 0.362656 0.462890
O O13 0.115770 0.670707 0.837401
O O14 0.490619 0.186900 0.254817
O O15 0.995466 0.182495 0.270522
#
# Coordination Sequence:
#
# PCOD9002755 Si02
#       7
#     2   2   2   2   2   2   2
#     4  10  22  41  67  89 126 164 215 257 317 371
#     4  10  23  38  59  94 122 164 209 265 312 369
#     4   8  16  34  59  90 122 161 201 254 310 370
#     4   9  18  35  61  89 124 158 210 255 309 372
#     4  10  21  36  64  91 122 168 209 253 315 377
#     4  11  25  42  65  90 133 166 211 259 316 372
#     4  10  25  44  60  92 128 169 207 265 314 370
#
# _framework density 24.133790000000001
#
# number of rings (size 3 to 8) (size 9 to 14) (size 15 to 20)
#    0.000    2.286    0.000    0.857   10.000    5.143 
#    0.000    5.000    0.000   29.143    0.000    0.000 
#    0.000    0.000    0.000    0.000    0.000    0.000 
#
# Total GULP energy -78042.448475 kJ/mol
# GULP energy per Si atom -5574.460605 kJ/mol
# Density = 2.407886 g / cm^3
# Si number density = 24.133790 Si / 1000 Ang^3
#
#
#
# Elastic Constant Matrix: (Units=GPa)
#
#
# Indices 1 2 3 4 5 6 
#
# 1 76.0836 36.1876 -2.2894 -0.4281 0.1629 9.2782
# 2 36.1876 164.5316 27.7429 43.3920 2.0685 3.1618
# 3 -2.2894 27.7429 45.5803 18.1654 17.5045 2.7001
# 4 -0.4281 43.3920 18.1654 49.6360 7.7247 11.5997
# 5 0.1629 2.0685 17.5045 7.7247 33.3454 -5.0708
# 6 9.2782 3.1618 2.7001 11.5997 -5.0708 26.3664
#
#
#
# Elastic Compliance Matrix: (Units=1/GPa)
#
#
# Indices 1 2 3 4 5 6 
#
# 1 0.017498 -0.006208 0.004406 0.007105 -0.005178 -0.009986
# 2 -0.006208 0.010792 -0.005461 -0.009974 0.005590 0.006913
# 3 0.004406 -0.005461 0.034016 -0.003413 -0.017704 -0.006282
# 4 0.007105 -0.009974 -0.003413 0.035834 -0.008723 -0.018397
# 5 -0.005178 0.005590 -0.017704 -0.008723 0.043282 0.015126
# 6 -0.009986 0.006913 -0.006282 -0.018397 0.015126 0.052258
#
#
# Mechanical properties :
#
#
# Convention : Reuss Voigt Hill
#
# Bulk Modulus (GPa) = 20.93010 45.49755 33.21383
# Shear Modulus (GPa) = 22.30826 36.83985 29.57406
#
# Velocity S-wave (km/s) = 3.04362 3.91126 3.50440
# Velocity P-wave (km/s) = 4.58725 6.26821 5.49242
#
# Compressibility (1/GPa) = 0.04777807
#
# Stress axis : x y z
#
# Youngs Moduli (GPa) = 57.15068 92.66473 29.39788
#
# Poissons Ratio (x) = 0.57528 -0.12952
# Poissons Ratio (y) = 0.35480 0.16055
# Poissons Ratio (z) = -0.25180 0.50606
#
# Static dielectric constant tensor:
#      x y z
#    x 2.134060 0.053730 0.044170 
#    y 0.053730 2.004680 -0.029580 
#    z 0.044170 -0.029580 1.922670 
# 
# From -- ./inp_files/44495.got.cif
#   From: 2010.05.17/outbox.cif.g08.bks.cpg/sg2_23_cif.got.tgz:44495.got - 2010.06.03 11:33:40.
