data_PCOD9002085
_publ_section_title
;
Structure prediction by ZEFSAII (Michael W. Deem and Ramdas Pophale) SiO2 
 PCOD9002085
Probable space group: P -1
;
_chemical_formula_sum "Si O2"
_cell_formula_units_Z 14
_cell_length_a 10.426710
_cell_length_b 10.871749
_cell_length_c 14.350693
_cell_angle_alpha 140.241093
_cell_angle_beta 135.872223
_cell_angle_gamma 37.182132
_cell_volume 604.974520
_symmetry_space_group_name_H-M "P -1"
_symmetry_group_IT_number 2
_symmetry_cell_setting 'triclinic'
loop_
_space_group_symop_operation_xyz
x,y,z
-x,-y,-z
loop_
_atom_site_type_symbol
_atom_site_label
_atom_site_fract_x
_atom_site_fract_y
_atom_site_fract_z
Si Si1 0.547221 0.968431 0.327780
Si Si2 0.772397 0.347199 0.900859
Si Si3 0.160803 0.097119 0.832648
Si Si4 0.532841 0.145973 0.971872
Si Si5 0.158011 0.142155 0.335600
Si Si6 0.078602 0.542759 0.772864
Si Si7 0.002847 0.194930 0.492121
O O1 0.414980 0.990403 0.177718
O O2 0.380738 0.124782 0.412595
O O3 0.682746 0.693437 0.257462
O O4 0.756777 0.990392 0.445462
O O5 0.770846 0.120565 0.780220
O O6 0.916585 0.299805 0.854997
O O7 0.540223 0.590802 0.921580
O O8 0.901234 0.357878 0.062951
O O9 0.305283 0.170798 0.898321
O O10 0.140287 0.912258 0.655478
O O11 0.289655 0.979215 0.927653
O O12 0.055044 0.234836 0.436472
O O13 0.990810 0.287790 0.250787
O O14 0.926892 0.436142 0.641454
#
# Coordination Sequence:
#
# PCOD9002085 Si02
#       7
#     2   2   2   2   2   2   2
#     4   9  21  36  54  84 114 141 184 222 272 327
#     4  10  21  36  57  86 109 145 186 225 271 325
#     4  10  21  39  62  79 107 146 187 230 275 319
#     4  10  21  39  60  81 108 144 190 230 267 325
#     4  11  19  34  58  81 114 150 178 220 272 330
#     4   9  20  35  52  83 117 145 175 226 272 323
#     4   9  21  38  53  85 113 145 179 227 277 319
#
# _framework density 23.141469000000001
#
# number of rings (size 3 to 8) (size 9 to 14) (size 15 to 20)
#    0.857    1.429    0.000    2.571    0.000    6.286 
#    5.143    0.000    0.000    2.571    0.000    0.000 
#    0.000    0.000    0.000    0.000    0.000    0.000 
#
# Total GULP energy -78100.131985 kJ/mol
# GULP energy per Si atom -5578.580856 kJ/mol
# Density = 2.308880 g / cm^3
# Si number density = 23.141469 Si / 1000 Ang^3
#
#
#
# Elastic Constant Matrix: (Units=GPa)
#
#
# Indices 1 2 3 4 5 6 
#
# 1 38.0070 3.0202 3.0225 -3.9652 1.6349 -1.1116
# 2 3.0202 31.2672 -6.9330 -6.1051 -1.8769 4.8047
# 3 3.0225 -6.9330 69.1132 2.5850 1.0860 6.7921
# 4 -3.9652 -6.1051 2.5850 24.8407 4.2996 -1.0608
# 5 1.6349 -1.8769 1.0860 4.2996 29.2039 -3.6689
# 6 -1.1116 4.8047 6.7921 -1.0608 -3.6689 18.3491
#
#
#
# Elastic Compliance Matrix: (Units=1/GPa)
#
#
# Indices 1 2 3 4 5 6 
#
# 1 0.027302 -0.002781 -0.001895 0.004327 -0.001903 0.002953
# 2 -0.002781 0.036427 0.004575 0.007593 -0.000173 -0.010996
# 3 -0.001895 0.004575 0.015791 -0.000969 -0.000975 -0.007409
# 4 0.004327 0.007593 -0.000969 0.043985 -0.006202 -0.000065
# 5 -0.001903 -0.000173 -0.000975 -0.006202 0.036187 0.007168
# 6 0.002953 -0.010996 -0.007409 -0.000065 0.007168 0.061729
#
#
# Mechanical properties :
#
#
# Convention : Reuss Voigt Hill
#
# Bulk Modulus (GPa) = 12.60730 15.17855 13.89293
# Shear Modulus (GPa) = 20.15625 23.76393 21.96009
#
# Velocity S-wave (km/s) = 2.95448 3.20800 3.08384
# Velocity P-wave (km/s) = 4.13501 4.50499 4.32396
#
# Compressibility (1/GPa) = 0.07931909
#
# Stress axis : x y z
#
# Youngs Moduli (GPa) = 36.62699 27.45186 63.32920
#
# Poissons Ratio (x) = 0.07633 0.12002
# Poissons Ratio (y) = 0.10184 -0.28974
# Poissons Ratio (z) = 0.06941 -0.12560
#
# Static dielectric constant tensor:
#      x y z
#    x 1.917020 -0.014720 0.016780 
#    y -0.014720 1.869870 -0.017240 
#    z 0.016780 -0.017240 1.898660 
# 
# From -- ./inp_files/255033.got.cif
#   From: 2010.05.17/outbox.cif.g08.bks.cpg/sg2_128_cif.got.tgz:255033.got - 2010.06.03 11:33:40.
