data_PCOD9002706
_publ_section_title
;
Structure prediction by ZEFSAII (Michael W. Deem and Ramdas Pophale) SiO2 
 PCOD9002706
Probable space group: P -1
;
_chemical_formula_sum "Si O2"
_cell_formula_units_Z 14
_cell_length_a 12.157416
_cell_length_b 8.623355
_cell_length_c 9.545041
_cell_angle_alpha 113.331652
_cell_angle_beta 79.698636
_cell_angle_gamma 60.536535
_cell_volume 707.273843
_symmetry_space_group_name_H-M "P -1"
_symmetry_group_IT_number 2
_symmetry_cell_setting 'triclinic'
loop_
_space_group_symop_operation_xyz
x,y,z
-x,-y,-z
loop_
_atom_site_type_symbol
_atom_site_label
_atom_site_fract_x
_atom_site_fract_y
_atom_site_fract_z
Si Si1 0.085969 0.072475 0.576887
Si Si2 0.099977 0.494630 0.356235
Si Si3 0.288194 0.627030 0.475699
Si Si4 0.383609 0.361167 0.633435
Si Si5 0.660098 0.951640 0.554732
Si Si6 0.454090 0.574859 0.878606
Si Si7 0.370972 0.023378 0.108426
O O1 0.980090 0.333379 0.692504
O O2 0.180655 0.888923 0.608430
O O3 0.212867 0.036577 0.445153
O O4 0.000000 0.000000 0.500000
O O5 0.189513 0.561177 0.432315
O O6 0.218223 0.250044 0.194094
O O7 0.000000 0.500000 0.500000
O O8 0.366737 0.495740 0.551254
O O9 0.406673 0.543565 0.297249
O O10 0.543295 0.139289 0.543815
O O11 0.359559 0.506876 0.821937
O O12 0.294628 0.273133 0.597380
O O13 0.598437 0.985999 0.735620
O O14 0.500000 0.500000 0.000000
O O15 0.375326 0.827135 0.987088
O O16 0.500000 0.000000 0.000000
#
# Coordination Sequence:
#
# PCOD9002706 Si02
#       7
#     2   2   2   2   2   2   2
#     4  10  21  36  63  95 125 159 223 269 302 377
#     4  11  21  38  64  92 125 172 219 264 309 392
#     4  11  21  39  63  98 124 167 219 265 321 379
#     4  11  22  37  64  93 136 166 211 273 320 393
#     4  11  21  39  62  99 126 168 214 265 325 380
#     4  12  23  37  59  97 137 161 203 271 339 370
#     4  12  22  39  62  96 131 164 214 268 327 376
#
# _framework density 19.794314
#
# number of rings (size 3 to 8) (size 9 to 14) (size 15 to 20)
#    0.000    0.857    7.143    0.429    0.000    0.000 
#    0.000    0.000    0.000    4.286    0.000    0.000 
#    0.000    0.000    0.000    0.000    0.000    0.000 
#
# Total GULP energy -77959.490083 kJ/mol
# GULP energy per Si atom -5568.535006 kJ/mol
# Density = 1.974926 g / cm^3
# Si number density = 19.794314 Si / 1000 Ang^3
#
#
#
# Elastic Constant Matrix: (Units=GPa)
#
#
# Indices 1 2 3 4 5 6 
#
# 1 94.9340 21.5400 36.3528 1.5996 -2.4027 23.2941
# 2 21.5400 200.5324 52.5560 23.4899 3.7378 -3.7027
# 3 36.3528 52.5560 65.7971 5.6797 9.7550 4.9432
# 4 1.5996 23.4899 5.6797 47.1346 2.8176 9.0547
# 5 -2.4027 3.7378 9.7550 2.8176 31.1673 8.0037
# 6 23.2941 -3.7027 4.9432 9.0547 8.0037 35.5769
#
#
#
# Elastic Compliance Matrix: (Units=1/GPa)
#
#
# Indices 1 2 3 4 5 6 
#
# 1 0.017622 0.000125 -0.010232 0.002512 0.007512 -0.012432
# 2 0.000125 0.006808 -0.005486 -0.003169 0.000672 0.002044
# 3 -0.010232 -0.005486 0.026331 -0.000429 -0.009547 0.004727
# 4 0.002512 -0.003169 -0.000429 0.024307 0.000627 -0.008242
# 5 0.007512 0.000672 -0.009547 0.000627 0.038696 -0.012387
# 6 -0.012432 0.002044 0.004727 -0.008242 -0.012387 0.040689
#
#
# Mechanical properties :
#
#
# Convention : Reuss Voigt Hill
#
# Bulk Modulus (GPa) = 51.09014 64.68459 57.88736
# Shear Modulus (GPa) = 26.01936 39.49674 32.75805
#
# Velocity S-wave (km/s) = 3.62952 4.47179 4.07249
# Velocity P-wave (km/s) = 6.59023 7.70791 7.17088
#
# Compressibility (1/GPa) = 0.01957325
#
# Stress axis : x y z
#
# Youngs Moduli (GPa) = 56.74752 146.89570 37.97757
#
# Poissons Ratio (x) = -0.01838 0.38861
# Poissons Ratio (y) = -0.00710 0.20836
# Poissons Ratio (z) = 0.58067 0.80593
#
# Static dielectric constant tensor:
#      x y z
#    x 1.747380 -0.000440 0.008410 
#    y -0.000440 1.794060 0.030540 
#    z 0.008410 0.030540 1.679960 
# 
# From -- ./inp_files/240355.got.cif
#   From: 2010.05.17/outbox.cif.g08.bks.cpg/sg2_121_cif.got.tgz:240355.got - 2010.06.03 11:33:40.
