data_PCOD9002444
_publ_section_title
;
Structure prediction by ZEFSAII (Michael W. Deem and Ramdas Pophale) SiO2 
 PCOD9002444
Probable space group: P -1
;
_chemical_formula_sum "Si O2"
_cell_formula_units_Z 14
_cell_length_a 13.947405
_cell_length_b 5.151790
_cell_length_c 8.903421
_cell_angle_alpha 80.802563
_cell_angle_beta 65.063554
_cell_angle_gamma 95.693858
_cell_volume 562.643059
_symmetry_space_group_name_H-M "P -1"
_symmetry_group_IT_number 2
_symmetry_cell_setting 'triclinic'
loop_
_space_group_symop_operation_xyz
x,y,z
-x,-y,-z
loop_
_atom_site_type_symbol
_atom_site_label
_atom_site_fract_x
_atom_site_fract_y
_atom_site_fract_z
Si Si1 0.442787 0.954371 0.704161
Si Si2 0.751400 0.049377 0.817796
Si Si3 0.936533 0.706432 0.106889
Si Si4 0.375153 0.504573 0.091874
Si Si5 0.007989 0.778802 0.383918
Si Si6 0.343069 0.709215 0.386792
Si Si7 0.688784 0.577960 0.245152
O O1 0.543013 0.085776 0.728985
O O2 0.355729 0.147407 0.743166
O O3 0.500000 0.000000 0.500000
O O4 0.391800 0.640796 0.780911
O O5 0.873531 0.133859 0.774995
O O6 0.745882 0.136685 0.637537
O O7 0.701972 0.744680 0.907527
O O8 0.669651 0.221660 0.927372
O O9 0.815544 0.639524 0.129289
O O10 0.931748 0.715290 0.293095
O O11 0.000000 0.500000 0.000000
O O12 0.000000 0.000000 0.000000
O O13 0.500000 0.500000 0.000000
O O14 0.348638 0.468631 0.291691
O O15 0.000000 0.500000 0.500000
O O16 0.000000 0.000000 0.500000
O O17 0.324188 0.583460 0.572918
#
# Coordination Sequence:
#
# PCOD9002444 Si02
#       7
#     2   2   2   2   2   2   2
#     4  10  21  36  60  98 127 164 223 276 335 426
#     4  10  23  39  64  98 129 172 227 285 356 410
#     4  12  28  52  71 106 151 195 241 308 373 431
#     4  10  22  40  59  94 136 171 213 273 366 415
#     4  12  26  48  80 110 137 188 256 312 355 429
#     4   9  22  36  67  93 134 164 226 283 351 412
#     4  11  23  40  65  92 132 181 234 281 348 417
#
# _framework density 24.882560000000002
#
# number of rings (size 3 to 8) (size 9 to 14) (size 15 to 20)
#    0.857    0.571    0.000    5.571    8.000    0.000 
#    7.714    0.000    0.000    0.000    0.000    0.000 
#    0.000    0.000    0.000    0.000    0.000    0.000 
#
# Total GULP energy -78268.773350 kJ/mol
# GULP energy per Si atom -5590.626668 kJ/mol
# Density = 2.482593 g / cm^3
# Si number density = 24.882560 Si / 1000 Ang^3
#
#
#
# Elastic Constant Matrix: (Units=GPa)
#
#
# Indices 1 2 3 4 5 6 
#
# 1 148.9646 48.2314 14.1104 1.6846 -27.0955 5.2470
# 2 48.2314 201.9021 37.9180 -9.8004 -22.2926 5.2219
# 3 14.1104 37.9180 69.0862 -3.5927 0.5907 3.5932
# 4 1.6846 -9.8004 -3.5927 60.0933 6.3494 -2.5654
# 5 -27.0955 -22.2926 0.5907 6.3494 57.3227 -3.8272
# 6 5.2470 5.2219 3.5932 -2.5654 -3.8272 32.5566
#
#
#
# Elastic Compliance Matrix: (Units=1/GPa)
#
#
# Indices 1 2 3 4 5 6 
#
# 1 0.007866 -0.001380 -0.000889 -0.000869 0.003245 -0.000635
# 2 -0.001380 0.006069 -0.003020 0.000666 0.001654 -0.000171
# 3 -0.000889 -0.003020 0.016435 0.000661 -0.001928 -0.001361
# 4 -0.000869 0.000666 0.000661 0.017068 -0.001977 0.001073
# 5 0.003245 0.001654 -0.001928 -0.001977 0.019969 0.001616
# 6 -0.000635 -0.000171 -0.001361 0.001073 0.001616 0.031270
#
#
# Mechanical properties :
#
#
# Convention : Reuss Voigt Hill
#
# Bulk Modulus (GPa) = 50.52245 68.94138 59.73191
# Shear Modulus (GPa) = 43.15818 51.30739 47.23278
#
# Velocity S-wave (km/s) = 4.16922 4.54583 4.36159
# Velocity P-wave (km/s) = 6.59735 7.43772 7.03010
#
# Compressibility (1/GPa) = 0.01979318
#
# Stress axis : x y z
#
# Youngs Moduli (GPa) = 127.12423 164.77285 60.84443
#
# Poissons Ratio (x) = 0.22732 0.05411
# Poissons Ratio (y) = 0.17538 0.18374
# Poissons Ratio (z) = 0.11305 0.49758
#
# Static dielectric constant tensor:
#      x y z
#    x 1.956530 0.054540 0.133130 
#    y 0.054540 1.907490 0.042550 
#    z 0.133130 0.042550 2.084580 
# 
# From -- ./inp_files/288434.got.cif
#   From: 2010.05.17/outbox.cif.g08.bks.cpg/sg2_145_cif.got.tgz:288434.got - 2010.06.03 11:33:40.
