data_PCOD9002686
_publ_section_title
;
Structure prediction by ZEFSAII (Michael W. Deem and Ramdas Pophale) SiO2 
 PCOD9002686
Probable space group: P -1
;
_chemical_formula_sum "Si O2"
_cell_formula_units_Z 16
_cell_length_a 19.221816
_cell_length_b 18.627563
_cell_length_c 9.004725
_cell_angle_alpha 145.401694
_cell_angle_beta 44.100874
_cell_angle_gamma 152.232649
_cell_volume 852.278198
_symmetry_space_group_name_H-M "P -1"
_symmetry_group_IT_number 2
_symmetry_cell_setting 'triclinic'
loop_
_space_group_symop_operation_xyz
x,y,z
-x,-y,-z
loop_
_atom_site_type_symbol
_atom_site_label
_atom_site_fract_x
_atom_site_fract_y
_atom_site_fract_z
Si Si1 0.859077 0.577992 0.028096
Si Si2 0.642952 0.593559 0.344062
Si Si3 0.930152 0.395990 0.774292
Si Si4 0.736590 0.965189 0.388533
Si Si5 0.887961 0.012782 0.544667
Si Si6 0.439425 0.572725 0.142451
Si Si7 0.931224 0.995695 0.949323
Si Si8 0.141492 0.427707 0.323658
O O1 0.734298 0.565912 0.234714
O O2 0.854293 0.447370 0.908382
O O3 0.831146 0.516475 0.794784
O O4 0.022025 0.795960 0.177212
O O5 0.500000 0.500000 0.500000
O O6 0.766070 0.817651 0.492653
O O7 0.585115 0.486333 0.092269
O O8 0.070448 0.478819 0.603157
O O9 0.814706 0.171248 0.584198
O O10 0.000000 0.500000 0.000000
O O11 0.803780 0.984736 0.478032
O O12 0.559557 0.793699 0.369879
O O13 0.773542 0.896407 0.084155
O O14 0.020948 0.050193 0.335775
O O15 0.280673 0.484905 0.282180
O O16 0.500000 0.500000 0.000000
O O17 0.000000 0.000000 0.000000
O O18 0.015011 0.202508 0.134226
#
# Coordination Sequence:
#
# PCOD9002686 Si02
#       8
#     2   2   2   2   2   2   2   2
#     4  11  23  40  65  86 130 163 204 258 302 366
#     4  11  25  38  58  96 131 160 198 249 324 371
#     4  11  23  43  63  91 118 160 226 254 289 363
#     4  10  21  36  63  92 121 158 209 255 303 359
#     4  11  19  39  60  91 125 158 209 252 311 359
#     4  11  20  39  62  89 129 161 200 247 315 374
#     4   9  17  32  57  90 116 152 202 252 298 354
#     4  10  22  39  59  91 121 167 201 251 315 357
#
# _framework density 18.773212999999998
#
# number of rings (size 3 to 8) (size 9 to 14) (size 15 to 20)
#    0.000    1.500    5.000    1.500    1.750    2.000 
#    0.000    4.375    0.000    0.000    0.000    0.000 
#    0.000    0.000    0.000    0.000    0.000    0.000 
#
# Total GULP energy -89141.622836 kJ/mol
# GULP energy per Si atom -5571.351427 kJ/mol
# Density = 1.873048 g / cm^3
# Si number density = 18.773213 Si / 1000 Ang^3
#
#
#
# Elastic Constant Matrix: (Units=GPa)
#
#
# Indices 1 2 3 4 5 6 
#
# 1 111.0693 40.4927 34.1015 3.0527 -23.0990 -1.2625
# 2 40.4927 70.1519 39.6311 -4.1693 -5.2003 -1.7279
# 3 34.1015 39.6311 80.9271 1.3701 -7.2905 0.3088
# 4 3.0527 -4.1693 1.3701 29.7067 1.6915 -0.2362
# 5 -23.0990 -5.2003 -7.2905 1.6915 29.6328 10.1664
# 6 -1.2625 -1.7279 0.3088 -0.2362 10.1664 28.8633
#
#
#
# Elastic Compliance Matrix: (Units=1/GPa)
#
#
# Indices 1 2 3 4 5 6 
#
# 1 0.014307 -0.006777 -0.001656 -0.002999 0.010981 -0.003654
# 2 -0.006777 0.023286 -0.009060 0.004672 -0.004680 0.002881
# 3 -0.001656 -0.009060 0.017725 -0.002053 0.002137 -0.001574
# 4 -0.002999 0.004672 -0.002053 0.035009 -0.004753 0.002131
# 5 0.010981 -0.004680 0.002137 -0.004753 0.048039 -0.016782
# 6 -0.003654 0.002881 -0.001574 0.002131 -0.016782 0.040604
#
#
# Mechanical properties :
#
#
# Convention : Reuss Voigt Hill
#
# Bulk Modulus (GPa) = 49.18209 54.51097 51.84653
# Shear Modulus (GPa) = 22.65182 27.50209 25.07696
#
# Velocity S-wave (km/s) = 3.47739 3.83164 3.65880
# Velocity P-wave (km/s) = 6.50983 6.97674 6.74732
#
# Compressibility (1/GPa) = 0.02033261
#
# Stress axis : x y z
#
# Youngs Moduli (GPa) = 69.89550 42.94363 56.41883
#
# Poissons Ratio (x) = 0.29103 0.09343
# Poissons Ratio (y) = 0.47368 0.51114
# Poissons Ratio (z) = 0.11575 0.38905
#
# Static dielectric constant tensor:
#      x y z
#    x 1.629460 0.027470 -0.010910 
#    y 0.027470 1.632620 -0.009260 
#    z -0.010910 -0.009260 1.667480 
# 
# From -- ./inp_files/201464.got.cif
#   From: 2010.05.17/outbox.cif.g08.bks.cpg/sg2_101_cif.got.tgz:201464.got - 2010.06.03 11:33:40.
