data_PCOD9002339
_publ_section_title
;
Structure prediction by ZEFSAII (Michael W. Deem and Ramdas Pophale) SiO2 
 PCOD9002339
Probable space group: P -1
;
_chemical_formula_sum "Si O2"
_cell_formula_units_Z 16
_cell_length_a 11.431530
_cell_length_b 12.397905
_cell_length_c 5.549984
_cell_angle_alpha 97.292962
_cell_angle_beta 68.464293
_cell_angle_gamma 87.132512
_cell_volume 721.760761
_symmetry_space_group_name_H-M "P -1"
_symmetry_group_IT_number 2
_symmetry_cell_setting 'triclinic'
loop_
_space_group_symop_operation_xyz
x,y,z
-x,-y,-z
loop_
_atom_site_type_symbol
_atom_site_label
_atom_site_fract_x
_atom_site_fract_y
_atom_site_fract_z
Si Si1 0.412100 0.951323 0.854068
Si Si2 0.700281 0.164325 0.714249
Si Si3 0.689638 0.518622 0.740072
Si Si4 0.327399 0.072319 0.553517
Si Si5 0.270152 0.309930 0.599978
Si Si6 0.101791 0.672050 0.373794
Si Si7 0.508638 0.357330 0.704391
Si Si8 0.973234 0.624944 0.970180
O O1 0.524007 0.909791 0.577712
O O2 0.318012 0.047904 0.837641
O O3 0.337846 0.856405 0.986645
O O4 0.500000 0.000000 0.000000
O O5 0.827113 0.220471 0.607793
O O6 0.589174 0.248812 0.713237
O O7 0.705448 0.041966 0.566825
O O8 0.763161 0.604400 0.562374
O O9 0.788734 0.429951 0.770440
O O10 0.610943 0.443135 0.602723
O O11 0.586194 0.585223 0.005952
O O12 0.259411 0.182355 0.527568
O O13 0.414320 0.328463 0.559125
O O14 0.176888 0.342162 0.900865
O O15 0.026859 0.685177 0.181412
O O16 0.030940 0.646777 0.670670
O O17 0.000000 0.500000 0.000000
#
# Coordination Sequence:
#
# PCOD9002339 Si02
#       8
#     2   2   2   2   2   2   2   2
#     4   9  17  34  58  89 130 167 210 261 320 398
#     4  10  22  41  66  92 136 171 218 271 331 404
#     4  10  22  39  63  94 133 164 214 272 337 400
#     4  10  21  36  59  97 128 174 217 266 334 394
#     4  12  23  37  65  91 132 167 220 277 327 395
#     4  11  26  47  71  99 128 182 224 274 332 389
#     4  10  21  37  60 100 127 167 210 268 347 399
#     4  12  26  47  71  96 132 175 232 274 328 388
#
# _framework density 22.168009999999999
#
# number of rings (size 3 to 8) (size 9 to 14) (size 15 to 20)
#    0.000    1.500    1.250    4.500    3.500    1.000 
#    4.500    1.250    0.000    0.000    0.000    0.000 
#    0.000    0.000    0.000    0.000    0.000    0.000 
#
# Total GULP energy -89222.184056 kJ/mol
# GULP energy per Si atom -5576.386504 kJ/mol
# Density = 2.211755 g / cm^3
# Si number density = 22.168010 Si / 1000 Ang^3
#
#
#
# Elastic Constant Matrix: (Units=GPa)
#
#
# Indices 1 2 3 4 5 6 
#
# 1 78.2847 22.2051 9.8868 -2.8274 6.4839 12.3019
# 2 22.2051 158.1260 27.1464 -9.0487 -3.6159 12.7328
# 3 9.8868 27.1464 68.5548 -15.5935 -4.7910 14.4979
# 4 -2.8274 -9.0487 -15.5935 31.9241 1.9195 -4.1273
# 5 6.4839 -3.6159 -4.7910 1.9195 29.0945 1.2890
# 6 12.3019 12.7328 14.4979 -4.1273 1.2890 22.6571
#
#
#
# Elastic Compliance Matrix: (Units=1/GPa)
#
#
# Indices 1 2 3 4 5 6 
#
# 1 0.014558 -0.001527 -0.000299 0.000041 -0.003191 -0.006666
# 2 -0.001527 0.007084 -0.001998 0.000606 0.000932 -0.001816
# 3 -0.000299 -0.001998 0.019425 0.007429 0.002968 -0.009960
# 4 0.000041 0.000606 0.007429 0.035375 -0.001106 0.001391
# 5 -0.003191 0.000932 0.002968 -0.001106 0.035889 -0.002934
# 6 -0.006666 -0.001816 -0.009960 0.001391 -0.002934 0.055570
#
#
# Mechanical properties :
#
#
# Convention : Reuss Voigt Hill
#
# Bulk Modulus (GPa) = 29.92285 47.04910 38.48597
# Shear Modulus (GPa) = 26.78277 33.11695 29.94986
#
# Velocity S-wave (km/s) = 3.47965 3.86930 3.67964
# Velocity P-wave (km/s) = 5.44715 6.42121 5.95413
#
# Compressibility (1/GPa) = 0.03341928
#
# Stress axis : x y z
#
# Youngs Moduli (GPa) = 68.69077 141.16946 51.48094
#
# Poissons Ratio (x) = 0.21555 0.01539
# Poissons Ratio (y) = 0.10488 0.10285
# Poissons Ratio (z) = 0.02053 0.28202
#
# Static dielectric constant tensor:
#      x y z
#    x 1.875620 -0.004710 0.076800 
#    y -0.004710 1.849870 0.012450 
#    z 0.076800 0.012450 1.949640 
# 
# From -- ./inp_files/70301.got.cif
#   From: 2010.05.17/outbox.cif.g08.bks.cpg/sg2_36_cif.got.tgz:70301.got - 2010.06.03 11:33:40.
