data_PCOD9002378
_publ_section_title
;
Structure prediction by ZEFSAII (Michael W. Deem and Ramdas Pophale) SiO2 
 PCOD9002378
Probable space group: P -1
;
_chemical_formula_sum "Si O2"
_cell_formula_units_Z 16
_cell_length_a 9.834654
_cell_length_b 5.365422
_cell_length_c 15.873200
_cell_angle_alpha 55.940342
_cell_angle_beta 103.808666
_cell_angle_gamma 110.141184
_cell_volume 650.332978
_symmetry_space_group_name_H-M "P -1"
_symmetry_group_IT_number 2
_symmetry_cell_setting 'triclinic'
loop_
_space_group_symop_operation_xyz
x,y,z
-x,-y,-z
loop_
_atom_site_type_symbol
_atom_site_label
_atom_site_fract_x
_atom_site_fract_y
_atom_site_fract_z
Si Si1 0.589787 0.949600 0.941985
Si Si2 0.085276 0.687546 0.718628
Si Si3 0.624094 0.606878 0.746262
Si Si4 0.451303 0.480306 0.593209
Si Si5 0.124111 0.426082 0.590008
Si Si6 0.885099 0.068345 0.035151
Si Si7 0.601725 0.224099 0.206679
Si Si8 0.905620 0.705223 0.840121
O O1 0.644516 0.267501 0.834743
O O2 0.730134 0.871647 0.016200
O O3 0.479229 0.749652 0.896740
O O4 0.500000 0.000000 0.000000
O O5 0.091718 0.542396 0.655685
O O6 0.227436 0.653664 0.794044
O O7 0.952280 0.575249 0.784000
O O8 0.099312 0.055947 0.645963
O O9 0.588334 0.671936 0.633071
O O10 0.474217 0.605698 0.769496
O O11 0.765598 0.825612 0.771789
O O12 0.500000 0.500000 0.500000
O O13 0.296417 0.562588 0.567490
O O14 0.427110 0.130781 0.694431
O O15 0.000000 0.500000 0.500000
O O16 0.867607 0.421581 0.954690
O O17 0.955526 0.058661 0.139659
O O18 0.000000 0.000000 0.000000
#
# Coordination Sequence:
#
# PCOD9002378 Si02
#       8
#     2   2   2   2   2   2   2   2
#     4  10  21  36  60  88 121 161 207 258 318 373
#     4  11  24  43  67  94 130 170 212 262 322 381
#     4  10  21  40  58  88 126 155 212 259 312 380
#     4  10  23  41  63  91 122 165 209 260 319 376
#     4  11  25  45  66  96 130 163 216 269 316 388
#     4  10  21  38  57  89 130 160 216 264 310 386
#     4  10  21  40  61  89 124 160 209 262 309 380
#     4  10  23  37  60  92 123 171 212 261 324 375
#
# _framework density 24.602782000000001
#
# number of rings (size 3 to 8) (size 9 to 14) (size 15 to 20)
#    0.000    1.750    1.250    1.875    3.500    3.000 
#    0.000    0.000    0.000    0.000    0.000    0.000 
#    0.000    0.000    0.000    0.000    0.000    0.000 
#
# Total GULP energy -89388.736017 kJ/mol
# GULP energy per Si atom -5586.796001 kJ/mol
# Density = 2.454678 g / cm^3
# Si number density = 24.602782 Si / 1000 Ang^3
#
#
#
# Elastic Constant Matrix: (Units=GPa)
#
#
# Indices 1 2 3 4 5 6 
#
# 1 160.2889 24.3983 69.3843 10.8470 27.4605 0.2777
# 2 24.3983 82.8713 51.6881 12.7820 12.7081 -4.1810
# 3 69.3843 51.6881 161.5990 29.7483 25.9639 -0.3153
# 4 10.8470 12.7820 29.7483 43.1495 -5.4815 1.9438
# 5 27.4605 12.7081 25.9639 -5.4815 55.4772 12.5372
# 6 0.2777 -4.1810 -0.3153 1.9438 12.5372 38.2502
#
#
#
# Elastic Compliance Matrix: (Units=1/GPa)
#
#
# Indices 1 2 3 4 5 6 
#
# 1 0.008009 -0.000004 -0.002904 -0.000410 -0.002842 0.000870
# 2 -0.000004 0.015494 -0.004175 -0.002127 -0.002379 0.002547
# 3 -0.002904 -0.004175 0.010319 -0.005600 -0.003212 0.000987
# 4 -0.000410 -0.002127 -0.005600 0.028852 0.007080 -0.004062
# 5 -0.002842 -0.002379 -0.003212 0.007080 0.024107 -0.008527
# 6 0.000870 0.002547 0.000987 -0.004062 -0.008527 0.029425
#
#
# Mechanical properties :
#
#
# Convention : Reuss Voigt Hill
#
# Bulk Modulus (GPa) = 50.87428 77.30006 64.08717
# Shear Modulus (GPa) = 36.51646 44.66129 40.58887
#
# Velocity S-wave (km/s) = 3.85676 4.26525 4.06614
# Velocity P-wave (km/s) = 6.36836 7.46618 6.93902
#
# Compressibility (1/GPa) = 0.01965630
#
# Stress axis : x y z
#
# Youngs Moduli (GPa) = 124.85279 64.54283 96.90501
#
# Poissons Ratio (x) = 0.00025 0.28140
# Poissons Ratio (y) = 0.00049 0.40461
# Poissons Ratio (z) = 0.36255 0.26948
#
# Static dielectric constant tensor:
#      x y z
#    x 1.900640 0.102560 0.030520 
#    y 0.102560 2.003850 -0.091450 
#    z 0.030520 -0.091450 1.899010 
# 
# From -- ./inp_files/39897.got.cif
#   From: 2010.05.17/outbox.cif.g08.bks.cpg/sg2_20_cif.got.tgz:39897.got - 2010.06.03 11:33:40.
