data_PCOD9002309
_publ_section_title
;
Structure prediction by ZEFSAII (Michael W. Deem and Ramdas Pophale) SiO2 
 PCOD9002309
Probable space group: P -1
;
_chemical_formula_sum "Si O2"
_cell_formula_units_Z 16
_cell_length_a 25.930543
_cell_length_b 18.017106
_cell_length_c 14.071147
_cell_angle_alpha 22.435639
_cell_angle_beta 157.721610
_cell_angle_gamma 157.640942
_cell_volume 834.204250
_symmetry_space_group_name_H-M "P -1"
_symmetry_group_IT_number 2
_symmetry_cell_setting 'triclinic'
loop_
_space_group_symop_operation_xyz
x,y,z
-x,-y,-z
loop_
_atom_site_type_symbol
_atom_site_label
_atom_site_fract_x
_atom_site_fract_y
_atom_site_fract_z
Si Si1 0.746793 0.621623 0.193573
Si Si2 0.666290 0.093487 0.220703
Si Si3 0.140730 0.432475 0.926115
Si Si4 0.907753 0.042230 0.560459
Si Si5 0.018730 0.803609 0.713114
Si Si6 0.592335 0.898019 0.530010
Si Si7 0.196526 0.622986 0.589420
Si Si8 0.247902 0.624509 0.318786
O O1 0.740619 0.460638 0.290050
O O2 0.715766 0.492504 0.392650
O O3 0.636313 0.723503 0.858495
O O4 0.922723 0.823723 0.261373
O O5 0.733855 0.345882 0.071706
O O6 0.787649 0.087270 0.361411
O O7 0.650135 0.952494 0.455354
O O8 0.500000 0.000000 0.000000
O O9 0.165747 0.470529 0.810571
O O10 0.969107 0.397626 0.695578
O O11 0.147664 0.216853 0.224877
O O12 0.927069 0.122537 0.390121
O O13 0.858476 0.572294 0.703090
O O14 0.145362 0.737437 0.047153
O O15 0.000000 0.000000 0.500000
O O16 0.408248 0.802197 0.335860
O O17 0.684812 0.127996 0.472182
#
# Coordination Sequence:
#
# PCOD9002309 Si02
#       8
#     2   2   2   2   2   2   2   2
#     4  11  22  37  65  90 122 163 204 250 311 358
#     4  11  24  40  62  89 126 165 200 253 306 359
#     4  10  21  37  60  89 124 154 199 252 298 364
#     4  11  22  38  64  90 119 157 212 246 305 369
#     4  10  24  42  65  88 120 168 208 250 304 362
#     4  11  23  40  61  93 129 160 202 253 309 361
#     4  10  21  36  59  92 122 158 198 247 307 358
#     4  10  24  42  61  91 126 160 209 254 300 366
#
# _framework density 19.179956000000001
#
# number of rings (size 3 to 8) (size 9 to 14) (size 15 to 20)
#    0.000    1.500    2.500    1.875    1.750    5.000 
#    0.000    0.000    0.000    0.000    0.000    0.000 
#    0.000    0.000    0.000    0.000    0.000    0.000 
#
# Total GULP energy -89417.680199 kJ/mol
# GULP energy per Si atom -5588.605012 kJ/mol
# Density = 1.913630 g / cm^3
# Si number density = 19.179956 Si / 1000 Ang^3
#
#
#
# Elastic Constant Matrix: (Units=GPa)
#
#
# Indices 1 2 3 4 5 6 
#
# 1 68.4674 21.7780 8.1677 4.1762 13.4911 -9.6207
# 2 21.7780 141.6873 68.0655 6.0478 -9.3296 38.3611
# 3 8.1677 68.0655 109.5707 -5.9850 -19.8176 24.7166
# 4 4.1762 6.0478 -5.9850 28.9153 6.3396 -2.1894
# 5 13.4911 -9.3296 -19.8176 6.3396 26.0400 -7.7159
# 6 -9.6207 38.3611 24.7166 -2.1894 -7.7159 49.3910
#
#
#
# Elastic Compliance Matrix: (Units=1/GPa)
#
#
# Indices 1 2 3 4 5 6 
#
# 1 0.019481 -0.004532 -0.002190 0.000725 -0.011595 0.006631
# 2 -0.004532 0.013059 -0.005989 -0.004167 0.001100 -0.008041
# 3 -0.002190 -0.005989 0.015270 0.002518 0.009456 -0.001828
# 4 0.000725 -0.004167 0.002518 0.037912 -0.008448 0.002478
# 5 -0.011595 0.001100 0.009456 -0.008448 0.054127 0.000236
# 6 0.006631 -0.008041 -0.001828 0.002478 0.000236 0.028845
#
#
# Mechanical properties :
#
#
# Convention : Reuss Voigt Hill
#
# Bulk Modulus (GPa) = 44.66824 57.30532 50.98678
# Shear Modulus (GPa) = 24.80430 35.65020 30.22725
#
# Velocity S-wave (km/s) = 3.60007 4.31597 3.97417
# Velocity P-wave (km/s) = 6.37340 7.40131 6.90650
#
# Compressibility (1/GPa) = 0.02238727
#
# Stress axis : x y z
#
# Youngs Moduli (GPa) = 51.33328 76.57656 65.48649
#
# Poissons Ratio (x) = 0.34703 0.14344
# Poissons Ratio (y) = 0.23264 0.39220
# Poissons Ratio (z) = 0.11244 0.45862
#
# Static dielectric constant tensor:
#      x y z
#    x 1.664360 0.018160 -0.015370 
#    y 0.018160 1.658550 0.008410 
#    z -0.015370 0.008410 1.664060 
# 
# From -- ./inp_files/123740.got.cif
#   From: 2010.05.17/outbox.cif.g08.bks.cpg/sg2_62_cif.got.tgz:123740.got - 2010.06.03 11:33:40.
