data_PCOD9002133
_publ_section_title
;
Structure prediction by ZEFSAII (Michael W. Deem and Ramdas Pophale) SiO2 
 PCOD9002133
Probable space group: P -1
;
_chemical_formula_sum "Si O2"
_cell_formula_units_Z 12
_cell_length_a 11.371330
_cell_length_b 12.847104
_cell_length_c 12.554738
_cell_angle_alpha 136.296463
_cell_angle_beta 23.000872
_cell_angle_gamma 134.065868
_cell_volume 492.091475
_symmetry_space_group_name_H-M "P -1"
_symmetry_group_IT_number 2
_symmetry_cell_setting 'triclinic'
loop_
_space_group_symop_operation_xyz
x,y,z
-x,-y,-z
loop_
_atom_site_type_symbol
_atom_site_label
_atom_site_fract_x
_atom_site_fract_y
_atom_site_fract_z
Si Si1 0.577058 0.781369 0.310794
Si Si2 0.460154 0.049189 0.321356
Si Si3 0.527511 0.550681 0.891720
Si Si4 0.414826 0.824545 0.908576
Si Si5 0.948674 0.241462 0.642300
Si Si6 0.071339 0.176930 0.166140
O O1 0.650402 0.863263 0.420835
O O2 0.463053 0.604165 0.293969
O O3 0.287633 0.850584 0.551686
O O4 0.831602 0.792578 0.015538
O O5 0.579997 0.166230 0.215518
O O6 0.196744 0.921329 0.404406
O O7 0.736565 0.954159 0.051870
O O8 0.816074 0.677101 0.747898
O O9 0.500000 0.500000 0.000000
O O10 0.240741 0.633852 0.157809
O O11 0.693455 0.739197 0.654920
O O12 0.123713 0.765839 0.176057
O O13 0.500000 0.000000 0.000000
#
# Coordination Sequence:
#
# PCOD9002133 Si02
#       6
#     2   2   2   2   2   2
#     4  11  22  36  55  85 113 142 182 228 273 322
#     4  10  21  36  58  83 111 144 182 230 274 316
#     4   9  21  39  59  81 111 148 181 220 274 332
#     4  10  21  37  58  83 109 145 186 225 268 323
#     4  10  22  38  58  82 110 144 186 224 267 327
#     4  10  22  36  56  82 113 145 181 223 274 328
#
# _framework density 24.385708999999999
#
# number of rings (size 3 to 8) (size 9 to 14) (size 15 to 20)
#    0.000    2.000    0.000    3.500    0.000   20.000 
#    0.000    1.667    0.000    0.000    0.000    0.000 
#    0.000    0.000    0.000    0.000    0.000    0.000 
#
# Total GULP energy -67252.322454 kJ/mol
# GULP energy per Si atom -5604.360205 kJ/mol
# Density = 2.433021 g / cm^3
# Si number density = 24.385709 Si / 1000 Ang^3
#
#
#
# Elastic Constant Matrix: (Units=GPa)
#
#
# Indices 1 2 3 4 5 6 
#
# 1 87.1212 52.1813 25.4561 11.3540 25.5885 -5.0406
# 2 52.1813 76.3801 24.2539 13.0199 13.5745 1.4002
# 3 25.4561 24.2539 102.1521 3.3364 5.7925 8.5555
# 4 11.3540 13.0199 3.3364 23.6612 -0.6858 -1.4426
# 5 25.5885 13.5745 5.7925 -0.6858 43.9284 1.4211
# 6 -5.0406 1.4002 8.5555 -1.4426 1.4211 38.6853
#
#
#
# Elastic Compliance Matrix: (Units=1/GPa)
#
#
# Indices 1 2 3 4 5 6 
#
# 1 0.023570 -0.013049 -0.002469 -0.003797 -0.009570 0.004299
# 2 -0.013049 0.023727 -0.001994 -0.006644 0.000506 -0.002385
# 3 -0.002469 -0.001994 0.011045 0.000580 0.000694 -0.002696
# 4 -0.003797 -0.006644 0.000580 0.047876 0.004896 0.001223
# 5 -0.009570 0.000506 0.000694 0.004896 0.028241 -0.002274
# 6 0.004299 -0.002385 -0.002696 0.001223 -0.002274 0.027222
#
#
# Mechanical properties :
#
#
# Convention : Reuss Voigt Hill
#
# Bulk Modulus (GPa) = 42.88364 52.15954 47.52159
# Shear Modulus (GPa) = 24.45269 32.17246 28.31258
#
# Velocity S-wave (km/s) = 3.17005 3.63618 3.41109
# Velocity P-wave (km/s) = 5.56980 6.25019 5.91978
#
# Compressibility (1/GPa) = 0.02331891
#
# Stress axis : x y z
#
# Youngs Moduli (GPa) = 42.42707 42.14633 90.53573
#
# Poissons Ratio (x) = 0.54998 0.22350
# Poissons Ratio (y) = 0.55365 0.18049
# Poissons Ratio (z) = 0.10474 0.08402
#
# Static dielectric constant tensor:
#      x y z
#    x 1.966180 -0.007130 0.015400 
#    y -0.007130 1.974940 -0.027270 
#    z 0.015400 -0.027270 1.913340 
# 
# From -- ./inp_files/423373.got.cif
#   From: 2010.05.17/outbox.cif.g08.bks.cpg/sg2_212_cif.got.tgz:423373.got - 2010.06.03 11:33:40.
