data_PCOD9002080
_publ_section_title
;
Structure prediction by ZEFSAII (Michael W. Deem and Ramdas Pophale) SiO2 
 PCOD9002080
Probable space group: P -1
;
_chemical_formula_sum "Si O2"
_cell_formula_units_Z 16
_cell_length_a 27.864473
_cell_length_b 16.691821
_cell_length_c 5.338247
_cell_angle_alpha 61.982335
_cell_angle_beta 59.161672
_cell_angle_gamma 17.529362
_cell_volume 640.347869
_symmetry_space_group_name_H-M "P -1"
_symmetry_group_IT_number 2
_symmetry_cell_setting 'triclinic'
loop_
_space_group_symop_operation_xyz
x,y,z
-x,-y,-z
loop_
_atom_site_type_symbol
_atom_site_label
_atom_site_fract_x
_atom_site_fract_y
_atom_site_fract_z
Si Si1 0.810298 0.621186 0.907806
Si Si2 0.915460 0.721991 0.978315
Si Si3 0.339006 0.659701 0.918386
Si Si4 0.468504 0.146932 0.265138
Si Si5 0.669517 0.993886 0.511701
Si Si6 0.267209 0.470006 0.813993
Si Si7 0.717618 0.079487 0.594136
Si Si8 0.712409 0.372910 0.392579
O O1 0.754704 0.765164 0.602950
O O2 0.811171 0.510518 0.045568
O O3 0.975199 0.403836 0.910290
O O4 0.654191 0.894169 0.092561
O O5 0.873852 0.858684 0.676576
O O6 0.734960 0.958984 0.173200
O O7 0.000000 0.500000 0.000000
O O8 0.536879 0.362953 0.785957
O O9 0.283805 0.846452 0.737949
O O10 0.269613 0.707263 0.799144
O O11 0.286496 0.695239 0.269719
O O12 0.360693 0.352424 0.474403
O O13 0.500000 0.000000 0.500000
O O14 0.377718 0.282683 0.041984
O O15 0.738165 0.946384 0.632579
O O16 0.474777 0.301355 0.596541
O O17 0.179101 0.700836 0.767584
#
# Coordination Sequence:
#
# PCOD9002080 Si02
#       8
#     2   2   2   2   2   2   2   2
#     4  11  23  38  56  90 128 173 199 249 310 385
#     4  12  25  38  60  90 133 172 208 244 314 390
#     4  10  23  41  68  92 118 163 209 279 306 359
#     4  10  21  36  57  85 120 168 206 248 300 367
#     4  11  23  38  59  90 130 167 206 252 313 380
#     4  11  23  39  61  90 126 164 208 258 311 367
#     4  10  23  41  61  89 125 161 214 254 323 361
#     4  11  22  38  68  93 121 153 217 266 319 351
#
# _framework density 24.986416999999999
#
# number of rings (size 3 to 8) (size 9 to 14) (size 15 to 20)
#    0.000    1.250    3.750    2.625    5.250    2.500 
#    0.000    0.000    0.000    1.500    0.000    0.000 
#    0.000    0.000    0.000    0.000    0.000    0.000 
#
# Total GULP energy -89276.050550 kJ/mol
# GULP energy per Si atom -5579.753159 kJ/mol
# Density = 2.492955 g / cm^3
# Si number density = 24.986417 Si / 1000 Ang^3
#
#
#
# Elastic Constant Matrix: (Units=GPa)
#
#
# Indices 1 2 3 4 5 6 
#
# 1 131.9115 20.7927 43.1716 -2.8556 -15.8251 -2.6756
# 2 20.7927 27.8615 23.3114 -8.8104 -3.4603 4.3030
# 3 43.1716 23.3114 127.6809 -33.4598 -9.8874 -13.9139
# 4 -2.8556 -8.8104 -33.4598 31.5290 3.1413 -1.9180
# 5 -15.8251 -3.4603 -9.8874 3.1413 51.3365 -7.2434
# 6 -2.6756 4.3030 -13.9139 -1.9180 -7.2434 18.6744
#
#
#
# Elastic Compliance Matrix: (Units=1/GPa)
#
#
# Indices 1 2 3 4 5 6 
#
# 1 0.009711 -0.005917 -0.002979 -0.004112 0.002421 0.001052
# 2 -0.005917 0.051662 -0.008988 0.003440 -0.003150 -0.020317
# 3 -0.002979 -0.008988 0.016645 0.015599 0.003105 0.016853
# 4 -0.004112 0.003440 0.015599 0.049705 0.001155 0.015794
# 5 0.002421 -0.003150 0.003105 0.001155 0.022253 0.012136
# 6 0.001052 -0.020317 0.016853 0.015794 0.012136 0.077268
#
#
# Mechanical properties :
#
#
# Convention : Reuss Voigt Hill
#
# Bulk Modulus (GPa) = 23.66847 51.33393 37.50120
# Shear Modulus (GPa) = 18.04432 33.65321 25.84877
#
# Velocity S-wave (km/s) = 2.69023 3.67394 3.21987
# Velocity P-wave (km/s) = 4.37526 6.21180 5.37258
#
# Compressibility (1/GPa) = 0.04225030
#
# Stress axis : x y z
#
# Youngs Moduli (GPa) = 102.97394 19.35648 60.07862
#
# Poissons Ratio (x) = 0.11454 0.17896
# Poissons Ratio (y) = 0.60932 0.53999
# Poissons Ratio (z) = 0.30673 0.17398
#
# Static dielectric constant tensor:
#      x y z
#    x 2.031270 0.018490 0.062840 
#    y 0.018490 1.966270 0.117020 
#    z 0.062840 0.117020 2.246760 
# 
# From -- ./inp_files/127491.got.cif
#   From: 2010.05.17/outbox.cif.g08.bks.cpg/sg2_64_cif.got.tgz:127491.got - 2010.06.03 11:33:40.
