data_PCOD9002344
_publ_section_title
;
Structure prediction by ZEFSAII (Michael W. Deem and Ramdas Pophale) SiO2 
 PCOD9002344
Probable space group: P -1
;
_chemical_formula_sum "Si O2"
_cell_formula_units_Z 16
_cell_length_a 11.606176
_cell_length_b 7.677206
_cell_length_c 9.206019
_cell_angle_alpha 76.305051
_cell_angle_beta 54.137493
_cell_angle_gamma 87.005220
_cell_volume 641.973942
_symmetry_space_group_name_H-M "P -1"
_symmetry_group_IT_number 2
_symmetry_cell_setting 'triclinic'
loop_
_space_group_symop_operation_xyz
x,y,z
-x,-y,-z
loop_
_atom_site_type_symbol
_atom_site_label
_atom_site_fract_x
_atom_site_fract_y
_atom_site_fract_z
Si Si1 0.347670 0.711541 0.342737
Si Si2 0.433079 0.276080 0.063727
Si Si3 0.366643 0.112597 0.745285
Si Si4 0.807022 0.986556 0.658424
Si Si5 0.960106 0.965373 0.280863
Si Si6 0.136845 0.789894 0.950567
Si Si7 0.426760 0.346666 0.392382
Si Si8 0.722943 0.555197 0.103645
O O1 0.477299 0.830609 0.310279
O O2 0.327062 0.507410 0.455210
O O3 0.206179 0.808818 0.418995
O O4 0.418591 0.699147 0.133948
O O5 0.348137 0.079451 0.151069
O O6 0.441971 0.309419 0.219412
O O7 0.327944 0.396119 0.030280
O O8 0.385236 0.171956 0.553025
O O9 0.263202 0.252891 0.862449
O O10 0.287105 0.912345 0.857531
O O11 0.841768 0.888544 0.502047
O O12 0.917977 0.962210 0.707700
O O13 0.909244 0.117369 0.182605
O O14 0.025166 0.826771 0.152033
O O15 0.159214 0.581620 0.958201
O O16 0.583540 0.442751 0.301370
#
# Coordination Sequence:
#
# PCOD9002344 Si02
#       8
#     2   2   2   2   2   2   2   2
#     4  10  21  37  65  95 130 161 191 257 333 370
#     4  10  21  39  60 102 122 158 205 253 319 391
#     4  10  22  41  64 103 123 156 208 259 315 392
#     4  11  23  41  67  85 132 163 210 263 306 362
#     4  10  25  43  61  92 118 174 220 256 293 366
#     4  11  24  44  69  85 128 170 213 257 312 359
#     4  10  21  36  60 101 133 149 202 254 322 389
#     4  10  22  39  64  92 133 163 196 258 323 370
#
# _framework density 24.923127000000001
#
# number of rings (size 3 to 8) (size 9 to 14) (size 15 to 20)
#    0.000    2.000    0.000    5.625    8.750    0.500 
#    0.000    6.250    2.750    0.000    0.000    0.000 
#    0.000    0.000    0.000    0.000    0.000    0.000 
#
# Total GULP energy -89456.228629 kJ/mol
# GULP energy per Si atom -5591.014289 kJ/mol
# Density = 2.486640 g / cm^3
# Si number density = 24.923127 Si / 1000 Ang^3
#
#
#
# Elastic Constant Matrix: (Units=GPa)
#
#
# Indices 1 2 3 4 5 6 
#
# 1 78.7551 28.4520 29.3730 15.2500 27.3059 -9.9467
# 2 28.4520 88.5567 5.3004 6.3139 5.9375 -29.4657
# 3 29.3730 5.3004 115.1415 2.4976 31.5571 -9.2327
# 4 15.2500 6.3139 2.4976 19.3407 9.7256 -4.5742
# 5 27.3059 5.9375 31.5571 9.7256 39.8567 0.0783
# 6 -9.9467 -29.4657 -9.2327 -4.5742 0.0783 41.3910
#
#
#
# Elastic Compliance Matrix: (Units=1/GPa)
#
#
# Indices 1 2 3 4 5 6 
#
# 1 0.020399 -0.005260 -0.002317 -0.009636 -0.009005 -0.000407
# 2 -0.005260 0.016466 0.001552 0.001383 -0.000438 0.010958
# 3 -0.002317 0.001552 0.011991 0.005445 -0.009474 0.003843
# 4 -0.009636 0.001383 0.005445 0.067068 -0.014295 0.007322
# 5 -0.009005 -0.000438 -0.009474 -0.014295 0.042326 -0.006249
# 6 -0.000407 0.010958 0.003843 0.007322 -0.006249 0.033541
#
#
# Mechanical properties :
#
#
# Convention : Reuss Voigt Hill
#
# Bulk Modulus (GPa) = 27.16916 45.41158 36.29037
# Shear Modulus (GPa) = 23.13651 34.73955 28.93803
#
# Velocity S-wave (km/s) = 3.05013 3.73750 3.41118
# Velocity P-wave (km/s) = 4.83004 6.07334 5.48702
#
# Compressibility (1/GPa) = 0.03680644
#
# Stress axis : x y z
#
# Youngs Moduli (GPa) = 49.02280 60.73140 83.39417
#
# Poissons Ratio (x) = 0.31943 0.19325
# Poissons Ratio (y) = 0.25785 -0.12946
# Poissons Ratio (z) = 0.11360 -0.09428
#
# Static dielectric constant tensor:
#      x y z
#    x 2.052670 0.022830 -0.045070 
#    y 0.022830 2.021590 -0.003200 
#    z -0.045070 -0.003200 1.993740 
# 
# From -- ./inp_files/238216.got.cif
#   From: 2010.05.17/outbox.cif.g08.bks.cpg/sg2_120_cif.got.tgz:238216.got - 2010.06.03 11:33:40.
