data_PCOD9002862
_publ_section_title
;
Structure prediction by ZEFSAII (Michael W. Deem and Ramdas Pophale) SiO2 
 PCOD9002862
Probable space group: P -1
;
_chemical_formula_sum "Si O2"
_cell_formula_units_Z 16
_cell_length_a 18.503960
_cell_length_b 8.284839
_cell_length_c 11.808330
_cell_angle_alpha 128.774603
_cell_angle_beta 29.541081
_cell_angle_gamma 115.009344
_cell_volume 659.809165
_symmetry_space_group_name_H-M "P -1"
_symmetry_group_IT_number 2
_symmetry_cell_setting 'triclinic'
loop_
_space_group_symop_operation_xyz
x,y,z
-x,-y,-z
loop_
_atom_site_type_symbol
_atom_site_label
_atom_site_fract_x
_atom_site_fract_y
_atom_site_fract_z
Si Si1 0.084070 0.625935 0.523019
Si Si2 0.267129 0.098504 0.269933
Si Si3 0.018643 0.229874 0.039200
Si Si4 0.323486 0.991744 0.892199
Si Si5 0.666153 0.684568 0.336869
Si Si6 0.350691 0.398090 0.915235
Si Si7 0.961768 0.127992 0.834614
Si Si8 0.552480 0.651055 0.722699
O O1 0.000000 0.500000 0.500000
O O2 0.058396 0.605697 0.682179
O O3 0.257878 0.544367 0.207654
O O4 0.018231 0.879182 0.692785
O O5 0.342463 0.263747 0.299410
O O6 0.095014 0.138724 0.570919
O O7 0.270509 0.114527 0.137227
O O8 0.389012 0.854389 0.024892
O O9 0.198096 0.212018 0.785577
O O10 0.955636 0.277801 0.018844
O O11 0.000000 0.000000 0.000000
O O12 0.324498 0.166640 0.870731
O O13 0.500859 0.849390 0.598920
O O14 0.206196 0.854965 0.975250
O O15 0.709430 0.529983 0.099116
O O16 0.628905 0.610215 0.477097
O O17 0.516695 0.431929 0.710883
#
# Coordination Sequence:
#
# PCOD9002862 Si02
#       8
#     2   2   2   2   2   2   2   2
#     4  11  20  36  63  97 123 161 216 262 311 363
#     4  10  21  39  63  91 127 166 213 255 316 378
#     4  10  21  36  66  95 121 165 214 263 303 377
#     4  11  25  38  64  97 129 167 206 261 326 380
#     4  11  22  42  64  94 128 166 215 257 320 378
#     4  12  22  39  64  94 131 162 209 266 316 374
#     4  11  20  41  65  91 127 170 213 255 313 384
#     4  10  22  39  64  94 122 167 214 262 307 376
#
# _framework density 24.249435999999999
#
# number of rings (size 3 to 8) (size 9 to 14) (size 15 to 20)
#    0.000    1.250    5.000    1.875    0.000    0.500 
#    0.000    1.250    0.000    1.500    0.000    0.000 
#    0.000    0.000    0.000    0.000    0.000    0.000 
#
# Total GULP energy -89496.282593 kJ/mol
# GULP energy per Si atom -5593.517662 kJ/mol
# Density = 2.419424 g / cm^3
# Si number density = 24.249436 Si / 1000 Ang^3
#
#
#
# Elastic Constant Matrix: (Units=GPa)
#
#
# Indices 1 2 3 4 5 6 
#
# 1 143.0995 52.8156 72.4717 -23.3114 29.0481 22.4876
# 2 52.8156 108.7121 57.0071 -38.4199 1.3893 26.6549
# 3 72.4717 57.0071 151.3700 -39.6828 24.4790 7.7754
# 4 -23.3114 -38.4199 -39.6828 50.1365 2.2834 -1.9195
# 5 29.0481 1.3893 24.4790 2.2834 48.5390 -5.8361
# 6 22.4876 26.6549 7.7754 -1.9195 -5.8361 30.8010
#
#
#
# Elastic Compliance Matrix: (Units=1/GPa)
#
#
# Indices 1 2 3 4 5 6 
#
# 1 0.012050 -0.001476 -0.003254 0.001895 -0.006558 -0.007823
# 2 -0.001476 0.018515 -0.002620 0.010926 -0.000486 -0.013695
# 3 -0.003254 -0.002620 0.011106 0.005494 -0.003658 0.001489
# 4 0.001895 0.010926 0.005494 0.033434 -0.007173 -0.011501
# 5 -0.006558 -0.000486 -0.003658 -0.007173 0.028045 0.010999
# 6 -0.007823 -0.013695 0.001489 -0.011501 0.010999 0.051021
#
#
# Mechanical properties :
#
#
# Convention : Reuss Voigt Hill
#
# Bulk Modulus (GPa) = 37.07648 85.30783 61.19216
# Shear Modulus (GPa) = 28.11164 40.62112 34.36638
#
# Velocity S-wave (km/s) = 3.40850 4.09728 3.76866
# Velocity P-wave (km/s) = 5.55097 7.59206 6.65029
#
# Compressibility (1/GPa) = 0.02697128
#
# Stress axis : x y z
#
# Youngs Moduli (GPa) = 82.98462 54.01064 90.03951
#
# Poissons Ratio (x) = 0.07973 0.29301
# Poissons Ratio (y) = 0.12250 0.23588
# Poissons Ratio (z) = 0.27005 0.14149
#
# Static dielectric constant tensor:
#      x y z
#    x 1.944480 0.001240 -0.012830 
#    y 0.001240 1.942550 0.031340 
#    z -0.012830 0.031340 2.005430 
# 
# From -- ./inp_files/257647.got.cif
#   From: 2010.05.17/outbox.cif.g08.bks.cpg/sg2_129_cif.got.tgz:257647.got - 2010.06.03 11:33:40.
