data_PCOD9002442
_publ_section_title
;
Structure prediction by ZEFSAII (Michael W. Deem and Ramdas Pophale) SiO2 
 PCOD9002442
Probable space group: P -1
;
_chemical_formula_sum "Si O2"
_cell_formula_units_Z 16
_cell_length_a 14.820210
_cell_length_b 9.446288
_cell_length_c 19.830264
_cell_angle_alpha 88.384373
_cell_angle_beta 18.563263
_cell_angle_gamma 97.749681
_cell_volume 761.099414
_symmetry_space_group_name_H-M "P -1"
_symmetry_group_IT_number 2
_symmetry_cell_setting 'triclinic'
loop_
_space_group_symop_operation_xyz
x,y,z
-x,-y,-z
loop_
_atom_site_type_symbol
_atom_site_label
_atom_site_fract_x
_atom_site_fract_y
_atom_site_fract_z
Si Si1 0.180077 0.398704 0.890957
Si Si2 0.530424 0.121617 0.306472
Si Si3 0.674877 0.446250 0.774715
Si Si4 0.969773 0.878769 0.135649
Si Si5 0.672693 0.218679 0.482743
Si Si6 0.160847 0.240747 0.034526
Si Si7 0.213418 0.302520 0.593181
Si Si8 0.767168 0.428347 0.866866
O O1 0.496348 0.506982 0.618491
O O2 0.313420 0.388192 0.870016
O O3 0.000000 0.500000 0.000000
O O4 0.852951 0.218010 0.124158
O O5 0.309057 0.203736 0.473119
O O6 0.351927 0.932635 0.455982
O O7 0.727154 0.147579 0.097398
O O8 0.710531 0.406385 0.827248
O O9 0.000000 0.500000 0.500000
O O10 0.393024 0.294448 0.934686
O O11 0.540358 0.574145 0.877664
O O12 0.694304 0.817927 0.272474
O O13 0.804655 0.778094 0.321279
O O14 0.108691 0.070887 0.045740
O O15 0.822974 0.218459 0.303353
O O16 0.928032 0.386705 0.336534
O O17 0.882406 0.305096 0.813069
#
# Coordination Sequence:
#
# PCOD9002442 Si02
#       8
#     2   2   2   2   2   2   2   2
#     4  10  21  36  60  97 134 173 208 254 320 378
#     4  11  23  37  61  94 138 174 208 254 319 388
#     4  10  23  43  69  94 119 164 225 273 313 376
#     4  12  24  37  65  99 136 175 213 246 332 395
#     4  11  21  40  66  97 135 170 213 267 308 394
#     4  11  22  40  69  95 127 176 216 259 324 390
#     4  11  24  42  60  95 140 167 208 275 315 380
#     4  10  24  42  67  95 123 166 220 267 327 368
#
# _framework density 21.022220999999998
#
# number of rings (size 3 to 8) (size 9 to 14) (size 15 to 20)
#    0.000    1.250    2.500    3.750    3.500    7.000 
#    0.000    0.625    0.000    1.500    0.000    0.000 
#    0.000    0.000    0.000    0.000    0.000    0.000 
#
# Total GULP energy -89167.657009 kJ/mol
# GULP energy per Si atom -5572.978563 kJ/mol
# Density = 2.097437 g / cm^3
# Si number density = 21.022221 Si / 1000 Ang^3
#
#
#
# Elastic Constant Matrix: (Units=GPa)
#
#
# Indices 1 2 3 4 5 6 
#
# 1 80.6301 32.4081 24.2128 -0.2816 -4.4335 5.9647
# 2 32.4081 97.3771 40.8915 14.5891 -4.0511 -0.7758
# 3 24.2128 40.8915 89.7443 21.4939 15.4198 -6.6074
# 4 -0.2816 14.5891 21.4939 35.5630 -6.6583 -2.0645
# 5 -4.4335 -4.0511 15.4198 -6.6583 28.0882 6.2836
# 6 5.9647 -0.7758 -6.6074 -2.0645 6.2836 22.8074
#
#
#
# Elastic Compliance Matrix: (Units=1/GPa)
#
#
# Indices 1 2 3 4 5 6 
#
# 1 0.017112 -0.003469 -0.007048 0.007131 0.009698 -0.008661
# 2 -0.003469 0.014509 -0.006427 -0.001233 0.005232 -0.002014
# 3 -0.007048 -0.006427 0.024516 -0.015614 -0.022204 0.013431
# 4 0.007131 -0.001233 -0.015614 0.041609 0.021291 -0.008530
# 5 0.009698 0.005232 -0.022204 0.021291 0.060381 -0.023499
# 6 -0.008661 -0.002014 0.013431 -0.008530 -0.023499 0.055635
#
#
# Mechanical properties :
#
#
# Convention : Reuss Voigt Hill
#
# Bulk Modulus (GPa) = 44.94576 51.41957 48.18266
# Shear Modulus (GPa) = 19.60257 28.64099 24.12178
#
# Velocity S-wave (km/s) = 3.05695 3.69509 3.39107
# Velocity P-wave (km/s) = 5.82121 6.53588 6.18887
#
# Compressibility (1/GPa) = 0.02224904
#
# Stress axis : x y z
#
# Youngs Moduli (GPa) = 58.43789 68.92213 40.78916
#
# Poissons Ratio (x) = 0.23912 0.28748
# Poissons Ratio (y) = 0.20275 0.26215
# Poissons Ratio (z) = 0.41187 0.44295
#
# Static dielectric constant tensor:
#      x y z
#    x 1.532920 -0.048100 -0.039390 
#    y -0.048100 1.776400 0.025770 
#    z -0.039390 0.025770 1.811090 
# 
# From -- ./inp_files/597368.got.cif
#   From: 2010.05.17/outbox.cif.g08.bks.cpg/sg2_299_cif.got.tgz:597368.got - 2010.06.03 11:33:40.
