data_PCOD9002385
_publ_section_title
;
Structure prediction by ZEFSAII (Michael W. Deem and Ramdas Pophale) SiO2 
 PCOD9002385
Probable space group: P -1
;
_chemical_formula_sum "Si O2"
_cell_formula_units_Z 14
_cell_length_a 11.443632
_cell_length_b 10.624045
_cell_length_c 9.461864
_cell_angle_alpha 112.799236
_cell_angle_beta 51.693731
_cell_angle_gamma 138.834383
_cell_volume 587.169792
_symmetry_space_group_name_H-M "P -1"
_symmetry_group_IT_number 2
_symmetry_cell_setting 'triclinic'
loop_
_space_group_symop_operation_xyz
x,y,z
-x,-y,-z
loop_
_atom_site_type_symbol
_atom_site_label
_atom_site_fract_x
_atom_site_fract_y
_atom_site_fract_z
Si Si1 0.242377 0.114271 0.957903
Si Si2 0.456317 0.599527 0.371024
Si Si3 0.982999 0.306476 0.083096
Si Si4 0.323496 0.943208 0.007199
Si Si5 0.094118 0.300609 0.291669
Si Si6 0.393743 0.605154 0.736616
Si Si7 0.152315 0.969085 0.389268
O O1 0.352224 0.197185 0.760029
O O2 0.393835 0.128420 0.957274
O O3 0.187334 0.221487 0.117866
O O4 0.047989 0.880462 0.993988
O O5 0.278480 0.475807 0.330172
O O6 0.365558 0.593406 0.583895
O O7 0.543562 0.507238 0.307625
O O8 0.184708 0.496657 0.935980
O O9 0.769955 0.208835 0.116288
O O10 0.013930 0.342902 0.242430
O O11 0.132328 0.859617 0.219931
O O12 0.500000 0.000000 0.000000
O O13 0.907008 0.141449 0.469333
O O14 0.607239 0.826483 0.702073
O O15 0.000000 0.000000 0.500000
#
# Coordination Sequence:
#
# PCOD9002385 Si02
#       7
#     2   2   2   2   2   2   2
#     4  10  21  36  60  88 129 157 202 251 315 355
#     4  11  22  32  57  92 135 156 196 255 318 359
#     4  10  23  36  62  88 123 165 203 254 309 367
#     4  10  24  44  64  87 125 169 207 248 307 371
#     4  12  21  35  59 100 123 153 204 263 310 361
#     4  11  23  35  57  97 131 157 200 255 311 368
#     4  12  22  39  64  95 123 163 203 257 307 357
#
# _framework density 23.843187
#
# number of rings (size 3 to 8) (size 9 to 14) (size 15 to 20)
#    0.857    0.286    4.286    2.571    8.000    0.000 
#    0.000    1.429    0.000    1.714    0.000    0.000 
#    0.000    0.000    0.000    0.000    0.000    0.000 
#
# Total GULP energy -78201.502440 kJ/mol
# GULP energy per Si atom -5585.821603 kJ/mol
# Density = 2.378892 g / cm^3
# Si number density = 23.843187 Si / 1000 Ang^3
#
#
#
# Elastic Constant Matrix: (Units=GPa)
#
#
# Indices 1 2 3 4 5 6 
#
# 1 130.5199 38.6229 56.4225 4.6737 38.0078 31.9026
# 2 38.6229 83.5409 30.0558 -18.0413 18.7356 18.6511
# 3 56.4225 30.0558 125.0447 -17.5975 52.9482 -4.2827
# 4 4.6737 -18.0413 -17.5975 45.6727 -2.2320 10.5806
# 5 38.0078 18.7356 52.9482 -2.2320 49.6321 6.6940
# 6 31.9026 18.6511 -4.2827 10.5806 6.6940 40.2747
#
#
#
# Elastic Compliance Matrix: (Units=1/GPa)
#
#
# Indices 1 2 3 4 5 6 
#
# 1 0.013740 -0.002274 -0.004874 -0.002209 -0.003321 -0.009217
# 2 -0.002274 0.017723 -0.001610 0.008506 -0.001699 -0.008530
# 3 -0.004874 -0.001610 0.018239 0.004232 -0.016020 0.008097
# 4 -0.002209 0.008506 0.004232 0.028967 -0.003550 -0.008759
# 5 -0.003321 -0.001699 -0.016020 -0.003550 0.040821 -0.004139
# 6 -0.009217 -0.008530 0.008097 -0.008759 -0.004139 0.039931
#
#
# Mechanical properties :
#
#
# Convention : Reuss Voigt Hill
#
# Bulk Modulus (GPa) = 31.06727 65.47867 48.27297
# Shear Modulus (GPa) = 26.64316 41.38286 34.01301
#
# Velocity S-wave (km/s) = 3.34643 4.17060 3.78104
# Velocity P-wave (km/s) = 5.29052 7.12136 6.27309
#
# Compressibility (1/GPa) = 0.03218821
#
# Stress axis : x y z
#
# Youngs Moduli (GPa) = 72.77780 56.42461 54.82643
#
# Poissons Ratio (x) = 0.12828 0.26722
# Poissons Ratio (y) = 0.16546 0.08825
# Poissons Ratio (z) = 0.35472 0.09083
#
# Static dielectric constant tensor:
#      x y z
#    x 2.026720 0.008250 -0.028100 
#    y 0.008250 1.964410 0.039190 
#    z -0.028100 0.039190 1.893410 
# 
# From -- ./inp_files/270438.got.cif
#   From: 2010.05.17/outbox.cif.g08.bks.cpg/sg2_136_cif.got.tgz:270438.got - 2010.06.03 11:33:40.
