data_PCOD9002902
_publ_section_title
;
Structure prediction by ZEFSAII (Michael W. Deem and Ramdas Pophale) SiO2 
 PCOD9002902
Probable space group: P -1
;
_chemical_formula_sum "Si O2"
_cell_formula_units_Z 14
_cell_length_a 16.820752
_cell_length_b 9.349080
_cell_length_c 10.262592
_cell_angle_alpha 94.354430
_cell_angle_beta 134.548083
_cell_angle_gamma 48.699214
_cell_volume 596.949345
_symmetry_space_group_name_H-M "P -1"
_symmetry_group_IT_number 2
_symmetry_cell_setting 'triclinic'
loop_
_space_group_symop_operation_xyz
x,y,z
-x,-y,-z
loop_
_atom_site_type_symbol
_atom_site_label
_atom_site_fract_x
_atom_site_fract_y
_atom_site_fract_z
Si Si1 0.583004 0.305741 0.198797
Si Si2 0.701558 0.984298 0.674710
Si Si3 0.455016 0.687416 0.241125
Si Si4 0.070714 0.480476 0.913452
Si Si5 0.267478 0.369397 0.576801
Si Si6 0.409472 0.225113 0.110910
Si Si7 0.068959 0.088193 0.615360
O O1 0.588132 0.398438 0.339168
O O2 0.428154 0.345501 0.054488
O O3 0.804308 0.003252 0.375082
O O4 0.500000 0.500000 0.000000
O O5 0.929353 0.752841 0.846436
O O6 0.621759 0.195833 0.693779
O O7 0.527640 0.140635 0.376191
O O8 0.751219 0.791828 0.810862
O O9 0.605582 0.651763 0.362635
O O10 0.241669 0.909956 0.920543
O O11 0.903550 0.537604 0.692714
O O12 0.181635 0.417598 0.907730
O O13 0.127084 0.600878 0.540812
O O14 0.448857 0.057818 0.804869
O O15 0.000000 0.000000 0.500000
#
# Coordination Sequence:
#
# PCOD9002902 Si02
#       7
#     2   2   2   2   2   2   2
#     4  10  25  47  65  88 137 180 218 277 328 383
#     4  10  21  36  69  97 137 169 210 273 328 399
#     4  11  22  42  68  97 130 178 215 264 340 388
#     4  10  21  38  65 106 134 168 209 270 338 394
#     4  11  21  39  71 100 130 171 224 269 324 397
#     4  11  23  42  65 102 135 168 222 273 328 391
#     4  11  22  42  68  93 125 178 224 266 325 393
#
# _framework density 23.452575
#
# number of rings (size 3 to 8) (size 9 to 14) (size 15 to 20)
#    0.000    1.429    4.286    0.429    4.000    1.143 
#   10.286    7.143    0.000    0.000    0.000    0.000 
#    0.000    0.000    0.000    0.000    0.000    0.000 
#
# Total GULP energy -78281.033057 kJ/mol
# GULP energy per Si atom -5591.502361 kJ/mol
# Density = 2.339920 g / cm^3
# Si number density = 23.452575 Si / 1000 Ang^3
#
#
#
# Elastic Constant Matrix: (Units=GPa)
#
#
# Indices 1 2 3 4 5 6 
#
# 1 111.9118 51.8515 42.1008 -6.6825 29.4581 1.2165
# 2 51.8515 185.0984 26.0687 -9.3840 10.6608 -47.6612
# 3 42.1008 26.0687 95.6701 13.6300 10.0636 -12.6797
# 4 -6.6825 -9.3840 13.6300 28.3238 2.5975 4.7014
# 5 29.4581 10.6608 10.0636 2.5975 28.7771 3.5914
# 6 1.2165 -47.6612 -12.6797 4.7014 3.5914 48.4613
#
#
#
# Elastic Compliance Matrix: (Units=1/GPa)
#
#
# Indices 1 2 3 4 5 6 
#
# 1 0.018140 -0.004466 -0.007378 0.008753 -0.014305 -0.006567
# 2 -0.004466 0.008888 0.000750 0.000038 -0.000117 0.009055
# 3 -0.007378 0.000750 0.015487 -0.010096 0.002046 0.005803
# 4 0.008753 0.000038 -0.010096 0.044105 -0.008618 -0.006464
# 5 -0.014305 -0.000117 0.002046 -0.008618 0.049758 -0.002072
# 6 -0.006567 0.009055 0.005803 -0.006464 -0.002072 0.032004
#
#
# Mechanical properties :
#
#
# Convention : Reuss Voigt Hill
#
# Bulk Modulus (GPa) = 49.19394 70.30250 59.74822
# Shear Modulus (GPa) = 25.33631 39.28974 32.31302
#
# Velocity S-wave (km/s) = 3.29039 4.09746 3.71590
# Velocity P-wave (km/s) = 5.95458 7.24066 6.62888
#
# Compressibility (1/GPa) = 0.02032771
#
# Stress axis : x y z
#
# Youngs Moduli (GPa) = 55.12737 112.51185 64.56884
#
# Poissons Ratio (x) = 0.50243 0.47642
# Poissons Ratio (y) = 0.24618 -0.04844
# Poissons Ratio (z) = 0.40675 -0.08442
#
# Static dielectric constant tensor:
#      x y z
#    x 1.893740 -0.020650 -0.037650 
#    y -0.020650 1.927690 -0.032860 
#    z -0.037650 -0.032860 1.954870 
# 
# From -- ./inp_files/461418.got.cif
#   From: 2010.05.17/outbox.cif.g08.bks.cpg/sg2_231_cif.got.tgz:461418.got - 2010.06.03 11:33:40.
