data_PCOD9002334
_publ_section_title
;
Structure prediction by ZEFSAII (Michael W. Deem and Ramdas Pophale) SiO2 
 PCOD9002334
Probable space group: P -1
;
_chemical_formula_sum "Si O2"
_cell_formula_units_Z 16
_cell_length_a 11.565857
_cell_length_b 6.604242
_cell_length_c 28.203967
_cell_angle_alpha 125.389368
_cell_angle_beta 155.184194
_cell_angle_gamma 64.595247
_cell_volume 707.100354
_symmetry_space_group_name_H-M "P -1"
_symmetry_group_IT_number 2
_symmetry_cell_setting 'triclinic'
loop_
_space_group_symop_operation_xyz
x,y,z
-x,-y,-z
loop_
_atom_site_type_symbol
_atom_site_label
_atom_site_fract_x
_atom_site_fract_y
_atom_site_fract_z
Si Si1 0.713856 0.123077 0.946497
Si Si2 0.848716 0.193697 0.906544
Si Si3 0.908128 0.601771 0.218447
Si Si4 0.894055 0.124273 0.286565
Si Si5 0.084420 0.414930 0.570537
Si Si6 0.143343 0.183321 0.284163
Si Si7 0.446024 0.031459 0.646560
Si Si8 0.255342 0.344644 0.944788
O O1 0.628810 0.108909 0.857535
O O2 0.441364 0.033992 0.867379
O O3 0.865645 0.429153 0.048721
O O4 0.912389 0.946809 0.010138
O O5 0.685563 0.084002 0.783550
O O6 0.000000 0.500000 0.000000
O O7 0.836256 0.642153 0.142410
O O8 0.006409 0.888223 0.316467
O O9 0.592033 0.434173 0.095677
O O10 0.135891 0.443028 0.289659
O O11 0.875381 0.349257 0.345635
O O12 0.065452 0.218716 0.314783
O O13 0.348653 0.293574 0.643183
O O14 0.000000 0.500000 0.500000
O O15 0.827730 0.189510 0.466970
O O16 0.418227 0.078973 0.362780
O O17 0.884808 0.950665 0.134745
#
# Coordination Sequence:
#
# PCOD9002334 Si02
#       8
#     2   2   2   2   2   2   2   2
#     4  10  21  36  59  95 135 170 208 251 307 379
#     4  11  22  37  62  95 132 169 209 258 310 372
#     4   9  19  34  56  89 129 168 203 242 300 374
#     4  10  23  41  65  95 125 167 211 253 313 375
#     4  11  26  49  69  85 120 168 217 271 318 369
#     4  11  22  38  63  94 129 159 202 264 318 372
#     4  11  26  43  66  97 122 164 219 261 316 381
#     4   9  18  32  52  87 129 169 202 237 300 371
#
# _framework density 22.627621000000001
#
# number of rings (size 3 to 8) (size 9 to 14) (size 15 to 20)
#    0.000    1.750    0.000    4.125    0.000   12.500 
#    0.000    1.250    0.000    0.000    0.000    0.000 
#    0.000    0.000    0.000    0.000    0.000    0.000 
#
# Total GULP energy -89280.889918 kJ/mol
# GULP energy per Si atom -5580.055620 kJ/mol
# Density = 2.257612 g / cm^3
# Si number density = 22.627621 Si / 1000 Ang^3
#
#
#
# Elastic Constant Matrix: (Units=GPa)
#
#
# Indices 1 2 3 4 5 6 
#
# 1 129.1261 43.3784 22.7308 -21.1663 -0.7487 -25.9665
# 2 43.3784 165.5783 30.8952 -2.9647 -14.7480 -35.0180
# 3 22.7308 30.8952 28.3775 -2.7381 -4.7451 -5.3902
# 4 -21.1663 -2.9647 -2.7381 26.1228 2.1238 0.3471
# 5 -0.7487 -14.7480 -4.7451 2.1238 17.0976 3.1931
# 6 -25.9665 -35.0180 -5.3902 0.3471 3.1931 29.1003
#
#
#
# Elastic Compliance Matrix: (Units=1/GPa)
#
#
# Indices 1 2 3 4 5 6 
#
# 1 0.012854 0.000162 -0.008327 0.009810 -0.004794 0.010531
# 2 0.000162 0.010160 -0.008491 -0.000109 0.004503 0.010305
# 3 -0.008327 -0.008491 0.050532 -0.002977 0.008419 -0.009177
# 4 0.009810 -0.000109 -0.002977 0.046430 -0.007822 0.008376
# 5 -0.004794 0.004503 0.008419 -0.007822 0.066307 -0.004482
# 6 0.010531 0.010305 -0.009177 0.008376 -0.004482 0.054854
#
#
# Mechanical properties :
#
#
# Convention : Reuss Voigt Hill
#
# Bulk Modulus (GPa) = 24.85555 57.45453 41.15504
# Shear Modulus (GPa) = 17.36955 29.53600 23.45278
#
# Velocity S-wave (km/s) = 2.77361 3.61682 3.22291
# Velocity P-wave (km/s) = 4.61147 6.54892 5.66366
#
# Compressibility (1/GPa) = 0.04023246
#
# Stress axis : x y z
#
# Youngs Moduli (GPa) = 77.79743 98.42637 19.78956
#
# Poissons Ratio (x) = -0.01598 0.16480
# Poissons Ratio (y) = -0.01263 0.16804
# Poissons Ratio (z) = 0.64785 0.83578
#
# Static dielectric constant tensor:
#      x y z
#    x 1.950800 -0.044940 0.019740 
#    y -0.044940 1.904780 0.042560 
#    z 0.019740 0.042560 1.828450 
# 
# From -- ./inp_files/617873.got.cif
#   From: 2010.05.17/outbox.cif.g08.bks.cpg/sg2_309_cif.got.tgz:617873.got - 2010.06.03 11:33:40.
