data_PCOD9002849
_publ_section_title
;
Structure prediction by ZEFSAII (Michael W. Deem and Ramdas Pophale) SiO2 
 PCOD9002849
Probable space group: P -1
;
_chemical_formula_sum "Si O2"
_cell_formula_units_Z 16
_cell_length_a 11.284309
_cell_length_b 7.629872
_cell_length_c 13.702535
_cell_angle_alpha 122.975735
_cell_angle_beta 64.740108
_cell_angle_gamma 84.695280
_cell_volume 808.945872
_symmetry_space_group_name_H-M "P -1"
_symmetry_group_IT_number 2
_symmetry_cell_setting 'triclinic'
loop_
_space_group_symop_operation_xyz
x,y,z
-x,-y,-z
loop_
_atom_site_type_symbol
_atom_site_label
_atom_site_fract_x
_atom_site_fract_y
_atom_site_fract_z
Si Si1 0.848444 0.685212 0.149208
Si Si2 0.771148 0.395009 0.559357
Si Si3 0.618277 0.657197 0.084173
Si Si4 0.930420 0.860353 0.546184
Si Si5 0.453670 0.175409 0.335833
Si Si6 0.728991 0.212950 0.325922
Si Si7 0.314656 0.660187 0.209362
Si Si8 0.787783 0.648157 0.384742
O O1 0.724521 0.625999 0.126737
O O2 0.828191 0.683820 0.272129
O O3 0.823612 0.939644 0.197921
O O4 0.000000 0.500000 0.000000
O O5 0.677270 0.652635 0.632332
O O6 0.721990 0.250725 0.456833
O O7 0.729912 0.380495 0.680166
O O8 0.946030 0.287673 0.464956
O O9 0.484584 0.596800 0.135394
O O10 0.539052 0.932397 0.180084
O O11 0.702911 0.505213 0.916359
O O12 0.894200 0.697134 0.436045
O O13 0.783482 0.069910 0.700608
O O14 0.000000 0.000000 0.500000
O O15 0.574126 0.265811 0.348139
O O16 0.372326 0.172172 0.465220
O O17 0.787773 0.395657 0.321534
#
# Coordination Sequence:
#
# PCOD9002849 Si02
#       8
#     2   2   2   2   2   2   2   2
#     4  11  26  41  67  91 127 175 212 258 335 379
#     4  10  21  36  66  87 126 163 199 269 313 364
#     4  10  23  39  60  90 123 169 209 258 310 388
#     4  10  21  37  65  94 124 163 214 259 315 379
#     4  10  22  41  62  97 126 157 222 261 318 387
#     4  10  24  41  65 101 125 158 225 268 313 393
#     4  10  21  39  61  89 127 162 214 254 312 386
#     4  11  22  42  67  92 130 164 209 278 318 367
#
# _framework density 19.778825999999999
#
# number of rings (size 3 to 8) (size 9 to 14) (size 15 to 20)
#    0.000    1.750    1.250    3.000    8.750    4.000 
#    0.000    0.000    0.000    0.000    0.000    0.000 
#    0.000    0.000    0.000    0.000    0.000    0.000 
#
# Total GULP energy -89201.869891 kJ/mol
# GULP energy per Si atom -5575.116868 kJ/mol
# Density = 1.973381 g / cm^3
# Si number density = 19.778826 Si / 1000 Ang^3
#
#
#
# Elastic Constant Matrix: (Units=GPa)
#
#
# Indices 1 2 3 4 5 6 
#
# 1 106.2034 39.4308 33.4168 8.3214 6.7788 -13.2573
# 2 39.4308 78.6671 44.5366 8.7405 0.1925 -7.4846
# 3 33.4168 44.5366 99.6233 16.9597 3.7744 -18.6612
# 4 8.3214 8.7405 16.9597 22.8102 -0.0092 0.2777
# 5 6.7788 0.1925 3.7744 -0.0092 35.5517 6.1748
# 6 -13.2573 -7.4846 -18.6612 0.2777 6.1748 38.8935
#
#
#
# Elastic Compliance Matrix: (Units=1/GPa)
#
#
# Indices 1 2 3 4 5 6 
#
# 1 0.012336 -0.005223 -0.000737 -0.001992 -0.002821 0.003308
# 2 -0.005223 0.019275 -0.007287 -0.000039 0.001992 -0.001883
# 3 -0.000737 -0.007287 0.016494 -0.009286 -0.002748 0.006763
# 4 -0.001992 -0.000039 -0.009286 0.051559 0.002403 -0.005892
# 5 -0.002821 0.001992 -0.002748 0.002403 0.030110 -0.006694
# 6 0.003308 -0.001883 0.006763 -0.005892 -0.006694 0.030826
#
#
# Mechanical properties :
#
#
# Convention : Reuss Voigt Hill
#
# Bulk Modulus (GPa) = 46.27035 57.69579 51.98307
# Shear Modulus (GPa) = 25.73354 30.59172 28.16263
#
# Velocity S-wave (km/s) = 3.61094 3.93707 3.77752
# Velocity P-wave (km/s) = 6.38982 7.06407 6.73539
#
# Compressibility (1/GPa) = 0.02161211
#
# Stress axis : x y z
#
# Youngs Moduli (GPa) = 81.06281 51.88002 60.62637
#
# Poissons Ratio (x) = 0.27096 0.04470
# Poissons Ratio (y) = 0.42338 0.44176
# Poissons Ratio (z) = 0.05977 0.37803
#
# Static dielectric constant tensor:
#      x y z
#    x 1.718410 0.018900 -0.013320 
#    y 0.018900 1.733320 0.027460 
#    z -0.013320 0.027460 1.706910 
# 
# From -- ./inp_files/513690.got.cif
#   From: 2010.05.17/outbox.cif.g08.bks.cpg/sg2_257_cif.got.tgz:513690.got - 2010.06.03 11:33:40.
