data_PCOD9002879
_publ_section_title
;
Structure prediction by ZEFSAII (Michael W. Deem and Ramdas Pophale) SiO2 
 PCOD9002879
Probable space group: P -1
;
_chemical_formula_sum "Si O2"
_cell_formula_units_Z 14
_cell_length_a 9.121047
_cell_length_b 10.105196
_cell_length_c 16.527142
_cell_angle_alpha 31.038223
_cell_angle_beta 131.045432
_cell_angle_gamma 132.133053
_cell_volume 568.965054
_symmetry_space_group_name_H-M "P -1"
_symmetry_group_IT_number 2
_symmetry_cell_setting 'triclinic'
loop_
_space_group_symop_operation_xyz
x,y,z
-x,-y,-z
loop_
_atom_site_type_symbol
_atom_site_label
_atom_site_fract_x
_atom_site_fract_y
_atom_site_fract_z
Si Si1 0.882691 0.606310 0.473968
Si Si2 0.792107 0.119180 0.792627
Si Si3 0.569543 0.606783 0.076349
Si Si4 0.430393 0.258921 0.814537
Si Si5 0.085711 0.615884 0.704999
Si Si6 0.143791 0.368714 0.233891
Si Si7 0.882783 0.743124 0.891496
O O1 0.728250 0.346388 0.598812
O O2 0.747649 0.778478 0.295027
O O3 0.033450 0.714386 0.547244
O O4 0.000000 0.500000 0.500000
O O5 0.957320 0.300247 0.818601
O O6 0.889887 0.976006 0.834626
O O7 0.637485 0.888241 0.907248
O O8 0.635009 0.646394 0.172903
O O9 0.330835 0.478768 0.054713
O O10 0.686194 0.397744 0.195477
O O11 0.624351 0.492411 0.732421
O O12 0.500000 0.000000 0.000000
O O13 0.994691 0.735735 0.684271
O O14 0.128632 0.190238 0.241850
O O15 0.060699 0.611629 0.043081
#
# Coordination Sequence:
#
# PCOD9002879 Si02
#       7
#     2   2   2   2   2   2   2
#     4  10  23  40  64 100 130 162 215 285 311 381
#     4  10  21  36  67  95 125 167 221 266 310 375
#     4  11  20  38  63  99 125 179 215 262 308 404
#     4  11  23  39  66  96 130 165 218 266 337 373
#     4  10  21  36  69  89 134 160 230 257 322 368
#     4  10  22  38  58  96 132 173 203 272 314 385
#     4  10  22  37  62  94 140 168 218 256 325 380
#
# _framework density 24.606081
#
# number of rings (size 3 to 8) (size 9 to 14) (size 15 to 20)
#    0.857    0.857    2.857    1.714    4.000    0.571 
#    0.000    2.857    0.000    1.714    0.000    0.000 
#    0.000    0.000    0.000    0.000    0.000    0.000 
#
# Total GULP energy -78257.154270 kJ/mol
# GULP energy per Si atom -5589.796734 kJ/mol
# Density = 2.455008 g / cm^3
# Si number density = 24.606081 Si / 1000 Ang^3
#
#
#
# Elastic Constant Matrix: (Units=GPa)
#
#
# Indices 1 2 3 4 5 6 
#
# 1 119.8560 19.5614 23.3244 2.2923 -20.1316 -2.5773
# 2 19.5614 63.6936 6.6000 10.6117 6.5245 11.0713
# 3 23.3244 6.6000 131.9906 9.7169 -15.5011 14.2478
# 4 2.2923 10.6117 9.7169 29.1435 1.1301 -1.3081
# 5 -20.1316 6.5245 -15.5011 1.1301 27.3839 3.5671
# 6 -2.5773 11.0713 14.2478 -1.3081 3.5671 51.4866
#
#
#
# Elastic Compliance Matrix: (Units=1/GPa)
#
#
# Indices 1 2 3 4 5 6 
#
# 1 0.010599 -0.004328 -0.000883 0.000773 0.008140 0.001161
# 2 -0.004328 0.019587 -0.000120 -0.006659 -0.007112 -0.004072
# 3 -0.000883 -0.000120 0.008858 -0.003160 0.004901 -0.002890
# 4 0.000773 -0.006659 -0.003160 0.037948 -0.001646 0.003423
# 5 0.008140 -0.007112 0.004901 -0.001646 0.047396 -0.002745
# 6 0.001161 -0.004072 -0.002890 0.003423 -0.002745 0.021433
#
#
# Mechanical properties :
#
#
# Convention : Reuss Voigt Hill
#
# Bulk Modulus (GPa) = 35.23252 46.05688 40.64470
# Shear Modulus (GPa) = 30.13043 39.33974 34.73509
#
# Velocity S-wave (km/s) = 3.50310 4.00281 3.76126
# Velocity P-wave (km/s) = 5.54184 6.33417 5.95120
#
# Compressibility (1/GPa) = 0.02838287
#
# Stress axis : x y z
#
# Youngs Moduli (GPa) = 94.34857 51.05308 112.88676
#
# Poissons Ratio (x) = 0.22096 0.09966
# Poissons Ratio (y) = 0.40835 0.01355
# Poissons Ratio (z) = 0.08329 0.00613
#
# Static dielectric constant tensor:
#      x y z
#    x 1.970580 -0.028730 -0.021620 
#    y -0.028730 1.930710 -0.050280 
#    z -0.021620 -0.050280 1.991830 
# 
# From -- ./inp_files/559589.got.cif
#   From: 2010.05.17/outbox.cif.g08.bks.cpg/sg2_280_cif.got.tgz:559589.got - 2010.06.03 11:33:40.
