data_PCOD9002597
_publ_section_title
;
Structure prediction by ZEFSAII (Michael W. Deem and Ramdas Pophale) SiO2 
 PCOD9002597
Probable space group: P -1
;
_chemical_formula_sum "Si O2"
_cell_formula_units_Z 16
_cell_length_a 9.400731
_cell_length_b 14.076610
_cell_length_c 7.662134
_cell_angle_alpha 70.574053
_cell_angle_beta 131.446809
_cell_angle_gamma 113.271752
_cell_volume 694.452489
_symmetry_space_group_name_H-M "P -1"
_symmetry_group_IT_number 2
_symmetry_cell_setting 'triclinic'
loop_
_space_group_symop_operation_xyz
x,y,z
-x,-y,-z
loop_
_atom_site_type_symbol
_atom_site_label
_atom_site_fract_x
_atom_site_fract_y
_atom_site_fract_z
Si Si1 0.058470 0.585656 0.650794
Si Si2 0.326636 0.487396 0.499531
Si Si3 0.528133 0.033551 0.203669
Si Si4 0.778909 0.878706 0.533316
Si Si5 0.121830 0.058962 0.823393
Si Si6 0.508970 0.277888 0.390385
Si Si7 0.834339 0.193366 0.551296
Si Si8 0.504730 0.611788 0.019209
O O1 0.052889 0.694154 0.492150
O O2 0.000000 0.500000 0.500000
O O3 0.902554 0.548316 0.700062
O O4 0.279053 0.602492 0.886331
O O5 0.500000 0.500000 0.500000
O O6 0.372310 0.604322 0.542337
O O7 0.360190 0.393597 0.705809
O O8 0.698301 0.136125 0.315943
O O9 0.623347 0.946406 0.414205
O O10 0.318633 0.048057 0.085144
O O11 0.500000 0.000000 0.000000
O O12 0.812960 0.885414 0.347161
O O13 0.669674 0.769140 0.596145
O O14 0.984768 0.944213 0.739116
O O15 0.984004 0.123981 0.762460
O O16 0.674578 0.213017 0.548250
O O17 0.429525 0.295199 0.121208
O O18 0.500000 0.500000 0.000000
#
# Coordination Sequence:
#
# PCOD9002597 Si02
#       8
#     2   2   2   2   2   2   2   2
#     4  11  20  40  65  91 132 168 210 262 318 381
#     4  11  24  42  65  94 131 172 211 265 324 377
#     4   9  19  39  59  88 124 158 206 262 314 371
#     4   9  19  38  60  87 124 160 208 264 312 374
#     4   9  19  37  63  87 121 166 206 258 323 372
#     4  10  21  40  60  94 129 164 209 267 310 374
#     4  10  21  36  62  91 121 168 209 253 319 376
#     4   9  19  40  64  86 127 171 207 256 314 383
#
# _framework density 23.039732999999998
#
# number of rings (size 3 to 8) (size 9 to 14) (size 15 to 20)
#    0.000    2.250    3.750    0.750    1.750    4.500 
#    4.500    7.500    0.000    0.000    0.000    0.000 
#    0.000    0.000    0.000    0.000    0.000    0.000 
#
# Total GULP energy -89206.929935 kJ/mol
# GULP energy per Si atom -5575.433121 kJ/mol
# Density = 2.298729 g / cm^3
# Si number density = 23.039733 Si / 1000 Ang^3
#
#
#
# Elastic Constant Matrix: (Units=GPa)
#
#
# Indices 1 2 3 4 5 6 
#
# 1 125.6226 22.9662 20.6456 -2.1002 14.9375 29.0567
# 2 22.9662 62.9952 1.9828 8.7928 0.1128 20.1651
# 3 20.6456 1.9828 56.5359 4.2853 24.2579 7.6769
# 4 -2.1002 8.7928 4.2853 21.1864 0.8233 6.4911
# 5 14.9375 0.1128 24.2579 0.8233 25.8709 -4.3367
# 6 29.0567 20.1651 7.6769 6.4911 -4.3367 55.2329
#
#
#
# Elastic Compliance Matrix: (Units=1/GPa)
#
#
# Indices 1 2 3 4 5 6 
#
# 1 0.010708 -0.002667 -0.000439 0.004249 -0.006839 -0.005635
# 2 -0.002667 0.019449 0.001997 -0.007098 -0.001068 -0.005225
# 3 -0.000439 0.001997 0.032417 -0.004081 -0.031190 -0.006973
# 4 0.004249 -0.007098 -0.004081 0.053097 -0.001193 -0.005411
# 5 -0.006839 -0.001068 -0.031190 -0.001193 0.074286 0.014295
# 6 -0.005635 -0.005225 -0.006973 -0.005411 0.014295 0.025704
#
#
# Mechanical properties :
#
#
# Convention : Reuss Voigt Hill
#
# Bulk Modulus (GPa) = 16.56849 37.37143 26.96996
# Shear Modulus (GPa) = 21.00865 33.76199 27.38532
#
# Velocity S-wave (km/s) = 3.02295 3.83218 3.45137
# Velocity P-wave (km/s) = 4.40354 5.98636 5.25489
#
# Compressibility (1/GPa) = 0.06035554
#
# Stress axis : x y z
#
# Youngs Moduli (GPa) = 93.39124 51.41710 30.84789
#
# Poissons Ratio (x) = 0.13713 0.01355
# Poissons Ratio (y) = 0.24908 -0.06162
# Poissons Ratio (z) = 0.04104 -0.10270
#
# Static dielectric constant tensor:
#      x y z
#    x 1.909760 -0.034820 -0.016320 
#    y -0.034820 1.903360 0.004980 
#    z -0.016320 0.004980 1.897940 
# 
# From -- ./inp_files/201123.got.cif
#   From: 2010.05.17/outbox.cif.g08.bks.cpg/sg2_101_cif.got.tgz:201123.got - 2010.06.03 11:33:40.
