data_PCOD9002682
_publ_section_title
;
Structure prediction by ZEFSAII (Michael W. Deem and Ramdas Pophale) SiO2 
 PCOD9002682
Probable space group: P -1
;
_chemical_formula_sum "Si O2"
_cell_formula_units_Z 16
_cell_length_a 9.372891
_cell_length_b 15.664265
_cell_length_c 7.380741
_cell_angle_alpha 83.683934
_cell_angle_beta 48.783178
_cell_angle_gamma 112.902441
_cell_volume 637.290959
_symmetry_space_group_name_H-M "P -1"
_symmetry_group_IT_number 2
_symmetry_cell_setting 'triclinic'
loop_
_space_group_symop_operation_xyz
x,y,z
-x,-y,-z
loop_
_atom_site_type_symbol
_atom_site_label
_atom_site_fract_x
_atom_site_fract_y
_atom_site_fract_z
Si Si1 0.986701 0.354192 0.964957
Si Si2 0.030072 0.821943 0.144023
Si Si3 0.813088 0.693410 0.891924
Si Si4 0.612510 0.946513 0.322128
Si Si5 0.877687 0.583574 0.578021
Si Si6 0.472710 0.249481 0.361554
Si Si7 0.620001 0.335641 0.828141
Si Si8 0.704540 0.122848 0.720845
O O1 0.898797 0.231077 0.043857
O O2 0.100875 0.408189 0.661204
O O3 0.742740 0.341085 0.193858
O O4 0.159285 0.382068 0.981717
O O5 0.158915 0.823759 0.216351
O O6 0.742084 0.746367 0.411664
O O7 0.133796 0.943845 0.981726
O O8 0.754254 0.629498 0.765400
O O9 0.051308 0.817813 0.622430
O O10 0.589954 0.693169 0.123932
O O11 0.614575 0.867904 0.472672
O O12 0.465384 0.876146 0.282140
O O13 0.500000 0.000000 0.500000
O O14 0.747752 0.458641 0.760118
O O15 0.148294 0.655549 0.422392
O O16 0.502627 0.257201 0.117678
O O17 0.500000 0.000000 0.000000
#
# Coordination Sequence:
#
# PCOD9002682 Si02
#       8
#     2   2   2   2   2   2   2   2
#     4  11  23  39  67  91 127 167 209 260 320 370
#     4  11  21  40  61  90 129 166 208 263 306 377
#     4  12  21  42  67  92 127 172 210 260 320 377
#     4  11  21  39  63  90 126 164 213 259 311 377
#     4  10  23  44  64  93 130 165 210 274 313 370
#     4  11  21  38  64  88 124 167 209 255 322 368
#     4  10  23  41  65  93 125 167 215 258 325 378
#     4  10  21  36  63  91 125 167 206 251 315 370
#
# _framework density 25.106272000000001
#
# number of rings (size 3 to 8) (size 9 to 14) (size 15 to 20)
#    0.000    1.250    5.000    0.750    0.000    1.500 
#    0.000    6.250    0.000    0.000    0.000    0.000 
#    0.000    0.000    0.000    0.000    0.000    0.000 
#
# Total GULP energy -89166.931044 kJ/mol
# GULP energy per Si atom -5572.933190 kJ/mol
# Density = 2.504913 g / cm^3
# Si number density = 25.106272 Si / 1000 Ang^3
#
#
#
# Elastic Constant Matrix: (Units=GPa)
#
#
# Indices 1 2 3 4 5 6 
#
# 1 111.5039 23.7561 65.9386 4.0295 8.5196 -16.5679
# 2 23.7561 37.9673 14.0084 -12.8065 13.1905 -15.3403
# 3 65.9386 14.0084 82.3733 7.7754 -9.6116 -5.1604
# 4 4.0295 -12.8065 7.7754 24.7981 -13.3055 -0.2445
# 5 8.5196 13.1905 -9.6116 -13.3055 57.0790 5.1226
# 6 -16.5679 -15.3403 -5.1604 -0.2445 5.1226 31.5025
#
#
#
# Elastic Compliance Matrix: (Units=1/GPa)
#
#
# Indices 1 2 3 4 5 6 
#
# 1 0.021073 -0.002465 -0.016432 -0.003118 -0.006812 0.008274
# 2 -0.002465 0.053494 -0.009138 0.025913 -0.009740 0.025041
# 3 -0.016432 -0.009138 0.027822 -0.006203 0.008700 -0.009997
# 4 -0.003118 0.025913 -0.006203 0.059750 0.006520 0.009366
# 5 -0.006812 -0.009740 0.008700 0.006520 0.024748 -0.010874
# 6 0.008274 0.025041 -0.009997 0.009366 -0.010874 0.048492
#
#
# Mechanical properties :
#
#
# Convention : Reuss Voigt Hill
#
# Bulk Modulus (GPa) = 21.58898 48.80563 35.19730
# Shear Modulus (GPa) = 16.29261 31.21867 23.75564
#
# Velocity S-wave (km/s) = 2.55020 3.53010 3.07938
# Velocity P-wave (km/s) = 4.15802 6.00810 5.16655
#
# Compressibility (1/GPa) = 0.04631993
#
# Stress axis : x y z
#
# Youngs Moduli (GPa) = 47.45401 18.69373 35.94336
#
# Poissons Ratio (x) = 0.04608 0.59061
# Poissons Ratio (y) = 0.11696 0.32845
# Poissons Ratio (z) = 0.77975 0.17082
#
# Static dielectric constant tensor:
#      x y z
#    x 2.280240 0.016380 -0.032780 
#    y 0.016380 1.994130 -0.027400 
#    z -0.032780 -0.027400 2.033540 
# 
# From -- ./inp_files/217260.got.cif
#   From: 2010.05.17/outbox.cif.g08.bks.cpg/sg2_109_cif.got.tgz:217260.got - 2010.06.03 11:33:40.
