data_PCOD9002409
_publ_section_title
;
Structure prediction by ZEFSAII (Michael W. Deem and Ramdas Pophale) SiO2 
 PCOD9002409
Probable space group: P -1
;
_chemical_formula_sum "Si O2"
_cell_formula_units_Z 14
_cell_length_a 15.264438
_cell_length_b 12.993905
_cell_length_c 11.130213
_cell_angle_alpha 112.419836
_cell_angle_beta 113.522558
_cell_angle_gamma 18.538883
_cell_volume 643.547824
_symmetry_space_group_name_H-M "P -1"
_symmetry_group_IT_number 2
_symmetry_cell_setting 'triclinic'
loop_
_space_group_symop_operation_xyz
x,y,z
-x,-y,-z
loop_
_atom_site_type_symbol
_atom_site_label
_atom_site_fract_x
_atom_site_fract_y
_atom_site_fract_z
Si Si1 0.294658 0.651629 0.073392
Si Si2 0.429463 0.000206 0.725699
Si Si3 0.966892 0.905413 0.417429
Si Si4 0.901997 0.447206 0.538114
Si Si5 0.230774 0.440730 0.748954
Si Si6 0.344734 0.829228 0.159281
Si Si7 0.430775 0.360229 0.232957
O O1 0.369526 0.689598 0.189280
O O2 0.280234 0.570743 0.126657
O O3 0.543419 0.340148 0.982825
O O4 0.000000 0.000000 0.000000
O O5 0.376822 0.188305 0.798552
O O6 0.150171 0.249108 0.635970
O O7 0.648864 0.747492 0.623995
O O8 0.498695 0.848168 0.812009
O O9 0.010484 0.778672 0.500702
O O10 0.220334 0.603211 0.334489
O O11 0.692735 0.154399 0.313812
O O12 0.000000 0.000000 0.500000
O O13 0.854187 0.523623 0.406925
O O14 0.443543 0.302971 0.761844
O O15 0.963893 0.786053 0.821415
#
# Coordination Sequence:
#
# PCOD9002409 Si02
#       7
#     2   2   2   2   2   2   2
#     4  11  25  47  65  87 127 157 214 261 323 363
#     4  10  21  42  59  94 126 168 199 242 306 379
#     4  10  22  36  57  94 127 157 203 245 298 377
#     4  10  21  36  60  91 131 166 198 239 306 368
#     4  12  22  39  66  92 126 158 212 252 297 361
#     4  11  26  39  64  95 114 159 212 264 307 357
#     4  10  24  39  65  84 124 170 194 248 324 356
#
# _framework density 21.754404999999998
#
# number of rings (size 3 to 8) (size 9 to 14) (size 15 to 20)
#    0.000    1.429    1.429    3.000    8.000    0.000 
#    0.000    1.429    0.000    0.000    0.000    0.000 
#    0.000    0.000    0.000    0.000    0.000    0.000 
#
# Total GULP energy -78096.918922 kJ/mol
# GULP energy per Si atom -5578.351352 kJ/mol
# Density = 2.170489 g / cm^3
# Si number density = 21.754405 Si / 1000 Ang^3
#
#
#
# Elastic Constant Matrix: (Units=GPa)
#
#
# Indices 1 2 3 4 5 6 
#
# 1 112.7781 68.4488 25.5222 -10.7531 -11.6302 9.0487
# 2 68.4488 134.6682 34.2315 1.6960 -11.2874 -0.2296
# 3 25.5222 34.2315 28.3172 0.0439 -6.2702 10.8653
# 4 -10.7531 1.6960 0.0439 32.0660 4.1521 3.2812
# 5 -11.6302 -11.2874 -6.2702 4.1521 28.9289 -6.9193
# 6 9.0487 -0.2296 10.8653 3.2812 -6.9193 62.5629
#
#
#
# Elastic Compliance Matrix: (Units=1/GPa)
#
#
# Indices 1 2 3 4 5 6 
#
# 1 0.014349 -0.006019 -0.004847 0.005109 0.001307 -0.001379
# 2 -0.006019 0.013750 -0.012135 -0.003281 0.001594 0.003377
# 3 -0.004847 -0.012135 0.058711 -0.000650 0.003966 -0.009067
# 4 0.005109 -0.003281 -0.000650 0.034020 -0.004960 -0.002971
# 5 0.001307 0.001594 0.003966 -0.004960 0.038149 0.003607
# 6 -0.001379 0.003377 -0.009067 -0.002971 0.003607 0.018325
#
#
# Mechanical properties :
#
#
# Convention : Reuss Voigt Hill
#
# Bulk Modulus (GPa) = 24.50432 59.12982 41.81707
# Shear Modulus (GPa) = 21.10528 34.54895 27.82712
#
# Velocity S-wave (km/s) = 3.11812 3.98947 3.58040
# Velocity P-wave (km/s) = 4.92464 6.96138 6.02963
#
# Compressibility (1/GPa) = 0.04080914
#
# Stress axis : x y z
#
# Youngs Moduli (GPa) = 69.69037 72.72702 17.03270
#
# Poissons Ratio (x) = 0.43771 0.08255
# Poissons Ratio (y) = 0.41943 0.20669
# Poissons Ratio (z) = 0.33777 0.88255
#
# Static dielectric constant tensor:
#      x y z
#    x 1.864980 0.068580 0.042290 
#    y 0.068580 1.829140 -0.014420 
#    z 0.042290 -0.014420 1.785530 
# 
# From -- ./inp_files/67458.got.cif
#   From: 2010.05.17/outbox.cif.g08.bks.cpg/sg2_34_cif.got.tgz:67458.got - 2010.06.03 11:33:40.
