data_PCOD9002221
_publ_section_title
;
Structure prediction by ZEFSAII (Michael W. Deem and Ramdas Pophale) SiO2 
 PCOD9002221
Probable space group: P -1
;
_chemical_formula_sum "Si O2"
_cell_formula_units_Z 16
_cell_length_a 10.669744
_cell_length_b 5.235853
_cell_length_c 25.445376
_cell_angle_alpha 69.036001
_cell_angle_beta 148.323072
_cell_angle_gamma 109.470716
_cell_volume 695.857063
_symmetry_space_group_name_H-M "P -1"
_symmetry_group_IT_number 2
_symmetry_cell_setting 'triclinic'
loop_
_space_group_symop_operation_xyz
x,y,z
-x,-y,-z
loop_
_atom_site_type_symbol
_atom_site_label
_atom_site_fract_x
_atom_site_fract_y
_atom_site_fract_z
Si Si1 0.411990 0.171628 0.602751
Si Si2 0.451314 0.947501 0.746465
Si Si3 0.736285 0.353843 0.115488
Si Si4 0.124413 0.669054 0.483538
Si Si5 0.966213 0.811005 0.950006
Si Si6 0.855035 0.569034 0.292449
Si Si7 0.534196 0.075640 0.883315
Si Si8 0.953828 0.166154 0.760594
O O1 0.321228 0.476347 0.542385
O O2 0.679758 0.122520 0.683197
O O3 0.392445 0.116455 0.662217
O O4 0.241510 0.949038 0.527850
O O5 0.705016 0.818353 0.831889
O O6 0.231620 0.733708 0.697484
O O7 0.531107 0.097559 0.817650
O O8 0.923182 0.604213 0.174712
O O9 0.625953 0.190264 0.138406
O O10 0.500000 0.500000 0.000000
O O11 0.889283 0.106708 0.163272
O O12 0.000000 0.500000 0.500000
O O13 0.942287 0.710292 0.367696
O O14 0.000000 0.500000 0.000000
O O15 0.207891 0.911393 0.998645
O O16 0.000000 0.000000 0.000000
O O17 0.612085 0.669216 0.172008
O O18 0.039384 0.679003 0.305501
#
# Coordination Sequence:
#
# PCOD9002221 Si02
#       8
#     2   2   2   2   2   2   2   2
#     4  12  28  45  69 101 143 174 228 282 349 399
#     4  11  22  41  66  96 135 179 216 284 336 399
#     4  11  24  44  71  98 139 183 233 273 334 405
#     4  12  26  45  72 106 131 177 229 286 345 404
#     4  10  21  36  58  94 130 163 216 267 325 393
#     4  11  23  42  73  91 138 174 231 279 335 403
#     4  10  22  41  66 101 131 179 229 274 337 402
#     4  11  26  48  67 101 137 184 224 281 339 406
#
# _framework density 22.993227000000001
#
# number of rings (size 3 to 8) (size 9 to 14) (size 15 to 20)
#    0.000    1.000    3.750    2.250    3.500    1.000 
#    4.500    0.000    0.000    0.000    0.000    0.000 
#    0.000    0.000    0.000    0.000    0.000    0.000 
#
# Total GULP energy -89205.086576 kJ/mol
# GULP energy per Si atom -5575.317911 kJ/mol
# Density = 2.294089 g / cm^3
# Si number density = 22.993227 Si / 1000 Ang^3
#
#
#
# Elastic Constant Matrix: (Units=GPa)
#
#
# Indices 1 2 3 4 5 6 
#
# 1 95.8074 31.2069 36.7140 -4.9886 11.3496 6.0822
# 2 31.2069 105.9027 40.8849 9.1306 16.2719 -18.9090
# 3 36.7140 40.8849 108.4975 -7.2601 20.4289 -3.4191
# 4 -4.9886 9.1306 -7.2601 40.7486 -5.7669 4.6084
# 5 11.3496 16.2719 20.4289 -5.7669 36.2081 -4.5021
# 6 6.0822 -18.9090 -3.4191 4.6084 -4.5021 37.0170
#
#
#
# Elastic Compliance Matrix: (Units=1/GPa)
#
#
# Indices 1 2 3 4 5 6 
#
# 1 0.013301 -0.003679 -0.002902 0.002318 -0.001101 -0.004755
# 2 -0.003679 0.014334 -0.003699 -0.005657 -0.003119 0.007910
# 3 -0.002902 -0.003699 0.012511 0.002218 -0.004264 -0.001052
# 4 0.002318 -0.005657 0.002218 0.027767 0.004240 -0.006007
# 5 -0.001101 -0.003119 -0.004264 0.004240 0.032650 0.001637
# 6 -0.004755 0.007910 -0.001052 -0.006007 0.001637 0.032686
#
#
# Mechanical properties :
#
#
# Convention : Reuss Voigt Hill
#
# Bulk Modulus (GPa) = 51.05493 58.64657 54.85075
# Shear Modulus (GPa) = 31.18458 36.22152 33.70305
#
# Velocity S-wave (km/s) = 3.68673 3.97333 3.83271
# Velocity P-wave (km/s) = 6.35414 6.82724 6.59493
#
# Compressibility (1/GPa) = 0.01958675
#
# Stress axis : x y z
#
# Youngs Moduli (GPa) = 75.18271 69.76495 79.93134
#
# Poissons Ratio (x) = 0.25665 0.23197
# Poissons Ratio (y) = 0.27658 0.29563
# Poissons Ratio (z) = 0.21819 0.25803
#
# Static dielectric constant tensor:
#      x y z
#    x 2.000070 -0.015510 0.054450 
#    y -0.015510 1.871310 -0.050820 
#    z 0.054450 -0.050820 1.920880 
# 
# From -- ./inp_files/477799.got.cif
#   From: 2010.05.17/outbox.cif.g08.bks.cpg/sg2_239_cif.got.tgz:477799.got - 2010.06.03 11:33:40.
