data_PCOD9002663
_publ_section_title
;
Structure prediction by ZEFSAII (Michael W. Deem and Ramdas Pophale) SiO2 
 PCOD9002663
Probable space group: P -1
;
_chemical_formula_sum "Si O2"
_cell_formula_units_Z 14
_cell_length_a 6.492878
_cell_length_b 8.195767
_cell_length_c 15.806611
_cell_angle_alpha 117.369406
_cell_angle_beta 114.206999
_cell_angle_gamma 53.068836
_cell_volume 586.400461
_symmetry_space_group_name_H-M "P -1"
_symmetry_group_IT_number 2
_symmetry_cell_setting 'triclinic'
loop_
_space_group_symop_operation_xyz
x,y,z
-x,-y,-z
loop_
_atom_site_type_symbol
_atom_site_label
_atom_site_fract_x
_atom_site_fract_y
_atom_site_fract_z
Si Si1 0.515550 0.099349 0.116447
Si Si2 0.509490 0.255460 0.883139
Si Si3 0.515885 0.449182 0.391234
Si Si4 0.480278 0.158266 0.607063
Si Si5 0.731207 0.515542 0.933304
Si Si6 0.960916 0.636764 0.282662
Si Si7 0.031956 0.977895 0.717546
O O1 0.347422 0.352848 0.134909
O O2 0.801710 0.056229 0.177798
O O3 0.438054 0.982182 0.147213
O O4 0.500000 0.000000 0.000000
O O5 0.715092 0.303315 0.883031
O O6 0.235706 0.396239 0.819382
O O7 0.470749 0.343680 0.993285
O O8 0.500000 0.500000 0.500000
O O9 0.523600 0.638954 0.387555
O O10 0.772317 0.227860 0.355386
O O11 0.245586 0.458741 0.320947
O O12 0.218983 0.248180 0.638881
O O13 0.500000 0.000000 0.500000
O O14 0.737254 0.024574 0.677661
O O15 0.000000 0.500000 0.000000
O O16 0.992031 0.813740 0.280076
#
# Coordination Sequence:
#
# PCOD9002663 Si02
#       7
#     2   2   2   2   2   2   2
#     4   9  20  40  61  90 130 168 214 266 326 381
#     4   9  21  40  56  91 126 163 213 263 322 381
#     4  11  24  41  65  94 129 165 217 272 325 393
#     4  11  24  42  65  92 129 172 214 268 332 389
#     4  10  21  36  63  88 126 167 213 262 318 384
#     4  10  23  41  63  90 132 163 212 272 324 383
#     4  10  23  42  64  93 130 169 217 267 327 389
#
# _framework density 23.874469000000001
#
# number of rings (size 3 to 8) (size 9 to 14) (size 15 to 20)
#    0.000    2.000    0.000    1.714    4.000    9.714 
#    0.000    2.857    0.000    0.000    0.000    0.000 
#    0.000    0.000    0.000    0.000    0.000    0.000 
#
# Total GULP energy -78224.280569 kJ/mol
# GULP energy per Si atom -5587.448612 kJ/mol
# Density = 2.382013 g / cm^3
# Si number density = 23.874469 Si / 1000 Ang^3
#
#
#
# Elastic Constant Matrix: (Units=GPa)
#
#
# Indices 1 2 3 4 5 6 
#
# 1 88.7003 31.5969 10.4461 -15.2784 16.5651 9.6428
# 2 31.5969 97.5271 14.3725 -14.2087 13.5990 4.5801
# 3 10.4461 14.3725 122.5757 -3.4863 -2.4620 1.5539
# 4 -15.2784 -14.2087 -3.4863 42.7777 -3.6211 -6.2694
# 5 16.5651 13.5990 -2.4620 -3.6211 36.3847 6.9658
# 6 9.6428 4.5801 1.5539 -6.2694 6.9658 36.1369
#
#
#
# Elastic Compliance Matrix: (Units=1/GPa)
#
#
# Indices 1 2 3 4 5 6 
#
# 1 0.014152 -0.003266 -0.000799 0.003240 -0.004594 -0.001880
# 2 -0.003266 0.012261 -0.001150 0.002617 -0.002989 0.000397
# 3 -0.000799 -0.001150 0.008396 0.000099 0.001421 -0.000259
# 4 0.003240 0.002617 0.000099 0.025864 -0.000521 0.003387
# 5 -0.004594 -0.002989 0.001421 -0.000521 0.031626 -0.004643
# 6 -0.001880 0.000397 -0.000259 0.003387 -0.004643 0.029618
#
#
# Mechanical properties :
#
#
# Convention : Reuss Voigt Hill
#
# Bulk Modulus (GPa) = 41.02147 46.84823 43.93485
# Shear Modulus (GPa) = 35.59415 39.88569 37.73992
#
# Velocity S-wave (km/s) = 3.86539 4.09178 3.98020
# Velocity P-wave (km/s) = 6.09435 6.47989 6.29007
#
# Compressibility (1/GPa) = 0.02437748
#
# Stress axis : x y z
#
# Youngs Moduli (GPa) = 70.66138 81.56178 119.10686
#
# Poissons Ratio (x) = 0.26640 0.09521
# Poissons Ratio (y) = 0.23080 0.13696
# Poissons Ratio (z) = 0.05648 0.09379
#
# Static dielectric constant tensor:
#      x y z
#    x 1.948870 -0.015520 0.021260 
#    y -0.015520 1.947670 0.002220 
#    z 0.021260 0.002220 1.920420 
# 
# From -- ./inp_files/548242.got.cif
#   From: 2010.05.17/outbox.cif.g08.bks.cpg/sg2_275_cif.got.tgz:548242.got - 2010.06.03 11:33:40.
