data_PCOD9002288
_publ_section_title
;
Structure prediction by ZEFSAII (Michael W. Deem and Ramdas Pophale) SiO2 
 PCOD9002288
Probable space group: P -1
;
_chemical_formula_sum "Si O2"
_cell_formula_units_Z 16
_cell_length_a 24.909414
_cell_length_b 12.413438
_cell_length_c 8.357079
_cell_angle_alpha 110.176636
_cell_angle_beta 128.554313
_cell_angle_gamma 28.466311
_cell_volume 807.849923
_symmetry_space_group_name_H-M "P -1"
_symmetry_group_IT_number 2
_symmetry_cell_setting 'triclinic'
loop_
_space_group_symop_operation_xyz
x,y,z
-x,-y,-z
loop_
_atom_site_type_symbol
_atom_site_label
_atom_site_fract_x
_atom_site_fract_y
_atom_site_fract_z
Si Si1 0.235643 0.658779 0.376296
Si Si2 0.002467 0.811434 0.962547
Si Si3 0.978195 0.346419 0.419773
Si Si4 0.885417 0.068687 0.370847
Si Si5 0.450058 0.457941 0.171040
Si Si6 0.759695 0.886943 0.345849
Si Si7 0.126902 0.213509 0.139213
Si Si8 0.530383 0.314181 0.621001
O O1 0.194584 0.777461 0.529510
O O2 0.424056 0.381372 0.547305
O O3 0.154368 0.657622 0.216738
O O4 0.142346 0.880363 0.186668
O O5 0.038954 0.692057 0.801832
O O6 0.948458 0.798398 0.983346
O O7 0.825889 0.659073 0.325788
O O8 0.136467 0.188306 0.616673
O O9 0.011610 0.201630 0.542852
O O10 0.735561 0.277301 0.081942
O O11 0.000000 0.000000 0.500000
O O12 0.475808 0.396716 0.376037
O O13 0.504002 0.508946 0.276535
O O14 0.569442 0.199220 0.153730
O O15 0.811107 0.847308 0.599746
O O16 0.278094 0.988385 0.185872
O O17 0.000000 0.500000 0.000000
#
# Coordination Sequence:
#
# PCOD9002288 Si02
#       8
#     2   2   2   2   2   2   2   2
#     4  10  21  38  61  89 118 155 200 246 302 351
#     4   9  19  36  62  83 119 160 198 238 300 371
#     4   9  19  37  60  86 117 160 197 241 306 356
#     4  11  25  37  59  95 122 155 200 253 299 350
#     4  10  21  38  61  89 122 150 210 249 294 351
#     4   9  19  38  59  86 117 156 200 244 303 353
#     4  10  21  36  59  90 117 158 201 248 295 356
#     4  10  21  37  64  87 116 163 199 248 299 353
#
# _framework density 19.80566
#
# number of rings (size 3 to 8) (size 9 to 14) (size 15 to 20)
#    0.000    2.250    0.000    3.750    8.750    2.000 
#    4.500    1.250    0.000    0.000    0.000    0.000 
#    0.000    0.000    0.000    0.000    0.000    0.000 
#
# Total GULP energy -89374.641437 kJ/mol
# GULP energy per Si atom -5585.915090 kJ/mol
# Density = 1.976058 g / cm^3
# Si number density = 19.805660 Si / 1000 Ang^3
#
#
#
# Elastic Constant Matrix: (Units=GPa)
#
#
# Indices 1 2 3 4 5 6 
#
# 1 99.3783 42.0524 39.7868 -20.1260 20.9864 6.1446
# 2 42.0524 124.4537 31.9759 -16.9983 16.7009 4.2454
# 3 39.7868 31.9759 75.2157 -7.9213 17.1685 6.2843
# 4 -20.1260 -16.9983 -7.9213 24.0334 -1.2924 2.2231
# 5 20.9864 16.7009 17.1685 -1.2924 26.8482 -2.2994
# 6 6.1446 4.2454 6.2843 2.2231 -2.2994 27.4318
#
#
#
# Elastic Compliance Matrix: (Units=1/GPa)
#
#
# Indices 1 2 3 4 5 6 
#
# 1 0.017199 -0.001635 -0.004728 0.011584 -0.009208 -0.004227
# 2 -0.001635 0.010378 -0.002006 0.005248 -0.003773 -0.001522
# 3 -0.004728 -0.002006 0.018685 0.000720 -0.007277 -0.003579
# 4 0.011584 0.005248 0.000720 0.055504 -0.010877 -0.008982
# 5 -0.009208 -0.003773 -0.007277 -0.010877 0.051737 0.009532
# 6 -0.004227 -0.001522 -0.003579 -0.008982 0.009532 0.039983
#
#
# Mechanical properties :
#
#
# Convention : Reuss Voigt Hill
#
# Bulk Modulus (GPa) = 33.87072 58.51978 46.19525
# Shear Modulus (GPa) = 22.72060 28.01153 25.36607
#
# Velocity S-wave (km/s) = 3.39067 3.76482 3.58264
# Velocity P-wave (km/s) = 5.69803 6.96489 6.36307
#
# Compressibility (1/GPa) = 0.02952403
#
# Stress axis : x y z
#
# Youngs Moduli (GPa) = 58.14283 96.35906 53.51986
#
# Poissons Ratio (x) = 0.15752 0.25303
# Poissons Ratio (y) = 0.09505 0.10737
# Poissons Ratio (z) = 0.27489 0.19332
#
# Static dielectric constant tensor:
#      x y z
#    x 1.692980 -0.009870 -0.018860 
#    y -0.009870 1.708150 0.001150 
#    z -0.018860 0.001150 1.711280 
# 
# From -- ./inp_files/259966.got.cif
#   From: 2010.05.17/outbox.cif.g08.bks.cpg/sg2_130_cif.got.tgz:259966.got - 2010.06.03 11:33:40.
