data_PCOD9002935
_publ_section_title
;
Structure prediction by ZEFSAII (Michael W. Deem and Ramdas Pophale) SiO2 
 PCOD9002935
Probable space group: P -1
;
_chemical_formula_sum "Si O2"
_cell_formula_units_Z 14
_cell_length_a 11.711298
_cell_length_b 13.315596
_cell_length_c 6.321217
_cell_angle_alpha 76.828301
_cell_angle_beta 125.557317
_cell_angle_gamma 82.488146
_cell_volume 736.464684
_symmetry_space_group_name_H-M "P -1"
_symmetry_group_IT_number 2
_symmetry_cell_setting 'triclinic'
loop_
_space_group_symop_operation_xyz
x,y,z
-x,-y,-z
loop_
_atom_site_type_symbol
_atom_site_label
_atom_site_fract_x
_atom_site_fract_y
_atom_site_fract_z
Si Si1 0.425354 0.452501 0.130126
Si Si2 0.384115 0.964288 0.532713
Si Si3 0.552977 0.736715 0.041083
Si Si4 0.351749 0.658913 0.196554
Si Si5 0.050287 0.834639 0.946138
Si Si6 0.101446 0.049756 0.887483
Si Si7 0.768791 0.850266 0.400173
O O1 0.319602 0.558592 0.088663
O O2 0.545543 0.390191 0.466256
O O3 0.500000 0.500000 0.000000
O O4 0.374318 0.362732 0.995764
O O5 0.500000 0.000000 0.500000
O O6 0.340401 0.045038 0.646218
O O7 0.455138 0.841205 0.749530
O O8 0.235776 0.987432 0.222455
O O9 0.446178 0.706069 0.111204
O O10 0.678849 0.770823 0.280594
O O11 0.203854 0.749646 0.076144
O O12 0.912284 0.802099 0.726880
O O13 0.040812 0.954510 0.790248
O O14 0.022516 0.859315 0.153861
O O15 0.170295 0.106633 0.760767
#
# Coordination Sequence:
#
# PCOD9002935 Si02
#       7
#     2   2   2   2   2   2   2
#     4   9  21  39  62  90 109 144 199 249 291 343
#     4  11  22  34  56  89 120 153 197 232 282 342
#     4  11  22  35  62  88 118 153 192 248 292 332
#     4  10  21  40  64  86 114 148 199 245 292 342
#     4  10  22  36  57  82 118 161 190 234 288 349
#     4  10  21  37  54  82 122 160 199 232 277 350
#     4  11  23  36  54  87 122 156 191 235 289 348
#
# _framework density 19.009736
#
# number of rings (size 3 to 8) (size 9 to 14) (size 15 to 20)
#    0.000    1.714    1.429    2.571    4.000    4.571 
#    0.000    0.714    0.000    8.571    0.000    0.000 
#    0.000    0.000    0.000    0.000    0.000    0.000 
#
# Total GULP energy -78139.764055 kJ/mol
# GULP energy per Si atom -5581.411718 kJ/mol
# Density = 1.896647 g / cm^3
# Si number density = 19.009736 Si / 1000 Ang^3
#
#
#
# Elastic Constant Matrix: (Units=GPa)
#
#
# Indices 1 2 3 4 5 6 
#
# 1 117.8314 57.6605 19.1526 -4.0180 -13.1456 -22.8434
# 2 57.6605 140.8521 24.2605 16.4861 -0.1569 -18.5055
# 3 19.1526 24.2605 40.5862 -0.6762 -14.6556 -3.7377
# 4 -4.0180 16.4861 -0.6762 25.6852 9.5454 0.2654
# 5 -13.1456 -0.1569 -14.6556 9.5454 31.4751 3.5270
# 6 -22.8434 -18.5055 -3.7377 0.2654 3.5270 32.8334
#
#
#
# Elastic Compliance Matrix: (Units=1/GPa)
#
#
# Indices 1 2 3 4 5 6 
#
# 1 0.012486 -0.004526 -0.001648 0.003772 0.002649 0.005633
# 2 -0.004526 0.011039 -0.005200 -0.007056 -0.002430 0.002799
# 3 -0.001648 -0.005200 0.034079 -0.001931 0.015952 -0.001896
# 4 0.003772 -0.007056 -0.001931 0.049306 -0.014263 -0.000439
# 5 0.002649 -0.002430 0.015952 -0.014263 0.044890 -0.002417
# 6 0.005633 0.002799 -0.001896 -0.000439 -0.002417 0.036001
#
#
# Mechanical properties :
#
#
# Convention : Reuss Voigt Hill
#
# Bulk Modulus (GPa) = 28.69068 55.71298 42.20183
# Shear Modulus (GPa) = 22.50563 31.21181 26.85872
#
# Velocity S-wave (km/s) = 3.44452 4.05641 3.76292
# Velocity P-wave (km/s) = 5.56282 7.16314 6.41309
#
# Compressibility (1/GPa) = 0.03485453
#
# Stress axis : x y z
#
# Youngs Moduli (GPa) = 80.09271 90.58826 29.34391
#
# Poissons Ratio (x) = 0.40998 0.04837
# Poissons Ratio (y) = 0.36248 0.15260
# Poissons Ratio (z) = 0.13202 0.47108
#
# Static dielectric constant tensor:
#      x y z
#    x 1.644370 -0.001100 -0.006170 
#    y -0.001100 1.682870 0.029460 
#    z -0.006170 0.029460 1.677890 
# 
# From -- ./inp_files/36954.got.cif
#   From: 2010.05.17/outbox.cif.g08.bks.cpg/sg2_19_cif.got.tgz:36954.got - 2010.06.03 11:33:40.
