data_PCOD9002290
_publ_section_title
;
Structure prediction by ZEFSAII (Michael W. Deem and Ramdas Pophale) SiO2 
 PCOD9002290
Probable space group: P -1
;
_chemical_formula_sum "Si O2"
_cell_formula_units_Z 14
_cell_length_a 9.332352
_cell_length_b 5.170598
_cell_length_c 14.358506
_cell_angle_alpha 115.474837
_cell_angle_beta 106.110513
_cell_angle_gamma 99.548531
_cell_volume 567.499430
_symmetry_space_group_name_H-M "P -1"
_symmetry_group_IT_number 2
_symmetry_cell_setting 'triclinic'
loop_
_space_group_symop_operation_xyz
x,y,z
-x,-y,-z
loop_
_atom_site_type_symbol
_atom_site_label
_atom_site_fract_x
_atom_site_fract_y
_atom_site_fract_z
Si Si1 0.046389 0.210863 0.393491
Si Si2 0.214861 0.336938 0.175395
Si Si3 0.484271 0.199760 0.392184
Si Si4 0.910972 0.535905 0.199494
Si Si5 0.710912 0.272088 0.596357
Si Si6 0.768664 0.424354 0.359600
Si Si7 0.813119 0.351106 0.960731
O O1 0.132461 0.510791 0.393074
O O2 0.153901 0.270134 0.515593
O O3 0.873655 0.225313 0.384570
O O4 0.009559 0.891791 0.285256
O O5 0.320874 0.459885 0.305385
O O6 0.267010 0.532007 0.120903
O O7 0.040577 0.362223 0.174848
O O8 0.216274 0.004067 0.104393
O O9 0.500000 0.500000 0.500000
O O10 0.605384 0.091674 0.464971
O O11 0.585797 0.270319 0.327784
O O12 0.318341 0.962727 0.358409
O O13 0.809640 0.454115 0.262915
O O14 0.795932 0.465686 0.078685
O O15 0.000000 0.500000 0.000000
#
# Coordination Sequence:
#
# PCOD9002290 Si02
#       7
#     2   2   2   2   2   2   2
#     4  10  21  36  59  90 124 157 206 251 316 373
#     4  11  22  36  62  92 125 166 208 259 311 369
#     4  10  24  39  61  85 124 163 209 248 308 382
#     4  11  21  34  61  88 129 159 198 261 315 367
#     4  10  21  38  60  87 119 163 203 256 300 371
#     4  10  22  36  57  90 125 159 204 251 318 372
#     4  10  22  35  58  93 129 161 207 258 317 366
#
# _framework density 24.669626999999998
#
# number of rings (size 3 to 8) (size 9 to 14) (size 15 to 20)
#    0.000    1.714    1.429    3.857    8.000    4.571 
#    0.000    0.000    0.000    1.714    0.000    0.000 
#    0.000    0.000    0.000    0.000    0.000    0.000 
#
# Total GULP energy -77986.756247 kJ/mol
# GULP energy per Si atom -5570.482589 kJ/mol
# Density = 2.461348 g / cm^3
# Si number density = 24.669627 Si / 1000 Ang^3
#
#
#
# Elastic Constant Matrix: (Units=GPa)
#
#
# Indices 1 2 3 4 5 6 
#
# 1 99.2455 25.4489 5.4012 -4.1061 -22.7065 26.6701
# 2 25.4489 126.6468 45.1092 0.5201 -38.2299 29.8129
# 3 5.4012 45.1092 165.8867 -21.3845 -13.7118 11.6948
# 4 -4.1061 0.5201 -21.3845 62.2929 -1.0791 -11.1343
# 5 -22.7065 -38.2299 -13.7118 -1.0791 22.1560 -8.8081
# 6 26.6701 29.8129 11.6948 -11.1343 -8.8081 33.2002
#
#
#
# Elastic Compliance Matrix: (Units=1/GPa)
#
#
# Indices 1 2 3 4 5 6 
#
# 1 0.017918 0.007437 0.000426 -0.000930 0.025548 -0.014756
# 2 0.007437 0.022879 -0.002453 -0.002770 0.038991 -0.016240
# 3 0.000426 -0.002453 0.007052 0.002569 0.000881 0.000471
# 4 -0.000930 -0.002770 0.002569 0.018428 0.000154 0.008550
# 5 0.025548 0.038991 0.000881 0.000154 0.130758 -0.021104
# 6 -0.014756 -0.016240 0.000471 0.008550 -0.021104 0.053659
#
#
# Mechanical properties :
#
#
# Convention : Reuss Voigt Hill
#
# Bulk Modulus (GPa) = 17.04451 60.41083 38.72767
# Shear Modulus (GPa) = 19.27297 44.58445 31.92871
#
# Velocity S-wave (km/s) = 2.79810 4.25580 3.60147
# Velocity P-wave (km/s) = 4.16693 6.97784 5.74689
#
# Compressibility (1/GPa) = 0.05866992
#
# Stress axis : x y z
#
# Youngs Moduli (GPa) = 55.81048 43.70757 141.80042
#
# Poissons Ratio (x) = -0.32505 -0.06047
# Poissons Ratio (y) = -0.41506 0.34784
# Poissons Ratio (z) = -0.02380 0.10722
#
# Static dielectric constant tensor:
#      x y z
#    x 2.300650 -0.252610 0.016700 
#    y -0.252610 2.199390 -0.022300 
#    z 0.016700 -0.022300 2.176130 
# 
# From -- ./inp_files/510641.got.cif
#   From: 2010.05.17/outbox.cif.g08.bks.cpg/sg2_256_cif.got.tgz:510641.got - 2010.06.03 11:33:40.
