data_PCOD9002136
_publ_section_title
;
Structure prediction by ZEFSAII (Michael W. Deem and Ramdas Pophale) SiO2 
 PCOD9002136
Probable space group: P -1
;
_chemical_formula_sum "Si O2"
_cell_formula_units_Z 16
_cell_length_a 26.994759
_cell_length_b 10.776267
_cell_length_c 10.945968
_cell_angle_alpha 137.535130
_cell_angle_beta 155.177508
_cell_angle_gamma 29.784572
_cell_volume 644.633138
_symmetry_space_group_name_H-M "P -1"
_symmetry_group_IT_number 2
_symmetry_cell_setting 'triclinic'
loop_
_space_group_symop_operation_xyz
x,y,z
-x,-y,-z
loop_
_atom_site_type_symbol
_atom_site_label
_atom_site_fract_x
_atom_site_fract_y
_atom_site_fract_z
Si Si1 0.355812 0.678323 0.639494
Si Si2 0.324735 0.190794 0.181470
Si Si3 0.266597 0.224113 0.574418
Si Si4 0.412720 0.046778 0.017555
Si Si5 0.266808 0.829844 0.816623
Si Si6 0.896098 0.535160 0.912387
Si Si7 0.322034 0.731983 0.327455
Si Si8 0.900740 0.929040 0.137915
O O1 0.266755 0.738278 0.614842
O O2 0.296441 0.685190 0.374886
O O3 0.354872 0.900934 0.793501
O O4 0.547952 0.407916 0.888905
O O5 0.500000 0.000000 0.500000
O O6 0.357640 0.212691 0.134291
O O7 0.202581 0.432630 0.170596
O O8 0.254833 0.060453 0.930995
O O9 0.390051 0.182043 0.723876
O O10 0.070721 0.426488 0.273041
O O11 0.318387 0.955662 0.496912
O O12 0.327951 0.234225 0.848501
O O13 0.134738 0.942752 0.714129
O O14 0.816225 0.812911 0.882794
O O15 0.937568 0.330947 0.759067
O O16 0.500000 0.500000 0.500000
O O17 0.188081 0.851636 0.005765
#
# Coordination Sequence:
#
# PCOD9002136 Si02
#       8
#     2   2   2   2   2   2   2   2
#     4   9  17  30  48  74 109 133 176 217 254 309
#     4  10  21  31  51  82 106 132 181 219 264 312
#     4   9  19  34  53  77 111 136 175 213 268 310
#     4   9  19  33  51  81 104 138 174 222 256 308
#     4   9  17  31  48  74 105 139 172 213 263 305
#     4   9  19  32  50  77 108 140 167 220 265 313
#     4  10  17  27  49  80 103 135 177 216 253 310
#     4   9  17  29  49  75 100 133 173 203 264 305
#
# _framework density 24.820316999999999
#
# number of rings (size 3 to 8) (size 9 to 14) (size 15 to 20)
#    0.000    2.750    1.250    0.000    8.750    0.500 
#    0.000    1.250    0.000    5.250    3.250   21.875 
#    0.000    0.000    0.000    0.000    0.000    0.000 
#
# Total GULP energy -89138.717772 kJ/mol
# GULP energy per Si atom -5571.169861 kJ/mol
# Density = 2.476383 g / cm^3
# Si number density = 24.820317 Si / 1000 Ang^3
#
#
#
# Elastic Constant Matrix: (Units=GPa)
#
#
# Indices 1 2 3 4 5 6 
#
# 1 211.1394 58.1172 57.1172 -14.5960 -8.2686 -70.0845
# 2 58.1172 97.6017 20.8946 -9.8286 -8.3772 -27.3849
# 3 57.1172 20.8946 69.0795 -13.9797 -2.2193 -20.6684
# 4 -14.5960 -9.8286 -13.9797 28.8646 -1.3330 7.4771
# 5 -8.2686 -8.3772 -2.2193 -1.3330 34.4914 -7.2708
# 6 -70.0845 -27.3849 -20.6684 7.4771 -7.2708 51.6598
#
#
#
# Elastic Compliance Matrix: (Units=1/GPa)
#
#
# Indices 1 2 3 4 5 6 
#
# 1 0.010732 -0.001517 -0.004564 -0.000360 0.004558 0.012623
# 2 -0.001517 0.013244 -0.000688 0.002320 0.003932 0.004905
# 3 -0.004564 -0.000688 0.020049 0.007057 0.000407 0.000500
# 4 -0.000360 0.002320 0.007057 0.039238 0.002064 -0.001823
# 5 0.004558 0.003932 0.000407 0.002064 0.033865 0.012899
# 6 0.012623 0.004905 0.000500 -0.001823 0.012899 0.041362
#
#
# Mechanical properties :
#
#
# Convention : Reuss Voigt Hill
#
# Bulk Modulus (GPa) = 32.80182 72.23096 52.51639
# Shear Modulus (GPa) = 27.44360 39.11592 33.27976
#
# Velocity S-wave (km/s) = 3.32880 3.97415 3.66570
# Velocity P-wave (km/s) = 5.29329 7.08683 6.25468
#
# Compressibility (1/GPa) = 0.03048611
#
# Stress axis : x y z
#
# Youngs Moduli (GPa) = 93.17784 75.50817 49.87750
#
# Poissons Ratio (x) = 0.11451 0.22767
# Poissons Ratio (y) = 0.14130 0.03434
# Poissons Ratio (z) = 0.42531 0.05198
#
# Static dielectric constant tensor:
#      x y z
#    x 2.368680 -0.228340 -0.414770 
#    y -0.228340 2.195030 0.344020 
#    z -0.414770 0.344020 2.548520 
# 
# From -- ./inp_files/284929.got.cif
#   From: 2010.05.17/outbox.cif.g08.bks.cpg/sg2_143_cif.got.tgz:284929.got - 2010.06.03 11:33:40.
