data_PCOD9002628
_publ_section_title
;
Structure prediction by ZEFSAII (Michael W. Deem and Ramdas Pophale) SiO2 
 PCOD9002628
Probable space group: P -1
;
_chemical_formula_sum "Si O2"
_cell_formula_units_Z 16
_cell_length_a 12.479381
_cell_length_b 9.052294
_cell_length_c 14.199280
_cell_angle_alpha 75.415660
_cell_angle_beta 88.022314
_cell_angle_gamma 29.635137
_cell_volume 708.357063
_symmetry_space_group_name_H-M "P -1"
_symmetry_group_IT_number 2
_symmetry_cell_setting 'triclinic'
loop_
_space_group_symop_operation_xyz
x,y,z
-x,-y,-z
loop_
_atom_site_type_symbol
_atom_site_label
_atom_site_fract_x
_atom_site_fract_y
_atom_site_fract_z
Si Si1 0.648475 0.353449 0.305700
Si Si2 0.203223 0.513918 0.808473
Si Si3 0.434431 0.108168 0.686486
Si Si4 0.281801 0.972092 0.345351
Si Si5 0.856918 0.342197 0.011216
Si Si6 0.475974 0.740431 0.802041
Si Si7 0.966258 0.717472 0.499737
Si Si8 0.225338 0.890763 0.930126
O O1 0.738871 0.387289 0.242517
O O2 0.506076 0.594171 0.361852
O O3 0.478821 0.470701 0.223775
O O4 0.859148 0.972444 0.388208
O O5 0.360603 0.215412 0.780919
O O6 0.237494 0.450754 0.928558
O O7 0.937504 0.807803 0.743989
O O8 0.659678 0.925005 0.692164
O O9 0.220995 0.442695 0.576500
O O10 0.454318 0.903842 0.702073
O O11 0.209323 0.052285 0.442928
O O12 0.898447 0.115662 0.084433
O O13 0.669415 0.553105 0.900128
O O14 0.087070 0.119989 0.990110
O O15 0.244264 0.989165 0.830429
O O16 0.000000 0.500000 0.500000
O O17 0.500000 0.500000 0.000000
#
# Coordination Sequence:
#
# PCOD9002628 Si02
#       8
#     2   2   2   2   2   2   2   2
#     4  11  23  41  69  96 124 168 218 264 320 378
#     4  10  23  42  65  91 130 171 209 263 316 384
#     4  10  24  45  63  93 130 166 212 263 325 381
#     4  10  25  42  65  93 130 169 212 260 321 386
#     4  10  21  36  62  95 126 168 213 259 316 372
#     4  11  22  39  64  97 127 165 215 268 312 373
#     4  11  23  45  67  96 128 164 210 271 326 378
#     4   9  20  35  58  89 127 158 212 261 306 365
#
# _framework density 22.587477
#
# number of rings (size 3 to 8) (size 9 to 14) (size 15 to 20)
#    0.000    1.750    2.500    0.375    5.250    9.500 
#    2.250    1.250    0.000    0.000    0.000    0.000 
#    0.000    0.000    0.000    0.000    0.000    0.000 
#
# Total GULP energy -89297.627431 kJ/mol
# GULP energy per Si atom -5581.101714 kJ/mol
# Density = 2.253607 g / cm^3
# Si number density = 22.587477 Si / 1000 Ang^3
#
#
#
# Elastic Constant Matrix: (Units=GPa)
#
#
# Indices 1 2 3 4 5 6 
#
# 1 113.8560 36.8841 16.1252 -10.5393 1.6601 -3.6065
# 2 36.8841 60.6313 32.4374 7.6487 3.2647 -10.0313
# 3 16.1252 32.4374 75.7123 5.0957 16.0554 -1.6164
# 4 -10.5393 7.6487 5.0957 26.5595 10.1663 -0.8407
# 5 1.6601 3.2647 16.0554 10.1663 25.1626 3.2365
# 6 -3.6065 -10.0313 -1.6164 -0.8407 3.2365 29.2348
#
#
#
# Elastic Compliance Matrix: (Units=1/GPa)
#
#
# Indices 1 2 3 4 5 6 
#
# 1 0.012505 -0.009577 0.001701 0.008960 -0.004168 -0.000930
# 2 -0.009577 0.031326 -0.012188 -0.013649 0.008892 0.007517
# 3 0.001701 -0.012188 0.020585 0.005450 -0.013718 -0.001159
# 4 0.008960 -0.013649 0.005450 0.053285 -0.023943 0.000906
# 5 -0.004168 0.008892 -0.013718 -0.023943 0.057975 -0.005328
# 6 -0.000930 0.007517 -0.001159 0.000906 -0.005328 0.037222
#
#
# Mechanical properties :
#
#
# Convention : Reuss Voigt Hill
#
# Bulk Modulus (GPa) = 41.17266 46.78812 43.98039
# Shear Modulus (GPa) = 19.14799 27.17490 23.16144
#
# Velocity S-wave (km/s) = 2.91473 3.47233 3.20568
# Velocity P-wave (km/s) = 5.44015 6.06921 5.76327
#
# Compressibility (1/GPa) = 0.02428796
#
# Stress axis : x y z
#
# Youngs Moduli (GPa) = 79.96514 31.92191 48.57937
#
# Poissons Ratio (x) = 0.30572 -0.08262
# Poissons Ratio (y) = 0.76584 0.59208
# Poissons Ratio (z) = -0.13600 0.38906
#
# Static dielectric constant tensor:
#      x y z
#    x 1.841040 0.029050 -0.000860 
#    y 0.029050 1.872920 -0.005230 
#    z -0.000860 -0.005230 1.890470 
# 
# From -- ./inp_files/515529.got.cif
#   From: 2010.05.17/outbox.cif.g08.bks.cpg/sg2_258_cif.got.tgz:515529.got - 2010.06.03 11:33:40.
