data_PCOD9002445
_publ_section_title
;
Structure prediction by ZEFSAII (Michael W. Deem and Ramdas Pophale) SiO2 
 PCOD9002445
Probable space group: P -1
;
_chemical_formula_sum "Si O2"
_cell_formula_units_Z 14
_cell_length_a 5.505803
_cell_length_b 22.004667
_cell_length_c 4.857799
_cell_angle_alpha 70.658602
_cell_angle_beta 95.874015
_cell_angle_gamma 94.334779
_cell_volume 551.861708
_symmetry_space_group_name_H-M "P -1"
_symmetry_group_IT_number 2
_symmetry_cell_setting 'triclinic'
loop_
_space_group_symop_operation_xyz
x,y,z
-x,-y,-z
loop_
_atom_site_type_symbol
_atom_site_label
_atom_site_fract_x
_atom_site_fract_y
_atom_site_fract_z
Si Si1 0.504345 0.075404 0.436472
Si Si2 0.682176 0.602135 0.803627
Si Si3 0.337572 0.145476 0.823997
Si Si4 0.299230 0.531405 0.227342
Si Si5 0.075689 0.823240 0.704597
Si Si6 0.761976 0.244587 0.683936
Si Si7 0.972379 0.632958 0.283080
O O1 0.479032 0.094566 0.723821
O O2 0.757284 0.112345 0.324781
O O3 0.500000 0.000000 0.500000
O O4 0.305264 0.108081 0.164811
O O5 0.776992 0.529668 0.879730
O O6 0.742906 0.630214 0.469149
O O7 0.429248 0.585260 0.958693
O O8 0.850958 0.646490 0.956131
O O9 0.508100 0.209601 0.798545
O O10 0.132363 0.162295 0.557460
O O11 0.500000 0.500000 0.500000
O O12 0.103768 0.566329 0.338271
O O13 0.222975 0.772649 0.609583
O O14 0.038753 0.789906 0.045259
O O15 0.820871 0.318184 0.648211
#
# Coordination Sequence:
#
# PCOD9002445 Si02
#       7
#     2   2   2   2   2   2   2
#     4  10  21  36  60  98 129 162 215 261 311 386
#     4  11  25  42  65  94 124 166 205 262 335 399
#     4  10  21  39  63  85 128 172 203 265 321 368
#     4  11  25  43  67  95 129 163 211 264 333 408
#     4  10  21  41  63  86 127 172 213 263 325 377
#     4  10  23  42  59  90 121 164 221 267 315 390
#     4  12  25  42  66  91 128 166 212 273 331 386
#
# _framework density 25.368670999999999
#
# number of rings (size 3 to 8) (size 9 to 14) (size 15 to 20)
#    0.000    1.429    1.429    3.000    4.000    2.286 
#    2.571    2.857    0.000    0.000    0.000    0.000 
#    0.000    0.000    0.000    0.000    0.000    0.000 
#
# Total GULP energy -78188.610327 kJ/mol
# GULP energy per Si atom -5584.900738 kJ/mol
# Density = 2.531093 g / cm^3
# Si number density = 25.368671 Si / 1000 Ang^3
#
#
#
# Elastic Constant Matrix: (Units=GPa)
#
#
# Indices 1 2 3 4 5 6 
#
# 1 42.1348 13.0517 25.2649 4.2162 -0.2417 7.5334
# 2 13.0517 156.3332 29.5908 15.7647 -11.5731 34.4621
# 3 25.2649 29.5908 145.6241 29.6680 -7.7947 -5.4990
# 4 4.2162 15.7647 29.6680 37.2535 -5.5313 2.1579
# 5 -0.2417 -11.5731 -7.7947 -5.5313 45.8365 7.4421
# 6 7.5334 34.4621 -5.4990 2.1579 7.4421 23.0521
#
#
#
# Elastic Compliance Matrix: (Units=1/GPa)
#
#
# Indices 1 2 3 4 5 6 
#
# 1 0.029453 0.002054 -0.006409 0.002122 0.002303 -0.015167
# 2 0.002054 0.011990 -0.003133 -0.000716 0.005855 -0.021166
# 3 -0.006409 -0.003133 0.010357 -0.007040 -0.001606 0.010426
# 4 0.002122 -0.000716 -0.007040 0.033365 0.003565 -0.005577
# 5 0.002303 0.005855 -0.001606 0.003565 0.026514 -0.018783
# 6 -0.015167 -0.021166 0.010426 -0.005577 -0.018783 0.089051
#
#
# Mechanical properties :
#
#
# Convention : Reuss Voigt Hill
#
# Bulk Modulus (GPa) = 27.15590 53.32299 40.23945
# Shear Modulus (GPa) = 21.93181 39.64074 30.78628
#
# Velocity S-wave (km/s) = 2.94347 3.95724 3.48739
# Velocity P-wave (km/s) = 4.72014 6.47646 5.66676
#
# Compressibility (1/GPa) = 0.03682440
#
# Stress axis : x y z
#
# Youngs Moduli (GPa) = 33.95290 83.40628 96.54931
#
# Poissons Ratio (x) = -0.17132 0.61878
# Poissons Ratio (y) = -0.06974 0.30245
# Poissons Ratio (z) = 0.21760 0.26128
#
# Static dielectric constant tensor:
#      x y z
#    x 2.168600 -0.075510 0.037310 
#    y -0.075510 1.962090 -0.034540 
#    z 0.037310 -0.034540 2.007140 
# 
# From -- ./inp_files/9308.got.cif
#   From: 2010.05.17/outbox.cif.g08.bks.cpg/sg2_5_cif.got.tgz:9308.got - 2010.06.03 11:33:40.
