data_PCOD9002681
_publ_section_title
;
Structure prediction by ZEFSAII (Michael W. Deem and Ramdas Pophale) SiO2 
 PCOD9002681
Probable space group: P -1
;
_chemical_formula_sum "Si O2"
_cell_formula_units_Z 16
_cell_length_a 21.233575
_cell_length_b 25.446279
_cell_length_c 8.589259
_cell_angle_alpha 144.039637
_cell_angle_beta 40.850756
_cell_angle_gamma 164.647037
_cell_volume 712.815309
_symmetry_space_group_name_H-M "P -1"
_symmetry_group_IT_number 2
_symmetry_cell_setting 'triclinic'
loop_
_space_group_symop_operation_xyz
x,y,z
-x,-y,-z
loop_
_atom_site_type_symbol
_atom_site_label
_atom_site_fract_x
_atom_site_fract_y
_atom_site_fract_z
Si Si1 0.481819 0.527573 0.928326
Si Si2 0.498267 0.636788 0.638530
Si Si3 0.987733 0.640807 0.643502
Si Si4 0.277614 0.588627 0.718269
Si Si5 0.954914 0.120038 0.809204
Si Si6 0.320138 0.769862 0.336397
Si Si7 0.272537 0.073840 0.531849
Si Si8 0.504208 0.230056 0.760679
O O1 0.552351 0.510798 0.633756
O O2 0.207677 0.319476 0.898774
O O3 0.500000 0.500000 0.000000
O O4 0.644424 0.754416 0.173042
O O5 0.308247 0.528094 0.625175
O O6 0.758890 0.880263 0.655410
O O7 0.514444 0.700067 0.924639
O O8 0.934787 0.592178 0.442664
O O9 0.740562 0.444702 0.728217
O O10 0.095667 0.639225 0.494883
O O11 0.134083 0.856511 0.918103
O O12 0.518983 0.791814 0.646426
O O13 0.259325 0.655946 0.029954
O O14 0.957173 0.121859 0.620975
O O15 0.441127 0.809842 0.333988
O O16 0.500000 0.000000 0.500000
O O17 0.283799 0.034765 0.583258
#
# Coordination Sequence:
#
# PCOD9002681 Si02
#       8
#     2   2   2   2   2   2   2   2
#     4  12  20  38  67  94 121 164 212 253 305 356
#     4  10  21  36  63  91 122 162 207 256 298 368
#     4  11  20  39  62  87 124 164 200 253 317 365
#     4   9  18  37  57  89 121 153 200 251 302 356
#     4  11  21  39  64  92 121 164 212 249 305 363
#     4  11  22  38  65  92 117 161 214 253 299 377
#     4  10  21  39  61  87 131 163 198 259 307 360
#     4  10  22  42  57  88 130 160 197 258 318 360
#
# _framework density 22.446204999999999
#
# number of rings (size 3 to 8) (size 9 to 14) (size 15 to 20)
#    0.000    1.500    5.000    3.375    0.000    0.500 
#    0.000   13.750    0.000    0.000    0.000    0.000 
#    0.000    0.000    0.000    0.000    0.000    0.000 
#
# Total GULP energy -89413.314856 kJ/mol
# GULP energy per Si atom -5588.332178 kJ/mol
# Density = 2.239512 g / cm^3
# Si number density = 22.446205 Si / 1000 Ang^3
#
#
#
# Elastic Constant Matrix: (Units=GPa)
#
#
# Indices 1 2 3 4 5 6 
#
# 1 143.1613 19.4577 78.9614 3.4058 28.9372 23.5724
# 2 19.4577 35.6185 21.5131 -3.7424 5.1697 12.5244
# 3 78.9614 21.5131 134.2583 -3.3839 -1.7791 28.6747
# 4 3.4058 -3.7424 -3.3839 36.3488 6.9230 2.8570
# 5 28.9372 5.1697 -1.7791 6.9230 47.4161 2.0951
# 6 23.5724 12.5244 28.6747 2.8570 2.0951 24.9035
#
#
#
# Elastic Compliance Matrix: (Units=1/GPa)
#
#
# Indices 1 2 3 4 5 6 
#
# 1 0.013110 -0.000603 -0.007011 -0.000151 -0.008029 -0.003341
# 2 -0.000603 0.036264 -0.002022 0.005553 -0.003780 -0.015657
# 3 -0.007011 -0.002022 0.013919 0.001459 0.005205 -0.008979
# 4 -0.000151 0.005553 0.001459 0.029661 -0.004464 -0.007356
# 5 -0.008029 -0.003780 0.005205 -0.004464 0.027172 0.001734
# 6 -0.003341 -0.015657 -0.008979 -0.007356 0.001734 0.062229
#
#
# Mechanical properties :
#
#
# Convention : Reuss Voigt Hill
#
# Bulk Modulus (GPa) = 22.71631 61.43361 42.07496
# Shear Modulus (GPa) = 23.11590 34.60742 28.86166
#
# Velocity S-wave (km/s) = 3.21259 3.93083 3.58972
# Velocity P-wave (km/s) = 4.88910 6.93041 5.99724
#
# Compressibility (1/GPa) = 0.04402123
#
# Stress axis : x y z
#
# Youngs Moduli (GPa) = 76.27531 27.57568 71.84443
#
# Poissons Ratio (x) = 0.01664 0.50367
# Poissons Ratio (y) = 0.04603 0.14527
# Poissons Ratio (z) = 0.53473 0.05576
#
# Static dielectric constant tensor:
#      x y z
#    x 1.860670 0.043550 0.004850 
#    y 0.043550 1.975290 -0.021950 
#    z 0.004850 -0.021950 1.815230 
# 
# From -- ./inp_files/218767.got.cif
#   From: 2010.05.17/outbox.cif.g08.bks.cpg/sg2_110_cif.got.tgz:218767.got - 2010.06.03 11:33:40.
