data_PCOD9002350
_publ_section_title
;
Structure prediction by ZEFSAII (Michael W. Deem and Ramdas Pophale) SiO2 
 PCOD9002350
Probable space group: P -1
;
_chemical_formula_sum "Si O2"
_cell_formula_units_Z 16
_cell_length_a 15.205018
_cell_length_b 8.964456
_cell_length_c 11.788998
_cell_angle_alpha 106.328436
_cell_angle_beta 135.911374
_cell_angle_gamma 50.196800
_cell_volume 809.527870
_symmetry_space_group_name_H-M "P -1"
_symmetry_group_IT_number 2
_symmetry_cell_setting 'triclinic'
loop_
_space_group_symop_operation_xyz
x,y,z
-x,-y,-z
loop_
_atom_site_type_symbol
_atom_site_label
_atom_site_fract_x
_atom_site_fract_y
_atom_site_fract_z
Si Si1 0.001255 0.545539 0.321611
Si Si2 0.831269 0.186459 0.616626
Si Si3 0.909335 0.800285 0.501063
Si Si4 0.341132 0.391095 0.545349
Si Si5 0.961889 0.788083 0.007380
Si Si6 0.591205 0.950321 0.337921
Si Si7 0.783944 0.654124 0.941485
Si Si8 0.672852 0.112898 0.641396
O O1 0.991378 0.692536 0.434710
O O2 0.015459 0.377334 0.372725
O O3 0.162720 0.447714 0.371088
O O4 0.842819 0.659026 0.120475
O O5 0.724810 0.379379 0.473464
O O6 0.704956 0.222022 0.603171
O O7 0.911627 0.974641 0.581782
O O8 0.971038 0.167040 0.814247
O O9 0.715548 0.900771 0.343150
O O10 0.406827 0.237588 0.681427
O O11 0.496752 0.259322 0.575204
O O12 0.855264 0.726728 0.938106
O O13 0.834194 0.979018 0.845481
O O14 0.125433 0.581656 0.053940
O O15 0.413678 0.174818 0.210927
O O16 0.664903 0.965166 0.525351
#
# Coordination Sequence:
#
# PCOD9002350 Si02
#       8
#     2   2   2   2   2   2   2   2
#     4  10  21  41  64  84 110 153 197 237 279 342
#     4  11  22  37  57  86 118 151 188 237 291 339
#     4   9  22  42  62  86 111 149 197 237 287 336
#     4  11  20  34  56  83 115 151 188 230 282 338
#     4  11  22  35  57  89 120 150 188 236 288 342
#     4  10  21  36  60  84 115 154 192 238 278 339
#     4  11  21  35  60  89 114 150 197 234 280 341
#     4  11  22  36  56  85 122 152 189 233 288 344
#
# _framework density 19.764607000000002
#
# number of rings (size 3 to 8) (size 9 to 14) (size 15 to 20)
#    0.000    1.500    2.500    4.125    3.500    2.000 
#    0.000    0.000    0.000    1.500    0.000    0.000 
#    0.000    0.000    0.000    0.000    0.000    0.000 
#
# Total GULP energy -89170.658525 kJ/mol
# GULP energy per Si atom -5573.166158 kJ/mol
# Density = 1.971962 g / cm^3
# Si number density = 19.764607 Si / 1000 Ang^3
#
#
#
# Elastic Constant Matrix: (Units=GPa)
#
#
# Indices 1 2 3 4 5 6 
#
# 1 41.3451 33.2173 16.0216 -4.9804 11.5015 -4.4894
# 2 33.2173 94.3632 39.1186 -8.4738 -3.7265 8.3172
# 3 16.0216 39.1186 69.4245 -12.0893 -1.0105 -11.6535
# 4 -4.9804 -8.4738 -12.0893 23.6227 -3.4477 5.1608
# 5 11.5015 -3.7265 -1.0105 -3.4477 19.6736 -4.5573
# 6 -4.4894 8.3172 -11.6535 5.1608 -4.5573 20.7843
#
#
#
# Elastic Compliance Matrix: (Units=1/GPa)
#
#
# Indices 1 2 3 4 5 6 
#
# 1 0.050176 -0.021189 0.001690 -0.003786 -0.030564 0.014503
# 2 -0.021189 0.025687 -0.011886 0.004895 0.012888 -0.019909
# 3 0.001690 -0.011886 0.024756 0.005208 0.003210 0.018412
# 4 -0.003786 0.004895 0.005208 0.049571 0.009774 -0.010022
# 5 -0.030564 0.012888 0.003210 0.009774 0.073901 0.003818
# 6 0.014503 -0.019909 0.018412 -0.010022 0.003818 0.072862
#
#
# Mechanical properties :
#
#
# Convention : Reuss Voigt Hill
#
# Bulk Modulus (GPa) = 26.42058 42.42753 34.42405
# Shear Modulus (GPa) = 13.42866 20.60115 17.01491
#
# Velocity S-wave (km/s) = 2.60942 3.23201 2.93725
# Velocity P-wave (km/s) = 4.74082 5.95322 5.38127
#
# Compressibility (1/GPa) = 0.03784929
#
# Stress axis : x y z
#
# Youngs Moduli (GPa) = 19.92981 38.93077 40.39466
#
# Poissons Ratio (x) = 0.82489 -0.06826
# Poissons Ratio (y) = 0.42228 0.48012
# Poissons Ratio (z) = -0.03368 0.46272
#
# Static dielectric constant tensor:
#      x y z
#    x 1.732890 0.019330 0.009200 
#    y 0.019330 1.738350 -0.010610 
#    z 0.009200 -0.010610 1.682550 
# 
# From -- ./inp_files/181662.got.cif
#   From: 2010.05.17/outbox.cif.g08.bks.cpg/sg2_91_cif.got.tgz:181662.got - 2010.06.03 11:33:40.
