data_PCOD9002955
_publ_section_title
;
Structure prediction by ZEFSAII (Michael W. Deem and Ramdas Pophale) SiO2 
 PCOD9002955
Probable space group: P -1
;
_chemical_formula_sum "Si O2"
_cell_formula_units_Z 14
_cell_length_a 12.230302
_cell_length_b 9.002445
_cell_length_c 7.658750
_cell_angle_alpha 64.504202
_cell_angle_beta 127.572919
_cell_angle_gamma 111.699962
_cell_volume 596.434387
_symmetry_space_group_name_H-M "P -1"
_symmetry_group_IT_number 2
_symmetry_cell_setting 'triclinic'
loop_
_space_group_symop_operation_xyz
x,y,z
-x,-y,-z
loop_
_atom_site_type_symbol
_atom_site_label
_atom_site_fract_x
_atom_site_fract_y
_atom_site_fract_z
Si Si1 0.029964 0.645239 0.599778
Si Si2 0.750092 0.724115 0.405916
Si Si3 0.182063 0.446242 0.074160
Si Si4 0.159295 0.087696 0.092223
Si Si5 0.548956 0.870005 0.750937
Si Si6 0.481319 0.492926 0.273958
Si Si7 0.284103 0.935678 0.631194
O O1 0.162324 0.783022 0.622624
O O2 0.000000 0.500000 0.500000
O O3 0.891560 0.729604 0.434155
O O4 0.066655 0.560692 0.861212
O O5 0.785992 0.622043 0.668843
O O6 0.610605 0.612244 0.255340
O O7 0.717543 0.906283 0.325724
O O8 0.146783 0.278814 0.013702
O O9 0.327034 0.538977 0.086536
O O10 0.284231 0.082963 0.073929
O O11 0.235665 0.013591 0.365348
O O12 0.000000 0.000000 0.000000
O O13 0.524998 0.690880 0.720411
O O14 0.436057 0.880589 0.787814
O O15 0.500000 0.000000 0.500000
O O16 0.500000 0.500000 0.500000
#
# Coordination Sequence:
#
# PCOD9002955 Si02
#       7
#     2   2   2   2   2   2   2
#     4  12  23  37  58  87 118 151 189 241 296 338
#     4  10  21  40  61  81 113 157 196 236 283 342
#     4   9  20  37  58  85 113 147 193 235 282 346
#     4   9  17  33  56  84 114 147 188 232 279 339
#     4   9  17  32  55  83 112 148 188 230 278 342
#     4   9  17  34  59  83 109 146 193 238 279 334
#     4  10  21  37  55  81 115 152 191 234 286 341
#
# _framework density 23.472826999999999
#
# number of rings (size 3 to 8) (size 9 to 14) (size 15 to 20)
#    0.000    2.286    0.000    5.143    0.000    1.143 
#    0.000   14.286    0.000    6.857    0.000    0.000 
#    0.000    0.000    0.000    0.000    0.000    0.000 
#
# Total GULP energy -78096.911413 kJ/mol
# GULP energy per Si atom -5578.350815 kJ/mol
# Density = 2.341940 g / cm^3
# Si number density = 23.472827 Si / 1000 Ang^3
#
#
#
# Elastic Constant Matrix: (Units=GPa)
#
#
# Indices 1 2 3 4 5 6 
#
# 1 168.9705 75.4042 38.8950 14.4477 55.7244 11.0036
# 2 75.4042 118.5506 41.0798 5.2287 27.0275 14.2912
# 3 38.8950 41.0798 95.1614 -3.1072 22.6802 -3.7066
# 4 14.4477 5.2287 -3.1072 27.4024 9.2524 11.7006
# 5 55.7244 27.0275 22.6802 9.2524 59.3334 2.6134
# 6 11.0036 14.2912 -3.7066 11.7006 2.6134 41.2750
#
#
#
# Elastic Compliance Matrix: (Units=1/GPa)
#
#
# Indices 1 2 3 4 5 6 
#
# 1 0.010901 -0.004902 -0.000662 -0.002335 -0.007382 -0.000139
# 2 -0.004902 0.013320 -0.003855 0.001333 -0.000021 -0.004028
# 3 -0.000662 -0.003855 0.013398 0.002801 -0.003274 0.002128
# 4 -0.002335 0.001333 0.002801 0.044897 -0.005960 -0.011937
# 5 -0.007382 -0.000021 -0.003274 -0.005960 0.025901 0.001731
# 6 -0.000139 -0.004028 0.002128 -0.011937 0.001731 0.029125
#
#
# Mechanical properties :
#
#
# Convention : Reuss Voigt Hill
#
# Bulk Modulus (GPa) = 53.24258 77.04895 65.14576
# Shear Modulus (GPa) = 30.74261 40.75572 35.74916
#
# Velocity S-wave (km/s) = 3.62292 4.17141 3.90680
# Velocity P-wave (km/s) = 6.34292 7.48978 6.94008
#
# Compressibility (1/GPa) = 0.01878196
#
# Stress axis : x y z
#
# Youngs Moduli (GPa) = 91.73337 75.07322 74.63872
#
# Poissons Ratio (x) = 0.36798 0.04941
# Poissons Ratio (y) = 0.44964 0.28774
# Poissons Ratio (z) = 0.06072 0.28942
#
# Static dielectric constant tensor:
#      x y z
#    x 2.088090 0.105290 -0.075160 
#    y 0.105290 1.865600 -0.003150 
#    z -0.075160 -0.003150 2.012240 
# 
# From -- ./inp_files/186032.got.cif
#   From: 2010.05.17/outbox.cif.g08.bks.cpg/sg2_94_cif.got.tgz:186032.got - 2010.06.03 11:33:40.
