data_PCOD9002533
_publ_section_title
;
Structure prediction by ZEFSAII (Michael W. Deem and Ramdas Pophale) SiO2 
 PCOD9002533
Probable space group: P -1
;
_chemical_formula_sum "Si O2"
_cell_formula_units_Z 15
_cell_length_a 14.757615
_cell_length_b 12.267480
_cell_length_c 14.578910
_cell_angle_alpha 50.325387
_cell_angle_beta 20.038404
_cell_angle_gamma 46.617490
_cell_volume 657.034324
_symmetry_space_group_name_H-M "P -1"
_symmetry_group_IT_number 2
_symmetry_cell_setting 'triclinic'
loop_
_space_group_symop_operation_xyz
x,y,z
-x,-y,-z
loop_
_atom_site_type_symbol
_atom_site_label
_atom_site_fract_x
_atom_site_fract_y
_atom_site_fract_z
Si Si1 0.377542 0.320711 0.890818
Si Si2 0.416350 0.787714 0.451246
Si Si3 0.000000 0.000000 0.000000
Si Si4 0.026629 0.614255 0.992184
Si Si5 0.132865 0.325610 0.446020
Si Si6 0.810116 0.940117 0.778829
Si Si7 0.424368 0.044436 0.420117
Si Si8 0.655969 0.218163 0.872999
O O1 0.532431 0.257249 0.680891
O O2 0.224973 0.499049 0.937222
O O3 0.576228 0.277260 0.813272
O O4 0.145275 0.235312 0.163329
O O5 0.179170 0.725924 0.748668
O O6 0.382237 0.958517 0.414003
O O7 0.707176 0.700379 0.275190
O O8 0.241063 0.991240 0.697465
O O9 0.250101 0.988203 0.847298
O O10 0.000000 0.500000 0.000000
O O11 0.273759 0.222397 0.454004
O O12 0.000000 0.500000 0.500000
O O13 0.886488 0.274580 0.667787
O O14 0.375819 0.284761 0.161427
O O15 0.778613 0.036608 0.848939
O O16 0.000000 0.000000 0.500000
O O17 0.500000 0.000000 0.000000
#
# Coordination Sequence:
#
# PCOD9002533 Si02
#       8
#     2   2   1   2   2   2   2   2
#     4  10  22  41  65 101 147 181 223 281 340 437
#     4  11  23  41  67 102 137 189 224 284 363 413
#     4  10  24  48  76 104 124 180 242 304 348 404
#     4  10  22  38  60  95 146 182 230 273 342 411
#     4  12  27  49  70 100 142 186 236 297 363 405
#     4  10  21  36  61  94 135 173 226 270 330 413
#     4  11  24  49  76 100 141 174 245 300 356 420
#     4  11  24  43  67 103 136 188 237 271 351 430
#
# _framework density 22.829857000000001
#
# number of rings (size 3 to 8) (size 9 to 14) (size 15 to 20)
#    0.000    1.333    0.000    6.000    0.000   12.800 
#   14.400    0.000    0.000    0.000    0.000    0.000 
#    0.000    0.000    0.000    0.000    0.000    0.000 
#
# Total GULP energy -83575.767363 kJ/mol
# GULP energy per Si atom -5571.717824 kJ/mol
# Density = 2.277789 g / cm^3
# Si number density = 22.829857 Si / 1000 Ang^3
#
#
#
# Elastic Constant Matrix: (Units=GPa)
#
#
# Indices 1 2 3 4 5 6 
#
# 1 79.5096 9.3493 41.6003 -3.3755 -23.5183 -1.6985
# 2 9.3493 82.4145 25.8136 -9.3119 -9.6090 12.2235
# 3 41.6003 25.8136 196.6036 -3.0225 -30.7489 9.5774
# 4 -3.3755 -9.3119 -3.0225 31.1523 4.7649 -0.7760
# 5 -23.5183 -9.6090 -30.7489 4.7649 49.2825 0.2481
# 6 -1.6985 12.2235 9.5774 -0.7760 0.2481 28.8471
#
#
#
# Elastic Compliance Matrix: (Units=1/GPa)
#
#
# Indices 1 2 3 4 5 6 
#
# 1 0.015692 -0.000580 -0.002423 0.000451 0.005810 0.001936
# 2 -0.000580 0.013951 -0.001169 0.003645 0.001389 -0.005471
# 3 -0.002423 -0.001169 0.006231 -0.000442 0.002555 -0.001750
# 4 0.000451 0.003645 -0.000442 0.033582 -0.002594 -0.000446
# 5 0.005810 0.001389 0.002555 -0.002594 0.025187 -0.001381
# 6 0.001936 -0.005471 -0.001750 -0.000446 -0.001381 0.037679
#
#
# Mechanical properties :
#
#
# Convention : Reuss Voigt Hill
#
# Bulk Modulus (GPa) = 36.32443 56.89489 46.60966
# Shear Modulus (GPa) = 33.36857 40.64066 37.00462
#
# Velocity S-wave (km/s) = 3.82726 4.22376 4.03039
# Velocity P-wave (km/s) = 5.95618 6.98300 6.48993
#
# Compressibility (1/GPa) = 0.02752968
#
# Stress axis : x y z
#
# Youngs Moduli (GPa) = 63.72612 71.67884 160.49899
#
# Poissons Ratio (x) = 0.04157 0.38887
# Poissons Ratio (y) = 0.03696 0.18766
# Poissons Ratio (z) = 0.15440 0.08381
#
# Static dielectric constant tensor:
#      x y z
#    x 1.904320 -0.052000 0.027680 
#    y -0.052000 1.950980 0.012480 
#    z 0.027680 0.012480 1.823760 
# 
# From -- ./inp_files/531702.got.cif
#   From: 2010.05.17/outbox.cif.g08.bks.cpg/sg2_266_cif.got.tgz:531702.got - 2010.06.03 11:33:40.
