data_PCOD9002795
_publ_section_title
;
Structure prediction by ZEFSAII (Michael W. Deem and Ramdas Pophale) SiO2 
 PCOD9002795
Probable space group: P -1
;
_chemical_formula_sum "Si O2"
_cell_formula_units_Z 16
_cell_length_a 12.052031
_cell_length_b 7.838998
_cell_length_c 8.419113
_cell_angle_alpha 68.403359
_cell_angle_beta 60.803725
_cell_angle_gamma 70.938633
_cell_volume 634.923853
_symmetry_space_group_name_H-M "P -1"
_symmetry_group_IT_number 2
_symmetry_cell_setting 'triclinic'
loop_
_space_group_symop_operation_xyz
x,y,z
-x,-y,-z
loop_
_atom_site_type_symbol
_atom_site_label
_atom_site_fract_x
_atom_site_fract_y
_atom_site_fract_z
Si Si1 0.628107 0.314519 0.292912
Si Si2 0.167678 0.140587 0.931679
Si Si3 0.012379 0.296483 0.706558
Si Si4 0.187314 0.954355 0.549327
Si Si5 0.999214 0.355759 0.201425
Si Si6 0.726033 0.282414 0.910573
Si Si7 0.421545 0.861073 0.189598
Si Si8 0.613169 0.664662 0.392084
O O1 0.714246 0.118652 0.350257
O O2 0.645463 0.454782 0.376336
O O3 0.475789 0.309162 0.399162
O O4 0.677644 0.386688 0.070713
O O5 0.133652 0.227366 0.100261
O O6 0.239122 0.934232 0.987200
O O7 0.040570 0.176610 0.894615
O O8 0.258977 0.252473 0.730725
O O9 0.024537 0.505166 0.680535
O O10 0.863773 0.321425 0.749606
O O11 0.103077 0.158321 0.570700
O O12 0.095098 0.796948 0.666054
O O13 0.284501 0.947778 0.336347
O O14 0.000000 0.500000 0.000000
O O15 0.616957 0.290968 0.852250
O O16 0.517807 0.771812 0.289781
O O17 0.500000 0.000000 0.000000
#
# Coordination Sequence:
#
# PCOD9002795 Si02
#       8
#     2   2   2   2   2   2   2   2
#     4  10  21  38  65  95 124 168 226 281 321 372
#     4  11  19  35  65  94 129 162 213 275 325 375
#     4  11  22  38  67 101 129 167 215 276 334 383
#     4  11  22  43  68  98 136 168 222 275 325 396
#     4  10  21  36  65 101 133 163 210 275 336 379
#     4  12  22  39  65  93 130 171 222 263 329 395
#     4  11  26  45  64  92 134 186 215 264 333 395
#     4  10  22  41  63  92 130 170 220 277 323 383
#
# _framework density 25.199871999999999
#
# number of rings (size 3 to 8) (size 9 to 14) (size 15 to 20)
#    0.000    1.250    3.750    4.125    0.000    2.500 
#    0.000    1.875    0.000    0.000    0.000    0.000 
#    0.000    0.000    0.000    0.000    0.000    0.000 
#
# Total GULP energy -89365.825637 kJ/mol
# GULP energy per Si atom -5585.364102 kJ/mol
# Density = 2.514252 g / cm^3
# Si number density = 25.199872 Si / 1000 Ang^3
#
#
#
# Elastic Constant Matrix: (Units=GPa)
#
#
# Indices 1 2 3 4 5 6 
#
# 1 69.0459 20.8866 22.3515 -6.1080 -14.2780 7.9963
# 2 20.8866 110.8231 44.5160 -2.3738 -26.2191 4.5676
# 3 22.3515 44.5160 121.1134 -8.8394 -30.1680 10.6437
# 4 -6.1080 -2.3738 -8.8394 28.3922 -3.6868 -0.7549
# 5 -14.2780 -26.2191 -30.1680 -3.6868 40.6751 -7.4684
# 6 7.9963 4.5676 10.6437 -0.7549 -7.4684 33.6714
#
#
#
# Elastic Compliance Matrix: (Units=1/GPa)
#
#
# Indices 1 2 3 4 5 6 
#
# 1 0.016726 -0.001631 -0.001030 0.003585 0.003927 -0.002474
# 2 -0.001631 0.011607 -0.002743 0.000445 0.005065 0.000813
# 3 -0.001030 -0.002743 0.011484 0.003925 0.006470 -0.001490
# 4 0.003585 0.000445 0.003925 0.038305 0.008017 0.000485
# 5 0.003927 0.005065 0.006470 0.008017 0.035562 0.004403
# 6 -0.002474 0.000813 -0.001490 0.000485 0.004403 0.031635
#
#
# Mechanical properties :
#
#
# Convention : Reuss Voigt Hill
#
# Bulk Modulus (GPa) = 34.47173 52.94341 43.70757
# Shear Modulus (GPa) = 30.15780 34.76295 32.46037
#
# Velocity S-wave (km/s) = 3.46315 3.71818 3.59293
# Velocity P-wave (km/s) = 5.44979 6.28396 5.88168
#
# Compressibility (1/GPa) = 0.02900928
#
# Stress axis : x y z
#
# Youngs Moduli (GPa) = 59.78875 86.15775 87.07811
#
# Poissons Ratio (x) = 0.14050 0.08971
# Poissons Ratio (y) = 0.09750 0.23882
# Poissons Ratio (z) = 0.06159 0.23629
#
# Static dielectric constant tensor:
#      x y z
#    x 2.028590 0.032100 0.004180 
#    y 0.032100 2.058840 0.030090 
#    z 0.004180 0.030090 2.053860 
# 
# From -- ./inp_files/238906.got.cif
#   From: 2010.05.17/outbox.cif.g08.bks.cpg/sg2_120_cif.got.tgz:238906.got - 2010.06.03 11:33:40.
