data_PCOD9002429
_publ_section_title
;
Structure prediction by ZEFSAII (Michael W. Deem and Ramdas Pophale) SiO2 
 PCOD9002429
Probable space group: P -1
;
_chemical_formula_sum "Si O2"
_cell_formula_units_Z 16
_cell_length_a 9.188977
_cell_length_b 11.958237
_cell_length_c 14.466508
_cell_angle_alpha 121.372009
_cell_angle_beta 141.464635
_cell_angle_gamma 45.883343
_cell_volume 709.970538
_symmetry_space_group_name_H-M "P -1"
_symmetry_group_IT_number 2
_symmetry_cell_setting 'triclinic'
loop_
_space_group_symop_operation_xyz
x,y,z
-x,-y,-z
loop_
_atom_site_type_symbol
_atom_site_label
_atom_site_fract_x
_atom_site_fract_y
_atom_site_fract_z
Si Si1 0.589368 0.307524 0.713690
Si Si2 0.543590 0.663035 0.144428
Si Si3 0.456057 0.558272 0.607270
Si Si4 0.263805 0.013114 0.155246
Si Si5 0.921121 0.726424 0.523076
Si Si6 0.163487 0.959783 0.417822
Si Si7 0.870109 0.322976 0.196881
Si Si8 0.432313 0.853606 0.706690
O O1 0.639293 0.329929 0.854413
O O2 0.591986 0.422609 0.691502
O O3 0.286106 0.328752 0.580444
O O4 0.778883 0.140909 0.688173
O O5 0.512747 0.829930 0.213225
O O6 0.822869 0.489228 0.213425
O O7 0.387618 0.671674 0.976979
O O8 0.500000 0.500000 0.500000
O O9 0.557710 0.676033 0.718770
O O10 0.126318 0.651514 0.506246
O O11 0.372995 0.079486 0.160451
O O12 0.140256 0.156568 0.229151
O O13 0.000000 0.000000 0.000000
O O14 0.124519 0.677901 0.691188
O O15 0.768783 0.910964 0.516429
O O16 0.334091 0.870859 0.557197
O O17 0.844507 0.044996 0.326931
#
# Coordination Sequence:
#
# PCOD9002429 Si02
#       8
#     2   2   2   2   2   2   2   2
#     4  12  21  38  63 100 123 166 225 270 321 395
#     4  10  22  38  63  95 127 161 222 273 320 377
#     4  11  23  37  57  92 140 168 202 263 342 395
#     4  10  21  40  67  94 122 175 228 268 322 386
#     4  11  22  37  64  96 124 168 221 272 319 390
#     4  10  21  36  60  93 135 164 210 270 342 386
#     4  10  21  39  62  95 126 164 212 274 324 376
#     4  10  21  40  57  93 137 174 205 267 342 400
#
# _framework density 22.536147
#
# number of rings (size 3 to 8) (size 9 to 14) (size 15 to 20)
#    0.000    1.500    2.500    3.000    0.000    0.000 
#    2.250    0.000    0.000   30.000    0.000    0.000 
#    0.000    0.000    0.000    0.000    0.000    0.000 
#
# Total GULP energy -89265.042255 kJ/mol
# GULP energy per Si atom -5579.065141 kJ/mol
# Density = 2.248485 g / cm^3
# Si number density = 22.536147 Si / 1000 Ang^3
#
#
#
# Elastic Constant Matrix: (Units=GPa)
#
#
# Indices 1 2 3 4 5 6 
#
# 1 114.1371 45.2777 37.0698 16.3494 -2.1328 5.9108
# 2 45.2777 172.3880 21.6586 15.8135 2.6408 16.6515
# 3 37.0698 21.6586 61.2607 11.7864 -6.9099 4.1324
# 4 16.3494 15.8135 11.7864 25.4000 4.7859 -7.4824
# 5 -2.1328 2.6408 -6.9099 4.7859 30.3796 7.8343
# 6 5.9108 16.6515 4.1324 -7.4824 7.8343 56.9691
#
#
#
# Elastic Compliance Matrix: (Units=1/GPa)
#
#
# Indices 1 2 3 4 5 6 
#
# 1 0.012053 -0.001985 -0.005628 -0.004304 0.000653 -0.000917
# 2 -0.001985 0.006916 -0.000355 -0.003609 0.000343 -0.002311
# 3 -0.005628 -0.000355 0.022543 -0.008827 0.006943 -0.003062
# 4 -0.004304 -0.003609 -0.008827 0.054286 -0.013415 0.011116
# 5 0.000653 0.000343 0.006943 -0.013415 0.038623 -0.007745
# 6 -0.000917 -0.002311 -0.003062 0.011116 -0.007745 0.021071
#
#
# Mechanical properties :
#
#
# Convention : Reuss Voigt Hill
#
# Bulk Modulus (GPa) = 39.10010 61.75532 50.42771
# Shear Modulus (GPa) = 27.78507 38.80171 33.29339
#
# Velocity S-wave (km/s) = 3.51509 4.15390 3.84778
# Velocity P-wave (km/s) = 5.81912 7.10414 6.49349
#
# Compressibility (1/GPa) = 0.02557538
#
# Stress axis : x y z
#
# Youngs Moduli (GPa) = 82.96675 144.59524 44.36007
#
# Poissons Ratio (x) = 0.28706 0.24966
# Poissons Ratio (y) = 0.16471 0.01575
# Poissons Ratio (z) = 0.46693 0.05132
#
# Static dielectric constant tensor:
#      x y z
#    x 1.799950 -0.008220 0.008440 
#    y -0.008220 1.927890 -0.025600 
#    z 0.008440 -0.025600 1.888030 
# 
# From -- ./inp_files/498145.got.cif
#   From: 2010.05.17/outbox.cif.g08.bks.cpg/sg2_250_cif.got.tgz:498145.got - 2010.06.03 11:33:40.
