data_PCOD9002217
_publ_section_title
;
Structure prediction by ZEFSAII (Michael W. Deem and Ramdas Pophale) SiO2 
 PCOD9002217
Probable space group: P -1
;
_chemical_formula_sum "Si O2"
_cell_formula_units_Z 14
_cell_length_a 8.491431
_cell_length_b 9.756525
_cell_length_c 7.059051
_cell_angle_alpha 106.153426
_cell_angle_beta 104.074645
_cell_angle_gamma 91.677613
_cell_volume 541.911316
_symmetry_space_group_name_H-M "P -1"
_symmetry_group_IT_number 2
_symmetry_cell_setting 'triclinic'
loop_
_space_group_symop_operation_xyz
x,y,z
-x,-y,-z
loop_
_atom_site_type_symbol
_atom_site_label
_atom_site_fract_x
_atom_site_fract_y
_atom_site_fract_z
Si Si1 0.298009 0.697955 0.727159
Si Si2 0.648053 0.799872 0.270016
Si Si3 0.816425 0.817622 0.711836
Si Si4 0.846523 0.394261 0.975905
Si Si5 0.681097 0.113613 0.839125
Si Si6 0.371761 0.402220 0.164890
Si Si7 0.878029 0.068342 0.345855
O O1 0.184044 0.599580 0.802761
O O2 0.454507 0.616540 0.693751
O O3 0.203817 0.784395 0.578604
O O4 0.357387 0.830192 0.939459
O O5 0.756353 0.763784 0.465883
O O6 0.478914 0.854263 0.308911
O O7 0.741403 0.935159 0.238485
O O8 0.620241 0.669047 0.067567
O O9 0.767947 0.692516 0.795775
O O10 0.717761 0.952566 0.777700
O O11 0.004813 0.880381 0.775209
O O12 0.836169 0.224649 0.866591
O O13 0.691791 0.446777 0.839115
O O14 0.000000 0.500000 0.000000
O O15 0.000000 0.000000 0.500000
#
# Coordination Sequence:
#
# PCOD9002217 Si02
#       7
#     2   2   2   2   2   2   2
#     4   9  20  37  61  91 121 167 216 247 316 379
#     4  10  22  38  62  93 131 159 215 254 318 371
#     4  11  22  37  63  95 128 163 211 263 314 367
#     4  10  22  39  64  96 126 163 218 259 316 381
#     4   9  21  37  62  91 126 164 210 258 314 377
#     4  11  22  40  70  88 129 174 207 261 315 376
#     4  10  21  36  58  93 131 158 205 264 313 364
#
# _framework density 25.834485999999998
#
# number of rings (size 3 to 8) (size 9 to 14) (size 15 to 20)
#    0.857    1.143    0.000    3.429    2.000    4.571 
#    0.000    0.714    6.286    2.571    0.000    0.000 
#    0.000    0.000    0.000    0.000    0.000    0.000 
#
# Total GULP energy -78233.256543 kJ/mol
# GULP energy per Si atom -5588.089753 kJ/mol
# Density = 2.577569 g / cm^3
# Si number density = 25.834486 Si / 1000 Ang^3
#
#
#
# Elastic Constant Matrix: (Units=GPa)
#
#
# Indices 1 2 3 4 5 6 
#
# 1 94.3524 35.7800 15.5716 -7.5615 14.5709 10.2263
# 2 35.7800 141.3216 28.0602 -29.2405 11.5566 -5.7647
# 3 15.5716 28.0602 63.5094 -19.9176 0.8772 -7.2968
# 4 -7.5615 -29.2405 -19.9176 20.4370 -4.7108 13.2208
# 5 14.5709 11.5566 0.8772 -4.7108 30.2066 -2.8419
# 6 10.2263 -5.7647 -7.2968 13.2208 -2.8419 53.9337
#
#
#
# Elastic Compliance Matrix: (Units=1/GPa)
#
#
# Indices 1 2 3 4 5 6 
#
# 1 0.013204 -0.002612 -0.002542 -0.000504 -0.005686 -0.003303
# 2 -0.002612 0.011060 0.000858 0.017144 -0.000552 -0.002438
# 3 -0.002542 0.000858 0.023795 0.025927 0.004029 -0.002350
# 4 -0.000504 0.017144 0.025927 0.114979 0.008766 -0.022288
# 5 -0.005686 -0.000552 0.004029 0.008766 0.037440 0.001388
# 6 -0.003303 -0.002438 -0.002350 -0.022288 0.001388 0.024126
#
#
# Mechanical properties :
#
#
# Convention : Reuss Voigt Hill
#
# Bulk Modulus (GPa) = 25.33793 50.88968 38.11380
# Shear Modulus (GPa) = 20.29609 35.56690 27.93150
#
# Velocity S-wave (km/s) = 2.80593 3.71445 3.29168
# Velocity P-wave (km/s) = 4.50852 6.17554 5.40666
#
# Compressibility (1/GPa) = 0.03946652
#
# Stress axis : x y z
#
# Youngs Moduli (GPa) = 75.73221 90.41640 42.02522
#
# Poissons Ratio (x) = 0.23620 0.10684
# Poissons Ratio (y) = 0.19784 -0.03606
# Poissons Ratio (z) = 0.19253 -0.07758
#
# Static dielectric constant tensor:
#      x y z
#    x 2.105040 -0.008670 0.051620 
#    y -0.008670 1.988870 -0.046160 
#    z 0.051620 -0.046160 2.116080 
# 
# From -- ./inp_files/151748.got.cif
#   From: 2010.05.17/outbox.cif.g08.bks.cpg/sg2_76_cif.got.tgz:151748.got - 2010.06.03 11:33:40.
