data_PCOD9002545
_publ_section_title
;
Structure prediction by ZEFSAII (Michael W. Deem and Ramdas Pophale) SiO2 
 PCOD9002545
Probable space group: P -1
;
_chemical_formula_sum "Si O2"
_cell_formula_units_Z 16
_cell_length_a 13.923933
_cell_length_b 9.465349
_cell_length_c 5.873098
_cell_angle_alpha 74.246152
_cell_angle_beta 115.858432
_cell_angle_gamma 79.503859
_cell_volume 628.707702
_symmetry_space_group_name_H-M "P -1"
_symmetry_group_IT_number 2
_symmetry_cell_setting 'triclinic'
loop_
_space_group_symop_operation_xyz
x,y,z
-x,-y,-z
loop_
_atom_site_type_symbol
_atom_site_label
_atom_site_fract_x
_atom_site_fract_y
_atom_site_fract_z
Si Si1 0.100022 0.974083 0.429587
Si Si2 0.435558 0.874115 0.987791
Si Si3 0.163956 0.464113 0.217572
Si Si4 0.180132 0.188524 0.672941
Si Si5 0.439188 0.795796 0.516116
Si Si6 0.612762 0.518323 0.329018
Si Si7 0.014148 0.765359 0.180048
Si Si8 0.310055 0.342613 0.035910
O O1 0.192888 0.021825 0.646199
O O2 0.114397 0.811414 0.390253
O O3 0.000000 0.000000 0.500000
O O4 0.052088 0.099198 0.124357
O O5 0.383953 0.883277 0.189055
O O6 0.515867 0.689047 0.165366
O O7 0.394766 0.879589 0.676286
O O8 0.500000 0.000000 0.000000
O O9 0.154447 0.310621 0.387409
O O10 0.282109 0.484459 0.405360
O O11 0.066312 0.609939 0.156012
O O12 0.190237 0.428552 0.997670
O O13 0.074512 0.234099 0.716119
O O14 0.282444 0.224099 0.885745
O O15 0.423325 0.627666 0.586867
O O16 0.576194 0.759444 0.668902
O O17 0.658079 0.522510 0.118346
#
# Coordination Sequence:
#
# PCOD9002545 Si02
#       8
#     2   2   2   2   2   2   2   2
#     4   9  20  39  63  84 121 167 213 256 326 391
#     4  11  22  40  70  98 130 172 222 276 337 394
#     4  11  22  37  63  93 128 158 217 272 316 387
#     4  10  21  37  61  93 123 165 208 264 328 387
#     4  11  23  43  71  96 132 181 224 272 332 397
#     4  10  23  41  66  94 127 174 220 269 325 393
#     4  10  21  39  63  89 122 166 212 264 322 387
#     4  10  21  36  61  97 126 161 213 272 328 382
#
# _framework density 25.449027000000001
#
# number of rings (size 3 to 8) (size 9 to 14) (size 15 to 20)
#    0.000    1.750    1.250    3.375    1.750    6.000 
#    0.000    3.750   30.250    0.000    0.000    0.000 
#    0.000    0.000    0.000    0.000    0.000    0.000 
#
# Total GULP energy -89368.431888 kJ/mol
# GULP energy per Si atom -5585.526993 kJ/mol
# Density = 2.539110 g / cm^3
# Si number density = 25.449027 Si / 1000 Ang^3
#
#
#
# Elastic Constant Matrix: (Units=GPa)
#
#
# Indices 1 2 3 4 5 6 
#
# 1 92.1911 50.3886 38.4042 6.6940 -29.5684 -4.5342
# 2 50.3886 123.3026 48.7991 14.6352 -13.2250 24.4193
# 3 38.4042 48.7991 119.8820 22.8642 -18.2990 17.3360
# 4 6.6940 14.6352 22.8642 38.7160 10.8151 -0.7783
# 5 -29.5684 -13.2250 -18.2990 10.8151 52.0244 8.1920
# 6 -4.5342 24.4193 17.3360 -0.7783 8.1920 53.3790
#
#
#
# Elastic Compliance Matrix: (Units=1/GPa)
#
#
# Indices 1 2 3 4 5 6 
#
# 1 0.017905 -0.006204 -0.002406 -0.001316 0.007399 0.003986
# 2 -0.006204 0.012983 -0.001687 -0.003185 0.000801 -0.006088
# 3 -0.002406 -0.001687 0.012731 -0.007962 0.005038 -0.004457
# 4 -0.001316 -0.003185 -0.007962 0.035662 -0.012781 0.006412
# 5 0.007399 0.000801 0.005038 -0.012781 0.029007 -0.006012
# 6 0.003986 -0.006088 -0.004457 0.006412 -0.006012 0.024321
#
#
# Mechanical properties :
#
#
# Convention : Reuss Voigt Hill
#
# Bulk Modulus (GPa) = 43.43410 67.83994 55.63702
# Shear Modulus (GPa) = 31.07921 42.00949 36.54435
#
# Velocity S-wave (km/s) = 3.49841 4.06733 3.79355
# Velocity P-wave (km/s) = 5.78123 6.98374 6.41074
#
# Compressibility (1/GPa) = 0.02302339
#
# Stress axis : x y z
#
# Youngs Moduli (GPa) = 55.84964 77.02423 78.54693
#
# Poissons Ratio (x) = 0.47789 0.18902
# Poissons Ratio (y) = 0.34651 0.13252
# Poissons Ratio (z) = 0.13440 0.12995
#
# Static dielectric constant tensor:
#      x y z
#    x 1.370700 0.775780 1.923130 
#    y 0.775780 1.045530 -2.122000 
#    z 1.923130 -2.122000 -3.113310 
# 
# From -- ./inp_files/54616.got.cif
#   From: 2010.05.17/outbox.cif.g08.bks.cpg/sg2_28_cif.got.tgz:54616.got - 2010.06.03 11:33:40.
