data_PCOD9002426
_publ_section_title
;
Structure prediction by ZEFSAII (Michael W. Deem and Ramdas Pophale) SiO2 
 PCOD9002426
Probable space group: P -1
;
_chemical_formula_sum "Si O2"
_cell_formula_units_Z 16
_cell_length_a 12.011335
_cell_length_b 9.083868
_cell_length_c 8.381616
_cell_angle_alpha 111.033777
_cell_angle_beta 118.574263
_cell_angle_gamma 95.461775
_cell_volume 708.774143
_symmetry_space_group_name_H-M "P -1"
_symmetry_group_IT_number 2
_symmetry_cell_setting 'triclinic'
loop_
_space_group_symop_operation_xyz
x,y,z
-x,-y,-z
loop_
_atom_site_type_symbol
_atom_site_label
_atom_site_fract_x
_atom_site_fract_y
_atom_site_fract_z
Si Si1 0.360330 0.557084 0.289785
Si Si2 0.433344 0.538524 0.804127
Si Si3 0.960528 0.430866 0.622080
Si Si4 0.349422 0.785586 0.649741
Si Si5 0.973031 0.976248 0.723193
Si Si6 0.894817 0.714802 0.846117
Si Si7 0.778135 0.957987 0.286056
Si Si8 0.773079 0.604679 0.161336
O O1 0.498499 0.531224 0.319018
O O2 0.384035 0.721207 0.477061
O O3 0.254815 0.400047 0.249362
O O4 0.284863 0.545679 0.062498
O O5 0.429128 0.716468 0.809109
O O6 0.280502 0.444648 0.716161
O O7 0.500000 0.500000 0.000000
O O8 0.808946 0.313975 0.479677
O O9 0.970285 0.584041 0.804968
O O10 0.000000 0.500000 0.500000
O O11 0.068226 0.344281 0.710726
O O12 0.343201 0.970230 0.741865
O O13 0.865974 0.973467 0.512719
O O14 0.903343 0.831982 0.744879
O O15 0.110068 0.955537 0.737257
O O16 0.026062 0.153998 0.916491
O O17 0.728864 0.760802 0.137144
#
# Coordination Sequence:
#
# PCOD9002426 Si02
#       8
#     2   2   2   2   2   2   2   2
#     4  10  23  41  63  89 122 166 214 257 294 365
#     4  10  23  45  67  86 121 168 218 253 303 365
#     4  11  20  34  63  96 123 158 211 254 312 371
#     4  11  23  38  66  93 123 160 208 265 309 368
#     4  10  21  37  58  91 141 164 191 254 326 378
#     4  10  21  36  60  93 126 169 205 254 310 372
#     4  11  22  38  61  94 131 163 197 251 323 375
#     4  11  22  40  65  93 129 165 202 256 314 369
#
# _framework density 22.574183999999999
#
# number of rings (size 3 to 8) (size 9 to 14) (size 15 to 20)
#    0.000    1.500    2.500    3.375    3.500    1.000 
#    0.000    3.125    0.000    0.000    0.000    0.000 
#    0.000    0.000    0.000    0.000    0.000    0.000 
#
# Total GULP energy -89319.404983 kJ/mol
# GULP energy per Si atom -5582.462811 kJ/mol
# Density = 2.252280 g / cm^3
# Si number density = 22.574184 Si / 1000 Ang^3
#
#
#
# Elastic Constant Matrix: (Units=GPa)
#
#
# Indices 1 2 3 4 5 6 
#
# 1 127.1781 41.6126 31.4259 -6.5278 -31.1317 -14.1816
# 2 41.6126 94.7283 32.4857 4.9879 -20.4725 -31.9730
# 3 31.4259 32.4857 92.1229 11.8122 -14.1049 -15.8639
# 4 -6.5278 4.9879 11.8122 32.9840 -3.5246 -5.7022
# 5 -31.1317 -20.4725 -14.1049 -3.5246 40.5976 -5.8931
# 6 -14.1816 -31.9730 -15.8639 -5.7022 -5.8931 48.9059
#
#
#
# Elastic Compliance Matrix: (Units=1/GPa)
#
#
# Indices 1 2 3 4 5 6 
#
# 1 0.011526 -0.001852 -0.002150 0.004694 0.007993 0.002945
# 2 -0.001852 0.017877 -0.002499 0.000706 0.008449 0.011440
# 3 -0.002150 -0.002499 0.013617 -0.004422 0.001706 0.001850
# 4 0.004694 0.000706 -0.004422 0.034265 0.006138 0.005123
# 5 0.007993 0.008449 0.001706 0.006138 0.038137 0.013706
# 6 0.002945 0.011440 0.001850 0.005123 0.013706 0.031629
#
#
# Mechanical properties :
#
#
# Convention : Reuss Voigt Hill
#
# Bulk Modulus (GPa) = 33.31372 58.34197 45.82784
# Shear Modulus (GPa) = 29.40165 38.39784 33.89975
#
# Velocity S-wave (km/s) = 3.61286 4.12875 3.87939
# Velocity P-wave (km/s) = 5.67390 6.97348 6.35698
#
# Compressibility (1/GPa) = 0.03001766
#
# Stress axis : x y z
#
# Youngs Moduli (GPa) = 86.76057 55.93756 73.44006
#
# Poissons Ratio (x) = 0.10358 0.15789
# Poissons Ratio (y) = 0.16066 0.18355
# Poissons Ratio (z) = 0.18653 0.13980
#
# Static dielectric constant tensor:
#      x y z
#    x 1.884240 -0.005090 0.005110 
#    y -0.005090 1.873780 0.017600 
#    z 0.005110 0.017600 1.890890 
# 
# From -- ./inp_files/240246.got.cif
#   From: 2010.05.17/outbox.cif.g08.bks.cpg/sg2_121_cif.got.tgz:240246.got - 2010.06.03 11:33:40.
