data_PCOD9002940
_publ_section_title
;
Structure prediction by ZEFSAII (Michael W. Deem and Ramdas Pophale) SiO2 
 PCOD9002940
Probable space group: P -1
;
_chemical_formula_sum "Si O2"
_cell_formula_units_Z 16
_cell_length_a 23.532464
_cell_length_b 8.462238
_cell_length_c 16.366110
_cell_angle_alpha 49.098251
_cell_angle_beta 153.722778
_cell_angle_gamma 146.935584
_cell_volume 721.366780
_symmetry_space_group_name_H-M "P -1"
_symmetry_group_IT_number 2
_symmetry_cell_setting 'triclinic'
loop_
_space_group_symop_operation_xyz
x,y,z
-x,-y,-z
loop_
_atom_site_type_symbol
_atom_site_label
_atom_site_fract_x
_atom_site_fract_y
_atom_site_fract_z
Si Si1 0.751901 0.199781 0.455898
Si Si2 0.548821 0.860726 0.901023
Si Si3 0.876750 0.156143 0.988525
Si Si4 0.445583 0.165154 0.902395
Si Si5 0.998480 0.764875 0.455509
Si Si6 0.526186 0.393424 0.291664
Si Si7 0.040175 0.797367 0.728849
Si Si8 0.089636 0.028760 0.316455
O O1 0.527800 0.994544 0.240125
O O2 0.857722 0.442008 0.585272
O O3 0.853096 0.438921 0.427405
O O4 0.805473 0.023907 0.581379
O O5 0.472947 0.688325 0.773359
O O6 0.479516 0.689499 0.958372
O O7 0.774756 0.082926 0.115970
O O8 0.917994 0.176665 0.130929
O O9 0.959964 0.040253 0.099231
O O10 0.000000 0.500000 0.000000
O O11 0.645718 0.908738 0.772646
O O12 0.525608 0.426443 0.851359
O O13 0.215369 0.936120 0.683992
O O14 0.500000 0.000000 0.000000
O O15 0.985044 0.987407 0.395302
O O16 0.965607 0.758298 0.318556
O O17 0.734345 0.640456 0.519610
#
# Coordination Sequence:
#
# PCOD9002940 Si02
#       8
#     2   2   2   2   2   2   2   2
#     4  12  22  34  61  87 130 164 191 242 298 363
#     4  11  22  34  58  84 123 166 199 234 295 350
#     4  10  23  44  70  84 107 158 211 261 306 344
#     4  11  22  34  55  89 128 164 194 234 301 360
#     4  10  21  37  54  86 129 168 201 232 290 360
#     4  10  23  39  58  87 121 152 204 248 292 368
#     4  10  23  40  59  90 122 156 211 249 289 361
#     4  10  23  39  56  91 123 154 199 248 304 357
#
# _framework density 22.180119000000001
#
# number of rings (size 3 to 8) (size 9 to 14) (size 15 to 20)
#    0.000    1.500    1.250    4.875    8.750    1.500 
#    0.000    0.625    0.000    3.750    0.000    0.000 
#    0.000    0.000    0.000    0.000    0.000    0.000 
#
# Total GULP energy -89323.128402 kJ/mol
# GULP energy per Si atom -5582.695525 kJ/mol
# Density = 2.212964 g / cm^3
# Si number density = 22.180119 Si / 1000 Ang^3
#
#
#
# Elastic Constant Matrix: (Units=GPa)
#
#
# Indices 1 2 3 4 5 6 
#
# 1 38.2726 11.8821 18.6533 -5.6578 16.3190 -16.4451
# 2 11.8821 54.7428 16.6617 -2.7583 16.7767 7.8214
# 3 18.6533 16.6617 114.8587 1.2433 37.9565 -6.2018
# 4 -5.6578 -2.7583 1.2433 33.9194 -9.2058 8.4729
# 5 16.3190 16.7767 37.9565 -9.2058 30.8510 0.7297
# 6 -16.4451 7.8214 -6.2018 8.4729 0.7297 29.6843
#
#
#
# Elastic Compliance Matrix: (Units=1/GPa)
#
#
# Indices 1 2 3 4 5 6 
#
# 1 0.057395 -0.009096 0.007025 -0.011876 -0.038546 0.039999
# 2 -0.009096 0.024337 -0.000244 0.001379 -0.007435 -0.011714
# 3 0.007025 -0.000244 0.017852 -0.010151 -0.028843 0.011292
# 4 -0.011876 0.001379 -0.010151 0.041842 0.031022 -0.021769
# 5 -0.038546 -0.007435 -0.028843 0.031022 0.102459 -0.036795
# 6 0.039999 -0.011714 0.011292 -0.021769 -0.036795 0.068411
#
#
# Mechanical properties :
#
#
# Convention : Reuss Voigt Hill
#
# Bulk Modulus (GPa) = 10.53142 33.58538 22.05840
# Shear Modulus (GPa) = 14.34399 29.60276 21.97337
#
# Velocity S-wave (km/s) = 2.54580 3.65725 3.15092
# Velocity P-wave (km/s) = 3.66059 5.74534 4.81710
#
# Compressibility (1/GPa) = 0.09495395
#
# Stress axis : x y z
#
# Youngs Moduli (GPa) = 17.42300 41.08925 56.01621
#
# Poissons Ratio (x) = 0.37376 -0.39349
# Poissons Ratio (y) = 0.15848 0.01365
# Poissons Ratio (z) = -0.12239 0.01001
#
# Static dielectric constant tensor:
#      x y z
#    x 1.880580 -0.052390 0.025020 
#    y -0.052390 1.844790 0.034770 
#    z 0.025020 0.034770 1.894120 
# 
# From -- ./inp_files/602273.got.cif
#   From: 2010.05.17/outbox.cif.g08.bks.cpg/sg2_302_cif.got.tgz:602273.got - 2010.06.03 11:33:40.
