data_PCOD9002822
_publ_section_title
;
Structure prediction by ZEFSAII (Michael W. Deem and Ramdas Pophale) SiO2 
 PCOD9002822
Probable space group: P -1
;
_chemical_formula_sum "Si O2"
_cell_formula_units_Z 16
_cell_length_a 17.430363
_cell_length_b 9.410745
_cell_length_c 11.098303
_cell_angle_alpha 57.889366
_cell_angle_beta 53.845937
_cell_angle_gamma 100.816647
_cell_volume 847.015789
_symmetry_space_group_name_H-M "P -1"
_symmetry_group_IT_number 2
_symmetry_cell_setting 'triclinic'
loop_
_space_group_symop_operation_xyz
x,y,z
-x,-y,-z
loop_
_atom_site_type_symbol
_atom_site_label
_atom_site_fract_x
_atom_site_fract_y
_atom_site_fract_z
Si Si1 0.887940 0.213571 0.254716
Si Si2 0.590657 0.480415 0.000662
Si Si3 0.924300 0.940947 0.472370
Si Si4 0.352968 0.556572 0.504309
Si Si5 0.165499 0.091403 0.041500
Si Si6 0.611533 0.001423 0.723201
Si Si7 0.387335 0.246840 0.937328
Si Si8 0.864056 0.938694 0.174599
O O1 0.742406 0.102821 0.480280
O O2 0.871663 0.072996 0.217334
O O3 0.940501 0.158564 0.334870
O O4 0.000000 0.500000 0.000000
O O5 0.757860 0.695584 0.730012
O O6 0.573684 0.529933 0.129653
O O7 0.500000 0.500000 0.000000
O O8 0.523526 0.222165 0.131000
O O9 0.000000 0.000000 0.500000
O O10 0.013952 0.956329 0.283813
O O11 0.263237 0.378811 0.783497
O O12 0.370166 0.776723 0.377150
O O13 0.264104 0.358385 0.566426
O O14 0.501832 0.660454 0.308614
O O15 0.157409 0.991968 0.963790
O O16 0.240821 0.087757 0.078664
O O17 0.611509 0.897581 0.896332
O O18 0.000000 0.000000 0.000000
#
# Coordination Sequence:
#
# PCOD9002822 Si02
#       8
#     2   2   2   2   2   2   2   2
#     4  12  22  40  67  92 125 163 215 265 309 377
#     4  10  21  36  65  92 124 166 213 251 316 373
#     4  12  21  41  67  94 130 166 208 263 321 378
#     4  10  23  39  63  89 128 160 209 257 317 374
#     4  10  22  38  65  91 121 170 209 254 322 377
#     4  11  22  39  61  98 119 162 218 262 304 375
#     4  11  20  40  62  91 124 164 207 258 320 370
#     4  10  21  37  62  88 122 164 209 245 319 380
#
# _framework density 18.889848000000001
#
# number of rings (size 3 to 8) (size 9 to 14) (size 15 to 20)
#    0.750    0.500    5.000    3.000    1.750    0.000 
#    0.000    1.875    0.000    3.000    0.000    0.000 
#    0.000    0.000    0.000    0.000    0.000    0.000 
#
# Total GULP energy -89143.341114 kJ/mol
# GULP energy per Si atom -5571.458820 kJ/mol
# Density = 1.884685 g / cm^3
# Si number density = 18.889848 Si / 1000 Ang^3
#
#
#
# Elastic Constant Matrix: (Units=GPa)
#
#
# Indices 1 2 3 4 5 6 
#
# 1 92.1225 41.8979 41.9018 -4.5336 -10.4484 7.4332
# 2 41.8979 112.0218 41.6801 -4.8238 1.9807 -4.2188
# 3 41.9018 41.6801 106.2588 -0.2480 -14.7520 -10.4361
# 4 -4.5336 -4.8238 -0.2480 28.8749 -5.4169 2.1171
# 5 -10.4484 1.9807 -14.7520 -5.4169 34.5098 4.9154
# 6 7.4332 -4.2188 -10.4361 2.1171 4.9154 26.1303
#
#
#
# Elastic Compliance Matrix: (Units=1/GPa)
#
#
# Indices 1 2 3 4 5 6 
#
# 1 0.016622 -0.004673 -0.004871 0.003354 0.004975 -0.008636
# 2 -0.004673 0.012023 -0.003131 0.000342 -0.003775 0.002702
# 3 -0.004871 -0.003131 0.013615 -0.000922 0.003565 0.005722
# 4 0.003354 0.000342 -0.000922 0.036971 0.007205 -0.005618
# 5 0.004975 -0.003775 0.003565 0.007205 0.034447 -0.007664
# 6 -0.008636 0.002702 0.005722 -0.005618 -0.007664 0.045345
#
#
# Mechanical properties :
#
#
# Convention : Reuss Voigt Hill
#
# Bulk Modulus (GPa) = 59.14071 62.37362 60.75717
# Shear Modulus (GPa) = 26.31422 30.23122 28.27272
#
# Velocity S-wave (km/s) = 3.73639 4.00483 3.87294
# Velocity P-wave (km/s) = 7.07038 7.38080 7.22726
#
# Compressibility (1/GPa) = 0.01690883
#
# Stress axis : x y z
#
# Youngs Moduli (GPa) = 60.15942 83.17454 73.44920
#
# Poissons Ratio (x) = 0.38870 0.35780
# Poissons Ratio (y) = 0.28115 0.22997
# Poissons Ratio (z) = 0.29306 0.26042
#
# Static dielectric constant tensor:
#      x y z
#    x 1.691520 0.021250 -0.008490 
#    y 0.021250 1.672110 0.023580 
#    z -0.008490 0.023580 1.714550 
# 
# From -- ./inp_files/461075.got.cif
#   From: 2010.05.17/outbox.cif.g08.bks.cpg/sg2_231_cif.got.tgz:461075.got - 2010.06.03 11:33:40.
