data_PCOD9002189
_publ_section_title
;
Structure prediction by ZEFSAII (Michael W. Deem and Ramdas Pophale) SiO2 
 PCOD9002189
Probable space group: P -1
;
_chemical_formula_sum "Si O2"
_cell_formula_units_Z 14
_cell_length_a 14.649722
_cell_length_b 19.725095
_cell_length_c 10.879752
_cell_angle_alpha 153.843847
_cell_angle_beta 155.031779
_cell_angle_gamma 25.701691
_cell_volume 516.531518
_symmetry_space_group_name_H-M "P -1"
_symmetry_group_IT_number 2
_symmetry_cell_setting 'triclinic'
loop_
_space_group_symop_operation_xyz
x,y,z
-x,-y,-z
loop_
_atom_site_type_symbol
_atom_site_label
_atom_site_fract_x
_atom_site_fract_y
_atom_site_fract_z
Si Si1 0.036404 0.245359 0.483902
Si Si2 0.321855 0.627514 0.092516
Si Si3 0.690354 0.134927 0.724360
Si Si4 0.198612 0.227116 0.395376
Si Si5 0.333972 0.390816 0.314372
Si Si6 0.255343 0.913266 0.823290
Si Si7 0.789216 0.869531 0.119858
O O1 0.172180 0.279821 0.591046
O O2 0.878323 0.412993 0.646193
O O3 0.213842 0.069551 0.483157
O O4 0.850854 0.194875 0.100995
O O5 0.298058 0.810200 0.310930
O O6 0.449420 0.591795 0.319839
O O7 0.500000 0.500000 0.000000
O O8 0.054521 0.651197 0.784004
O O9 0.420823 0.232394 0.608013
O O10 0.251507 0.023223 0.118472
O O11 0.487327 0.254964 0.172694
O O12 0.215922 0.306676 0.128808
O O13 0.036074 0.863018 0.468565
O O14 0.194928 0.063336 0.889537
O O15 0.500000 0.000000 0.000000
#
# Coordination Sequence:
#
# PCOD9002189 Si02
#       7
#     2   2   2   2   2   2   2
#     4  10  23  42  61  90 122 160 206 247 296 365
#     4  11  21  38  58  96 121 146 202 255 292 359
#     4  10  22  41  65  84 124 167 194 249 310 351
#     4  11  21  38  63  89 121 158 207 240 302 362
#     4  11  21  39  60  92 124 153 200 253 296 353
#     4  10  21  36  58  90 120 160 198 244 301 363
#     4   9  18  34  56  81 125 160 193 238 308 347
#
# _framework density 27.103864999999999
#
# number of rings (size 3 to 8) (size 9 to 14) (size 15 to 20)
#    0.000    1.714    2.857    3.857    0.000    5.143 
#    2.571    0.714    0.000    8.571    0.000    0.000 
#    0.000    0.000    0.000    0.000    0.000    0.000 
#
# Total GULP energy -78374.444388 kJ/mol
# GULP energy per Si atom -5598.174599 kJ/mol
# Density = 2.704218 g / cm^3
# Si number density = 27.103865 Si / 1000 Ang^3
#
#
#
# Elastic Constant Matrix: (Units=GPa)
#
#
# Indices 1 2 3 4 5 6 
#
# 1 71.8963 43.2806 27.3246 -10.3726 7.4813 -16.8303
# 2 43.2806 170.3313 23.9548 19.4991 7.7984 -27.4648
# 3 27.3246 23.9548 89.4371 -6.8369 -0.3016 -6.0815
# 4 -10.3726 19.4991 -6.8369 42.8053 -14.6015 2.5740
# 5 7.4813 7.7984 -0.3016 -14.6015 49.2727 6.1447
# 6 -16.8303 -27.4648 -6.0815 2.5740 6.1447 44.9459
#
#
#
# Elastic Compliance Matrix: (Units=1/GPa)
#
#
# Indices 1 2 3 4 5 6 
#
# 1 0.020069 -0.004416 -0.004252 0.005524 -0.001248 0.004095
# 2 -0.004416 0.008776 -0.001222 -0.006629 -0.003235 0.004365
# 3 -0.004252 -0.001222 0.012919 0.002225 0.001696 -0.000950
# 4 0.005524 -0.006629 0.002225 0.031879 0.010284 -0.004913
# 5 -0.001248 -0.003235 0.001696 0.010284 0.024827 -0.006198
# 6 0.004095 0.004365 -0.000950 -0.004913 -0.006198 0.027450
#
#
# Mechanical properties :
#
#
# Convention : Reuss Voigt Hill
#
# Bulk Modulus (GPa) = 45.49060 57.86494 51.67777
# Shear Modulus (GPa) = 32.67382 43.21177 37.94279
#
# Velocity S-wave (km/s) = 3.47580 3.99720 3.74559
# Velocity P-wave (km/s) = 5.73834 6.53446 6.14930
#
# Compressibility (1/GPa) = 0.02198256
#
# Stress axis : x y z
#
# Youngs Moduli (GPa) = 49.82822 113.94977 77.40752
#
# Poissons Ratio (x) = 0.50324 0.32914
# Poissons Ratio (y) = 0.22006 0.09460
# Poissons Ratio (z) = 0.21187 0.13925
#
# Static dielectric constant tensor:
#      x y z
#    x 2.122270 0.012630 -0.025830 
#    y 0.012630 2.151140 0.043670 
#    z -0.025830 0.043670 2.181240 
# 
# From -- ./inp_files/539419.got.cif
#   From: 2010.05.17/outbox.cif.g08.bks.cpg/sg2_270_cif.got.tgz:539419.got - 2010.06.03 11:33:40.
