data_PCOD9002196
_publ_section_title
;
Structure prediction by ZEFSAII (Michael W. Deem and Ramdas Pophale) SiO2 
 PCOD9002196
Probable space group: P -1
;
_chemical_formula_sum "Si O2"
_cell_formula_units_Z 12
_cell_length_a 14.919661
_cell_length_b 5.067164
_cell_length_c 9.290856
_cell_angle_alpha 122.015031
_cell_angle_beta 133.573390
_cell_angle_gamma 73.120017
_cell_volume 428.249681
_symmetry_space_group_name_H-M "P -1"
_symmetry_group_IT_number 2
_symmetry_cell_setting 'triclinic'
loop_
_space_group_symop_operation_xyz
x,y,z
-x,-y,-z
loop_
_atom_site_type_symbol
_atom_site_label
_atom_site_fract_x
_atom_site_fract_y
_atom_site_fract_z
Si Si1 0.623634 0.474236 0.315837
Si Si2 0.788197 0.493927 0.237979
Si Si3 0.989355 0.811070 0.715296
Si Si4 0.495345 0.059864 0.301840
Si Si5 0.304448 0.498203 0.185752
Si Si6 0.869334 0.602970 0.794316
O O1 0.686631 0.378352 0.211443
O O2 0.558959 0.198812 0.264012
O O3 0.739064 0.655280 0.586707
O O4 0.524524 0.708500 0.240635
O O5 0.898144 0.276777 0.282027
O O6 0.865531 0.812705 0.481820
O O7 0.737971 0.524944 0.031685
O O8 0.950187 0.558152 0.727191
O O9 0.043619 0.126394 0.946823
O O10 0.358701 0.171182 0.190316
O O11 0.577734 0.249376 0.573180
O O12 0.194423 0.586436 0.193971
#
# Coordination Sequence:
#
# PCOD9002196 Si02
#       6
#     2   2   2   2   2   2
#     4  10  22  41  64  92 126 162 202 251 307 366
#     4  10  21  36  58  90 125 160 205 256 307 361
#     4   9  19  37  58  85 125 163 206 253 307 365
#     4  10  23  42  64  91 124 164 206 249 305 369
#     4  10  22  37  61  90 120 161 208 255 304 363
#     4   9  19  37  61  87 122 163 205 251 306 368
#
# _framework density 28.021032999999999
#
# number of rings (size 3 to 8) (size 9 to 14) (size 15 to 20)
#    0.000    2.333    0.000    1.000    0.000   11.333 
#    0.000   11.667    0.000    0.000    0.000    0.000 
#    0.000    0.000    0.000    0.000    0.000    0.000 
#
# Total GULP energy -67178.969428 kJ/mol
# GULP energy per Si atom -5598.247452 kJ/mol
# Density = 2.795726 g / cm^3
# Si number density = 28.021033 Si / 1000 Ang^3
#
#
#
# Elastic Constant Matrix: (Units=GPa)
#
#
# Indices 1 2 3 4 5 6 
#
# 1 231.5485 32.6671 42.3060 -13.5287 -28.3542 21.6667
# 2 32.6671 56.7667 20.2229 -20.2690 -1.6495 18.4077
# 3 42.3060 20.2229 192.0633 -31.5419 -14.4196 14.7325
# 4 -13.5287 -20.2690 -31.5419 40.2922 1.5747 0.4741
# 5 -28.3542 -1.6495 -14.4196 1.5747 59.7337 -4.9113
# 6 21.6667 18.4077 14.7325 0.4741 -4.9113 42.3793
#
#
#
# Elastic Compliance Matrix: (Units=1/GPa)
#
#
# Indices 1 2 3 4 5 6 
#
# 1 0.005126 -0.002283 -0.000640 0.000002 0.002120 -0.001161
# 2 -0.002283 0.027119 0.000618 0.013548 -0.001459 -0.011148
# 3 -0.000640 0.000618 0.006343 0.005049 0.000939 -0.002094
# 4 0.000002 0.013548 0.005049 0.035682 -0.000008 -0.008041
# 5 0.002120 -0.001459 0.000939 -0.000008 0.018042 0.001314
# 6 -0.001161 -0.011148 -0.002094 -0.008041 0.001314 0.030002
#
#
# Mechanical properties :
#
#
# Convention : Reuss Voigt Hill
#
# Bulk Modulus (GPa) = 29.43082 74.53006 51.98044
# Shear Modulus (GPa) = 36.16597 54.15987 45.16292
#
# Velocity S-wave (km/s) = 3.59649 4.40116 4.01902
# Velocity P-wave (km/s) = 5.26994 7.24449 6.33462
#
# Compressibility (1/GPa) = 0.03397799
#
# Stress axis : x y z
#
# Youngs Moduli (GPa) = 195.07641 36.87394 157.65694
#
# Poissons Ratio (x) = 0.08418 0.10092
# Poissons Ratio (y) = 0.44535 -0.09740
# Poissons Ratio (z) = 0.12488 -0.02278
#
# Static dielectric constant tensor:
#      x y z
#    x 2.136620 0.002480 -0.036270 
#    y 0.002480 2.274510 0.081550 
#    z -0.036270 0.081550 2.230580 
# 
# From -- ./inp_files/23040.got.cif
#   From: 2010.05.17/outbox.cif.g08.bks.cpg/sg2_12_cif.got.tgz:23040.got - 2010.06.03 11:33:40.
