data_PCOD9002514
_publ_section_title
;
Structure prediction by ZEFSAII (Michael W. Deem and Ramdas Pophale) SiO2 
 PCOD9002514
Probable space group: P -1
;
_chemical_formula_sum "Si O2"
_cell_formula_units_Z 14
_cell_length_a 10.854287
_cell_length_b 10.300370
_cell_length_c 7.732022
_cell_angle_alpha 106.566572
_cell_angle_beta 55.522207
_cell_angle_gamma 130.478623
_cell_volume 537.355854
_symmetry_space_group_name_H-M "P -1"
_symmetry_group_IT_number 2
_symmetry_cell_setting 'triclinic'
loop_
_space_group_symop_operation_xyz
x,y,z
-x,-y,-z
loop_
_atom_site_type_symbol
_atom_site_label
_atom_site_fract_x
_atom_site_fract_y
_atom_site_fract_z
Si Si1 0.745778 0.579993 0.144370
Si Si2 0.774156 0.381456 0.606428
Si Si3 0.262517 0.847586 0.165712
Si Si4 0.812973 0.211237 0.203035
Si Si5 0.772029 0.887286 0.126346
Si Si6 0.174954 0.335588 0.500835
Si Si7 0.390083 0.209740 0.169344
O O1 0.762020 0.566986 0.330244
O O2 0.582717 0.398252 0.124319
O O3 0.738680 0.283538 0.417932
O O4 0.698658 0.712888 0.212709
O O5 0.686356 0.244250 0.778062
O O6 0.954765 0.664809 0.931590
O O7 0.734962 0.518595 0.664082
O O8 0.000000 0.500000 0.500000
O O9 0.236564 0.798736 0.964136
O O10 0.051385 0.777176 0.365544
O O11 0.387524 0.051913 0.167955
O O12 0.736880 0.022891 0.258277
O O13 0.691585 0.832455 0.975977
O O14 0.000000 0.000000 0.000000
O O15 0.237182 0.216172 0.395413
#
# Coordination Sequence:
#
# PCOD9002514 Si02
#       7
#     2   2   2   2   2   2   2
#     4  10  21  36  61  92 122 159 189 258 314 348
#     4  10  22  38  64  91 115 163 208 250 297 353
#     4   9  21  38  64  88 116 164 203 255 297 345
#     4   9  20  40  63  90 120 153 216 248 292 368
#     4   9  20  35  60  90 113 158 200 251 296 341
#     4  10  22  37  58  93 119 155 206 245 304 360
#     4  11  21  38  61  94 123 151 202 251 310 364
#
# _framework density 26.053501000000001
#
# number of rings (size 3 to 8) (size 9 to 14) (size 15 to 20)
#    0.000    2.286    0.000    2.143   10.000    5.143 
#    0.000    0.714    0.000    6.857    0.000    0.000 
#    0.000    0.000    0.000    0.000    0.000    0.000 
#
# Total GULP energy -78462.908906 kJ/mol
# GULP energy per Si atom -5604.493493 kJ/mol
# Density = 2.599420 g / cm^3
# Si number density = 26.053501 Si / 1000 Ang^3
#
#
#
# Elastic Constant Matrix: (Units=GPa)
#
#
# Indices 1 2 3 4 5 6 
#
# 1 101.0301 49.4622 12.7369 -19.6352 1.2882 24.3353
# 2 49.4622 181.8396 42.5228 -16.2758 29.0077 1.5860
# 3 12.7369 42.5228 52.8475 -11.6203 10.7374 -2.5060
# 4 -19.6352 -16.2758 -11.6203 42.5416 -3.7138 2.0710
# 5 1.2882 29.0077 10.7374 -3.7138 24.8879 -10.6387
# 6 24.3353 1.5860 -2.5060 2.0710 -10.6387 56.7590
#
#
#
# Elastic Compliance Matrix: (Units=1/GPa)
#
#
# Indices 1 2 3 4 5 6 
#
# 1 0.014112 -0.003587 0.000082 0.005601 0.001762 -0.005821
# 2 -0.003587 0.008887 -0.004653 -0.000237 -0.008407 -0.000483
# 3 0.000082 -0.004653 0.024558 0.004571 -0.004414 0.000185
# 4 0.005601 -0.000237 0.004571 0.027469 0.000812 -0.003043
# 5 0.001762 -0.008407 -0.004414 0.000812 0.056089 0.009768
# 6 -0.005821 -0.000483 0.000185 -0.003043 0.009768 0.022077
#
#
# Mechanical properties :
#
#
# Convention : Reuss Voigt Hill
#
# Bulk Modulus (GPa) = 32.00921 60.57344 46.29133
# Shear Modulus (GPa) = 27.79000 40.23739 34.01369
#
# Velocity S-wave (km/s) = 3.26951 3.93417 3.61714
# Velocity P-wave (km/s) = 5.15417 6.62850 5.93728
#
# Compressibility (1/GPa) = 0.03124101
#
# Stress axis : x y z
#
# Youngs Moduli (GPa) = 70.86292 112.51943 40.72059
#
# Poissons Ratio (x) = 0.40359 -0.00336
# Poissons Ratio (y) = 0.25418 0.18949
# Poissons Ratio (z) = -0.00584 0.52360
#
# Static dielectric constant tensor:
#      x y z
#    x 2.008980 -0.005240 -0.055570 
#    y -0.005240 2.009520 -0.037680 
#    z -0.055570 -0.037680 2.099780 
# 
# From -- ./inp_files/244425.got.cif
#   From: 2010.05.17/outbox.cif.g08.bks.cpg/sg2_123_cif.got.tgz:244425.got - 2010.06.03 11:33:40.
