data_PCOD9002752
_publ_section_title
;
Structure prediction by ZEFSAII (Michael W. Deem and Ramdas Pophale) SiO2 
 PCOD9002752
Probable space group: P -1
;
_chemical_formula_sum "Si O2"
_cell_formula_units_Z 16
_cell_length_a 9.276164
_cell_length_b 5.074939
_cell_length_c 18.927380
_cell_angle_alpha 105.366080
_cell_angle_beta 108.882354
_cell_angle_gamma 55.136013
_cell_volume 688.070394
_symmetry_space_group_name_H-M "P -1"
_symmetry_group_IT_number 2
_symmetry_cell_setting 'triclinic'
loop_
_space_group_symop_operation_xyz
x,y,z
-x,-y,-z
loop_
_atom_site_type_symbol
_atom_site_label
_atom_site_fract_x
_atom_site_fract_y
_atom_site_fract_z
Si Si1 0.646681 0.322590 0.184233
Si Si2 0.397091 0.851462 0.545124
Si Si3 0.036257 0.225075 0.243734
Si Si4 0.213809 0.348318 0.023659
Si Si5 0.499924 0.363877 0.314022
Si Si6 0.795449 0.513480 0.805929
Si Si7 0.272996 0.042909 0.396698
Si Si8 0.427009 0.225155 0.920673
O O1 0.573569 0.427782 0.259464
O O2 0.551957 0.586059 0.126719
O O3 0.842718 0.271522 0.215643
O O4 0.633419 0.015378 0.137546
O O5 0.500000 0.500000 0.500000
O O6 0.348746 0.842874 0.618333
O O7 0.245008 0.069967 0.478974
O O8 0.553053 0.929176 0.582147
O O9 0.053551 0.440282 0.201891
O O10 0.160785 0.846935 0.219037
O O11 0.108445 0.265595 0.334099
O O12 0.238951 0.424561 0.112912
O O13 0.378386 0.971502 0.023300
O O14 0.273437 0.452218 0.969959
O O15 0.000000 0.500000 0.000000
O O16 0.378522 0.241683 0.251837
O O17 0.354274 0.677688 0.357214
#
# Coordination Sequence:
#
# PCOD9002752 Si02
#       8
#     2   2   2   2   2   2   2   2
#     4  12  25  45  65  95 137 173 215 275 338 385
#     4   9  17  35  59  92 126 161 214 267 322 378
#     4  11  23  40  65  98 130 171 221 277 324 390
#     4  11  24  46  71  97 135 179 223 277 339 399
#     4  10  21  36  64  90 125 171 213 266 322 390
#     4  11  23  41  66  94 124 169 231 269 321 396
#     4   9  19  34  61  92 124 166 217 266 317 391
#     4  11  28  46  65 100 137 176 224 279 336 399
#
# _framework density 23.253433000000001
#
# number of rings (size 3 to 8) (size 9 to 14) (size 15 to 20)
#    0.000    1.500    2.500    2.250    5.250    3.000 
#    0.000    5.000    0.000    6.750    0.000    0.000 
#    0.000    0.000    0.000    0.000    0.000    0.000 
#
# Total GULP energy -89134.560432 kJ/mol
# GULP energy per Si atom -5570.910027 kJ/mol
# Density = 2.320051 g / cm^3
# Si number density = 23.253433 Si / 1000 Ang^3
#
#
#
# Elastic Constant Matrix: (Units=GPa)
#
#
# Indices 1 2 3 4 5 6 
#
# 1 98.0094 19.8659 51.2981 -3.3836 -4.1370 -0.0766
# 2 19.8659 30.8127 29.3697 -10.8798 -0.0457 11.0429
# 3 51.2981 29.3697 176.1626 -22.9289 -17.1441 -0.8091
# 4 -3.3836 -10.8798 -22.9289 17.6248 12.4468 -1.2876
# 5 -4.1370 -0.0457 -17.1441 12.4468 39.3134 -3.8773
# 6 -0.0766 11.0429 -0.8091 -1.2876 -3.8773 39.5957
#
#
#
# Elastic Compliance Matrix: (Units=1/GPa)
#
#
# Indices 1 2 3 4 5 6 
#
# 1 0.013843 -0.010530 -0.003268 -0.010431 0.003609 0.002911
# 2 -0.010530 0.065766 -0.003907 0.045544 -0.019011 -0.018822
# 3 -0.003268 -0.003907 0.008322 0.007053 0.001206 0.001601
# 4 -0.010431 0.045544 0.007053 0.116626 -0.036108 -0.012321
# 5 0.003609 -0.019011 0.001206 -0.036108 0.038534 0.007933
# 6 0.002911 -0.018822 0.001601 -0.012321 0.007933 0.030919
#
#
# Mechanical properties :
#
#
# Convention : Reuss Voigt Hill
#
# Bulk Modulus (GPa) = 19.04035 56.22801 37.63418
# Shear Modulus (GPa) = 15.29383 32.93684 24.11534
#
# Velocity S-wave (km/s) = 2.56735 3.76763 3.22384
# Velocity P-wave (km/s) = 4.12242 6.56961 5.48425
#
# Compressibility (1/GPa) = 0.05252004
#
# Stress axis : x y z
#
# Youngs Moduli (GPa) = 72.24001 15.20539 120.15772
#
# Poissons Ratio (x) = 0.16012 0.39273
# Poissons Ratio (y) = 0.76072 0.46943
# Poissons Ratio (z) = 0.23611 0.05940
#
# Static dielectric constant tensor:
#      x y z
#    x 2.025240 -0.003940 0.116830 
#    y -0.003940 2.005370 -0.056520 
#    z 0.116830 -0.056520 2.137210 
# 
# From -- ./inp_files/552824.got.cif
#   From: 2010.05.17/outbox.cif.g08.bks.cpg/sg2_277_cif.got.tgz:552824.got - 2010.06.03 11:33:40.
