data_PCOD9002502
_publ_section_title
;
Structure prediction by ZEFSAII (Michael W. Deem and Ramdas Pophale) SiO2 
 PCOD9002502
Probable space group: P -1
;
_chemical_formula_sum "Si O2"
_cell_formula_units_Z 16
_cell_length_a 19.855790
_cell_length_b 18.965032
_cell_length_c 10.809065
_cell_angle_alpha 144.627679
_cell_angle_beta 148.901036
_cell_angle_gamma 21.586665
_cell_volume 769.534684
_symmetry_space_group_name_H-M "P -1"
_symmetry_group_IT_number 2
_symmetry_cell_setting 'triclinic'
loop_
_space_group_symop_operation_xyz
x,y,z
-x,-y,-z
loop_
_atom_site_type_symbol
_atom_site_label
_atom_site_fract_x
_atom_site_fract_y
_atom_site_fract_z
Si Si1 0.489148 0.883750 0.898360
Si Si2 0.196681 0.937715 0.985833
Si Si3 0.056865 0.816333 0.849482
Si Si4 0.938816 0.879147 0.494251
Si Si5 0.629417 0.586152 0.298548
Si Si6 0.164332 0.489053 0.224589
Si Si7 0.373327 0.985546 0.143418
Si Si8 0.198729 0.336372 0.494702
O O1 0.694391 0.659419 0.876528
O O2 0.300884 0.932598 0.633423
O O3 0.433694 0.953711 0.051060
O O4 0.500000 0.000000 0.000000
O O5 0.396296 0.777423 0.160042
O O6 0.270403 0.939557 0.974803
O O7 0.040772 0.137367 0.104365
O O8 0.077028 0.898059 0.722875
O O9 0.952960 0.824736 0.581693
O O10 0.292401 0.605560 0.894585
O O11 0.000000 0.000000 0.000000
O O12 0.032258 0.706226 0.309231
O O13 0.687613 0.584246 0.527923
O O14 0.768098 0.572235 0.410148
O O15 0.000000 0.500000 0.000000
O O16 0.595324 0.829917 0.337343
O O17 0.214693 0.206583 0.247486
O O18 0.000000 0.500000 0.500000
#
# Coordination Sequence:
#
# PCOD9002502 Si02
#       8
#     2   2   2   2   2   2   2   2
#     4  12  24  40  62  86 124 160 207 258 312 370
#     4  10  21  42  61  89 129 160 209 258 317 373
#     4   9  19  35  61  90 121 156 204 252 307 361
#     4  10  23  38  62  93 119 165 205 254 313 372
#     4  10  21  36  61  90 121 162 205 260 311 365
#     4  11  23  39  59  90 122 160 209 257 306 375
#     4  10  24  39  59  92 123 164 209 258 308 377
#     4  10  21  37  61  88 120 163 207 254 310 364
#
# _framework density 20.791785999999998
#
# number of rings (size 3 to 8) (size 9 to 14) (size 15 to 20)
#    0.000    1.750    1.250    2.250    1.750    9.000 
#    0.000    0.625    0.000    0.000    0.000    0.000 
#    0.000    0.000    0.000    0.000    0.000    0.000 
#
# Total GULP energy -89202.541196 kJ/mol
# GULP energy per Si atom -5575.158825 kJ/mol
# Density = 2.074446 g / cm^3
# Si number density = 20.791786 Si / 1000 Ang^3
#
#
#
# Elastic Constant Matrix: (Units=GPa)
#
#
# Indices 1 2 3 4 5 6 
#
# 1 128.2995 27.9986 33.2993 10.5589 -1.5516 -26.4781
# 2 27.9986 95.4952 29.4079 20.2423 6.6985 -33.8979
# 3 33.2993 29.4079 77.4855 10.3846 14.1778 -15.8653
# 4 10.5589 20.2423 10.3846 35.8034 -8.9197 -5.5413
# 5 -1.5516 6.6985 14.1778 -8.9197 29.1715 0.0626
# 6 -26.4781 -33.8979 -15.8653 -5.5413 0.0626 36.5809
#
#
#
# Elastic Compliance Matrix: (Units=1/GPa)
#
#
# Indices 1 2 3 4 5 6 
#
# 1 0.009906 0.000205 -0.003413 -0.000675 0.001920 0.005774
# 2 0.000205 0.018881 -0.001624 -0.009473 -0.006465 0.015516
# 3 -0.003413 -0.001624 0.018259 -0.005467 -0.010361 0.003133
# 4 -0.000675 -0.009473 -0.005467 0.038277 0.016513 -0.005869
# 5 0.001920 -0.006465 -0.010361 0.016513 0.045966 -0.006672
# 6 0.005774 0.015516 0.003133 -0.005869 -0.006672 0.046375
#
#
# Mechanical properties :
#
#
# Convention : Reuss Voigt Hill
#
# Bulk Modulus (GPa) = 26.75201 53.63242 40.19222
# Shear Modulus (GPa) = 25.02621 34.34944 29.68782
#
# Velocity S-wave (km/s) = 3.47314 4.06897 3.78281
# Velocity P-wave (km/s) = 5.38314 6.92289 6.20099
#
# Compressibility (1/GPa) = 0.03738036
#
# Stress axis : x y z
#
# Youngs Moduli (GPa) = 100.95006 52.96224 54.76751
#
# Poissons Ratio (x) = -0.01085 0.18694
# Poissons Ratio (y) = -0.02068 0.08897
# Poissons Ratio (z) = 0.34458 0.08603
#
# Static dielectric constant tensor:
#      x y z
#    x 1.792410 0.035810 -0.015800 
#    y 0.035810 1.787440 0.005740 
#    z -0.015800 0.005740 1.827810 
# 
# From -- ./inp_files/472688.got.cif
#   From: 2010.05.17/outbox.cif.g08.bks.cpg/sg2_237_cif.got.tgz:472688.got - 2010.06.03 11:33:40.
