data_PCOD9002539
_publ_section_title
;
Structure prediction by ZEFSAII (Michael W. Deem and Ramdas Pophale) SiO2 
 PCOD9002539
Probable space group: P -1
;
_chemical_formula_sum "Si O2"
_cell_formula_units_Z 12
_cell_length_a 16.636606
_cell_length_b 7.340284
_cell_length_c 13.742963
_cell_angle_alpha 127.433302
_cell_angle_beta 154.675135
_cell_angle_gamma 57.027338
_cell_volume 569.969615
_symmetry_space_group_name_H-M "P -1"
_symmetry_group_IT_number 2
_symmetry_cell_setting 'triclinic'
loop_
_space_group_symop_operation_xyz
x,y,z
-x,-y,-z
loop_
_atom_site_type_symbol
_atom_site_label
_atom_site_fract_x
_atom_site_fract_y
_atom_site_fract_z
Si Si1 0.134832 0.507001 0.446312
Si Si2 0.225709 0.975806 0.730969
Si Si3 0.784666 0.916899 0.728284
Si Si4 0.708217 0.527535 0.006806
Si Si5 0.498040 0.327623 0.532336
Si Si6 0.681359 0.353885 0.124245
O O1 0.241365 0.744774 0.608991
O O2 0.219781 0.280637 0.422406
O O3 0.156243 0.521906 0.592024
O O4 0.916360 0.519812 0.185997
O O5 0.314997 0.897536 0.905724
O O6 0.000000 0.000000 0.500000
O O7 0.309140 0.223531 0.879877
O O8 0.697691 0.799062 0.692514
O O9 0.650354 0.126245 0.622308
O O10 0.000000 0.000000 0.000000
O O11 0.563903 0.467963 0.745742
O O12 0.702829 0.350348 0.032082
O O13 0.500000 0.500000 0.500000
O O14 0.500000 0.500000 0.000000
#
# Coordination Sequence:
#
# PCOD9002539 Si02
#       6
#     2   2   2   2   2   2
#     4   9  20  41  63  98 126 174 221 264 336 403
#     4   8  20  36  59  93 128 162 211 260 332 389
#     4  11  23  49  70  94 139 181 225 282 335 406
#     4  11  20  42  66  91 136 171 220 277 332 400
#     4  11  27  45  70 102 132 178 235 283 334 396
#     4  10  21  36  61  96 129 167 214 267 336 394
#
# _framework density 21.053754000000001
#
# number of rings (size 3 to 8) (size 9 to 14) (size 15 to 20)
#    1.000    1.000    1.667    1.500    0.000    5.333 
#    3.000    0.000    0.000    0.000    0.000    0.000 
#    0.000    0.000    0.000    0.000    0.000    0.000 
#
# Total GULP energy -66853.468176 kJ/mol
# GULP energy per Si atom -5571.122348 kJ/mol
# Density = 2.100583 g / cm^3
# Si number density = 21.053754 Si / 1000 Ang^3
#
#
#
# Elastic Constant Matrix: (Units=GPa)
#
#
# Indices 1 2 3 4 5 6 
#
# 1 76.2010 41.7272 31.9170 5.4458 10.8015 0.2166
# 2 41.7272 114.5474 26.5027 -7.0164 4.5583 -1.2271
# 3 31.9170 26.5027 84.6919 3.0011 14.8887 8.4840
# 4 5.4458 -7.0164 3.0011 32.5502 1.0490 -13.0565
# 5 10.8015 4.5583 14.8887 1.0490 36.5207 8.2781
# 6 0.2166 -1.2271 8.4840 -13.0565 8.2781 35.6663
#
#
#
# Elastic Compliance Matrix: (Units=1/GPa)
#
#
# Indices 1 2 3 4 5 6 
#
# 1 0.019042 -0.005986 -0.004658 -0.003951 -0.002874 0.000007
# 2 -0.005986 0.011642 -0.001870 0.004676 0.000378 0.002506
# 3 -0.004658 -0.001870 0.015253 -0.002386 -0.003705 -0.003678
# 4 -0.003951 0.004676 -0.002386 0.039038 -0.003139 0.015772
# 5 -0.002874 0.000378 -0.003705 -0.003139 0.031496 -0.007547
# 6 0.000007 0.002506 -0.003678 0.015772 -0.007547 0.036524
#
#
# Mechanical properties :
#
#
# Convention : Reuss Voigt Hill
#
# Bulk Modulus (GPa) = 47.83195 52.85933 50.34564
# Shear Modulus (GPa) = 27.02797 32.63368 29.83083
#
# Velocity S-wave (km/s) = 3.58685 3.94130 3.76824
# Velocity P-wave (km/s) = 6.31841 6.77297 6.54963
#
# Compressibility (1/GPa) = 0.02090653
#
# Stress axis : x y z
#
# Youngs Moduli (GPa) = 52.51480 85.89799 65.56289
#
# Poissons Ratio (x) = 0.51423 0.30542
# Poissons Ratio (y) = 0.31438 0.12261
# Poissons Ratio (z) = 0.24463 0.16064
#
# Static dielectric constant tensor:
#      x y z
#    x 1.812090 0.009760 0.023590 
#    y 0.009760 1.800590 0.023210 
#    z 0.023590 0.023210 1.782170 
# 
# From -- ./inp_files/458651.got.cif
#   From: 2010.05.17/outbox.cif.g08.bks.cpg/sg2_230_cif.got.tgz:458651.got - 2010.06.03 11:33:40.
