data_PCOD9002927
_publ_section_title
;
Structure prediction by ZEFSAII (Michael W. Deem and Ramdas Pophale) SiO2 
 PCOD9002927
Probable space group: P -1
;
_chemical_formula_sum "Si O2"
_cell_formula_units_Z 16
_cell_length_a 23.132849
_cell_length_b 5.043809
_cell_length_c 7.345395
_cell_angle_alpha 64.386671
_cell_angle_beta 58.461163
_cell_angle_gamma 73.036031
_cell_volume 656.259295
_symmetry_space_group_name_H-M "P -1"
_symmetry_group_IT_number 2
_symmetry_cell_setting 'triclinic'
loop_
_space_group_symop_operation_xyz
x,y,z
-x,-y,-z
loop_
_atom_site_type_symbol
_atom_site_label
_atom_site_fract_x
_atom_site_fract_y
_atom_site_fract_z
Si Si1 0.631305 0.930788 0.103049
Si Si2 0.922589 0.651628 0.720793
Si Si3 0.456525 0.380047 0.443341
Si Si4 0.779935 0.865010 0.874037
Si Si5 0.793776 0.533310 0.571166
Si Si6 0.343201 0.521645 0.365202
Si Si7 0.552370 0.712255 0.980526
Si Si8 0.063313 0.675752 0.580524
O O1 0.572758 0.923693 0.352933
O O2 0.605850 0.710401 0.060257
O O3 0.705888 0.823567 0.084909
O O4 0.643141 0.219968 0.879031
O O5 0.845278 0.683956 0.907515
O O6 0.928737 0.410463 0.622209
O O7 0.985978 0.604496 0.767308
O O8 0.931053 0.973565 0.517476
O O9 0.500000 0.500000 0.500000
O O10 0.383793 0.575874 0.466750
O O11 0.505864 0.442437 0.175034
O O12 0.780900 0.770594 0.684777
O O13 0.789469 0.211521 0.766037
O O14 0.733793 0.551226 0.515705
O O15 0.872042 0.510251 0.381370
O O16 0.396231 0.262021 0.278211
O O17 0.500000 0.000000 0.000000
#
# Coordination Sequence:
#
# PCOD9002927 Si02
#       8
#     2   2   2   2   2   2   2   2
#     4  10  21  37  54  75 105 134 178 218 266 320
#     4   8  13  21  39  62 101 128 161 209 249 295
#     4  10  23  38  54  79 100 132 179 219 270 325
#     4   9  16  30  47  73  99 138 172 209 261 312
#     4   9  17  28  51  70  99 137 173 209 262 313
#     4  11  21  38  57  73 104 141 168 226 271 313
#     4  11  21  38  56  75 102 135 173 220 272 319
#     4   8  13  22  36  68  95 128 166 205 248 301
#
# _framework density 24.380607999999999
#
# number of rings (size 3 to 8) (size 9 to 14) (size 15 to 20)
#    0.000    2.500    2.500    0.375    0.000    0.500 
#    4.500    0.000    0.000    0.000    0.000    0.875 
#    0.000    0.000    0.000   62.875    0.000    1.500 
#
# Total GULP energy -89101.405089 kJ/mol
# GULP energy per Si atom -5568.837818 kJ/mol
# Density = 2.432512 g / cm^3
# Si number density = 24.380608 Si / 1000 Ang^3
#
#
#
# Elastic Constant Matrix: (Units=GPa)
#
#
# Indices 1 2 3 4 5 6 
#
# 1 212.8748 9.3765 39.1849 3.9205 -33.0030 -31.4403
# 2 9.3765 82.7520 8.7967 -6.3565 -6.9178 -2.3777
# 3 39.1849 8.7967 57.5775 -5.5376 -0.1942 -7.9912
# 4 3.9205 -6.3565 -5.5376 19.0936 -3.7095 -8.1531
# 5 -33.0030 -6.9178 -0.1942 -3.7095 40.4466 9.6949
# 6 -31.4403 -2.3777 -7.9912 -8.1531 9.6949 36.1065
#
#
#
# Elastic Compliance Matrix: (Units=1/GPa)
#
#
# Indices 1 2 3 4 5 6 
#
# 1 0.006695 0.000160 -0.004053 -0.000024 0.004579 0.003708
# 2 0.000160 0.012825 -0.001455 0.004755 0.002498 0.001065
# 3 -0.004053 -0.001455 0.021594 0.007537 -0.003682 0.003845
# 4 -0.000024 0.004755 0.007537 0.063323 0.002929 0.015473
# 5 0.004579 0.002498 -0.003682 0.002929 0.030119 -0.004089
# 6 0.003708 0.001065 0.003845 0.015473 -0.004089 0.036438
#
#
# Mechanical properties :
#
#
# Convention : Reuss Voigt Hill
#
# Bulk Modulus (GPa) = 32.87386 51.99117 42.43251
# Shear Modulus (GPa) = 26.06482 38.85243 32.45863
#
# Velocity S-wave (km/s) = 3.27323 3.99630 3.65270
# Velocity P-wave (km/s) = 5.27240 6.53184 5.93562
#
# Compressibility (1/GPa) = 0.03041930
#
# Stress axis : x y z
#
# Youngs Moduli (GPa) = 149.37354 77.96971 46.30824
#
# Poissons Ratio (x) = -0.01246 0.18767
# Poissons Ratio (y) = -0.02387 0.06737
# Poissons Ratio (z) = 0.60537 0.11342
#
# Static dielectric constant tensor:
#      x y z
#    x 2.158700 -0.016270 0.072920 
#    y -0.016270 2.017010 0.046640 
#    z 0.072920 0.046640 1.982680 
# 
# From -- ./inp_files/112403.got.cif
#   From: 2010.05.17/outbox.cif.g08.bks.cpg/sg2_57_cif.got.tgz:112403.got - 2010.06.03 11:33:40.
