data_PCOD9002513
_publ_section_title
;
Structure prediction by ZEFSAII (Michael W. Deem and Ramdas Pophale) SiO2 
 PCOD9002513
Probable space group: P -1
;
_chemical_formula_sum "Si O2"
_cell_formula_units_Z 16
_cell_length_a 5.686026
_cell_length_b 17.107554
_cell_length_c 18.959365
_cell_angle_alpha 149.539296
_cell_angle_beta 54.294761
_cell_angle_gamma 127.294564
_cell_volume 735.121724
_symmetry_space_group_name_H-M "P -1"
_symmetry_group_IT_number 2
_symmetry_cell_setting 'triclinic'
loop_
_space_group_symop_operation_xyz
x,y,z
-x,-y,-z
loop_
_atom_site_type_symbol
_atom_site_label
_atom_site_fract_x
_atom_site_fract_y
_atom_site_fract_z
Si Si1 0.635134 0.127491 0.680134
Si Si2 0.189403 0.312230 0.431126
Si Si3 0.332962 0.210455 0.655788
Si Si4 0.314939 0.375530 0.304304
Si Si5 0.784763 0.479353 0.701140
Si Si6 0.818002 0.191311 0.071244
Si Si7 0.685928 0.123407 0.196096
Si Si8 0.208290 0.018640 0.797478
O O1 0.469819 0.201145 0.703460
O O2 0.436417 0.111575 0.772807
O O3 0.981928 0.207512 0.703115
O O4 0.631729 0.949990 0.514612
O O5 0.294583 0.412411 0.419221
O O6 0.441588 0.220397 0.330990
O O7 0.080379 0.412404 0.588461
O O8 0.903648 0.164520 0.349708
O O9 0.542073 0.364548 0.701877
O O10 0.330638 0.514275 0.353734
O O11 0.563036 0.281362 0.170963
O O12 0.001977 0.248124 0.249189
O O13 0.893578 0.660703 0.849111
O O14 0.711464 0.090643 0.083092
O O15 0.918033 0.087266 0.912767
O O16 0.662096 0.984822 0.149075
#
# Coordination Sequence:
#
# PCOD9002513 Si02
#       8
#     2   2   2   2   2   2   2   2
#     4  10  23  43  67  98 125 160 219 279 324 382
#     4  10  21  36  61  92 120 160 215 256 313 379
#     4  10  23  43  68  96 126 162 215 278 333 377
#     4   9  21  38  56  89 128 165 203 256 310 390
#     4  11  22  39  62  89 123 169 203 262 325 382
#     4  10  23  39  58  89 132 167 208 251 320 389
#     4   9  21  37  61  90 126 165 210 260 311 380
#     4  11  22  39  63  91 122 168 211 264 317 379
#
# _framework density 21.765103
#
# number of rings (size 3 to 8) (size 9 to 14) (size 15 to 20)
#    0.000    2.000    1.250    0.750    3.500   14.000 
#    0.000    1.250    0.000    0.000    0.000    0.000 
#    0.000    0.000    0.000    0.000    0.000    0.000 
#
# Total GULP energy -89398.359722 kJ/mol
# GULP energy per Si atom -5587.397483 kJ/mol
# Density = 2.171556 g / cm^3
# Si number density = 21.765103 Si / 1000 Ang^3
#
#
#
# Elastic Constant Matrix: (Units=GPa)
#
#
# Indices 1 2 3 4 5 6 
#
# 1 127.1918 73.6825 20.6100 -9.3505 -5.0131 -3.3988
# 2 73.6825 190.2997 37.8712 -17.3928 -10.8407 -10.1029
# 3 20.6100 37.8712 85.8231 -7.4663 -0.9732 -0.7677
# 4 -9.3505 -17.3928 -7.4663 31.8116 7.8662 -2.9063
# 5 -5.0131 -10.8407 -0.9732 7.8662 24.7149 -0.7678
# 6 -3.3988 -10.1029 -0.7677 -2.9063 -0.7678 19.9610
#
#
#
# Elastic Compliance Matrix: (Units=1/GPa)
#
#
# Indices 1 2 3 4 5 6 
#
# 1 0.010201 -0.003729 -0.000739 0.000739 0.000167 -0.000065
# 2 -0.003729 0.007659 -0.002219 0.002440 0.001850 0.003583
# 3 -0.000739 -0.002219 0.012952 0.001864 -0.001223 -0.000526
# 4 0.000739 0.002440 0.001864 0.036510 -0.010129 0.006359
# 5 0.000167 0.001850 -0.001223 -0.010129 0.044519 0.001155
# 6 -0.000065 0.003583 -0.000526 0.006359 0.001155 0.052850
#
#
# Mechanical properties :
#
#
# Convention : Reuss Voigt Hill
#
# Bulk Modulus (GPa) = 57.34283 74.18246 65.76264
# Shear Modulus (GPa) = 27.19214 33.37423 30.28318
#
# Velocity S-wave (km/s) = 3.53844 3.92009 3.73415
# Velocity P-wave (km/s) = 6.56487 7.39234 6.99086
#
# Compressibility (1/GPa) = 0.01743897
#
# Stress axis : x y z
#
# Youngs Moduli (GPa) = 98.02585 130.56501 77.20864
#
# Poissons Ratio (x) = 0.48691 0.05703
# Poissons Ratio (y) = 0.36557 0.17131
# Poissons Ratio (z) = 0.07240 0.28970
#
# Static dielectric constant tensor:
#      x y z
#    x 1.939100 0.012200 0.065910 
#    y 0.012200 1.748090 0.012230 
#    z 0.065910 0.012230 1.808660 
# 
# From -- ./inp_files/94797.got.cif
#   From: 2010.05.17/outbox.cif.g08.bks.cpg/sg2_48_cif.got.tgz:94797.got - 2010.06.03 11:33:40.
