data_PCOD9002200
_publ_section_title
;
Structure prediction by ZEFSAII (Michael W. Deem and Ramdas Pophale) SiO2 
 PCOD9002200
Probable space group: P -1
;
_chemical_formula_sum "Si O2"
_cell_formula_units_Z 16
_cell_length_a 8.139870
_cell_length_b 16.367795
_cell_length_c 5.611703
_cell_angle_alpha 105.178956
_cell_angle_beta 91.039988
_cell_angle_gamma 89.991950
_cell_volume 721.446050
_symmetry_space_group_name_H-M "P -1"
_symmetry_group_IT_number 2
_symmetry_cell_setting 'triclinic'
loop_
_space_group_symop_operation_xyz
x,y,z
-x,-y,-z
loop_
_atom_site_type_symbol
_atom_site_label
_atom_site_fract_x
_atom_site_fract_y
_atom_site_fract_z
Si Si1 0.290859 0.404638 0.925764
Si Si2 0.647013 0.003812 0.816060
Si Si3 0.674514 0.321903 0.398877
Si Si4 0.709136 0.669547 0.630902
Si Si5 0.841426 0.846908 0.906595
Si Si6 0.310761 0.603385 0.045205
Si Si7 0.178531 0.022380 0.628059
Si Si8 0.212895 0.856709 0.829047
O O1 0.225781 0.356879 0.649562
O O2 0.488934 0.389169 0.935646
O O3 0.224643 0.376320 0.162624
O O4 0.267763 0.504410 0.964897
O O5 0.781042 0.933503 0.849110
O O6 0.656970 0.977826 0.523551
O O7 0.711929 0.100721 0.899391
O O8 0.500000 0.000000 0.000000
O O9 0.484941 0.350537 0.407203
O O10 0.748201 0.356796 0.675068
O O11 0.683215 0.220428 0.322677
O O12 0.746493 0.353438 0.170521
O O13 0.732778 0.768471 0.764758
O O14 0.027979 0.826193 0.836643
O O15 0.833951 0.881799 0.201214
O O16 0.205089 0.940403 0.732684
O O17 0.000000 0.000000 0.500000
#
# Coordination Sequence:
#
# PCOD9002200 Si02
#       8
#     2   2   2   2   2   2   2   2
#     4   9  18  35  60  88 120 157 198 251 313 368
#     4  11  23  41  61  89 119 154 208 262 305 354
#     4  10  21  36  58  91 122 154 204 258 304 362
#     4  10  21  36  58  91 122 154 204 258 304 362
#     4  11  23  38  59  87 120 165 206 250 308 374
#     4   9  18  35  60  88 120 157 198 251 313 368
#     4  11  21  41  65  82 120 169 209 249 301 377
#     4  11  23  38  59  87 120 165 206 250 308 374
#
# _framework density 22.177679000000001
#
# number of rings (size 3 to 8) (size 9 to 14) (size 15 to 20)
#    0.000    1.750    2.500    2.250    3.500    5.000 
#    4.500    0.000    0.000    4.500    0.000    0.000 
#    0.000    0.000    0.000    0.000    0.000    0.000 
#
# Total GULP energy -89077.807188 kJ/mol
# GULP energy per Si atom -5567.362949 kJ/mol
# Density = 2.212720 g / cm^3
# Si number density = 22.177679 Si / 1000 Ang^3
#
#
#
# Elastic Constant Matrix: (Units=GPa)
#
#
# Indices 1 2 3 4 5 6 
#
# 1 43.4290 -20.4544 4.1564 -12.3544 0.3432 10.2155
# 2 -20.4544 72.7101 43.4008 1.1281 6.8617 -6.0022
# 3 4.1564 43.4008 132.4922 3.7792 11.6430 27.3172
# 4 -12.3544 1.1281 3.7792 29.2422 11.7775 4.8984
# 5 0.3432 6.8617 11.6430 11.7775 3.9487 -13.5481
# 6 10.2155 -6.0022 27.3172 4.8984 -13.5481 -11.4384
#
#
#
# Elastic Compliance Matrix: (Units=1/GPa)
#
#
# Indices 1 2 3 4 5 6 
#
# 1 0.032298 0.015421 -0.008539 0.014072 -0.004835 0.012114
# 2 0.015421 0.027021 -0.009918 0.014738 -0.024490 0.011226
# 3 -0.008539 -0.009918 0.010228 -0.010674 0.015694 -0.001155
# 4 0.014072 0.014738 -0.010674 0.046590 -0.027003 0.031278
# 5 -0.004835 -0.024490 0.015694 -0.027003 0.088606 -0.070500
# 6 0.012114 0.011226 -0.001155 0.031278 -0.070500 0.011643
#
#
# Mechanical properties :
#
#
# Convention : Reuss Voigt Hill
#
# Bulk Modulus (GPa) = 15.75431 33.64855 24.70143
# Shear Modulus (GPa) = 20.52422 19.11907 19.82165
#
# Velocity S-wave (km/s) = 3.04541 2.93932 2.99283
# Velocity P-wave (km/s) = 4.41420 5.16959 4.80676
#
# Compressibility (1/GPa) = 0.06347468
#
# Stress axis : x y z
#
# Youngs Moduli (GPa) = 30.96155 37.00892 97.77323
#
# Poissons Ratio (x) = -0.57071 0.83487
# Poissons Ratio (y) = -0.47745 0.96969
# Poissons Ratio (z) = 0.26438 0.36705
#
# Static dielectric constant tensor:
#      x y z
#    x 1.871530 -0.007730 0.134040 
#    y -0.007730 1.790640 -0.131760 
#    z 0.134040 -0.131760 2.232980 
# 
# From -- ./inp_files/39861.got.cif
#   From: 2010.05.17/outbox.cif.g08.bks.cpg/sg2_20_cif.got.tgz:39861.got - 2010.06.03 11:33:40.
