data_PCOD9002202
_publ_section_title
;
Structure prediction by ZEFSAII (Michael W. Deem and Ramdas Pophale) SiO2 
 PCOD9002202
Probable space group: P -1
;
_chemical_formula_sum "Si O2"
_cell_formula_units_Z 15
_cell_length_a 12.715255
_cell_length_b 15.898858
_cell_length_c 10.708918
_cell_angle_alpha 127.827382
_cell_angle_beta 46.901398
_cell_angle_gamma 157.792085
_cell_volume 596.017067
_symmetry_space_group_name_H-M "P -1"
_symmetry_group_IT_number 2
_symmetry_cell_setting 'triclinic'
loop_
_space_group_symop_operation_xyz
x,y,z
-x,-y,-z
loop_
_atom_site_type_symbol
_atom_site_label
_atom_site_fract_x
_atom_site_fract_y
_atom_site_fract_z
Si Si1 0.738265 0.829766 0.308986
Si Si2 0.799040 0.391212 0.395598
Si Si3 0.500000 0.500000 0.000000
Si Si4 0.849632 0.233389 0.392195
Si Si5 0.450296 0.037993 0.197642
Si Si6 0.114999 0.260784 0.742580
Si Si7 0.706028 0.014085 0.099553
Si Si8 0.430708 0.304507 0.117010
O O1 0.536965 0.803474 0.458630
O O2 0.730316 0.752866 0.372317
O O3 0.605797 0.672283 0.161722
O O4 0.082435 0.082579 0.235053
O O5 0.928399 0.377504 0.358907
O O6 0.970167 0.610817 0.490914
O O7 0.723339 0.298995 0.235756
O O8 0.517182 0.586210 0.941527
O O9 0.500000 0.000000 0.500000
O O10 0.908296 0.165377 0.198736
O O11 0.496442 0.980266 0.215965
O O12 0.128338 0.884739 0.301609
O O13 0.500000 0.000000 0.000000
O O14 0.355560 0.511996 0.780296
O O15 0.919410 0.145671 0.925480
O O16 0.516407 0.783506 0.046015
#
# Coordination Sequence:
#
# PCOD9002202 Si02
#       8
#     2   2   1   2   2   2   2   2
#     4  10  22  37  58  90 122 164 202 244 308 363
#     4  10  23  40  60  87 125 163 200 253 306 359
#     4  10  22  36  56  88 122 166 196 242 298 368
#     4  10  23  38  58  89 122 158 203 252 307 366
#     4   9  19  41  65  86 119 165 209 253 306 354
#     4   9  20  38  60  90 122 159 210 252 290 361
#     4   9  20  37  61  91 121 159 204 251 307 364
#     4  10  21  36  58  91 124 161 206 248 300 364
#
# _framework density 25.167062000000001
#
# number of rings (size 3 to 8) (size 9 to 14) (size 15 to 20)
#    0.000    2.400    0.000    0.400    7.467    6.400 
#    0.000    7.333    0.000    0.000    0.000    0.000 
#    0.000    0.000    0.000    0.000    0.000    0.000 
#
# Total GULP energy -83574.701100 kJ/mol
# GULP energy per Si atom -5571.646740 kJ/mol
# Density = 2.510978 g / cm^3
# Si number density = 25.167062 Si / 1000 Ang^3
#
#
#
# Elastic Constant Matrix: (Units=GPa)
#
#
# Indices 1 2 3 4 5 6 
#
# 1 75.9595 19.1970 2.6071 16.2587 -7.3627 14.6234
# 2 19.1970 123.4771 22.3907 36.6544 15.6407 6.8016
# 3 2.6071 22.3907 69.7543 21.4284 6.7956 -1.3155
# 4 16.2587 36.6544 21.4284 42.2841 8.2444 7.9690
# 5 -7.3627 15.6407 6.7956 8.2444 33.3796 11.4316
# 6 14.6234 6.8016 -1.3155 7.9690 11.4316 29.7546
#
#
#
# Elastic Compliance Matrix: (Units=1/GPa)
#
#
# Indices 1 2 3 4 5 6 
#
# 1 0.017723 -0.001908 0.000432 -0.005270 0.009627 -0.010542
# 2 -0.001908 0.011438 -0.000526 -0.008490 -0.004344 0.002243
# 3 0.000432 -0.000526 0.017523 -0.008873 -0.002397 0.003980
# 4 -0.005270 -0.008490 -0.008873 0.039133 -0.003306 -0.005072
# 5 0.009627 -0.004344 -0.002397 -0.003306 0.041956 -0.019078
# 6 -0.010542 0.002243 0.003980 -0.005072 -0.019078 0.047141
#
#
# Mechanical properties :
#
#
# Convention : Reuss Voigt Hill
#
# Bulk Modulus (GPa) = 23.43053 39.73116 31.58084
# Shear Modulus (GPa) = 25.88730 36.08342 30.98536
#
# Velocity S-wave (km/s) = 3.21069 3.79060 3.51263
# Velocity P-wave (km/s) = 4.80363 5.91435 5.38769
#
# Compressibility (1/GPa) = 0.04267936
#
# Stress axis : x y z
#
# Youngs Moduli (GPa) = 56.42351 87.42896 57.06740
#
# Poissons Ratio (x) = 0.16683 -0.02467
# Poissons Ratio (y) = 0.10767 0.03004
# Poissons Ratio (z) = -0.02439 0.04603
#
# Static dielectric constant tensor:
#      x y z
#    x 2.243940 0.265230 -0.170700 
#    y 0.265230 2.237080 -0.103130 
#    z -0.170700 -0.103130 2.201240 
# 
# From -- ./inp_files/456766.got.cif
#   From: 2010.05.17/outbox.cif.g08.bks.cpg/sg2_229_cif.got.tgz:456766.got - 2010.06.03 11:33:40.
