data_PCOD9002907
_publ_section_title
;
Structure prediction by ZEFSAII (Michael W. Deem and Ramdas Pophale) SiO2 
 PCOD9002907
Probable space group: P -1
;
_chemical_formula_sum "Si O2"
_cell_formula_units_Z 13
_cell_length_a 14.025619
_cell_length_b 7.690576
_cell_length_c 13.223486
_cell_angle_alpha 106.567156
_cell_angle_beta 158.964999
_cell_angle_gamma 68.095913
_cell_volume 466.420694
_symmetry_space_group_name_H-M "P -1"
_symmetry_group_IT_number 2
_symmetry_cell_setting 'triclinic'
loop_
_space_group_symop_operation_xyz
x,y,z
-x,-y,-z
loop_
_atom_site_type_symbol
_atom_site_label
_atom_site_fract_x
_atom_site_fract_y
_atom_site_fract_z
Si Si1 0.841749 0.022090 0.683224
Si Si2 0.866028 0.470804 0.016797
Si Si3 0.425965 0.520823 0.072707
Si Si4 0.726519 0.803817 0.769725
Si Si5 0.870899 0.250214 0.567172
Si Si6 0.000000 0.000000 0.500000
Si Si7 0.849965 0.729529 0.470865
O O1 0.603391 0.090947 0.543379
O O2 0.736215 0.179348 0.515625
O O3 0.864720 0.836021 0.610196
O O4 0.126327 0.057853 0.005835
O O5 0.081582 0.282161 0.151176
O O6 0.021796 0.582508 0.260603
O O7 0.637832 0.439321 0.863139
O O8 0.759512 0.614296 0.840636
O O9 0.653976 0.309396 0.268198
O O10 0.582839 0.658567 0.204385
O O11 0.141352 0.554743 0.736327
O O12 0.111085 0.079479 0.727635
O O13 0.861000 0.868262 0.413743
#
# Coordination Sequence:
#
# PCOD9002907 Si02
#       7
#     2   2   2   2   2   1   2
#     4  10  21  41  63 100 130 186 216 275 307 398
#     4  10  22  39  67 103 133 175 220 275 319 391
#     4  12  23  44  68 101 135 176 206 290 325 389
#     4  10  21  36  70  96 135 177 233 254 319 386
#     4  10  22  44  72  94 138 164 230 269 339 379
#     4  10  26  52  70 104 118 186 216 278 326 428
#     4  11  26  45  70  94 142 167 225 265 344 381
#
# _framework density 27.871834
#
# number of rings (size 3 to 8) (size 9 to 14) (size 15 to 20)
#    0.000    1.538    3.077    0.923    2.154    3.692 
#    2.769    4.615    0.000    0.000    0.000    0.000 
#    0.000    0.000    0.000    0.000    0.000    0.000 
#
# Total GULP energy -72594.494844 kJ/mol
# GULP energy per Si atom -5584.191911 kJ/mol
# Density = 2.780840 g / cm^3
# Si number density = 27.871834 Si / 1000 Ang^3
#
#
#
# Elastic Constant Matrix: (Units=GPa)
#
#
# Indices 1 2 3 4 5 6 
#
# 1 192.3113 -2.3974 0.7540 8.6045 27.1055 15.4505
# 2 -2.3974 48.5745 16.8265 8.5890 0.9475 5.7373
# 3 0.7540 16.8265 72.0840 -11.4396 12.7124 9.9282
# 4 8.6045 8.5890 -11.4396 25.6159 3.3586 -9.3443
# 5 27.1055 0.9475 12.7124 3.3586 38.7648 9.8570
# 6 15.4505 5.7373 9.9282 -9.3443 9.8570 59.3530
#
#
#
# Elastic Compliance Matrix: (Units=1/GPa)
#
#
# Indices 1 2 3 4 5 6 
#
# 1 0.005943 0.000834 0.000242 -0.002191 -0.003710 -0.001397
# 2 0.000834 0.026854 -0.008835 -0.015391 0.004121 -0.004443
# 3 0.000242 -0.008835 0.019171 0.012742 -0.007559 0.000846
# 4 -0.002191 -0.015391 0.012742 0.055656 -0.009712 0.010302
# 5 -0.003710 0.004121 -0.007559 -0.009712 0.032924 -0.005165
# 6 -0.001397 -0.004443 0.000846 0.010302 -0.005165 0.019980
#
#
# Mechanical properties :
#
#
# Convention : Reuss Voigt Hill
#
# Bulk Modulus (GPa) = 27.43387 38.14847 32.79117
# Shear Modulus (GPa) = 26.56825 44.59918 35.58372
#
# Velocity S-wave (km/s) = 3.09079 4.00453 3.57696
# Velocity P-wave (km/s) = 4.75411 5.92440 5.37122
#
# Compressibility (1/GPa) = 0.03645129
#
# Stress axis : x y z
#
# Youngs Moduli (GPa) = 168.27925 37.23818 52.16164
#
# Poissons Ratio (x) = -0.03106 -0.01263
# Poissons Ratio (y) = -0.14037 0.46082
# Poissons Ratio (z) = -0.04074 0.32898
#
# Static dielectric constant tensor:
#      x y z
#    x 0.899190 4.530130 -2.623840 
#    y 4.530130 -13.395720 9.023470 
#    z -2.623840 9.023470 -3.230530 
# 
# From -- ./inp_files/19146.got.cif
#   From: 2010.05.17/outbox.cif.g08.bks.cpg/sg2_10_cif.got.tgz:19146.got - 2010.06.03 11:33:40.
