data_PCOD9002654
_publ_section_title
;
Structure prediction by ZEFSAII (Michael W. Deem and Ramdas Pophale) SiO2 
 PCOD9002654
Probable space group: P -1
;
_chemical_formula_sum "Si O2"
_cell_formula_units_Z 12
_cell_length_a 16.696857
_cell_length_b 6.995472
_cell_length_c 7.927061
_cell_angle_alpha 115.756715
_cell_angle_beta 33.613425
_cell_angle_gamma 115.689670
_cell_volume 456.855187
_symmetry_space_group_name_H-M "P -1"
_symmetry_group_IT_number 2
_symmetry_cell_setting 'triclinic'
loop_
_space_group_symop_operation_xyz
x,y,z
-x,-y,-z
loop_
_atom_site_type_symbol
_atom_site_label
_atom_site_fract_x
_atom_site_fract_y
_atom_site_fract_z
Si Si1 0.854238 0.333835 0.273844
Si Si2 0.305633 0.315530 0.195681
Si Si3 0.568682 0.065413 0.684648
Si Si4 0.797936 0.981701 0.007331
Si Si5 0.611430 0.382791 0.155127
Si Si6 0.100915 0.426097 0.149323
O O1 0.773389 0.545265 0.480603
O O2 0.726898 0.161911 0.520558
O O3 0.886629 0.204767 0.999782
O O4 0.003775 0.617377 0.843721
O O5 0.457877 0.238746 0.947411
O O6 0.205134 0.107487 0.211123
O O7 0.337909 0.473154 0.039717
O O8 0.633101 0.009951 0.366018
O O9 0.474749 0.848082 0.829127
O O10 0.848183 0.797378 0.967390
O O11 0.500000 0.500000 0.500000
O O12 0.753729 0.397571 0.030664
O O13 0.000000 0.500000 0.500000
#
# Coordination Sequence:
#
# PCOD9002654 Si02
#       6
#     2   2   2   2   2   2
#     4  10  21  36  63  87 119 164 196 243 306 354
#     4  11  20  40  61  88 129 151 199 252 301 344
#     4  10  22  38  61  94 116 159 204 247 291 360
#     4   9  20  33  63  85 113 161 200 234 303 343
#     4  11  21  37  65  92 113 164 203 242 300 351
#     4  11  19  39  60  87 127 159 194 247 306 356
#
# _framework density 26.266529999999999
#
# number of rings (size 3 to 8) (size 9 to 14) (size 15 to 20)
#    1.000    0.667    6.667    1.500    0.000    0.667 
#    0.000    0.833    0.000    4.000    0.000    0.000 
#    0.000    0.000    0.000    0.000    0.000    0.000 
#
# Total GULP energy -67092.960688 kJ/mol
# GULP energy per Si atom -5591.080057 kJ/mol
# Density = 2.620675 g / cm^3
# Si number density = 26.266530 Si / 1000 Ang^3
#
#
#
# Elastic Constant Matrix: (Units=GPa)
#
#
# Indices 1 2 3 4 5 6 
#
# 1 115.4144 73.4450 24.9281 -11.6255 -32.6917 24.8812
# 2 73.4450 174.8016 54.3112 9.2221 -12.5916 40.5499
# 3 24.9281 54.3112 122.0232 16.8812 -20.2178 19.3955
# 4 -11.6255 9.2221 16.8812 53.8563 9.8194 -7.7131
# 5 -32.6917 -12.5916 -20.2178 9.8194 43.2126 1.5982
# 6 24.8812 40.5499 19.3955 -7.7131 1.5982 43.7022
#
#
#
# Elastic Compliance Matrix: (Units=1/GPa)
#
#
# Indices 1 2 3 4 5 6 
#
# 1 0.016155 -0.005322 0.001638 0.001062 0.011388 -0.005215
# 2 -0.005322 0.010044 -0.002333 -0.002702 -0.001367 -0.005680
# 3 0.001638 -0.002333 0.011592 -0.004933 0.007290 -0.005050
# 4 0.001062 -0.002702 -0.004933 0.023475 -0.007941 0.008525
# 5 0.011388 -0.001367 0.007290 -0.007941 0.036988 -0.011205
# 6 -0.005215 -0.005680 -0.005050 0.008525 -0.011205 0.035277
#
#
# Mechanical properties :
#
#
# Convention : Reuss Voigt Hill
#
# Bulk Modulus (GPa) = 38.82775 79.73418 59.28097
# Shear Modulus (GPa) = 32.43578 45.45788 38.94683
#
# Velocity S-wave (km/s) = 3.51789 4.16461 3.85483
# Velocity P-wave (km/s) = 5.59598 7.31758 6.51391
#
# Compressibility (1/GPa) = 0.02575477
#
# Stress axis : x y z
#
# Youngs Moduli (GPa) = 61.90183 99.56583 86.26671
#
# Poissons Ratio (x) = 0.52992 -0.14127
# Poissons Ratio (y) = 0.32946 0.20125
# Poissons Ratio (z) = -0.10137 0.23228
#
# Static dielectric constant tensor:
#      x y z
#    x 2.090540 0.024380 0.042750 
#    y 0.024380 2.143500 -0.009180 
#    z 0.042750 -0.009180 2.011530 
# 
# From -- ./inp_files/342895.got.cif
#   From: 2010.05.17/outbox.cif.g08.bks.cpg/sg2_172_cif.got.tgz:342895.got - 2010.06.03 11:33:40.
