data_PCOD9002265
_publ_section_title
;
Structure prediction by ZEFSAII (Michael W. Deem and Ramdas Pophale) SiO2 
 PCOD9002265
Probable space group: P -1
;
_chemical_formula_sum "Si O2"
_cell_formula_units_Z 16
_cell_length_a 5.713316
_cell_length_b 18.041285
_cell_length_c 17.909985
_cell_angle_alpha 22.855552
_cell_angle_beta 110.506057
_cell_angle_gamma 104.347048
_cell_volume 657.170262
_symmetry_space_group_name_H-M "P -1"
_symmetry_group_IT_number 2
_symmetry_cell_setting 'triclinic'
loop_
_space_group_symop_operation_xyz
x,y,z
-x,-y,-z
loop_
_atom_site_type_symbol
_atom_site_label
_atom_site_fract_x
_atom_site_fract_y
_atom_site_fract_z
Si Si1 0.985790 0.723501 0.312550
Si Si2 0.158295 0.304179 0.999425
Si Si3 0.914195 0.075808 0.285665
Si Si4 0.625419 0.438347 0.992317
Si Si5 0.455986 0.184730 0.012648
Si Si6 0.470976 0.837163 0.223857
Si Si7 0.781393 0.678715 0.664217
Si Si8 0.578555 0.373532 0.447241
O O1 0.690780 0.820365 0.202440
O O2 0.000000 0.500000 0.500000
O O3 0.182656 0.807129 0.202495
O O4 0.130523 0.722625 0.409360
O O5 0.202310 0.206265 0.015308
O O6 0.153566 0.142832 0.212246
O O7 0.395039 0.407283 0.942714
O O8 0.924906 0.482585 0.820598
O O9 0.701045 0.119214 0.155077
O O10 0.929133 0.854141 0.515343
O O11 0.817382 0.229530 0.198590
O O12 0.742769 0.605940 0.810748
O O13 0.500000 0.500000 0.000000
O O14 0.459057 0.026299 0.097451
O O15 0.447841 0.398698 0.781066
O O16 0.561293 0.663212 0.457092
O O17 0.523701 0.728904 0.539755
#
# Coordination Sequence:
#
# PCOD9002265 Si02
#       8
#     2   2   2   2   2   2   2   2
#     4  10  23  44  64  90 133 174 209 258 322 383
#     4  10  22  36  62  86 126 156 205 265 319 373
#     4  10  21  36  59  87 124 155 212 263 318 377
#     4  10  23  42  58  84 128 168 206 257 318 384
#     4  11  21  37  58  98 120 159 207 264 318 372
#     4  10  24  38  66  90 127 167 213 261 320 377
#     4  11  21  39  59  94 119 159 214 260 324 373
#     4  10  22  36  64  92 123 162 208 266 314 375
#
# _framework density 24.346812
#
# number of rings (size 3 to 8) (size 9 to 14) (size 15 to 20)
#    0.750    1.000    5.000    0.375    3.500    5.500 
#    0.000    2.500    0.000    0.000    0.000    0.000 
#    0.000    0.000    0.000    0.000    0.000    0.000 
#
# Total GULP energy -89371.956899 kJ/mol
# GULP energy per Si atom -5585.747306 kJ/mol
# Density = 2.429140 g / cm^3
# Si number density = 24.346812 Si / 1000 Ang^3
#
#
#
# Elastic Constant Matrix: (Units=GPa)
#
#
# Indices 1 2 3 4 5 6 
#
# 1 127.1937 32.5964 39.0236 -14.4342 -11.8036 -18.7538
# 2 32.5964 76.5396 17.7772 -10.7645 3.9163 -14.8855
# 3 39.0236 17.7772 117.3510 -25.6411 -28.9643 -7.6572
# 4 -14.4342 -10.7645 -25.6411 27.1854 9.3221 -0.3777
# 5 -11.8036 3.9163 -28.9643 9.3221 33.9911 -1.7865
# 6 -18.7538 -14.8855 -7.6572 -0.3777 -1.7865 37.2841
#
#
#
# Elastic Compliance Matrix: (Units=1/GPa)
#
#
# Indices 1 2 3 4 5 6 
#
# 1 0.010115 -0.003037 -0.001754 0.001862 0.002048 0.003632
# 2 -0.003037 0.016636 -0.001300 0.005661 -0.005387 0.004646
# 3 -0.001754 -0.001300 0.013382 0.008185 0.008796 0.001851
# 4 0.001862 0.005661 0.008185 0.050029 -0.006485 0.005073
# 5 0.002048 -0.005387 0.008796 -0.006485 0.040159 0.002544
# 6 0.003632 0.004646 0.001851 0.005073 0.002544 0.031057
#
#
# Mechanical properties :
#
#
# Convention : Reuss Voigt Hill
#
# Bulk Modulus (GPa) = 35.77724 55.54207 45.65966
# Shear Modulus (GPa) = 27.34082 35.13793 31.23937
#
# Velocity S-wave (km/s) = 3.35471 3.80310 3.58592
# Velocity P-wave (km/s) = 5.45273 6.49209 5.99497
#
# Compressibility (1/GPa) = 0.02795073
#
# Stress axis : x y z
#
# Youngs Moduli (GPa) = 98.85856 60.11131 74.72703
#
# Poissons Ratio (x) = 0.18256 0.13111
# Poissons Ratio (y) = 0.30023 0.09713
# Poissons Ratio (z) = 0.17344 0.07813
#
# Static dielectric constant tensor:
#      x y z
#    x 2.023590 0.015640 0.005610 
#    y 0.015640 1.942470 0.046980 
#    z 0.005610 0.046980 1.956750 
# 
# From -- ./inp_files/584295.got.cif
#   From: 2010.05.17/outbox.cif.g08.bks.cpg/sg2_293_cif.got.tgz:584295.got - 2010.06.03 11:33:40.
