data_PCOD9002571
_publ_section_title
;
Structure prediction by ZEFSAII (Michael W. Deem and Ramdas Pophale) SiO2 
 PCOD9002571
Probable space group: P -1
;
_chemical_formula_sum "Si O2"
_cell_formula_units_Z 14
_cell_length_a 8.612886
_cell_length_b 13.047583
_cell_length_c 19.240224
_cell_angle_alpha 35.252413
_cell_angle_beta 129.448394
_cell_angle_gamma 103.318388
_cell_volume 734.536749
_symmetry_space_group_name_H-M "P -1"
_symmetry_group_IT_number 2
_symmetry_cell_setting 'triclinic'
loop_
_space_group_symop_operation_xyz
x,y,z
-x,-y,-z
loop_
_atom_site_type_symbol
_atom_site_label
_atom_site_fract_x
_atom_site_fract_y
_atom_site_fract_z
Si Si1 0.273212 0.200303 0.876112
Si Si2 0.810897 0.727280 0.894338
Si Si3 0.604443 0.989499 0.831903
Si Si4 0.246749 0.737644 0.326543
Si Si5 0.611197 0.739719 0.690541
Si Si6 0.036336 0.351430 0.524588
Si Si7 0.201216 0.872138 0.390716
O O1 0.204367 0.441863 0.704794
O O2 0.013891 0.230524 0.770205
O O3 0.500000 0.000000 0.000000
O O4 0.332676 0.145295 0.004321
O O5 0.643129 0.711384 0.798904
O O6 0.650299 0.855654 0.848004
O O7 0.873445 0.881158 0.787327
O O8 0.089818 0.473875 0.130289
O O9 0.789642 0.055234 0.837881
O O10 0.306787 0.227260 0.628871
O O11 0.500000 0.500000 0.500000
O O12 0.322653 0.735855 0.428548
O O13 0.404388 0.747426 0.581589
O O14 0.500000 0.000000 0.500000
O O15 0.020154 0.150905 0.646337
O O16 0.000000 0.500000 0.500000
#
# Coordination Sequence:
#
# PCOD9002571 Si02
#       7
#     2   2   2   2   2   2   2
#     4  12  24  37  57  81 122 172 203 241 298 354
#     4   9  21  39  63  94 114 144 208 259 301 367
#     4  11  23  37  59  87 121 160 205 254 297 351
#     4  11  21  37  57  86 123 158 207 254 288 353
#     4   9  19  39  66  89 115 148 194 259 320 360
#     4  12  22  41  55  85 132 166 205 243 290 363
#     4  10  21  36  62  86 119 162 196 245 310 352
#
# _framework density 19.059632000000001
#
# number of rings (size 3 to 8) (size 9 to 14) (size 15 to 20)
#    0.000    1.429    4.286    0.429    2.000    4.571 
#    0.000    0.714    0.000    8.571    0.000    0.000 
#    0.000    0.000    0.000    0.000    0.000    0.000 
#
# Total GULP energy -77949.914748 kJ/mol
# GULP energy per Si atom -5567.851053 kJ/mol
# Density = 1.901625 g / cm^3
# Si number density = 19.059632 Si / 1000 Ang^3
#
#
#
# Elastic Constant Matrix: (Units=GPa)
#
#
# Indices 1 2 3 4 5 6 
#
# 1 92.5390 41.3003 30.7825 -1.1048 2.4661 -12.7913
# 2 41.3003 102.1193 38.3862 8.0460 11.8551 -20.8373
# 3 30.7825 38.3862 95.1086 -0.6260 5.3555 -11.7934
# 4 -1.1048 8.0460 -0.6260 25.5726 -6.5098 3.0149
# 5 2.4661 11.8551 5.3555 -6.5098 34.8158 -2.4798
# 6 -12.7913 -20.8373 -11.7934 3.0149 -2.4798 32.2109
#
#
#
# Elastic Compliance Matrix: (Units=1/GPa)
#
#
# Indices 1 2 3 4 5 6 
#
# 1 0.013947 -0.004769 -0.002481 0.002264 0.001545 0.001452
# 2 -0.004769 0.015800 -0.003679 -0.007488 -0.005358 0.007268
# 3 -0.002481 -0.003679 0.012981 0.001153 -0.000263 0.001259
# 4 0.002264 -0.007488 0.001153 0.044984 0.010128 -0.006953
# 5 0.001545 -0.005358 -0.000263 0.010128 0.032271 -0.001413
# 6 0.001452 0.007268 0.001259 -0.006953 -0.001413 0.037326
#
#
# Mechanical properties :
#
#
# Convention : Reuss Voigt Hill
#
# Bulk Modulus (GPa) = 47.92194 56.74500 52.33347
# Shear Modulus (GPa) = 26.86371 30.47305 28.66838
#
# Velocity S-wave (km/s) = 3.75834 4.00287 3.88253
# Velocity P-wave (km/s) = 6.63561 7.15548 6.90044
#
# Compressibility (1/GPa) = 0.02086727
#
# Stress axis : x y z
#
# Youngs Moduli (GPa) = 71.70177 63.29308 77.03658
#
# Poissons Ratio (x) = 0.30187 0.19113
# Poissons Ratio (y) = 0.34197 0.28345
# Poissons Ratio (z) = 0.17790 0.23288
#
# Static dielectric constant tensor:
#      x y z
#    x 1.711250 0.039480 -0.054570 
#    y 0.039480 1.707130 -0.001680 
#    z -0.054570 -0.001680 1.717100 
# 
# From -- ./inp_files/279009.got.cif
#   From: 2010.05.17/outbox.cif.g08.bks.cpg/sg2_140_cif.got.tgz:279009.got - 2010.06.03 11:33:40.
