data_PCOD9002261
_publ_section_title
;
Structure prediction by ZEFSAII (Michael W. Deem and Ramdas Pophale) SiO2 
 PCOD9002261
Probable space group: P -1
;
_chemical_formula_sum "Si O2"
_cell_formula_units_Z 12
_cell_length_a 27.055788
_cell_length_b 5.474140
_cell_length_c 5.482777
_cell_angle_alpha 105.412168
_cell_angle_beta 38.314479
_cell_angle_gamma 113.017685
_cell_volume 462.163461
_symmetry_space_group_name_H-M "P -1"
_symmetry_group_IT_number 2
_symmetry_cell_setting 'triclinic'
loop_
_space_group_symop_operation_xyz
x,y,z
-x,-y,-z
loop_
_atom_site_type_symbol
_atom_site_label
_atom_site_fract_x
_atom_site_fract_y
_atom_site_fract_z
Si Si1 0.875858 0.803331 0.578351
Si Si2 0.073013 0.600620 0.441433
Si Si3 0.768449 0.395241 0.496798
Si Si4 0.553047 0.021090 0.547884
Si Si5 0.724383 0.809033 0.502641
Si Si6 0.593113 0.597893 0.551921
O O1 0.933849 0.630829 0.398552
O O2 0.816798 0.623317 0.556560
O O3 0.920686 0.106105 0.410034
O O4 0.814121 0.827894 0.041611
O O5 0.000000 0.500000 0.500000
O O6 0.162052 0.629678 0.974045
O O7 0.705053 0.528831 0.645485
O O8 0.736382 0.097572 0.651561
O O9 0.614664 0.321757 0.379954
O O10 0.500000 0.000000 0.500000
O O11 0.587725 0.770100 0.380223
O O12 0.500000 0.000000 0.000000
O O13 0.657537 0.783887 0.539493
O O14 0.500000 0.500000 0.000000
#
# Coordination Sequence:
#
# PCOD9002261 Si02
#       6
#     2   2   2   2   2   2
#     4  10  21  38  57  85 117 154 198 235 297 359
#     4  10  21  36  59  87 119 151 192 244 289 352
#     4  10  21  38  60  83 119 157 194 244 293 363
#     4  10  21  40  61  86 123 157 198 260 327 383
#     4  10  21  40  58  83 117 155 202 243 303 363
#     4  10  21  40  61  86 119 154 205 263 315 371
#
# _framework density 25.964839999999999
#
# number of rings (size 3 to 8) (size 9 to 14) (size 15 to 20)
#    0.000    2.000    0.000    3.000    0.000    1.333 
#   18.000    0.000    0.000    0.000    0.000    0.000 
#    0.000    0.000    0.000    0.000    0.000    0.000 
#
# Total GULP energy -67130.971944 kJ/mol
# GULP energy per Si atom -5594.247662 kJ/mol
# Density = 2.590574 g / cm^3
# Si number density = 25.964840 Si / 1000 Ang^3
#
#
#
# Elastic Constant Matrix: (Units=GPa)
#
#
# Indices 1 2 3 4 5 6 
#
# 1 144.4304 63.9849 -18.3304 1.6539 -2.6394 -20.0842
# 2 63.9849 263.6777 41.3603 5.0990 1.8198 -18.7820
# 3 -18.3304 41.3603 91.7524 -11.0566 2.0405 -23.7533
# 4 1.6539 5.0990 -11.0566 45.0204 -4.7573 0.4892
# 5 -2.6394 1.8198 2.0405 -4.7573 32.3480 4.1940
# 6 -20.0842 -18.7820 -23.7533 0.4892 4.1940 56.6015
#
#
#
# Elastic Compliance Matrix: (Units=1/GPa)
#
#
# Indices 1 2 3 4 5 6 
#
# 1 0.009179 -0.002611 0.004189 0.000968 0.000239 0.004123
# 2 -0.002611 0.004886 -0.002999 -0.001232 -0.000412 -0.000523
# 3 0.004189 -0.002999 0.015367 0.003799 -0.000803 0.006967
# 4 0.000968 -0.001232 0.003799 0.023579 0.003236 0.001086
# 5 0.000239 -0.000412 -0.000803 0.003236 0.031843 -0.002776
# 6 0.004123 -0.000523 0.006967 0.001086 -0.002776 0.022077
#
#
# Mechanical properties :
#
#
# Convention : Reuss Voigt Hill
#
# Bulk Modulus (GPa) = 37.60711 74.87668 56.24189
# Shear Modulus (GPa) = 42.14584 54.31702 48.23143
#
# Velocity S-wave (km/s) = 4.03325 4.57874 4.31463
# Velocity P-wave (km/s) = 6.01704 7.54012 6.82123
#
# Compressibility (1/GPa) = 0.02659072
#
# Stress axis : x y z
#
# Youngs Moduli (GPa) = 108.94642 204.66702 65.07457
#
# Poissons Ratio (x) = 0.53443 -0.27262
# Poissons Ratio (y) = 0.28448 0.19514
# Poissons Ratio (z) = -0.45642 0.61374
#
# Static dielectric constant tensor:
#      x y z
#    x 2.052600 -0.035220 0.173620 
#    y -0.035220 2.086270 0.132750 
#    z 0.173620 0.132750 2.482060 
# 
# From -- ./inp_files/121612.got.cif
#   From: 2010.05.17/outbox.cif.g08.bks.cpg/sg2_61_cif.got.tgz:121612.got - 2010.06.03 11:33:40.
