data_PCOD9002785
_publ_section_title
;
Structure prediction by ZEFSAII (Michael W. Deem and Ramdas Pophale) SiO2 
 PCOD9002785
Probable space group: P -1
;
_chemical_formula_sum "Si O2"
_cell_formula_units_Z 16
_cell_length_a 15.896979
_cell_length_b 8.979833
_cell_length_c 11.972562
_cell_angle_alpha 108.849912
_cell_angle_beta 39.021673
_cell_angle_gamma 80.331016
_cell_volume 724.106363
_symmetry_space_group_name_H-M "P -1"
_symmetry_group_IT_number 2
_symmetry_cell_setting 'triclinic'
loop_
_space_group_symop_operation_xyz
x,y,z
-x,-y,-z
loop_
_atom_site_type_symbol
_atom_site_label
_atom_site_fract_x
_atom_site_fract_y
_atom_site_fract_z
Si Si1 0.031059 0.663570 0.986860
Si Si2 0.792497 0.997641 0.660753
Si Si3 0.589197 0.771300 0.475981
Si Si4 0.144764 0.098668 0.006858
Si Si5 0.635754 0.609193 0.155744
Si Si6 0.045357 0.500255 0.326948
Si Si7 0.317529 0.973582 0.443761
Si Si8 0.134152 0.890137 0.170249
O O1 0.256595 0.482555 0.701262
O O2 0.000000 0.500000 0.000000
O O3 0.935702 0.821188 0.015435
O O4 0.906889 0.836905 0.257748
O O5 0.886420 0.748297 0.506831
O O6 0.941201 0.998071 0.455279
O O7 0.638259 0.105948 0.749029
O O8 0.764590 0.075549 0.836054
O O9 0.643463 0.730113 0.277796
O O10 0.371593 0.907556 0.731605
O O11 0.614534 0.910763 0.553935
O O12 0.064655 0.323279 0.198810
O O13 0.091271 0.004254 0.123744
O O14 0.426625 0.766344 0.363438
O O15 0.761793 0.566903 0.913234
O O16 0.728209 0.372691 0.044723
O O17 0.000000 0.500000 0.500000
#
# Coordination Sequence:
#
# PCOD9002785 Si02
#       8
#     2   2   2   2   2   2   2   2
#     4  10  21  36  64  98 131 166 213 272 336 393
#     4  10  22  44  65  91 134 179 232 262 335 402
#     4  11  22  41  69 103 134 167 218 288 336 392
#     4  12  22  42  68 103 134 172 228 276 337 391
#     4  11  22  41  66  96 134 178 221 267 348 395
#     4  11  20  37  66  93 121 171 224 272 327 385
#     4  11  20  39  68  98 126 176 225 278 328 400
#     4  10  24  43  64  91 136 188 216 270 329 408
#
# _framework density 22.096201000000001
#
# number of rings (size 3 to 8) (size 9 to 14) (size 15 to 20)
#    0.000    1.250    3.750    4.875    0.000    1.000 
#    2.250    5.000    0.000    0.000    0.000    0.000 
#    0.000    0.000    0.000    0.000    0.000    0.000 
#
# Total GULP energy -89256.308656 kJ/mol
# GULP energy per Si atom -5578.519291 kJ/mol
# Density = 2.204591 g / cm^3
# Si number density = 22.096201 Si / 1000 Ang^3
#
#
#
# Elastic Constant Matrix: (Units=GPa)
#
#
# Indices 1 2 3 4 5 6 
#
# 1 99.2902 24.2197 17.5964 1.7335 8.3809 -28.5604
# 2 24.2197 118.0833 19.3202 -6.9642 -3.0094 -18.0116
# 3 17.5964 19.3202 32.4580 2.8823 6.7184 -1.6463
# 4 1.7335 -6.9642 2.8823 27.0983 -13.0370 6.3007
# 5 8.3809 -3.0094 6.7184 -13.0370 32.3394 2.1588
# 6 -28.5604 -18.0116 -1.6463 6.3007 2.1588 33.5954
#
#
#
# Elastic Compliance Matrix: (Units=1/GPa)
#
#
# Indices 1 2 3 4 5 6 
#
# 1 0.016313 -0.000798 -0.005414 -0.007683 -0.007281 0.015084
# 2 -0.000798 0.010736 -0.007125 0.004870 0.004414 0.003532
# 3 -0.005414 -0.007125 0.041226 -0.010764 -0.011922 -0.003618
# 4 -0.007683 0.004870 -0.010764 0.057791 0.029123 -0.017158
# 5 -0.007281 0.004414 -0.011922 0.029123 0.048303 -0.012974
# 6 0.015084 0.003532 -0.003618 -0.017158 -0.012974 0.048357
#
#
# Mechanical properties :
#
#
# Convention : Reuss Voigt Hill
#
# Bulk Modulus (GPa) = 24.03825 41.34487 32.69156
# Shear Modulus (GPa) = 18.99201 31.18633 25.08917
#
# Velocity S-wave (km/s) = 2.93493 3.76092 3.37330
# Velocity P-wave (km/s) = 4.73155 6.13280 5.47717
#
# Compressibility (1/GPa) = 0.04160036
#
# Stress axis : x y z
#
# Youngs Moduli (GPa) = 61.29982 93.14069 24.25674
#
# Poissons Ratio (x) = 0.07432 0.13134
# Poissons Ratio (y) = 0.04891 0.17283
# Poissons Ratio (z) = 0.33190 0.66364
#
# Static dielectric constant tensor:
#      x y z
#    x 1.908010 -0.012470 -0.016710 
#    y -0.012470 1.847540 -0.038040 
#    z -0.016710 -0.038040 1.872540 
# 
# From -- ./inp_files/461354.got.cif
#   From: 2010.05.17/outbox.cif.g08.bks.cpg/sg2_231_cif.got.tgz:461354.got - 2010.06.03 11:33:40.
