data_PCOD9002965
_publ_section_title
;
Structure prediction by ZEFSAII (Michael W. Deem and Ramdas Pophale) SiO2 
 PCOD9002965
Probable space group: P -1
;
_chemical_formula_sum "Si O2"
_cell_formula_units_Z 14
_cell_length_a 6.372343
_cell_length_b 19.422086
_cell_length_c 16.013983
_cell_angle_alpha 29.099025
_cell_angle_beta 137.302860
_cell_angle_gamma 135.632074
_cell_volume 637.549154
_symmetry_space_group_name_H-M "P -1"
_symmetry_group_IT_number 2
_symmetry_cell_setting 'triclinic'
loop_
_space_group_symop_operation_xyz
x,y,z
-x,-y,-z
loop_
_atom_site_type_symbol
_atom_site_label
_atom_site_fract_x
_atom_site_fract_y
_atom_site_fract_z
Si Si1 0.382475 0.849370 0.578986
Si Si2 0.271650 0.385101 0.114402
Si Si3 0.724399 0.493096 0.651471
Si Si4 0.086884 0.779621 0.399027
Si Si5 0.629194 0.187808 0.889801
Si Si6 0.268867 0.913242 0.146064
Si Si7 0.191926 0.413186 0.250765
O O1 0.672749 0.768467 0.737259
O O2 0.254406 0.876638 0.420568
O O3 0.091793 0.730197 0.662911
O O4 0.500000 0.000000 0.500000
O O5 0.331726 0.393895 0.222121
O O6 0.500000 0.500000 0.000000
O O7 0.948170 0.440825 0.952172
O O8 0.500000 0.500000 0.500000
O O9 0.767657 0.329205 0.834709
O O10 0.607021 0.548487 0.645605
O O11 0.031630 0.615595 0.589770
O O12 0.730524 0.803042 0.252995
O O13 0.280734 0.812416 0.335540
O O14 0.807972 0.174619 0.869506
O O15 0.579096 0.038084 0.084791
O O16 0.000000 0.000000 0.000000
#
# Coordination Sequence:
#
# PCOD9002965 Si02
#       7
#     2   2   2   2   2   2   2
#     4  10  21  37  55  86 110 146 198 240 285 339
#     4   9  19  39  60  80 113 151 190 240 290 340
#     4   9  18  34  58  88 109 142 188 228 279 343
#     4   9  19  35  54  78 112 144 183 231 282 329
#     4   9  18  35  54  79 114 144 183 225 276 341
#     4   9  18  35  52  76 114 151 179 221 276 337
#     4   9  19  39  60  82 117 150 187 242 292 337
#
# _framework density 21.959091000000001
#
# number of rings (size 3 to 8) (size 9 to 14) (size 15 to 20)
#    0.000    2.857    0.000    0.000    0.000    4.571 
#   15.429   10.000    0.000    0.000    0.000    0.000 
#    0.000    0.000    0.000    0.000    0.000    0.000 
#
# Total GULP energy -78000.008117 kJ/mol
# GULP energy per Si atom -5571.429151 kJ/mol
# Density = 2.190911 g / cm^3
# Si number density = 21.959091 Si / 1000 Ang^3
#
#
#
# Elastic Constant Matrix: (Units=GPa)
#
#
# Indices 1 2 3 4 5 6 
#
# 1 97.6111 52.9492 36.3261 -2.6060 -15.6971 -39.1526
# 2 52.9492 159.5576 42.6339 -26.6848 -13.9151 -39.5574
# 3 36.3261 42.6339 60.5056 -19.7123 -9.6930 -18.3886
# 4 -2.6060 -26.6848 -19.7123 42.1847 -8.8320 7.8084
# 5 -15.6971 -13.9151 -9.6930 -8.8320 43.4063 12.6812
# 6 -39.1526 -39.5574 -18.3886 7.8084 12.6812 31.1110
#
#
#
# Elastic Compliance Matrix: (Units=1/GPa)
#
#
# Indices 1 2 3 4 5 6 
#
# 1 0.024647 -0.000402 -0.009334 -0.009158 -0.003560 0.028739
# 2 -0.000402 0.010165 -0.002805 0.003345 0.000305 0.009797
# 3 -0.009334 -0.002805 0.027830 0.012688 0.005812 -0.004417
# 4 -0.009158 0.003345 0.012688 0.036240 0.011986 -0.013754
# 5 -0.003560 0.000305 0.005812 0.011986 0.030259 -0.015998
# 6 0.028739 0.009797 -0.004417 -0.013754 -0.015998 0.088129
#
#
# Mechanical properties :
#
#
# Convention : Reuss Voigt Hill
#
# Bulk Modulus (GPa) = 26.62399 64.61031 45.61715
# Shear Modulus (GPa) = 19.61758 35.72471 27.67115
#
# Velocity S-wave (km/s) = 2.99217 4.03783 3.55367
# Velocity P-wave (km/s) = 4.90797 7.15721 6.13652
#
# Compressibility (1/GPa) = 0.03756012
#
# Stress axis : x y z
#
# Youngs Moduli (GPa) = 40.57268 98.37470 35.93237
#
# Poissons Ratio (x) = 0.03957 0.33539
# Poissons Ratio (y) = 0.01632 0.10079
# Poissons Ratio (z) = 0.37870 0.27595
#
# Static dielectric constant tensor:
#      x y z
#    x 1.845300 -0.026780 0.011570 
#    y -0.026780 1.904940 0.042600 
#    z 0.011570 0.042600 1.945670 
# 
# From -- ./inp_files/484306.got.cif
#   From: 2010.05.17/outbox.cif.g08.bks.cpg/sg2_243_cif.got.tgz:484306.got - 2010.06.03 11:33:40.
