data_PCOD9002241
_publ_section_title
;
Structure prediction by ZEFSAII (Michael W. Deem and Ramdas Pophale) SiO2 
 PCOD9002241
Probable space group: P -1
;
_chemical_formula_sum "Si O2"
_cell_formula_units_Z 14
_cell_length_a 6.554081
_cell_length_b 17.523208
_cell_length_c 9.758410
_cell_angle_alpha 137.680342
_cell_angle_beta 47.545955
_cell_angle_gamma 128.421011
_cell_volume 539.577159
_symmetry_space_group_name_H-M "P -1"
_symmetry_group_IT_number 2
_symmetry_cell_setting 'triclinic'
loop_
_space_group_symop_operation_xyz
x,y,z
-x,-y,-z
loop_
_atom_site_type_symbol
_atom_site_label
_atom_site_fract_x
_atom_site_fract_y
_atom_site_fract_z
Si Si1 0.146454 0.889993 0.373685
Si Si2 0.761935 0.926334 0.823864
Si Si3 0.195060 0.746205 0.914984
Si Si4 0.745582 0.302283 0.719712
Si Si5 0.864380 0.507033 0.347355
Si Si6 0.335318 0.907624 0.693547
Si Si7 0.709687 0.580427 0.788888
O O1 0.229943 0.792124 0.301604
O O2 0.888391 0.928283 0.616544
O O3 0.421600 0.996402 0.368176
O O4 0.069333 0.828096 0.180724
O O5 0.507817 0.813997 0.819954
O O6 0.030918 0.910748 0.770663
O O7 0.681847 0.040910 0.077238
O O8 0.209540 0.629200 0.836425
O O9 0.975124 0.696192 0.826809
O O10 0.047110 0.392075 0.669179
O O11 0.636747 0.221650 0.528184
O O12 0.542307 0.380920 0.970340
O O13 0.165319 0.511253 0.300527
O O14 0.661596 0.533019 0.594227
#
# Coordination Sequence:
#
# PCOD9002241 Si02
#       7
#     2   2   2   2   2   2   2
#     4  10  21  36  59  85 112 145 183 232 278 323
#     4   9  17  34  56  76 111 148 176 220 274 325
#     4   9  20  37  56  83 113 146 182 227 281 326
#     4  11  20  34  61  85 106 148 190 226 273 328
#     4   9  21  38  58  81 110 151 188 220 277 332
#     4   9  20  36  55  83 113 148 185 221 276 332
#     4   9  21  40  57  79 113 149 188 226 270 332
#
# _framework density 25.946242000000002
#
# number of rings (size 3 to 8) (size 9 to 14) (size 15 to 20)
#    0.857    1.714    0.000    2.143    0.000    9.714 
#    0.000    7.857    0.000   11.143    0.000    0.000 
#    0.000    0.000    0.000    0.000    0.000    0.000 
#
# Total GULP energy -78344.012846 kJ/mol
# GULP energy per Si atom -5596.000918 kJ/mol
# Density = 2.588719 g / cm^3
# Si number density = 25.946242 Si / 1000 Ang^3
#
#
#
# Elastic Constant Matrix: (Units=GPa)
#
#
# Indices 1 2 3 4 5 6 
#
# 1 30.9823 21.1972 5.5860 -4.0713 12.8194 0.9649
# 2 21.1972 183.4505 56.3244 -3.3422 5.9363 24.7814
# 3 5.5860 56.3244 221.1351 -6.2695 15.1122 22.6535
# 4 -4.0713 -3.3422 -6.2695 40.9965 9.7269 -5.9900
# 5 12.8194 5.9363 15.1122 9.7269 44.4228 10.1352
# 6 0.9649 24.7814 22.6535 -5.9900 10.1352 40.3653
#
#
#
# Elastic Compliance Matrix: (Units=1/GPa)
#
#
# Indices 1 2 3 4 5 6 
#
# 1 0.043302 -0.005578 0.000913 0.008718 -0.015587 0.007084
# 2 -0.005578 0.006991 -0.001416 -0.001383 0.002412 -0.004175
# 3 0.000913 -0.001416 0.005154 0.000951 -0.001699 -0.001477
# 4 0.008718 -0.001383 0.000951 0.028828 -0.010573 0.007040
# 5 -0.015587 0.002412 -0.001699 -0.010573 0.031794 -0.009707
# 6 0.007084 -0.004175 -0.001477 0.007040 -0.009707 0.031479
#
#
# Mechanical properties :
#
#
# Convention : Reuss Voigt Hill
#
# Bulk Modulus (GPa) = 23.10174 66.86479 44.98326
# Shear Modulus (GPa) = 28.71291 48.65425 38.68358
#
# Velocity S-wave (km/s) = 3.33022 4.33505 3.86542
# Velocity P-wave (km/s) = 4.86931 7.13325 6.10710
#
# Compressibility (1/GPa) = 0.04328679
#
# Stress axis : x y z
#
# Youngs Moduli (GPa) = 23.09351 143.04025 194.01858
#
# Poissons Ratio (x) = 0.79783 -0.17723
# Poissons Ratio (y) = 0.12881 0.27476
# Poissons Ratio (z) = -0.02110 0.20257
#
# Static dielectric constant tensor:
#      x y z
#    x 2.179520 0.002150 0.017320 
#    y 0.002150 1.947570 -0.014250 
#    z 0.017320 -0.014250 2.019090 
# 
# From -- ./inp_files/404888.got.cif
#   From: 2010.05.17/outbox.cif.g08.bks.cpg/sg2_203_cif.got.tgz:404888.got - 2010.06.03 11:33:40.
