data_PCOD9002873
_publ_section_title
;
Structure prediction by ZEFSAII (Michael W. Deem and Ramdas Pophale) SiO2 
 PCOD9002873
Probable space group: P -1
;
_chemical_formula_sum "Si O2"
_cell_formula_units_Z 16
_cell_length_a 7.042309
_cell_length_b 16.300947
_cell_length_c 8.697448
_cell_angle_alpha 50.713762
_cell_angle_beta 55.365071
_cell_angle_gamma 65.560874
_cell_volume 633.558969
_symmetry_space_group_name_H-M "P -1"
_symmetry_group_IT_number 2
_symmetry_cell_setting 'triclinic'
loop_
_space_group_symop_operation_xyz
x,y,z
-x,-y,-z
loop_
_atom_site_type_symbol
_atom_site_label
_atom_site_fract_x
_atom_site_fract_y
_atom_site_fract_z
Si Si1 0.592206 0.605578 0.759906
Si Si2 0.375933 0.618697 0.418510
Si Si3 0.740672 0.215886 0.164630
Si Si4 0.644858 0.785606 0.936341
Si Si5 0.946959 0.697735 0.324723
Si Si6 0.708335 0.994873 0.572468
Si Si7 0.016062 0.378309 0.188007
Si Si8 0.838905 0.926817 0.263943
O O1 0.729266 0.625178 0.514971
O O2 0.804153 0.626282 0.749607
O O3 0.500000 0.500000 0.000000
O O4 0.387751 0.694105 0.780072
O O5 0.500000 0.500000 0.500000
O O6 0.175594 0.629563 0.365796
O O7 0.234478 0.639209 0.614405
O O8 0.523046 0.716896 0.198289
O O9 0.961488 0.257418 0.929897
O O10 0.547805 0.197783 0.137016
O O11 0.788868 0.111229 0.368749
O O12 0.864351 0.708495 0.875397
O O13 0.714634 0.902224 0.806219
O O14 0.885625 0.806747 0.322385
O O15 0.430698 0.029398 0.670034
O O16 0.854015 0.934201 0.434652
O O17 0.000000 0.500000 0.000000
O O18 0.000000 0.000000 0.000000
#
# Coordination Sequence:
#
# PCOD9002873 Si02
#       8
#     2   2   2   2   2   2   2   2
#     4  10  21  35  50  72 102 135 171 209 250 298
#     4  10  18  28  43  66  96 131 162 200 240 286
#     4  10  17  30  46  66  98 131 162 203 249 302
#     4  10  17  28  43  69 100 128 160 200 253 298
#     4  10  19  30  47  70  99 135 165 203 251 302
#     4  11  17  26  42  68  99 131 161 201 255 310
#     4  10  19  33  51  70  98 135 167 206 248 295
#     4  11  16  25  43  68  98 130 161 194 252 310
#
# _framework density 25.254162000000001
#
# number of rings (size 3 to 8) (size 9 to 14) (size 15 to 20)
#    0.000    1.750    6.250    2.250    0.000    0.500 
#    0.000    0.000    0.000    0.000    0.000    0.875 
#    0.000    2.000    0.000    0.000    0.000    0.000 
#
# Total GULP energy -89282.771287 kJ/mol
# GULP energy per Si atom -5580.173205 kJ/mol
# Density = 2.519668 g / cm^3
# Si number density = 25.254162 Si / 1000 Ang^3
#
#
#
# Elastic Constant Matrix: (Units=GPa)
#
#
# Indices 1 2 3 4 5 6 
#
# 1 67.6039 33.2726 31.4134 -2.7784 -7.1689 -10.5899
# 2 33.2726 146.3891 99.5054 -17.8125 -5.7908 -21.8102
# 3 31.4134 99.5054 310.6474 -12.3631 -18.1626 -23.7986
# 4 -2.7784 -17.8125 -12.3631 57.7176 -17.6873 0.9777
# 5 -7.1689 -5.7908 -18.1626 -17.6873 23.1164 6.5058
# 6 -10.5899 -21.8102 -23.7986 0.9777 6.5058 21.4888
#
#
#
# Elastic Compliance Matrix: (Units=1/GPa)
#
#
# Indices 1 2 3 4 5 6 
#
# 1 0.017459 -0.002899 -0.000234 0.001117 0.004212 0.004076
# 2 -0.002899 0.010392 -0.002468 0.002368 -0.000207 0.006341
# 3 -0.000234 -0.002468 0.004360 0.001149 0.003287 0.001161
# 4 0.001117 0.002368 0.001149 0.025205 0.022148 -0.003626
# 5 0.004212 -0.000207 0.003287 0.022148 0.068624 -0.016278
# 6 0.004076 0.006341 0.001161 -0.003626 -0.016278 0.061360
#
#
# Mechanical properties :
#
#
# Convention : Reuss Voigt Hill
#
# Bulk Modulus (GPa) = 47.59814 94.78036 71.18925
# Shear Modulus (GPa) = 24.31854 44.49449 34.40651
#
# Velocity S-wave (km/s) = 3.10651 4.20201 3.69509
# Velocity P-wave (km/s) = 5.63523 7.82014 6.81581
#
# Compressibility (1/GPa) = 0.02100923
#
# Stress axis : x y z
#
# Youngs Moduli (GPa) = 57.27778 96.22664 229.35545
#
# Poissons Ratio (x) = 0.27900 0.05361
# Poissons Ratio (y) = 0.16607 0.56598
# Poissons Ratio (z) = 0.01339 0.23746
#
# Static dielectric constant tensor:
#      x y z
#    x 2.462020 0.111430 0.227690 
#    y 0.111430 1.916300 0.053640 
#    z 0.227690 0.053640 2.290940 
# 
# From -- ./inp_files/524256.got.cif
#   From: 2010.05.17/outbox.cif.g08.bks.cpg/sg2_263_cif.got.tgz:524256.got - 2010.06.03 11:33:40.
