data_PCOD9002494
_publ_section_title
;
Structure prediction by ZEFSAII (Michael W. Deem and Ramdas Pophale) SiO2 
 PCOD9002494
Probable space group: P -1
;
_chemical_formula_sum "Si O2"
_cell_formula_units_Z 16
_cell_length_a 5.337256
_cell_length_b 5.404877
_cell_length_c 27.507757
_cell_angle_alpha 50.176482
_cell_angle_beta 95.031754
_cell_angle_gamma 95.661798
_cell_volume 606.155946
_symmetry_space_group_name_H-M "P -1"
_symmetry_group_IT_number 2
_symmetry_cell_setting 'triclinic'
loop_
_space_group_symop_operation_xyz
x,y,z
-x,-y,-z
loop_
_atom_site_type_symbol
_atom_site_label
_atom_site_fract_x
_atom_site_fract_y
_atom_site_fract_z
Si Si1 0.596064 0.841000 0.829694
Si Si2 0.966418 0.106674 0.873037
Si Si3 0.781811 0.826857 0.484244
Si Si4 0.684608 0.671718 0.281829
Si Si5 0.412491 0.411539 0.398839
Si Si6 0.988216 0.089005 0.366259
Si Si7 0.106534 0.195135 0.250262
Si Si8 0.475373 0.155171 0.927661
O O1 0.433151 0.536815 0.884356
O O2 0.647312 0.781881 0.781439
O O3 0.487679 0.192798 0.780461
O O4 0.850570 0.858146 0.862722
O O5 0.000665 0.452580 0.802699
O O6 0.228089 0.017979 0.912215
O O7 0.736679 0.125040 0.905989
O O8 0.658191 0.541034 0.551672
O O9 0.575034 0.093372 0.441723
O O10 0.890157 0.790103 0.436092
O O11 0.000000 0.000000 0.500000
O O12 0.567581 0.659463 0.335942
O O13 0.760782 0.309732 0.320065
O O14 0.920788 0.925004 0.256414
O O15 0.161112 0.313780 0.376726
O O16 0.136245 0.067392 0.321411
O O17 0.500000 0.000000 0.000000
#
# Coordination Sequence:
#
# PCOD9002494 Si02
#       8
#     2   2   2   2   2   2   2   2
#     4  11  26  43  68  99 140 180 228 280 344 412
#     4  11  25  44  74 101 145 185 228 285 349 403
#     4   8  16  32  56  84 118 164 217 275 339 409
#     4  11  21  37  61  90 129 169 225 280 342 409
#     4   9  17  33  57  86 118 165 220 275 344 405
#     4  10  21  36  61  88 123 170 221 280 347 399
#     4  11  23  39  59  96 134 170 227 280 342 405
#     4  11  26  48  74 109 143 182 234 283 339 416
#
# _framework density 26.395849999999999
#
# number of rings (size 3 to 8) (size 9 to 14) (size 15 to 20)
#    0.000    1.750    1.250    2.625    3.500    3.000 
#    0.000    0.625    0.000   30.750    0.000    0.000 
#    0.000    0.000    0.000    0.000    0.000    0.000 
#
# Total GULP energy -89554.396134 kJ/mol
# GULP energy per Si atom -5597.149758 kJ/mol
# Density = 2.633577 g / cm^3
# Si number density = 26.395850 Si / 1000 Ang^3
#
#
#
# Elastic Constant Matrix: (Units=GPa)
#
#
# Indices 1 2 3 4 5 6 
#
# 1 102.9573 19.6348 58.8881 6.8737 0.6684 0.1482
# 2 19.6348 61.3397 30.2739 14.8858 -2.3226 3.7686
# 3 58.8881 30.2739 208.9220 22.3593 -17.7121 -3.5963
# 4 6.8737 14.8858 22.3593 24.6246 -0.0240 -0.6496
# 5 0.6684 -2.3226 -17.7121 -0.0240 51.5122 8.8591
# 6 0.1482 3.7686 -3.5963 -0.6496 8.8591 36.7451
#
#
#
# Elastic Compliance Matrix: (Units=1/GPa)
#
#
# Indices 1 2 3 4 5 6 
#
# 1 0.011996 -0.002592 -0.003248 0.001174 -0.001435 0.000266
# 2 -0.002592 0.020460 -0.001038 -0.010771 0.001047 -0.002632
# 3 -0.003248 -0.001038 0.006510 -0.004371 0.002206 0.000147
# 4 0.001174 -0.010771 -0.004371 0.050816 -0.002347 0.002136
# 5 -0.001435 0.001047 0.002206 -0.002347 0.021098 -0.005014
# 6 0.000266 -0.002632 0.000147 0.002136 -0.005014 0.028744
#
#
# Mechanical properties :
#
#
# Convention : Reuss Voigt Hill
#
# Bulk Modulus (GPa) = 39.66892 65.64583 52.65738
# Shear Modulus (GPa) = 30.90554 40.20453 35.55504
#
# Velocity S-wave (km/s) = 3.42548 3.90697 3.67412
# Velocity P-wave (km/s) = 5.54133 6.72877 6.16371
#
# Compressibility (1/GPa) = 0.02520865
#
# Stress axis : x y z
#
# Youngs Moduli (GPa) = 83.36441 48.87628 153.61496
#
# Poissons Ratio (x) = 0.12669 0.49897
# Poissons Ratio (y) = 0.21609 0.15945
# Poissons Ratio (z) = 0.27078 0.05073
#
# Static dielectric constant tensor:
#      x y z
#    x 2.189610 -0.088080 -0.028640 
#    y -0.088080 2.086230 0.022060 
#    z -0.028640 0.022060 2.014610 
# 
# From -- ./inp_files/11415.got.cif
#   From: 2010.05.17/outbox.cif.g08.bks.cpg/sg2_6_cif.got.tgz:11415.got - 2010.06.03 11:33:40.
