data_PCOD9002007
_publ_section_title
;
Structure prediction by ZEFSAII (Michael W. Deem and Ramdas Pophale) SiO2 
 PCOD9002007
Probable space group: P -1
;
_chemical_formula_sum "Si O2"
_cell_formula_units_Z 16
_cell_length_a 5.482323
_cell_length_b 26.033573
_cell_length_c 5.161404
_cell_angle_alpha 115.175919
_cell_angle_beta 100.410471
_cell_angle_gamma 102.057255
_cell_volume 620.996964
_symmetry_space_group_name_H-M "P -1"
_symmetry_group_IT_number 2
_symmetry_cell_setting 'triclinic'
loop_
_space_group_symop_operation_xyz
x,y,z
-x,-y,-z
loop_
_atom_site_type_symbol
_atom_site_label
_atom_site_fract_x
_atom_site_fract_y
_atom_site_fract_z
Si Si1 0.716104 0.960848 0.758422
Si Si2 0.049524 0.761366 0.305009
Si Si3 0.485634 0.930257 0.148488
Si Si4 0.462634 0.737033 0.719743
Si Si5 0.475925 0.326602 0.906994
Si Si6 0.010262 0.175762 0.071535
Si Si7 0.797224 0.538491 0.074790
Si Si8 0.023092 0.569717 0.684252
O O1 0.701835 0.932534 0.411942
O O2 0.542728 0.004620 0.769927
O O3 0.577334 0.913621 0.852263
O O4 0.000000 0.000000 0.000000
O O5 0.255279 0.749658 0.515787
O O6 0.951675 0.803944 0.574651
O O7 0.116527 0.791241 0.100701
O O8 0.818737 0.698328 0.097375
O O9 0.200703 0.889379 0.095599
O O10 0.397933 0.708075 0.928960
O O11 0.695063 0.800046 0.926708
O O12 0.548307 0.692221 0.442098
O O13 0.682936 0.392299 0.107608
O O14 0.919330 0.585104 0.425605
O O15 0.500000 0.500000 0.000000
O O16 0.825968 0.571182 0.877656
O O17 0.000000 0.500000 0.000000
O O18 0.000000 0.500000 0.500000
#
# Coordination Sequence:
#
# PCOD9002007 Si02
#       8
#     2   2   2   2   2   2   2   2
#     4  10  21  38  56  80 122 157 195 240 291 353
#     4  10  21  39  60  84 119 151 193 248 306 353
#     4  10  21  36  56  85 114 156 199 240 294 346
#     4  10  21  39  60  87 115 154 194 247 305 361
#     4  10  21  40  60  86 121 154 197 243 301 368
#     4  10  21  36  59  86 117 148 198 251 288 359
#     4  10  21  40  61  86 125 161 201 257 307 364
#     4  10  21  40  62  90 123 159 204 251 306 375
#
# _framework density 25.765021000000001
#
# number of rings (size 3 to 8) (size 9 to 14) (size 15 to 20)
#    0.000    2.000    0.000    3.000    0.000    2.000 
#   13.500    0.000    0.000    0.000    0.000    0.000 
#    0.000    0.000    0.000    0.000    0.000    0.000 
#
# Total GULP energy -89238.687723 kJ/mol
# GULP energy per Si atom -5577.417983 kJ/mol
# Density = 2.570638 g / cm^3
# Si number density = 25.765021 Si / 1000 Ang^3
#
#
#
# Elastic Constant Matrix: (Units=GPa)
#
#
# Indices 1 2 3 4 5 6 
#
# 1 53.6391 17.2290 27.3451 -10.2213 22.0552 14.4882
# 2 17.2290 97.9162 49.7686 -9.3647 -13.0143 21.5972
# 3 27.3451 49.7686 162.7449 -30.6992 12.2610 18.2774
# 4 -10.2213 -9.3647 -30.6992 56.3284 17.1619 5.1901
# 5 22.0552 -13.0143 12.2610 17.1619 41.0701 -2.9021
# 6 14.4882 21.5972 18.2774 5.1901 -2.9021 29.8425
#
#
#
# Elastic Compliance Matrix: (Units=1/GPa)
#
#
# Indices 1 2 3 4 5 6 
#
# 1 0.051327 -0.008719 0.006530 0.028538 -0.046469 -0.032090
# 2 -0.008719 0.016162 -0.005421 -0.005875 0.013751 -0.001784
# 3 0.006530 -0.005421 0.010924 0.011315 -0.013868 -0.009254
# 4 0.028538 -0.005875 0.011315 0.043046 -0.040528 -0.027960
# 5 -0.046469 0.013751 -0.013868 -0.040528 0.077256 0.035663
# 6 -0.032090 -0.001784 -0.009254 -0.027960 0.035663 0.064378
#
#
# Mechanical properties :
#
#
# Convention : Reuss Voigt Hill
#
# Bulk Modulus (GPa) = 15.82480 55.88729 35.85605
# Shear Modulus (GPa) = 16.70133 40.11205 28.40669
#
# Velocity S-wave (km/s) = 2.54877 3.94996 3.32404
# Velocity P-wave (km/s) = 3.84928 6.52236 5.35529
#
# Compressibility (1/GPa) = 0.06319194
#
# Stress axis : x y z
#
# Youngs Moduli (GPa) = 19.48279 61.87406 91.54438
#
# Poissons Ratio (x) = 0.53951 -0.59781
# Poissons Ratio (y) = 0.16988 0.49629
# Poissons Ratio (z) = -0.12723 0.33544
#
# Static dielectric constant tensor:
#      x y z
#    x 1.959360 0.208710 -0.146260 
#    y 0.208710 1.699630 0.021090 
#    z -0.146260 0.021090 2.130650 
# 
# From -- ./inp_files/14659.got.cif
#   From: 2010.05.17/outbox.cif.g08.bks.cpg/sg2_8_cif.got.tgz:14659.got - 2010.06.03 11:33:40.
