data_PCOD9002569
_publ_section_title
;
Structure prediction by ZEFSAII (Michael W. Deem and Ramdas Pophale) SiO2 
 PCOD9002569
Probable space group: P -1
;
_chemical_formula_sum "Si O2"
_cell_formula_units_Z 16
_cell_length_a 5.340488
_cell_length_b 11.262093
_cell_length_c 25.627024
_cell_angle_alpha 31.271365
_cell_angle_beta 79.506863
_cell_angle_gamma 76.499913
_cell_volume 777.526725
_symmetry_space_group_name_H-M "P -1"
_symmetry_group_IT_number 2
_symmetry_cell_setting 'triclinic'
loop_
_space_group_symop_operation_xyz
x,y,z
-x,-y,-z
loop_
_atom_site_type_symbol
_atom_site_label
_atom_site_fract_x
_atom_site_fract_y
_atom_site_fract_z
Si Si1 0.432055 0.361092 0.899872
Si Si2 0.821829 0.008313 0.555862
Si Si3 0.446955 0.409834 0.094584
Si Si4 0.999838 0.254926 0.123043
Si Si5 0.968707 0.222500 0.759158
Si Si6 0.586766 0.498245 0.346988
Si Si7 0.834665 0.042639 0.938647
Si Si8 0.676571 0.257601 0.322272
O O1 0.602197 0.400774 0.929123
O O2 0.582996 0.208174 0.906053
O O3 0.328724 0.591972 0.786152
O O4 0.227618 0.203178 0.986727
O O5 0.666958 0.268030 0.465030
O O6 0.590485 0.852876 0.622182
O O7 0.000000 0.000000 0.500000
O O8 0.052191 0.917849 0.621186
O O9 0.719891 0.269051 0.152669
O O10 0.223526 0.258650 0.154717
O O11 0.500000 0.500000 0.000000
O O12 0.041960 0.026160 0.172871
O O13 0.000000 0.500000 0.000000
O O14 0.715631 0.396672 0.684417
O O15 0.951157 0.177704 0.838254
O O16 0.236635 0.319903 0.706497
O O17 0.669662 0.417169 0.314902
O O18 0.000000 0.000000 0.000000
#
# Coordination Sequence:
#
# PCOD9002569 Si02
#       8
#     2   2   2   2   2   2   2   2
#     4  11  25  38  58  88 124 169 203 248 298 369
#     4  10  21  36  62  85 127 161 195 245 304 371
#     4  10  22  39  59  78 113 157 215 249 284 333
#     4  10  22  39  57  81 111 158 208 253 287 333
#     4  12  23  38  63  87 127 161 203 255 299 365
#     4  11  21  38  59  95 120 159 200 245 316 370
#     4  11  25  36  55  87 131 167 199 236 312 366
#     4  11  21  38  57  91 126 163 198 242 301 376
#
# _framework density 20.578068999999999
#
# number of rings (size 3 to 8) (size 9 to 14) (size 15 to 20)
#    0.000    1.250    1.250    6.750    8.750    0.000 
#    0.000    0.000    0.000    0.000    0.000   17.500 
#    0.000    0.000    0.000    0.000    0.000    0.000 
#
# Total GULP energy -89200.837119 kJ/mol
# GULP energy per Si atom -5575.052320 kJ/mol
# Density = 2.053123 g / cm^3
# Si number density = 20.578069 Si / 1000 Ang^3
#
#
#
# Elastic Constant Matrix: (Units=GPa)
#
#
# Indices 1 2 3 4 5 6 
#
# 1 157.0556 13.4798 39.6938 -6.6227 0.0673 17.0342
# 2 13.4798 65.4644 18.3628 -9.1209 -2.6501 16.1049
# 3 39.6938 18.3628 97.0345 -5.8860 13.2319 7.7461
# 4 -6.6227 -9.1209 -5.8860 17.4774 6.7755 -0.0573
# 5 0.0673 -2.6501 13.2319 6.7755 25.1186 -10.2100
# 6 17.0342 16.1049 7.7461 -0.0573 -10.2100 31.1336
#
#
#
# Elastic Compliance Matrix: (Units=1/GPa)
#
#
# Indices 1 2 3 4 5 6 
#
# 1 0.007520 0.000487 -0.002555 0.002605 -0.000969 -0.004044
# 2 0.000487 0.020018 -0.001613 0.012031 -0.005112 -0.011874
# 3 -0.002555 -0.001613 0.014106 0.007450 -0.011673 -0.005092
# 4 0.002605 0.012031 0.007450 0.079398 -0.032170 -0.019906
# 5 -0.000969 -0.005112 -0.011673 -0.032170 0.065245 0.027416
# 6 -0.004044 -0.011874 -0.005092 -0.019906 0.027416 0.050695
#
#
# Mechanical properties :
#
#
# Convention : Reuss Voigt Hill
#
# Bulk Modulus (GPa) = 29.16976 51.40303 40.28640
# Shear Modulus (GPa) = 19.54866 31.28047 25.41456
#
# Velocity S-wave (km/s) = 3.08551 3.90306 3.51811
# Velocity P-wave (km/s) = 5.18650 6.73391 6.01021
#
# Compressibility (1/GPa) = 0.03428207
#
# Stress axis : x y z
#
# Youngs Moduli (GPa) = 132.97760 49.95481 70.89054
#
# Poissons Ratio (x) = -0.02432 0.18115
# Poissons Ratio (y) = -0.06474 0.11432
# Poissons Ratio (z) = 0.33981 0.08056
#
# Static dielectric constant tensor:
#      x y z
#    x 1.803280 -0.051040 0.018890 
#    y -0.051040 1.735410 -0.022920 
#    z 0.018890 -0.022920 1.772660 
# 
# From -- ./inp_files/615405.got.cif
#   From: 2010.05.17/outbox.cif.g08.bks.cpg/sg2_308_cif.got.tgz:615405.got - 2010.06.03 11:33:40.
