data_PCOD9002673
_publ_section_title
;
Structure prediction by ZEFSAII (Michael W. Deem and Ramdas Pophale) SiO2 
 PCOD9002673
Probable space group: P -1
;
_chemical_formula_sum "Si O2"
_cell_formula_units_Z 16
_cell_length_a 14.023530
_cell_length_b 9.559797
_cell_length_c 9.525966
_cell_angle_alpha 147.724239
_cell_angle_beta 105.662159
_cell_angle_gamma 81.213178
_cell_volume 649.512238
_symmetry_space_group_name_H-M "P -1"
_symmetry_group_IT_number 2
_symmetry_cell_setting 'triclinic'
loop_
_space_group_symop_operation_xyz
x,y,z
-x,-y,-z
loop_
_atom_site_type_symbol
_atom_site_label
_atom_site_fract_x
_atom_site_fract_y
_atom_site_fract_z
Si Si1 0.378828 0.465347 0.900677
Si Si2 0.294676 0.924154 0.906022
Si Si3 0.793350 0.685515 0.611722
Si Si4 0.564801 0.286007 0.399467
Si Si5 0.737916 0.640763 0.946924
Si Si6 0.423455 0.035676 0.371746
Si Si7 0.062400 0.237559 0.997423
Si Si8 0.035577 0.361465 0.541559
O O1 0.315126 0.378747 0.939882
O O2 0.358455 0.751217 0.087140
O O3 0.500000 0.500000 0.000000
O O4 0.361887 0.258304 0.593161
O O5 0.238087 0.629921 0.654473
O O6 0.402296 0.868236 0.851824
O O7 0.285142 0.126473 0.201457
O O8 0.262761 0.072704 0.880758
O O9 0.876047 0.769302 0.838032
O O10 0.854557 0.709101 0.511243
O O11 0.500000 0.500000 0.500000
O O12 0.664227 0.437086 0.646713
O O13 0.499561 0.117951 0.347193
O O14 0.855224 0.617648 0.957133
O O15 0.500000 0.000000 0.500000
O O16 0.979214 0.423484 0.162239
O O17 0.024790 0.927973 0.690491
O O18 0.000000 0.500000 0.500000
#
# Coordination Sequence:
#
# PCOD9002673 Si02
#       8
#     2   2   2   2   2   2   2   2
#     4  10  19  33  56  72  95 132 182 217 254 327
#     4  11  20  34  48  72 100 141 181 214 262 311
#     4  10  18  30  49  64  99 140 181 203 252 332
#     4  12  25  38  55  77 109 144 188 231 263 306
#     4  11  21  34  54  76 106 142 187 215 272 311
#     4  10  20  37  55  75  95 135 182 219 270 317
#     4  10  18  26  44  69 102 129 171 212 254 315
#     4  10  17  28  42  70  95 136 176 200 253 316
#
# _framework density 24.633869000000001
#
# number of rings (size 3 to 8) (size 9 to 14) (size 15 to 20)
#    0.000    1.500    5.000    6.750    0.000    0.500 
#    0.000    0.000    0.000    0.000    0.000    0.000 
#    0.000    0.000    0.000   22.500   22.750    3.500 
#
# Total GULP energy -89374.074409 kJ/mol
# GULP energy per Si atom -5585.879651 kJ/mol
# Density = 2.457780 g / cm^3
# Si number density = 24.633869 Si / 1000 Ang^3
#
#
#
# Elastic Constant Matrix: (Units=GPa)
#
#
# Indices 1 2 3 4 5 6 
#
# 1 178.1247 49.6682 50.9756 16.6939 -40.2141 35.6306
# 2 49.6682 103.1811 66.8867 22.8772 -16.3034 33.8793
# 3 50.9756 66.8867 142.1269 37.3234 -38.4770 9.7589
# 4 16.6939 22.8772 37.3234 44.7446 -2.2675 -1.5209
# 5 -40.2141 -16.3034 -38.4770 -2.2675 48.4807 4.9282
# 6 35.6306 33.8793 9.7589 -1.5209 4.9282 41.4307
#
#
#
# Elastic Compliance Matrix: (Units=1/GPa)
#
#
# Indices 1 2 3 4 5 6 
#
# 1 0.010066 0.000963 0.000635 -0.004640 0.010075 -0.010963
# 2 0.000963 0.021032 -0.006204 -0.006303 0.004414 -0.017322
# 3 0.000635 -0.006204 0.014729 -0.008871 0.009759 -0.000429
# 4 -0.004640 -0.006303 -0.008871 0.034529 -0.012820 0.014026
# 5 0.010075 0.004414 0.009759 -0.012820 0.039622 -0.019756
# 6 -0.010963 -0.017322 -0.000429 0.014026 -0.019756 0.050695
#
#
# Mechanical properties :
#
#
# Convention : Reuss Voigt Hill
#
# Bulk Modulus (GPa) = 27.31074 84.27707 55.79391
# Shear Modulus (GPa) = 26.02934 43.99136 35.01035
#
# Velocity S-wave (km/s) = 3.25414 4.23047 3.77401
# Velocity P-wave (km/s) = 5.02294 7.62552 6.45672
#
# Compressibility (1/GPa) = 0.03661563
#
# Stress axis : x y z
#
# Youngs Moduli (GPa) = 99.34413 47.54549 67.89447
#
# Poissons Ratio (x) = -0.04579 -0.04313
# Poissons Ratio (y) = -0.09567 0.42122
# Poissons Ratio (z) = -0.06310 0.29497
#
# Static dielectric constant tensor:
#      x y z
#    x 2.149450 -0.085630 -0.048550 
#    y -0.085630 1.986210 -0.011910 
#    z -0.048550 -0.011910 2.028070 
# 
# From -- ./inp_files/299772.got.cif
#   From: 2010.05.17/outbox.cif.g08.bks.cpg/sg2_150_cif.got.tgz:299772.got - 2010.06.03 11:33:40.
