data_PCOD9002647
_publ_section_title
;
Structure prediction by ZEFSAII (Michael W. Deem and Ramdas Pophale) SiO2 
 PCOD9002647
Probable space group: P -1
;
_chemical_formula_sum "Si O2"
_cell_formula_units_Z 12
_cell_length_a 15.722711
_cell_length_b 6.892847
_cell_length_c 6.724095
_cell_angle_alpha 61.108029
_cell_angle_beta 135.475149
_cell_angle_gamma 123.141269
_cell_volume 422.418901
_symmetry_space_group_name_H-M "P -1"
_symmetry_group_IT_number 2
_symmetry_cell_setting 'triclinic'
loop_
_space_group_symop_operation_xyz
x,y,z
-x,-y,-z
loop_
_atom_site_type_symbol
_atom_site_label
_atom_site_fract_x
_atom_site_fract_y
_atom_site_fract_z
Si Si1 0.242973 0.574366 0.505322
Si Si2 0.263982 0.954225 0.686134
Si Si3 0.643903 0.685554 0.880119
Si Si4 0.137398 0.168499 0.073813
Si Si5 0.002679 0.254866 0.456398
Si Si6 0.608420 0.255224 0.722382
O O1 0.274822 0.795625 0.596605
O O2 0.090671 0.435701 0.353390
O O3 0.284892 0.657588 0.313167
O O4 0.324517 0.414473 0.810436
O O5 0.143223 0.807693 0.689733
O O6 0.225512 0.165020 0.415728
O O7 0.381792 0.964138 0.022747
O O8 0.772925 0.883886 0.922030
O O9 0.629046 0.469133 0.807927
O O10 0.524577 0.769967 0.595902
O O11 0.083800 0.332398 0.760915
O O12 0.000000 0.000000 0.000000
O O13 0.000000 0.000000 0.500000
#
# Coordination Sequence:
#
# PCOD9002647 Si02
#       6
#     2   2   2   2   2   2
#     4  10  21  38  61  84 119 153 193 243 291 343
#     4  10  22  38  56  90 121 147 193 245 295 335
#     4   9  20  40  58  88 116 156 196 240 283 347
#     4   9  20  38  60  80 123 151 188 243 291 334
#     4  10  22  38  61  86 114 158 198 235 293 351
#     4  10  21  36  63  85 117 155 199 233 291 351
#
# _framework density 28.407820999999998
#
# number of rings (size 3 to 8) (size 9 to 14) (size 15 to 20)
#    0.000    2.333    0.000    1.000    7.000    2.667 
#    0.000    0.833    0.000    0.000    0.000    0.000 
#    0.000    0.000    0.000    0.000    0.000    0.000 
#
# Total GULP energy -67009.683058 kJ/mol
# GULP energy per Si atom -5584.140255 kJ/mol
# Density = 2.834316 g / cm^3
# Si number density = 28.407821 Si / 1000 Ang^3
#
#
#
# Elastic Constant Matrix: (Units=GPa)
#
#
# Indices 1 2 3 4 5 6 
#
# 1 68.1313 5.5649 37.3931 -11.6691 -8.7181 8.9985
# 2 5.5649 63.7509 30.4904 4.7861 -6.9578 -16.9850
# 3 37.3931 30.4904 242.8823 -5.0885 -10.0794 -9.7344
# 4 -11.6691 4.7861 -5.0885 39.1816 -5.7097 -9.5523
# 5 -8.7181 -6.9578 -10.0794 -5.7097 43.9784 0.1955
# 6 8.9985 -16.9850 -9.7344 -9.5523 0.1955 38.7991
#
#
#
# Elastic Compliance Matrix: (Units=1/GPa)
#
#
# Indices 1 2 3 4 5 6 
#
# 1 0.017981 -0.001501 -0.002516 0.004647 0.003373 -0.004331
# 2 -0.001501 0.019109 -0.001768 -0.000721 0.002191 0.008081
# 3 -0.002516 -0.001768 0.004795 0.000414 0.000369 0.001113
# 4 0.004647 -0.000721 0.000414 0.029157 0.004661 0.005865
# 5 0.003373 0.002191 0.000369 0.004661 0.024438 0.001294
# 6 -0.004331 0.008081 0.001113 0.005865 0.001294 0.032033
#
#
# Mechanical properties :
#
#
# Convention : Reuss Voigt Hill
#
# Bulk Modulus (GPa) = 32.98741 57.96239 45.47490
# Shear Modulus (GPa) = 33.51481 44.47958 38.99719
#
# Velocity S-wave (km/s) = 3.43851 3.96125 3.70910
# Velocity P-wave (km/s) = 5.23467 6.43195 5.86395
#
# Compressibility (1/GPa) = 0.03031459
#
# Stress axis : x y z
#
# Youngs Moduli (GPa) = 55.61542 52.33127 208.54389
#
# Poissons Ratio (x) = 0.07855 0.52471
# Poissons Ratio (y) = 0.08348 0.36873
# Poissons Ratio (z) = 0.13993 0.09253
#
# Static dielectric constant tensor:
#      x y z
#    x 2.220180 -0.055080 0.115750 
#    y -0.055080 2.352800 0.041500 
#    z 0.115750 0.041500 2.290850 
# 
# From -- ./inp_files/20278.got.cif
#   From: 2010.05.17/outbox.cif.g08.bks.cpg/sg2_11_cif.got.tgz:20278.got - 2010.06.03 11:33:40.
