data_PCOD9002579
_publ_section_title
;
Structure prediction by ZEFSAII (Michael W. Deem and Ramdas Pophale) SiO2 
 PCOD9002579
Probable space group: P -1
;
_chemical_formula_sum "Si O2"
_cell_formula_units_Z 14
_cell_length_a 5.220273
_cell_length_b 15.573497
_cell_length_c 9.684416
_cell_angle_alpha 104.667558
_cell_angle_beta 85.013544
_cell_angle_gamma 68.709594
_cell_volume 695.571246
_symmetry_space_group_name_H-M "P -1"
_symmetry_group_IT_number 2
_symmetry_cell_setting 'triclinic'
loop_
_space_group_symop_operation_xyz
x,y,z
-x,-y,-z
loop_
_atom_site_type_symbol
_atom_site_label
_atom_site_fract_x
_atom_site_fract_y
_atom_site_fract_z
Si Si1 0.988711 0.702176 0.240664
Si Si2 0.753598 0.510220 0.910566
Si Si3 0.374465 0.157237 0.122501
Si Si4 0.835810 0.956340 0.086118
Si Si5 0.492585 0.723618 0.054678
Si Si6 0.142904 0.953993 0.614592
Si Si7 0.790373 0.827690 0.576591
O O1 0.116863 0.586991 0.225047
O O2 0.224488 0.723084 0.150086
O O3 0.718073 0.724896 0.161791
O O4 0.917530 0.760087 0.411117
O O5 0.500000 0.500000 0.000000
O O6 0.631491 0.622493 0.920387
O O7 0.000000 0.500000 0.000000
O O8 0.256372 0.216549 0.292233
O O9 0.532696 0.048168 0.132109
O O10 0.164041 0.139982 0.018204
O O11 0.550020 0.195298 0.026972
O O12 0.929096 0.958525 0.237988
O O13 0.000000 0.000000 0.000000
O O14 0.478092 0.898607 0.568895
O O15 0.996042 0.880957 0.629589
O O16 0.000000 0.000000 0.500000
#
# Coordination Sequence:
#
# PCOD9002579 Si02
#       7
#     2   2   2   2   2   2   2
#     4  10  21  37  59  88 117 148 188 240 290 335
#     4   8  16  34  56  83 116 144 183 235 285 333
#     4  10  23  38  57  84 115 153 196 235 289 343
#     4  10  21  39  57  75 115 157 192 238 287 335
#     4  10  21  36  62  88 110 152 198 233 275 354
#     4  11  24  39  58  82 114 151 200 242 284 339
#     4  11  23  40  56  85 119 153 183 244 299 333
#
# _framework density 20.12734
#
# number of rings (size 3 to 8) (size 9 to 14) (size 15 to 20)
#    0.000    2.000    1.429    1.286    4.000    1.143 
#    0.000    0.714    0.000    0.000    0.000   15.000 
#    0.000    0.000    0.000    0.000    0.000    0.000 
#
# Total GULP energy -77955.043424 kJ/mol
# GULP energy per Si atom -5568.217387 kJ/mol
# Density = 2.008153 g / cm^3
# Si number density = 20.127340 Si / 1000 Ang^3
#
#
#
# Elastic Constant Matrix: (Units=GPa)
#
#
# Indices 1 2 3 4 5 6 
#
# 1 109.8813 15.6008 27.9274 6.1259 -1.6067 4.8526
# 2 15.6008 52.2648 45.8083 4.9660 7.0557 2.1994
# 3 27.9274 45.8083 164.0755 4.7404 3.4179 -0.8729
# 4 6.1259 4.9660 4.7404 21.6168 -4.0380 -2.2349
# 5 -1.6067 7.0557 3.4179 -4.0380 27.0509 -0.2699
# 6 4.8526 2.1994 -0.8729 -2.2349 -0.2699 21.6018
#
#
#
# Elastic Compliance Matrix: (Units=1/GPa)
#
#
# Indices 1 2 3 4 5 6 
#
# 1 0.009881 -0.001733 -0.001163 -0.002231 0.000830 -0.002311
# 2 -0.001733 0.027574 -0.007095 -0.006010 -0.007330 -0.003418
# 3 -0.001163 -0.007095 0.008251 0.000445 0.000819 0.001373
# 4 -0.002231 -0.006010 0.000445 0.050523 0.008985 0.006470
# 5 0.000830 -0.007330 0.000819 0.008985 0.040186 0.002025
# 6 -0.002311 -0.003418 0.001373 0.006470 0.002025 0.047910
#
#
# Mechanical properties :
#
#
# Convention : Reuss Voigt Hill
#
# Bulk Modulus (GPa) = 38.87516 56.09940 47.48728
# Shear Modulus (GPa) = 23.48728 29.84627 26.66677
#
# Velocity S-wave (km/s) = 3.41975 3.85499 3.64387
# Velocity P-wave (km/s) = 5.91180 6.90994 6.43027
#
# Compressibility (1/GPa) = 0.02572337
#
# Stress axis : x y z
#
# Youngs Moduli (GPa) = 101.20507 36.26649 121.19683
#
# Poissons Ratio (x) = 0.06284 0.14098
# Poissons Ratio (y) = 0.17536 0.85992
# Poissons Ratio (z) = 0.11772 0.25732
#
# Static dielectric constant tensor:
#      x y z
#    x 1.805120 -0.034380 0.004230 
#    y -0.034380 1.834200 0.030670 
#    z 0.004230 0.030670 1.742440 
# 
# From -- ./inp_files/39819.got.cif
#   From: 2010.05.17/outbox.cif.g08.bks.cpg/sg2_20_cif.got.tgz:39819.got - 2010.06.03 11:33:40.
