data_PCOD9002810
_publ_section_title
;
Structure prediction by ZEFSAII (Michael W. Deem and Ramdas Pophale) SiO2 
 PCOD9002810
Probable space group: P -1
;
_chemical_formula_sum "Si O2"
_cell_formula_units_Z 16
_cell_length_a 20.715039
_cell_length_b 9.970227
_cell_length_c 9.603041
_cell_angle_alpha 51.145819
_cell_angle_beta 22.809117
_cell_angle_gamma 48.028727
_cell_volume 571.232585
_symmetry_space_group_name_H-M "P -1"
_symmetry_group_IT_number 2
_symmetry_cell_setting 'triclinic'
loop_
_space_group_symop_operation_xyz
x,y,z
-x,-y,-z
loop_
_atom_site_type_symbol
_atom_site_label
_atom_site_fract_x
_atom_site_fract_y
_atom_site_fract_z
Si Si1 0.383929 0.115104 0.487447
Si Si2 0.620713 0.743944 0.306559
Si Si3 0.573183 0.247270 0.758004
Si Si4 0.213782 0.118929 0.543113
Si Si5 0.078838 0.956093 0.164932
Si Si6 0.696058 0.411641 0.970091
Si Si7 0.117394 0.596748 0.990928
Si Si8 0.223002 0.702515 0.429674
O O1 0.560838 0.950689 0.247841
O O2 0.381201 0.254633 0.522109
O O3 0.331981 0.169132 0.397372
O O4 0.096943 0.018525 0.929960
O O5 0.462820 0.669118 0.626147
O O6 0.805443 0.610192 0.984910
O O7 0.398199 0.376716 0.948403
O O8 0.727729 0.319646 0.334197
O O9 0.607312 0.294815 0.819860
O O10 0.656868 0.033670 0.706395
O O11 0.229474 0.026121 0.893428
O O12 0.071292 0.292110 0.653592
O O13 0.896542 0.090365 0.491082
O O14 0.135520 0.740560 0.205651
O O15 0.735177 0.394951 0.736870
O O16 0.114784 0.618265 0.811185
#
# Coordination Sequence:
#
# PCOD9002810 Si02
#       8
#     2   2   2   2   2   2   2   2
#     4   8  16  29  43  61  88 108 140 176 206 246
#     4   9  16  28  43  64  84 112 141 171 209 242
#     4   9  17  26  42  61  90 113 133 173 209 253
#     4   9  16  29  40  63  90 109 137 171 216 247
#     4   8  17  28  43  64  85 111 135 177 211 244
#     4  10  17  28  43  66  85 113 143 167 208 250
#     4   8  17  26  43  66  81 115 134 173 210 249
#     4   9  17  28  42  64  88 112 138 172 206 249
#
# _framework density 28.009606999999999
#
# number of rings (size 3 to 8) (size 9 to 14) (size 15 to 20)
#    1.500    1.750    0.000    1.125    0.000    1.000 
#    0.000    0.000    0.000    0.750    0.000    0.000 
#    0.000    7.000    0.000    0.000    0.000    0.000 
#
# Total GULP energy -89345.924136 kJ/mol
# GULP energy per Si atom -5584.120258 kJ/mol
# Density = 2.794586 g / cm^3
# Si number density = 28.009607 Si / 1000 Ang^3
#
#
#
# Elastic Constant Matrix: (Units=GPa)
#
#
# Indices 1 2 3 4 5 6 
#
# 1 86.4868 16.3906 30.4873 9.3177 -2.8691 -7.1264
# 2 16.3906 77.7815 69.8836 54.6960 -17.5436 -24.8894
# 3 30.4873 69.8836 138.5981 56.2697 -18.9740 -20.7455
# 4 9.3177 54.6960 56.2697 70.3923 -19.6313 -9.5111
# 5 -2.8691 -17.5436 -18.9740 -19.6313 45.3506 5.7498
# 6 -7.1264 -24.8894 -20.7455 -9.5111 5.7498 15.5353
#
#
#
# Elastic Compliance Matrix: (Units=1/GPa)
#
#
# Indices 1 2 3 4 5 6 
#
# 1 0.012660 0.000270 -0.002773 0.000644 -0.000365 0.003065
# 2 0.000270 0.080019 -0.009915 -0.043029 -0.003204 0.089925
# 3 -0.002773 -0.009915 0.014093 -0.003086 0.000607 -0.000452
# 4 0.000644 -0.043029 -0.003086 0.045805 0.007976 -0.047672
# 5 -0.000365 -0.003204 0.000607 0.007976 0.025648 -0.009100
# 6 0.003065 0.089925 -0.000452 -0.047672 -0.009100 0.183424
#
#
# Mechanical properties :
#
#
# Convention : Reuss Voigt Hill
#
# Bulk Modulus (GPa) = 12.20505 59.59882 35.90194
# Shear Modulus (GPa) = 12.08317 38.66264 25.37291
#
# Velocity S-wave (km/s) = 2.07926 3.71932 3.01302
# Velocity P-wave (km/s) = 3.18297 6.30624 4.99499
#
# Compressibility (1/GPa) = 0.08193329
#
# Stress axis : x y z
#
# Youngs Moduli (GPa) = 78.98838 12.49706 70.95799
#
# Poissons Ratio (x) = -0.00337 0.19680
# Poissons Ratio (y) = -0.02130 0.70358
# Poissons Ratio (z) = 0.21907 0.12391
#
# Static dielectric constant tensor:
#      x y z
#    x 2.184770 0.002950 0.008670 
#    y 0.002950 2.294670 -0.147780 
#    z 0.008670 -0.147780 2.288840 
# 
# From -- ./inp_files/470482.got.cif
#   From: 2010.05.17/outbox.cif.g08.bks.cpg/sg2_236_cif.got.tgz:470482.got - 2010.06.03 11:33:40.
