data_PCOD9002053
_publ_section_title
;
Structure prediction by ZEFSAII (Michael W. Deem and Ramdas Pophale) SiO2 
 PCOD9002053
Probable space group: P -1
;
_chemical_formula_sum "Si O2"
_cell_formula_units_Z 14
_cell_length_a 12.074817
_cell_length_b 18.558053
_cell_length_c 14.177887
_cell_angle_alpha 148.445930
_cell_angle_beta 28.234024
_cell_angle_gamma 153.345831
_cell_volume 642.095454
_symmetry_space_group_name_H-M "P -1"
_symmetry_group_IT_number 2
_symmetry_cell_setting 'triclinic'
loop_
_space_group_symop_operation_xyz
x,y,z
-x,-y,-z
loop_
_atom_site_type_symbol
_atom_site_label
_atom_site_fract_x
_atom_site_fract_y
_atom_site_fract_z
Si Si1 0.031240 0.340105 0.453091
Si Si2 0.687176 0.630033 0.273901
Si Si3 0.693567 0.220202 0.999467
Si Si4 0.576882 0.391661 0.936335
Si Si5 0.978362 0.239479 0.168508
Si Si6 0.268146 0.150253 0.079715
Si Si7 0.482150 0.833740 0.716192
O O1 0.363336 0.487715 0.391907
O O2 0.817862 0.375169 0.697125
O O3 0.977974 0.319572 0.357599
O O4 0.013660 0.174453 0.314107
O O5 0.698894 0.796985 0.467479
O O6 0.967156 0.654818 0.136220
O O7 0.687739 0.569297 0.100071
O O8 0.492436 0.226210 0.081831
O O9 0.615340 0.031302 0.841559
O O10 0.614307 0.237418 0.184714
O O11 0.428643 0.257252 0.984786
O O12 0.312885 0.332494 0.999221
O O13 0.789632 0.248922 0.242069
O O14 0.846839 0.042566 0.061143
#
# Coordination Sequence:
#
# PCOD9002053 Si02
#       7
#     2   2   2   2   2   2   2
#     4  10  21  36  57  83 111 145 179 221 276 323
#     4  10  21  38  55  80 114 144 182 224 265 324
#     4  10  21  38  59  81 108 144 183 225 272 320
#     4  10  21  36  57  83 111 145 179 221 276 323
#     4   9  20  37  57  84 111 138 182 229 269 322
#     4   9  20  37  57  84 111 138 182 229 269 322
#     4  10  21  38  59  81 108 144 183 225 272 320
#
# _framework density 21.803611
#
# number of rings (size 3 to 8) (size 9 to 14) (size 15 to 20)
#    0.000    2.571    0.000    3.000    0.000    9.143 
#    0.000   14.286    0.000    0.000    0.000    0.000 
#    0.000    0.000    0.000    0.000    0.000    0.000 
#
# Total GULP energy -78161.762858 kJ/mol
# GULP energy per Si atom -5582.983061 kJ/mol
# Density = 2.175399 g / cm^3
# Si number density = 21.803611 Si / 1000 Ang^3
#
#
#
# Elastic Constant Matrix: (Units=GPa)
#
#
# Indices 1 2 3 4 5 6 
#
# 1 122.7237 34.5573 46.0396 -8.8504 -1.2555 26.8882
# 2 34.5573 55.4326 35.7653 -4.9199 10.2126 16.7934
# 3 46.0396 35.7653 180.9704 -14.0883 -1.7344 12.3257
# 4 -8.8504 -4.9199 -14.0883 35.1593 8.4808 -10.4488
# 5 -1.2555 10.2126 -1.7344 8.4808 15.1785 -3.0503
# 6 26.8882 16.7934 12.3257 -10.4488 -3.0503 37.1930
#
#
#
# Elastic Compliance Matrix: (Units=1/GPa)
#
#
# Indices 1 2 3 4 5 6 
#
# 1 0.011325 -0.005269 -0.001521 -0.000977 0.003796 -0.005267
# 2 -0.005269 0.032918 -0.004316 0.005219 -0.028096 -0.010462
# 3 -0.001521 -0.004316 0.006808 0.001437 0.003043 0.001445
# 4 -0.000977 0.005219 0.001437 0.036884 -0.022756 0.006369
# 5 0.003796 -0.028096 0.003043 -0.022756 0.100327 0.010768
# 6 -0.005267 -0.010462 0.001445 0.006369 0.010768 0.037612
#
#
# Mechanical properties :
#
#
# Convention : Reuss Voigt Hill
#
# Bulk Modulus (GPa) = 34.67384 65.76123 50.21754
# Shear Modulus (GPa) = 19.40254 33.69046 26.54650
#
# Velocity S-wave (km/s) = 2.98632 3.93514 3.49309
# Velocity P-wave (km/s) = 5.27524 7.13255 6.27301
#
# Compressibility (1/GPa) = 0.02884018
#
# Stress axis : x y z
#
# Youngs Moduli (GPa) = 88.29993 30.37851 146.88351
#
# Poissons Ratio (x) = 0.16007 0.22336
# Poissons Ratio (y) = 0.46527 0.63388
# Poissons Ratio (z) = 0.13428 0.13110
#
# Static dielectric constant tensor:
#      x y z
#    x 1.783920 -0.010940 -0.006780 
#    y -0.010940 1.874050 0.034610 
#    z -0.006780 0.034610 1.798150 
# 
# From -- ./inp_files/457521.got.cif
#   From: 2010.05.17/outbox.cif.g08.bks.cpg/sg2_229_cif.got.tgz:457521.got - 2010.06.03 11:33:40.
