data_PCOD9002033
_publ_section_title
;
Structure prediction by ZEFSAII (Michael W. Deem and Ramdas Pophale) SiO2 
 PCOD9002033
Probable space group: P -1
;
_chemical_formula_sum "Si O2"
_cell_formula_units_Z 16
_cell_length_a 8.436749
_cell_length_b 12.526472
_cell_length_c 22.829705
_cell_angle_alpha 22.112162
_cell_angle_beta 53.230179
_cell_angle_gamma 61.479924
_cell_volume 703.316041
_symmetry_space_group_name_H-M "P -1"
_symmetry_group_IT_number 2
_symmetry_cell_setting 'triclinic'
loop_
_space_group_symop_operation_xyz
x,y,z
-x,-y,-z
loop_
_atom_site_type_symbol
_atom_site_label
_atom_site_fract_x
_atom_site_fract_y
_atom_site_fract_z
Si Si1 0.429262 0.269073 0.707012
Si Si2 0.408048 0.231383 0.867728
Si Si3 0.771291 0.832843 0.358838
Si Si4 0.608027 0.363427 0.994350
Si Si5 0.989512 0.181811 0.800152
Si Si6 0.989364 0.349501 0.178602
Si Si7 0.709833 0.457366 0.090566
Si Si8 0.214778 0.302313 0.442659
O O1 0.450319 0.206556 0.802536
O O2 0.589373 0.575157 0.503914
O O3 0.197506 0.270602 0.745245
O O4 0.461062 0.986385 0.810107
O O5 0.541176 0.557329 0.689434
O O6 0.500000 0.000000 0.000000
O O7 0.167492 0.107260 0.993351
O O8 0.950161 0.880648 0.247718
O O9 0.827202 0.723954 0.464698
O O10 0.699606 0.127964 0.237251
O O11 0.508396 0.468642 0.904956
O O12 0.849395 0.473801 0.899230
O O13 0.500000 0.500000 0.000000
O O14 0.891659 0.458232 0.680959
O O15 0.814085 0.474400 0.122387
O O16 0.880027 0.027082 0.390456
O O17 0.132579 0.339123 0.094107
#
# Coordination Sequence:
#
# PCOD9002033 Si02
#       8
#     2   2   2   2   2   2   2   2
#     4  11  23  38  61  95 121 153 211 249 306 369
#     4   9  21  43  57  86 118 164 201 255 305 360
#     4  10  21  36  58  99 119 152 208 252 305 364
#     4  10  21  36  56  88 129 160 190 251 307 367
#     4  11  20  33  61  88 123 156 194 257 307 352
#     4   9  18  34  55  84 116 161 201 230 307 364
#     4   9  19  36  56  83 132 159 190 250 312 360
#     4   9  20  36  59  88 121 155 206 249 300 363
#
# _framework density 22.749376000000002
#
# number of rings (size 3 to 8) (size 9 to 14) (size 15 to 20)
#    0.000    2.250    0.000    2.625    5.250    0.000 
#   22.500    0.000    0.000    6.000    9.750    0.000 
#    0.000    0.000    0.000    0.000    0.000    0.000 
#
# Total GULP energy -89367.231885 kJ/mol
# GULP energy per Si atom -5585.451993 kJ/mol
# Density = 2.269760 g / cm^3
# Si number density = 22.749376 Si / 1000 Ang^3
#
#
#
# Elastic Constant Matrix: (Units=GPa)
#
#
# Indices 1 2 3 4 5 6 
#
# 1 132.3023 11.7836 30.2879 -20.7320 -3.3958 -11.0936
# 2 11.7836 33.4130 39.6365 -4.4398 -11.4654 -3.1163
# 3 30.2879 39.6365 169.1171 -22.0556 -25.3856 -3.0320
# 4 -20.7320 -4.4398 -22.0556 35.5127 8.5373 5.0603
# 5 -3.3958 -11.4654 -25.3856 8.5373 37.9385 -3.2352
# 6 -11.0936 -3.1163 -3.0320 5.0603 -3.2352 18.9296
#
#
#
# Elastic Compliance Matrix: (Units=1/GPa)
#
#
# Indices 1 2 3 4 5 6 
#
# 1 0.008797 -0.001676 -0.000698 0.004193 -0.000831 0.003505
# 2 -0.001676 0.044664 -0.009285 -0.004340 0.008755 0.007540
# 3 -0.000698 -0.009285 0.009007 0.003640 0.002247 -0.001084
# 4 0.004193 -0.004340 0.003640 0.035224 -0.007136 -0.008310
# 5 -0.000831 0.008755 0.002247 -0.007136 0.032792 0.008826
# 6 0.003505 0.007540 -0.001084 -0.008310 0.008826 0.059679
#
#
# Mechanical properties :
#
#
# Convention : Reuss Voigt Hill
#
# Bulk Modulus (GPa) = 25.54158 55.36093 40.45126
# Shear Modulus (GPa) = 22.07220 35.35112 28.71166
#
# Velocity S-wave (km/s) = 3.11824 3.94628 3.55644
# Velocity P-wave (km/s) = 4.92100 6.71953 5.88933
#
# Compressibility (1/GPa) = 0.03915184
#
# Stress axis : x y z
#
# Youngs Moduli (GPa) = 113.67426 22.38935 111.02967
#
# Poissons Ratio (x) = 0.03752 0.07747
# Poissons Ratio (y) = 0.19047 1.03086
# Poissons Ratio (z) = 0.07932 0.20788
#
# Static dielectric constant tensor:
#      x y z
#    x 1.934720 0.002210 -0.018490 
#    y 0.002210 1.858070 -0.000610 
#    z -0.018490 -0.000610 1.853960 
# 
# From -- ./inp_files/617289.got.cif
#   From: 2010.05.17/outbox.cif.g08.bks.cpg/sg2_309_cif.got.tgz:617289.got - 2010.06.03 11:33:40.
