data_PCOD9002506
_publ_section_title
;
Structure prediction by ZEFSAII (Michael W. Deem and Ramdas Pophale) SiO2 
 PCOD9002506
Probable space group: P -1
;
_chemical_formula_sum "Si O2"
_cell_formula_units_Z 14
_cell_length_a 8.389762
_cell_length_b 7.794968
_cell_length_c 13.007593
_cell_angle_alpha 111.987351
_cell_angle_beta 71.038173
_cell_angle_gamma 65.521728
_cell_volume 590.426592
_symmetry_space_group_name_H-M "P -1"
_symmetry_group_IT_number 2
_symmetry_cell_setting 'triclinic'
loop_
_space_group_symop_operation_xyz
x,y,z
-x,-y,-z
loop_
_atom_site_type_symbol
_atom_site_label
_atom_site_fract_x
_atom_site_fract_y
_atom_site_fract_z
Si Si1 0.081427 0.849642 0.255388
Si Si2 0.659816 0.056460 0.503570
Si Si3 0.523712 0.966417 0.108288
Si Si4 0.059035 0.316776 0.356139
Si Si5 0.897156 0.962647 0.109090
Si Si6 0.700991 0.458894 0.311479
Si Si7 0.515729 0.311175 0.790381
O O1 0.889760 0.891866 0.370071
O O2 0.060288 0.805183 0.130774
O O3 0.053504 0.094214 0.322221
O O4 0.310901 0.649175 0.211171
O O5 0.531533 0.324717 0.552600
O O6 0.647443 0.085833 0.635148
O O7 0.500000 0.000000 0.500000
O O8 0.301548 0.199225 0.248479
O O9 0.740187 0.913660 0.089765
O O10 0.531414 0.757658 0.109366
O O11 0.500000 0.000000 0.000000
O O12 0.000000 0.500000 0.500000
O O13 0.885780 0.446860 0.328421
O O14 0.745625 0.213900 0.253533
O O15 0.000000 0.000000 0.000000
O O16 0.679975 0.513054 0.204466
#
# Coordination Sequence:
#
# PCOD9002506 Si02
#       7
#     2   2   2   2   2   2   2
#     4  10  21  37  62  90 125 168 208 254 322 382
#     4  10  21  36  61  90 132 162 205 258 323 362
#     4  11  23  43  67  88 122 175 211 257 325 389
#     4  10  23  37  62  96 130 162 214 263 315 373
#     4  11  23  43  64  87 127 170 212 266 313 376
#     4   9  23  39  61  94 127 157 218 254 313 371
#     4   9  21  39  61  91 126 158 211 257 310 378
#
# _framework density 23.711668
#
# number of rings (size 3 to 8) (size 9 to 14) (size 15 to 20)
#    0.857    1.143    0.000    3.857    8.000    1.143 
#    2.571    5.714    0.000    0.000    0.000    0.000 
#    0.000    0.000    0.000    0.000    0.000    0.000 
#
# Total GULP energy -78074.560453 kJ/mol
# GULP energy per Si atom -5576.754318 kJ/mol
# Density = 2.365770 g / cm^3
# Si number density = 23.711668 Si / 1000 Ang^3
#
#
#
# Elastic Constant Matrix: (Units=GPa)
#
#
# Indices 1 2 3 4 5 6 
#
# 1 156.1176 26.1071 24.2421 -13.6005 10.1731 -23.9836
# 2 26.1071 53.3931 21.0255 -14.0146 8.4722 -24.7773
# 3 24.2421 21.0255 91.4843 -11.5700 6.1457 -1.7295
# 4 -13.6005 -14.0146 -11.5700 27.3818 -7.4161 4.6887
# 5 10.1731 8.4722 6.1457 -7.4161 43.0720 -17.1210
# 6 -23.9836 -24.7773 -1.7295 4.6887 -17.1210 40.1582
#
#
#
# Elastic Compliance Matrix: (Units=1/GPa)
#
#
# Indices 1 2 3 4 5 6 
#
# 1 0.007526 -0.000785 -0.001500 0.002174 0.000521 0.003914
# 2 -0.000785 0.033281 -0.005858 0.011932 0.004637 0.020397
# 3 -0.001500 -0.005858 0.012974 0.002062 -0.001994 -0.005042
# 4 0.002174 0.011932 0.002062 0.045427 0.007268 0.006544
# 5 0.000521 0.004637 -0.001994 0.007268 0.029628 0.014869
# 6 0.003914 0.020397 -0.005042 0.006544 0.014869 0.045182
#
#
# Mechanical properties :
#
#
# Convention : Reuss Voigt Hill
#
# Bulk Modulus (GPa) = 26.66976 49.30493 37.98735
# Shear Modulus (GPa) = 24.65457 37.43042 31.04250
#
# Velocity S-wave (km/s) = 3.22804 3.97743 3.62216
# Velocity P-wave (km/s) = 5.01653 6.47549 5.79213
#
# Compressibility (1/GPa) = 0.03749564
#
# Stress axis : x y z
#
# Youngs Moduli (GPa) = 132.86586 30.04732 77.07717
#
# Poissons Ratio (x) = 0.02359 0.11562
# Poissons Ratio (y) = 0.10431 0.45149
# Poissons Ratio (z) = 0.19931 0.17601
#
# Static dielectric constant tensor:
#      x y z
#    x 1.935160 -0.057480 0.008430 
#    y -0.057480 1.986330 0.021800 
#    z 0.008430 0.021800 1.918330 
# 
# From -- ./inp_files/379859.got.cif
#   From: 2010.05.17/outbox.cif.g08.bks.cpg/sg2_190_cif.got.tgz:379859.got - 2010.06.03 11:33:40.
