data_PCOD9002137
_publ_section_title
;
Structure prediction by ZEFSAII (Michael W. Deem and Ramdas Pophale) SiO2 
 PCOD9002137
Probable space group: P -1
;
_chemical_formula_sum "Si O2"
_cell_formula_units_Z 14
_cell_length_a 12.798644
_cell_length_b 10.571547
_cell_length_c 11.111704
_cell_angle_alpha 41.702915
_cell_angle_beta 137.382140
_cell_angle_gamma 142.039837
_cell_volume 574.025507
_symmetry_space_group_name_H-M "P -1"
_symmetry_group_IT_number 2
_symmetry_cell_setting 'triclinic'
loop_
_space_group_symop_operation_xyz
x,y,z
-x,-y,-z
loop_
_atom_site_type_symbol
_atom_site_label
_atom_site_fract_x
_atom_site_fract_y
_atom_site_fract_z
Si Si1 0.830256 0.335961 0.822646
Si Si2 0.919062 0.801697 0.976284
Si Si3 0.870288 0.047545 0.544984
Si Si4 0.800553 0.192213 0.153806
Si Si5 0.719933 0.541530 0.403632
Si Si6 0.380691 0.813355 0.628031
Si Si7 0.566178 0.344208 0.990097
O O1 0.687516 0.375330 0.604974
O O2 0.994269 0.587065 0.822045
O O3 0.762347 0.167093 0.997500
O O4 0.931254 0.263363 0.867584
O O5 0.730152 0.583786 0.008605
O O6 0.872512 0.864174 0.761659
O O7 0.000000 0.000000 0.000000
O O8 0.795737 0.009992 0.370681
O O9 0.761908 0.139315 0.461912
O O10 0.079782 0.242512 0.573235
O O11 0.663747 0.258298 0.046379
O O12 0.710695 0.413039 0.365334
O O13 0.575863 0.614705 0.223674
O O14 0.500000 0.000000 0.500000
O O15 0.504044 0.808038 0.842759
#
# Coordination Sequence:
#
# PCOD9002137 Si02
#       7
#     2   2   2   2   2   2   2
#     4   9  19  35  59  82 113 155 195 237 280 342
#     4  11  21  37  60  88 119 154 194 234 287 347
#     4  10  21  36  58  83 116 153 192 239 286 348
#     4   8  18  39  57  79 112 155 199 234 283 337
#     4  11  21  35  57  88 117 149 189 238 297 342
#     4  11  22  38  58  82 116 154 192 236 290 350
#     4  10  22  38  59  85 118 150 188 243 290 344
#
# _framework density 24.389157999999998
#
# number of rings (size 3 to 8) (size 9 to 14) (size 15 to 20)
#    0.000    2.000    0.000    4.286    0.000    3.429 
#    0.000    0.000    0.000   12.000    0.000    0.000 
#    0.000    0.000    0.000    0.000    0.000    0.000 
#
# Total GULP energy -78370.667808 kJ/mol
# GULP energy per Si atom -5597.904843 kJ/mol
# Density = 2.433365 g / cm^3
# Si number density = 24.389158 Si / 1000 Ang^3
#
#
#
# Elastic Constant Matrix: (Units=GPa)
#
#
# Indices 1 2 3 4 5 6 
#
# 1 58.5674 19.1014 57.6128 14.2011 -26.2326 12.8472
# 2 19.1014 51.1656 21.5471 6.2913 -7.2524 6.4051
# 3 57.6128 21.5471 208.8167 9.5718 -17.8155 14.6669
# 4 14.2011 6.2913 9.5718 29.5344 10.0506 -2.4093
# 5 -26.2326 -7.2524 -17.8155 10.0506 44.2789 -0.8960
# 6 12.8472 6.4051 14.6669 -2.4093 -0.8960 23.6252
#
#
#
# Elastic Compliance Matrix: (Units=1/GPa)
#
#
# Indices 1 2 3 4 5 6 
#
# 1 0.064996 -0.004760 -0.009527 -0.044434 0.043351 -0.031027
# 2 -0.004760 0.022532 -0.000518 -0.003063 0.001287 -0.003462
# 3 -0.009527 -0.000518 0.006877 0.003866 -0.003813 0.001301
# 4 -0.044434 -0.003063 0.003866 0.070804 -0.040770 0.028268
# 5 0.043351 0.001287 -0.003813 -0.040770 0.055721 -0.023600
# 6 -0.031027 -0.003462 0.001301 0.028268 -0.023600 0.061318
#
#
# Mechanical properties :
#
#
# Convention : Reuss Voigt Hill
#
# Bulk Modulus (GPa) = 15.43343 57.23026 36.33185
# Shear Modulus (GPa) = 14.99451 34.17358 24.58404
#
# Velocity S-wave (km/s) = 2.48221 3.74729 3.17833
# Velocity P-wave (km/s) = 3.81535 6.49918 5.32899
#
# Compressibility (1/GPa) = 0.06479441
#
# Stress axis : x y z
#
# Youngs Moduli (GPa) = 15.38567 44.38088 145.41639
#
# Poissons Ratio (x) = 0.21126 1.38532
# Poissons Ratio (y) = 0.07324 0.07536
# Poissons Ratio (z) = 0.14657 0.02300
#
# Static dielectric constant tensor:
#      x y z
#    x 1.886000 -0.019190 -0.055890 
#    y -0.019190 2.004280 -0.030150 
#    z -0.055890 -0.030150 1.994180 
# 
# From -- ./inp_files/187201.got.cif
#   From: 2010.05.17/outbox.cif.g08.bks.cpg/sg2_94_cif.got.tgz:187201.got - 2010.06.03 11:33:40.
