data_PCOD9002284
_publ_section_title
;
Structure prediction by ZEFSAII (Michael W. Deem and Ramdas Pophale) SiO2 
 PCOD9002284
Probable space group: P -1
;
_chemical_formula_sum "Si O2"
_cell_formula_units_Z 16
_cell_length_a 15.429540
_cell_length_b 13.373541
_cell_length_c 11.446474
_cell_angle_alpha 49.208727
_cell_angle_beta 143.764015
_cell_angle_gamma 151.577544
_cell_volume 651.213006
_symmetry_space_group_name_H-M "P -1"
_symmetry_group_IT_number 2
_symmetry_cell_setting 'triclinic'
loop_
_space_group_symop_operation_xyz
x,y,z
-x,-y,-z
loop_
_atom_site_type_symbol
_atom_site_label
_atom_site_fract_x
_atom_site_fract_y
_atom_site_fract_z
Si Si1 0.818707 0.305316 0.361913
Si Si2 0.905432 0.448776 0.093520
Si Si3 0.810142 0.897569 0.973647
Si Si4 0.462718 0.365548 0.329234
Si Si5 0.882333 0.048629 0.570028
Si Si6 0.993483 0.215641 0.322345
Si Si7 0.649190 0.068723 0.725451
Si Si8 0.270922 0.406747 0.265466
O O1 0.901668 0.215048 0.497537
O O2 0.000000 0.500000 0.500000
O O3 0.819671 0.380899 0.184092
O O4 0.551816 0.111482 0.264461
O O5 0.887386 0.288701 0.145335
O O6 0.175362 0.694790 0.214608
O O7 0.753013 0.453189 0.861501
O O8 0.572310 0.690951 0.801946
O O9 0.796854 0.042442 0.876177
O O10 0.891587 0.869241 0.193928
O O11 0.000000 0.000000 0.000000
O O12 0.739824 0.577030 0.494551
O O13 0.312937 0.387472 0.193627
O O14 0.339363 0.167672 0.430921
O O15 0.862037 0.035721 0.415994
O O16 0.048367 0.203305 0.260662
O O17 0.500000 0.000000 0.500000
O O18 0.500000 0.500000 0.500000
#
# Coordination Sequence:
#
# PCOD9002284 Si02
#       8
#     2   2   2   2   2   2   2   2
#     4  11  24  37  60  94 131 161 201 250 307 382
#     4  11  22  40  65  88 127 162 205 257 311 369
#     4  10  21  36  59  89 127 161 203 247 308 379
#     4  10  21  38  59  84 123 162 198 254 307 358
#     4  10  22  39  58  90 125 158 202 254 307 378
#     4  10  22  40  61  88 115 161 208 254 307 356
#     4  12  22  38  63  93 130 170 200 245 317 383
#     4  10  23  42  65  88 118 165 216 262 304 354
#
# _framework density 24.569534000000001
#
# number of rings (size 3 to 8) (size 9 to 14) (size 15 to 20)
#    0.000    1.500    1.250    4.875    3.500    3.000 
#    0.000    2.500    0.000    9.000    0.000    0.000 
#    0.000    0.000    0.000    0.000    0.000    0.000 
#
# Total GULP energy -89457.671475 kJ/mol
# GULP energy per Si atom -5591.104467 kJ/mol
# Density = 2.451361 g / cm^3
# Si number density = 24.569534 Si / 1000 Ang^3
#
#
#
# Elastic Constant Matrix: (Units=GPa)
#
#
# Indices 1 2 3 4 5 6 
#
# 1 86.8088 10.2653 26.3132 -16.8792 0.7543 11.0808
# 2 10.2653 79.1559 23.5369 -6.9391 -1.3833 23.0622
# 3 26.3132 23.5369 136.4891 -18.9947 12.0929 -2.9556
# 4 -16.8792 -6.9391 -18.9947 38.3893 -9.1842 -0.2223
# 5 0.7543 -1.3833 12.0929 -9.1842 39.7755 -1.5054
# 6 11.0808 23.0622 -2.9556 -0.2223 -1.5054 41.5664
#
#
#
# Elastic Compliance Matrix: (Units=1/GPa)
#
#
# Indices 1 2 3 4 5 6 
#
# 1 0.013664 0.000552 -0.002205 0.005356 0.001515 -0.004022
# 2 0.000552 0.016394 -0.002992 0.002051 0.001588 -0.009387
# 3 -0.002205 -0.002992 0.008846 0.002381 -0.002095 0.002814
# 4 0.005356 0.002051 0.002381 0.031482 0.006439 -0.001995
# 5 0.001515 0.001588 -0.002095 0.006439 0.027276 -0.000411
# 6 -0.004022 -0.009387 0.002814 -0.001995 -0.000411 0.030513
#
#
# Mechanical properties :
#
#
# Convention : Reuss Voigt Hill
#
# Bulk Modulus (GPa) = 33.76964 46.96495 40.36730
# Shear Modulus (GPa) = 33.93585 40.10213 37.01899
#
# Velocity S-wave (km/s) = 3.72050 4.04442 3.88584
# Velocity P-wave (km/s) = 5.67720 6.40050 6.04967
#
# Compressibility (1/GPa) = 0.02961239
#
# Stress axis : x y z
#
# Youngs Moduli (GPa) = 73.18266 60.99836 113.04971
#
# Poissons Ratio (x) = -0.03364 0.24932
# Poissons Ratio (y) = -0.04036 0.33823
# Poissons Ratio (z) = 0.16140 0.18250
#
# Static dielectric constant tensor:
#      x y z
#    x 2.026290 -0.049080 -0.075030 
#    y -0.049080 2.002120 0.040990 
#    z -0.075030 0.040990 2.001290 
# 
# From -- ./inp_files/455567.got.cif
#   From: 2010.05.17/outbox.cif.g08.bks.cpg/sg2_228_cif.got.tgz:455567.got - 2010.06.03 11:33:40.
