data_PCOD9002427
_publ_section_title
;
Structure prediction by ZEFSAII (Michael W. Deem and Ramdas Pophale) SiO2 
 PCOD9002427
Probable space group: P -1
;
_chemical_formula_sum "Si O2"
_cell_formula_units_Z 16
_cell_length_a 24.782194
_cell_length_b 7.803069
_cell_length_c 9.958583
_cell_angle_alpha 70.110574
_cell_angle_beta 43.293799
_cell_angle_gamma 104.301547
_cell_volume 796.673549
_symmetry_space_group_name_H-M "P -1"
_symmetry_group_IT_number 2
_symmetry_cell_setting 'triclinic'
loop_
_space_group_symop_operation_xyz
x,y,z
-x,-y,-z
loop_
_atom_site_type_symbol
_atom_site_label
_atom_site_fract_x
_atom_site_fract_y
_atom_site_fract_z
Si Si1 0.078427 0.669704 0.145770
Si Si2 0.374033 0.597049 0.409964
Si Si3 0.908346 0.885429 0.320640
Si Si4 0.980660 0.129253 0.401824
Si Si5 0.652237 0.060449 0.745130
Si Si6 0.190797 0.675052 0.343712
Si Si7 0.778303 0.936656 0.974450
Si Si8 0.283061 0.192566 0.445764
O O1 0.108993 0.805273 0.199865
O O2 0.075144 0.449320 0.192686
O O3 0.949979 0.506268 0.359892
O O4 0.190177 0.938507 0.785939
O O5 0.325966 0.719871 0.445040
O O6 0.358473 0.469676 0.326530
O O7 0.306639 0.350909 0.709476
O O8 0.518870 0.859538 0.105307
O O9 0.828931 0.569480 0.594628
O O10 0.808096 0.858567 0.472267
O O11 0.992002 0.098140 0.235307
O O12 0.000000 0.000000 0.000000
O O13 0.841870 0.950469 0.730176
O O14 0.000000 0.000000 0.500000
O O15 0.752598 0.224117 0.637451
O O16 0.649542 0.858615 0.730954
O O17 0.265105 0.945192 0.038773
#
# Coordination Sequence:
#
# PCOD9002427 Si02
#       8
#     2   2   2   2   2   2   2   2
#     4  10  21  36  60  93 127 165 205 259 325 390
#     4  10  24  45  64  92 125 168 221 280 325 364
#     4  12  24  38  61  96 138 169 211 268 317 387
#     4  11  23  34  59  90 131 171 208 253 321 403
#     4  11  24  41  68  92 122 170 225 273 317 386
#     4  11  21  39  61  89 129 166 208 255 326 384
#     4  10  22  42  61  89 131 170 209 268 327 389
#     4  11  22  38  67  92 126 164 214 266 322 385
#
# _framework density 20.08351
#
# number of rings (size 3 to 8) (size 9 to 14) (size 15 to 20)
#    0.000    1.250    2.500    4.875    5.250    1.500 
#    0.000    0.000    0.000    1.500    0.000    0.000 
#    0.000    0.000    0.000    0.000    0.000    0.000 
#
# Total GULP energy -89208.628610 kJ/mol
# GULP energy per Si atom -5575.539288 kJ/mol
# Density = 2.003780 g / cm^3
# Si number density = 20.083510 Si / 1000 Ang^3
#
#
#
# Elastic Constant Matrix: (Units=GPa)
#
#
# Indices 1 2 3 4 5 6 
#
# 1 88.1585 25.9598 23.7533 7.2831 8.9937 -19.3405
# 2 25.9598 84.4179 16.3675 3.2146 9.8654 -17.5298
# 3 23.7533 16.3675 58.5193 -1.2440 15.0408 -2.1565
# 4 7.2831 3.2146 -1.2440 28.0345 -6.4591 8.5704
# 5 8.9937 9.8654 15.0408 -6.4591 28.2298 -7.5427
# 6 -19.3405 -17.5298 -2.1565 8.5704 -7.5427 43.5092
#
#
#
# Elastic Compliance Matrix: (Units=1/GPa)
#
#
# Indices 1 2 3 4 5 6 
#
# 1 0.015514 -0.001924 -0.005378 -0.006404 -0.001016 0.006940
# 2 -0.001924 0.014391 -0.002482 -0.003384 -0.002518 0.005050
# 3 -0.005378 -0.002482 0.022454 0.001672 -0.010167 -0.004370
# 4 -0.006404 -0.003384 0.001672 0.043315 0.009291 -0.011049
# 5 -0.001016 -0.002518 -0.010167 0.009291 0.045251 0.004044
# 6 0.006940 0.005050 -0.004370 -0.011049 0.004044 0.030764
#
#
# Mechanical properties :
#
#
# Convention : Reuss Voigt Hill
#
# Bulk Modulus (GPa) = 30.49904 40.36185 35.43044
# Shear Modulus (GPa) = 24.72953 30.95571 27.84262
#
# Velocity S-wave (km/s) = 3.51285 3.93026 3.72740
# Velocity P-wave (km/s) = 5.62783 6.38252 6.01702
#
# Compressibility (1/GPa) = 0.03278792
#
# Stress axis : x y z
#
# Youngs Moduli (GPa) = 64.45725 69.48940 44.53639
#
# Poissons Ratio (x) = 0.13373 0.23954
# Poissons Ratio (y) = 0.12404 0.11056
# Poissons Ratio (z) = 0.34668 0.17250
#
# Static dielectric constant tensor:
#      x y z
#    x 1.524320 0.176600 -0.008330 
#    y 0.176600 1.601060 0.029750 
#    z -0.008330 0.029750 1.728310 
# 
# From -- ./inp_files/352144.got.cif
#   From: 2010.05.17/outbox.cif.g08.bks.cpg/sg2_177_cif.got.tgz:352144.got - 2010.06.03 11:33:40.
