data_PCOD9002465
_publ_section_title
;
Structure prediction by ZEFSAII (Michael W. Deem and Ramdas Pophale) SiO2 
 PCOD9002465
Probable space group: P -1
;
_chemical_formula_sum "Si O2"
_cell_formula_units_Z 16
_cell_length_a 10.676770
_cell_length_b 15.151338
_cell_length_c 10.914483
_cell_angle_alpha 77.304317
_cell_angle_beta 125.979784
_cell_angle_gamma 142.771882
_cell_volume 745.266745
_symmetry_space_group_name_H-M "P -1"
_symmetry_group_IT_number 2
_symmetry_cell_setting 'triclinic'
loop_
_space_group_symop_operation_xyz
x,y,z
-x,-y,-z
loop_
_atom_site_type_symbol
_atom_site_label
_atom_site_fract_x
_atom_site_fract_y
_atom_site_fract_z
Si Si1 0.164282 0.229352 0.401801
Si Si2 0.725976 0.547509 0.762895
Si Si3 0.767325 0.315030 0.972355
Si Si4 0.591691 0.006931 0.279325
Si Si5 0.787075 0.010355 0.900330
Si Si6 0.828606 0.090785 0.652556
Si Si7 0.778681 0.637266 0.033026
Si Si8 0.197104 0.104692 0.831424
O O1 0.439383 0.354976 0.610698
O O2 0.275911 0.351733 0.322193
O O3 0.897163 0.145202 0.344300
O O4 0.031626 0.071860 0.319115
O O5 0.748038 0.560729 0.919191
O O6 0.019128 0.648613 0.846838
O O7 0.604980 0.174091 0.821029
O O8 0.514867 0.239471 0.923509
O O9 0.000000 0.500000 0.000000
O O10 0.413206 0.010402 0.146181
O O11 0.655563 0.032733 0.452340
O O12 0.679733 0.955546 0.714274
O O13 0.107766 0.211898 0.006401
O O14 0.797865 0.929095 0.015787
O O15 0.092209 0.155338 0.743688
O O16 0.959217 0.241620 0.754919
O O17 0.500000 0.500000 0.000000
#
# Coordination Sequence:
#
# PCOD9002465 Si02
#       8
#     2   2   2   2   2   2   2   2
#     4  10  22  35  67  83 121 153 194 251 290 355
#     4  11  21  41  56  92 117 155 201 239 298 347
#     4  11  25  35  61  84 124 153 193 248 298 349
#     4  11  21  40  61  89 115 155 205 241 293 348
#     4  10  21  38  64  83 114 159 201 235 286 351
#     4  10  23  35  63  88 118 156 195 243 290 350
#     4  10  21  36  61  86 120 154 200 244 287 347
#     4  11  22  41  60  90 118 158 198 238 303 352
#
# _framework density 21.468823
#
# number of rings (size 3 to 8) (size 9 to 14) (size 15 to 20)
#    0.750    0.750    2.500    2.250    5.250    3.000 
#    0.000    0.000    0.000    0.750    0.000    0.000 
#    0.000    0.000    0.000    0.000    0.000    0.000 
#
# Total GULP energy -89200.470190 kJ/mol
# GULP energy per Si atom -5575.029387 kJ/mol
# Density = 2.141996 g / cm^3
# Si number density = 21.468823 Si / 1000 Ang^3
#
#
#
# Elastic Constant Matrix: (Units=GPa)
#
#
# Indices 1 2 3 4 5 6 
#
# 1 88.2010 17.9387 46.3714 10.8066 5.9786 10.9046
# 2 17.9387 65.9194 47.5298 14.9212 -7.3678 11.0600
# 3 46.3714 47.5298 117.3673 16.7576 1.0151 4.9266
# 4 10.8066 14.9212 16.7576 33.6518 0.8439 6.9009
# 5 5.9786 -7.3678 1.0151 0.8439 30.6200 0.7983
# 6 10.9046 11.0600 4.9266 6.9009 0.7983 31.6534
#
#
#
# Elastic Compliance Matrix: (Units=1/GPa)
#
#
# Indices 1 2 3 4 5 6 
#
# 1 0.015140 0.000942 -0.005967 -0.001375 -0.002383 -0.004256
# 2 0.000942 0.024711 -0.009389 -0.005415 0.006391 -0.006478
# 3 -0.005967 -0.009389 0.014830 -0.001983 -0.001622 0.003501
# 4 -0.001375 -0.005415 -0.001983 0.034580 -0.001796 -0.004819
# 5 -0.002383 0.006391 -0.001622 -0.001796 0.034808 -0.001646
# 6 -0.004256 -0.006478 0.003501 -0.004819 -0.001646 0.035869
#
#
# Mechanical properties :
#
#
# Convention : Reuss Voigt Hill
#
# Bulk Modulus (GPa) = 38.68306 55.01858 46.85082
# Shear Modulus (GPa) = 25.33131 29.82822 27.57976
#
# Velocity S-wave (km/s) = 3.43871 3.73147 3.58808
# Velocity P-wave (km/s) = 5.81581 6.65192 6.24787
#
# Compressibility (1/GPa) = 0.02585111
#
# Stress axis : x y z
#
# Youngs Moduli (GPa) = 66.05129 40.46831 67.42869
#
# Poissons Ratio (x) = -0.03811 0.40238
# Poissons Ratio (y) = -0.06220 0.63310
# Poissons Ratio (z) = 0.39416 0.37997
#
# Static dielectric constant tensor:
#      x y z
#    x 1.856630 0.020800 -0.000360 
#    y 0.020800 1.816130 -0.018920 
#    z -0.000360 -0.018920 1.819190 
# 
# From -- ./inp_files/436725.got.cif
#   From: 2010.05.17/outbox.cif.g08.bks.cpg/sg2_219_cif.got.tgz:436725.got - 2010.06.03 11:33:40.
