data_PCOD9002880
_publ_section_title
;
Structure prediction by ZEFSAII (Michael W. Deem and Ramdas Pophale) SiO2 
 PCOD9002880
Probable space group: P -1
;
_chemical_formula_sum "Si O2"
_cell_formula_units_Z 14
_cell_length_a 9.123025
_cell_length_b 13.357237
_cell_length_c 4.987266
_cell_angle_alpha 69.199878
_cell_angle_beta 84.688422
_cell_angle_gamma 101.685572
_cell_volume 547.300108
_symmetry_space_group_name_H-M "P -1"
_symmetry_group_IT_number 2
_symmetry_cell_setting 'triclinic'
loop_
_space_group_symop_operation_xyz
x,y,z
-x,-y,-z
loop_
_atom_site_type_symbol
_atom_site_label
_atom_site_fract_x
_atom_site_fract_y
_atom_site_fract_z
Si Si1 0.898385 0.751643 0.411392
Si Si2 0.680350 0.534725 0.479515
Si Si3 0.972916 0.888957 0.789633
Si Si4 0.273329 0.951635 0.511046
Si Si5 0.504563 0.108290 0.084752
Si Si6 0.220751 0.748355 0.378862
Si Si7 0.819518 0.452814 0.039678
O O1 0.747373 0.656368 0.472136
O O2 0.914583 0.789283 0.682133
O O3 0.045965 0.705199 0.338147
O O4 0.894557 0.853657 0.118990
O O5 0.500000 0.500000 0.500000
O O6 0.747424 0.525876 0.183481
O O7 0.751476 0.459704 0.747751
O O8 0.153045 0.915745 0.800449
O O9 0.000000 0.000000 0.500000
O O10 0.409091 0.905047 0.645704
O O11 0.205580 0.867182 0.371320
O O12 0.330968 0.075315 0.263437
O O13 0.613080 0.216860 0.828125
O O14 0.500000 0.000000 0.000000
O O15 0.226484 0.668557 0.704317
O O16 0.000000 0.500000 0.000000
#
# Coordination Sequence:
#
# PCOD9002880 Si02
#       7
#     2   2   2   2   2   2   2
#     4  11  23  43  71  94 135 187 232 292 363 414
#     4  12  28  51  72 104 156 193 235 302 387 426
#     4  11  23  41  66  99 131 178 238 281 336 439
#     4   9  19  34  58  87 133 170 213 281 361 399
#     4   9  17  34  54  86 124 167 203 273 352 404
#     4  10  21  36  67  95 131 168 239 291 352 400
#     4  12  26  44  78 111 135 182 258 309 338 443
#
# _framework density 25.580117999999999
#
# number of rings (size 3 to 8) (size 9 to 14) (size 15 to 20)
#    0.000    1.429    2.857    2.143    4.000    0.000 
#    2.571    2.857    0.000    0.000    0.000    0.000 
#    0.000    0.000    0.000    0.000    0.000    0.000 
#
# Total GULP energy -77949.773735 kJ/mol
# GULP energy per Si atom -5567.840981 kJ/mol
# Density = 2.552190 g / cm^3
# Si number density = 25.580118 Si / 1000 Ang^3
#
#
#
# Elastic Constant Matrix: (Units=GPa)
#
#
# Indices 1 2 3 4 5 6 
#
# 1 74.3706 32.8359 27.1690 -9.0313 -5.5581 35.9551
# 2 32.8359 85.3083 26.2098 -11.3984 -16.5674 27.0480
# 3 27.1690 26.2098 155.2033 -16.3106 -0.8398 24.6990
# 4 -9.0313 -11.3984 -16.3106 50.5355 9.5189 -8.1486
# 5 -5.5581 -16.5674 -0.8398 9.5189 43.2109 -6.5409
# 6 35.9551 27.0480 24.6990 -8.1486 -6.5409 37.0940
#
#
#
# Elastic Compliance Matrix: (Units=1/GPa)
#
#
# Indices 1 2 3 4 5 6 
#
# 1 0.025835 -0.002760 -0.000372 0.000425 -0.001305 -0.022918
# 2 -0.002760 0.016545 -0.000967 0.000806 0.004618 -0.007753
# 3 -0.000372 -0.000967 0.007441 0.001747 -0.001222 -0.003721
# 4 0.000425 0.000806 0.001747 0.021684 -0.004095 0.001878
# 5 -0.001305 0.004618 -0.001222 -0.004095 0.025986 0.002394
# 6 -0.022918 -0.007753 -0.003721 0.001878 0.002394 0.058138
#
#
# Mechanical properties :
#
#
# Convention : Reuss Voigt Hill
#
# Bulk Modulus (GPa) = 24.02569 54.14572 39.08570
# Shear Modulus (GPa) = 28.13741 41.41260 34.77500
#
# Velocity S-wave (km/s) = 3.32018 4.02797 3.69108
# Velocity P-wave (km/s) = 4.91028 6.54567 5.78604
#
# Compressibility (1/GPa) = 0.04162211
#
# Stress axis : x y z
#
# Youngs Moduli (GPa) = 38.70791 60.44282 134.39700
#
# Poissons Ratio (x) = 0.16682 0.04994
# Poissons Ratio (y) = 0.10683 0.13000
# Poissons Ratio (z) = 0.01438 0.05846
#
# Static dielectric constant tensor:
#      x y z
#    x 3.865240 -0.105370 0.204640 
#    y -0.105370 2.154810 -0.049670 
#    z 0.204640 -0.049670 2.074280 
# 
# From -- ./inp_files/36936.got.cif
#   From: 2010.05.17/outbox.cif.g08.bks.cpg/sg2_19_cif.got.tgz:36936.got - 2010.06.03 11:33:40.
