data_PCOD9002975
_publ_section_title
;
Structure prediction by ZEFSAII (Michael W. Deem and Ramdas Pophale) SiO2 
 PCOD9002975
Probable space group: P -1
;
_chemical_formula_sum "Si O2"
_cell_formula_units_Z 14
_cell_length_a 5.633601
_cell_length_b 7.151518
_cell_length_c 22.774330
_cell_angle_alpha 119.854882
_cell_angle_beta 58.726616
_cell_angle_gamma 114.805726
_cell_volume 663.893279
_symmetry_space_group_name_H-M "P -1"
_symmetry_group_IT_number 2
_symmetry_cell_setting 'triclinic'
loop_
_space_group_symop_operation_xyz
x,y,z
-x,-y,-z
loop_
_atom_site_type_symbol
_atom_site_label
_atom_site_fract_x
_atom_site_fract_y
_atom_site_fract_z
Si Si1 0.930910 0.735869 0.972123
Si Si2 0.156761 0.419389 0.346444
Si Si3 0.828327 0.748274 0.481803
Si Si4 0.418461 0.910698 0.637049
Si Si5 0.717986 0.280450 0.738901
Si Si6 0.329507 0.315369 0.643010
Si Si7 0.436823 0.508115 0.911103
O O1 0.720292 0.642240 0.929764
O O2 0.225387 0.649083 0.929833
O O3 0.748455 0.645023 0.039423
O O4 0.000000 0.000000 0.000000
O O5 0.228676 0.546404 0.295196
O O6 0.473794 0.443351 0.333564
O O7 0.022120 0.568832 0.433272
O O8 0.912927 0.205193 0.334056
O O9 0.590936 0.740458 0.560415
O O10 0.721683 0.713220 0.423438
O O11 0.000000 0.000000 0.500000
O O12 0.563378 0.043325 0.695741
O O13 0.451977 0.108270 0.616023
O O14 0.542716 0.362432 0.824993
O O15 0.043016 0.283920 0.713111
#
# Coordination Sequence:
#
# PCOD9002975 Si02
#       7
#     2   2   2   2   2   2   2
#     4  10  22  44  72 105 133 172 220 262 316 393
#     4  10  23  37  56  85 115 155 212 260 312 374
#     4  11  19  38  57  75 115 156 203 267 314 363
#     4  11  22  37  58  84 112 158 211 254 316 380
#     4  10  23  41  59  85 130 161 194 257 321 376
#     4  10  21  37  56  79 117 156 203 256 318 363
#     4  10  23  42  71 100 140 173 213 268 325 382
#
# _framework density 21.087724999999999
#
# number of rings (size 3 to 8) (size 9 to 14) (size 15 to 20)
#    0.000    1.714    4.286    1.286    4.000    4.000 
#    2.571    0.000    0.000    0.000    0.000    0.000 
#    0.000    0.000    0.000    0.000    0.000    0.000 
#
# Total GULP energy -78075.953839 kJ/mol
# GULP energy per Si atom -5576.853846 kJ/mol
# Density = 2.103973 g / cm^3
# Si number density = 21.087725 Si / 1000 Ang^3
#
#
#
# Elastic Constant Matrix: (Units=GPa)
#
#
# Indices 1 2 3 4 5 6 
#
# 1 101.9789 41.1152 47.5357 7.6084 -15.2769 24.5728
# 2 41.1152 123.3184 23.3090 8.5091 -3.7651 33.2547
# 3 47.5357 23.3090 138.4083 12.1007 -16.0260 14.3218
# 4 7.6084 8.5091 12.1007 13.1036 -1.1635 0.1377
# 5 -15.2769 -3.7651 -16.0260 -1.1635 20.9501 -0.1727
# 6 24.5728 33.2547 14.3218 0.1377 -0.1727 46.2296
#
#
#
# Elastic Compliance Matrix: (Units=1/GPa)
#
#
# Indices 1 2 3 4 5 6 
#
# 1 0.014881 -0.002537 -0.002926 -0.003534 0.007918 -0.005138
# 2 -0.002537 0.011127 0.000194 -0.005869 -0.000083 -0.006699
# 3 -0.002926 0.000194 0.009495 -0.006755 0.004777 -0.001488
# 4 -0.003534 -0.005869 -0.006755 0.087991 -0.003847 0.007916
# 5 0.007918 -0.000083 0.004777 -0.003847 0.056887 -0.005405
# 6 -0.005138 -0.006699 -0.001488 0.007916 -0.005405 0.029598
#
#
# Mechanical properties :
#
#
# Convention : Reuss Voigt Hill
#
# Bulk Modulus (GPa) = 40.05684 65.29171 52.67427
# Shear Modulus (GPa) = 21.84947 32.83971 27.34459
#
# Velocity S-wave (km/s) = 3.22238 3.95053 3.60489
# Velocity P-wave (km/s) = 5.73424 7.19987 6.50844
#
# Compressibility (1/GPa) = 0.02496453
#
# Stress axis : x y z
#
# Youngs Moduli (GPa) = 67.20147 89.87089 105.31937
#
# Poissons Ratio (x) = 0.22801 0.30816
# Poissons Ratio (y) = 0.17050 -0.02044
# Poissons Ratio (z) = 0.19663 -0.01744
#
# Static dielectric constant tensor:
#      x y z
#    x 1.954690 0.035400 -0.046270 
#    y 0.035400 1.793850 -0.005670 
#    z -0.046270 -0.005670 1.709360 
# 
# From -- ./inp_files/44822.got.cif
#   From: 2010.05.17/outbox.cif.g08.bks.cpg/sg2_23_cif.got.tgz:44822.got - 2010.06.03 11:33:40.
