data_PCOD9002584
_publ_section_title
;
Structure prediction by ZEFSAII (Michael W. Deem and Ramdas Pophale) SiO2 
 PCOD9002584
Probable space group: P -1
;
_chemical_formula_sum "Si O2"
_cell_formula_units_Z 16
_cell_length_a 14.139151
_cell_length_b 13.782435
_cell_length_c 24.112916
_cell_angle_alpha 162.455349
_cell_angle_beta 149.839799
_cell_angle_gamma 29.718818
_cell_volume 680.883498
_symmetry_space_group_name_H-M "P -1"
_symmetry_group_IT_number 2
_symmetry_cell_setting 'triclinic'
loop_
_space_group_symop_operation_xyz
x,y,z
-x,-y,-z
loop_
_atom_site_type_symbol
_atom_site_label
_atom_site_fract_x
_atom_site_fract_y
_atom_site_fract_z
Si Si1 0.244470 0.477878 0.747042
Si Si2 0.126764 0.812270 0.389299
Si Si3 0.472955 0.630526 0.850475
Si Si4 0.319185 0.759283 0.157343
Si Si5 0.827956 0.554876 0.587811
Si Si6 0.271685 0.126519 0.736801
Si Si7 0.535740 0.593548 0.735248
Si Si8 0.730986 0.837899 0.816212
O O1 0.288811 0.563784 0.752958
O O2 0.458181 0.233865 0.739462
O O3 0.057310 0.343927 0.586357
O O4 0.218949 0.820253 0.955826
O O5 0.264778 0.661848 0.325673
O O6 0.161656 0.465930 0.255229
O O7 0.888983 0.944018 0.341211
O O8 0.211312 0.037606 0.597196
O O9 0.652994 0.429165 0.871944
O O10 0.501966 0.514425 0.738941
O O11 0.450860 0.026234 0.055402
O O12 0.177310 0.127563 0.282137
O O13 0.268397 0.510438 0.951935
O O14 0.653230 0.425302 0.405539
O O15 0.779207 0.717620 0.712433
O O16 0.495594 0.915989 0.747545
#
# Coordination Sequence:
#
# PCOD9002584 Si02
#       8
#     2   2   2   2   2   2   2   2
#     4   9  21  42  62  87 130 167 200 253 314 372
#     4  11  21  38  61  94 130 158 204 261 309 369
#     4   9  22  45  68  82 128 168 210 265 307 355
#     4   9  22  42  60  87 130 165 198 258 306 376
#     4  12  24  36  68  96 123 165 209 250 319 373
#     4  10  21  36  62  88 127 165 196 247 320 367
#     4  11  22  41  68  95 118 166 218 262 303 364
#     4  11  21  37  63  91 128 163 204 253 309 377
#
# _framework density 23.498881000000001
#
# number of rings (size 3 to 8) (size 9 to 14) (size 15 to 20)
#    0.750    1.000    2.500    1.500    1.750    4.000 
#    0.000    0.625    2.750    0.000    0.000    0.000 
#    0.000    0.000    0.000    0.000    0.000    0.000 
#
# Total GULP energy -89515.906867 kJ/mol
# GULP energy per Si atom -5594.744179 kJ/mol
# Density = 2.344540 g / cm^3
# Si number density = 23.498881 Si / 1000 Ang^3
#
#
#
# Elastic Constant Matrix: (Units=GPa)
#
#
# Indices 1 2 3 4 5 6 
#
# 1 164.6136 27.7124 53.9796 -19.0725 -14.1693 -29.0398
# 2 27.7124 73.3122 22.5386 -18.6060 -16.1981 -27.2421
# 3 53.9796 22.5386 48.9378 -8.0736 -9.3953 -16.5437
# 4 -19.0725 -18.6060 -8.0736 13.3081 -7.0928 14.6960
# 5 -14.1693 -16.1981 -9.3953 -7.0928 41.0359 -8.9409
# 6 -29.0398 -27.2421 -16.5437 14.6960 -8.9409 37.7904
#
#
#
# Elastic Compliance Matrix: (Units=1/GPa)
#
#
# Indices 1 2 3 4 5 6 
#
# 1 0.012481 0.008556 -0.010203 0.024623 0.010523 0.004207
# 2 0.008556 0.043795 -0.005793 0.070226 0.034648 0.016498
# 3 -0.010203 -0.005793 0.036153 -0.007429 0.002787 0.007359
# 4 0.024623 0.070226 -0.007429 0.265763 0.076316 -0.019002
# 5 0.010523 0.034648 0.002787 0.076316 0.059583 0.018702
# 6 0.004207 0.016498 0.007359 -0.019002 0.018702 0.056623
#
#
# Mechanical properties :
#
#
# Convention : Reuss Voigt Hill
#
# Bulk Modulus (GPa) = 12.89491 55.03608 33.96549
# Shear Modulus (GPa) = 9.70635 30.60241 20.15438
#
# Velocity S-wave (km/s) = 2.03458 3.61264 2.93178
# Velocity P-wave (km/s) = 3.31945 6.39321 5.09372
#
# Compressibility (1/GPa) = 0.07755001
#
# Stress axis : x y z
#
# Youngs Moduli (GPa) = 80.12335 22.83345 27.66009
#
# Poissons Ratio (x) = -0.19536 0.28220
# Poissons Ratio (y) = -0.68553 0.16024
# Poissons Ratio (z) = 0.81747 0.13228
#
# Static dielectric constant tensor:
#      x y z
#    x 1.905660 0.043320 0.064270 
#    y 0.043320 1.915900 0.039590 
#    z 0.064270 0.039590 1.865080 
# 
# From -- ./inp_files/612156.got.cif
#   From: 2010.05.17/outbox.cif.g08.bks.cpg/sg2_307_cif.got.tgz:612156.got - 2010.06.03 11:33:40.
