data_PCOD9002885
_publ_section_title
;
Structure prediction by ZEFSAII (Michael W. Deem and Ramdas Pophale) SiO2 
 PCOD9002885
Probable space group: P -1
;
_chemical_formula_sum "Si O2"
_cell_formula_units_Z 16
_cell_length_a 11.878313
_cell_length_b 14.243392
_cell_length_c 11.297067
_cell_angle_alpha 61.666045
_cell_angle_beta 131.021791
_cell_angle_gamma 79.032115
_cell_volume 831.419796
_symmetry_space_group_name_H-M "P -1"
_symmetry_group_IT_number 2
_symmetry_cell_setting 'triclinic'
loop_
_space_group_symop_operation_xyz
x,y,z
-x,-y,-z
loop_
_atom_site_type_symbol
_atom_site_label
_atom_site_fract_x
_atom_site_fract_y
_atom_site_fract_z
Si Si1 0.651687 0.329482 0.615341
Si Si2 0.794103 0.921719 0.645592
Si Si3 0.219491 0.324333 0.204315
Si Si4 0.331519 0.276294 0.042913
Si Si5 0.698291 0.340055 0.909983
Si Si6 0.593998 0.535724 0.137674
Si Si7 0.279424 0.936541 0.231792
Si Si8 0.992954 0.273131 0.740725
O O1 0.628185 0.330016 0.739298
O O2 0.412876 0.481928 0.293474
O O3 0.775251 0.158160 0.756985
O O4 0.816373 0.339000 0.686333
O O5 0.802181 0.791601 0.752771
O O6 0.776547 0.988846 0.720666
O O7 0.030954 0.817038 0.806170
O O8 0.567408 0.081564 0.325857
O O9 0.447329 0.213562 0.505009
O O10 0.269483 0.337492 0.098809
O O11 0.000000 0.500000 0.000000
O O12 0.367955 0.367747 0.947054
O O13 0.134150 0.304844 0.840478
O O14 0.580002 0.361650 0.933026
O O15 0.832241 0.367150 0.459444
O O16 0.500000 0.500000 0.000000
O O17 0.165947 0.080106 0.977032
#
# Coordination Sequence:
#
# PCOD9002885 Si02
#       8
#     2   2   2   2   2   2   2   2
#     4  10  21  36  67  99 127 164 214 278 329 370
#     4  11  21  38  66 100 132 159 217 274 331 383
#     4  11  22  36  67 100 134 164 211 271 331 387
#     4  11  23  44  65  92 133 176 212 264 330 391
#     4  10  22  40  62  94 131 165 219 270 320 385
#     4  11  28  43  65  92 128 185 222 257 323 396
#     4  11  20  36  64 106 126 163 210 273 339 373
#     4  11  21  42  66  93 130 165 222 264 322 390
#
# _framework density 19.24419
#
# number of rings (size 3 to 8) (size 9 to 14) (size 15 to 20)
#    0.000    1.250    3.750    2.250    8.750    2.500 
#    0.000    0.000    0.000    2.250    0.000    0.000 
#    0.000    0.000    0.000    0.000    0.000    0.000 
#
# Total GULP energy -89265.769641 kJ/mol
# GULP energy per Si atom -5579.110603 kJ/mol
# Density = 1.920039 g / cm^3
# Si number density = 19.244190 Si / 1000 Ang^3
#
#
#
# Elastic Constant Matrix: (Units=GPa)
#
#
# Indices 1 2 3 4 5 6 
#
# 1 140.2258 65.4101 67.5519 -6.4177 -3.3664 3.8818
# 2 65.4101 101.2760 57.9724 -13.6339 -3.9295 14.4236
# 3 67.5519 57.9724 159.1313 -6.9448 10.1913 -8.5646
# 4 -6.4177 -13.6339 -6.9448 37.0080 -4.1669 7.1872
# 5 -3.3664 -3.9295 10.1913 -4.1669 31.3629 -4.1317
# 6 3.8818 14.4236 -8.5646 7.1872 -4.1317 25.7626
#
#
#
# Elastic Compliance Matrix: (Units=1/GPa)
#
#
# Indices 1 2 3 4 5 6 
#
# 1 0.011111 -0.005904 -0.002623 -0.000822 0.001355 0.001206
# 2 -0.005904 0.019962 -0.005335 0.008358 0.002876 -0.013931
# 3 -0.002623 -0.005335 0.009831 -0.002281 -0.003563 0.006715
# 4 -0.000822 0.008358 -0.002281 0.032677 0.004230 -0.013752
# 5 0.001355 0.002876 -0.003563 0.004230 0.034284 0.001319
# 6 0.001206 -0.013931 0.006715 -0.013752 0.001319 0.052714
#
#
# Mechanical properties :
#
#
# Convention : Reuss Voigt Hill
#
# Bulk Modulus (GPa) = 75.87928 86.94466 81.41197
# Shear Modulus (GPa) = 25.94743 32.80661 29.37702
#
# Velocity S-wave (km/s) = 3.67594 4.13335 3.91133
# Velocity P-wave (km/s) = 7.58499 8.24968 7.92430
#
# Compressibility (1/GPa) = 0.01317883
#
# Stress axis : x y z
#
# Youngs Moduli (GPa) = 90.00315 50.09518 101.71462
#
# Poissons Ratio (x) = 0.29577 0.26683
# Poissons Ratio (y) = 0.53140 0.54266
# Poissons Ratio (z) = 0.23611 0.26726
#
# Static dielectric constant tensor:
#      x y z
#    x 1.691820 0.041820 0.048040 
#    y 0.041820 1.700240 0.016410 
#    z 0.048040 0.016410 1.742200 
# 
# From -- ./inp_files/431257.got.cif
#   From: 2010.05.17/outbox.cif.g08.bks.cpg/sg2_216_cif.got.tgz:431257.got - 2010.06.03 11:33:40.
