data_PCOD9002586
_publ_section_title
;
Structure prediction by ZEFSAII (Michael W. Deem and Ramdas Pophale) SiO2 
 PCOD9002586
Probable space group: P -1
;
_chemical_formula_sum "Si O2"
_cell_formula_units_Z 16
_cell_length_a 8.919770
_cell_length_b 12.591741
_cell_length_c 18.076199
_cell_angle_alpha 30.642819
_cell_angle_beta 61.078438
_cell_angle_gamma 52.566632
_cell_volume 817.785418
_symmetry_space_group_name_H-M "P -1"
_symmetry_group_IT_number 2
_symmetry_cell_setting 'triclinic'
loop_
_space_group_symop_operation_xyz
x,y,z
-x,-y,-z
loop_
_atom_site_type_symbol
_atom_site_label
_atom_site_fract_x
_atom_site_fract_y
_atom_site_fract_z
Si Si1 0.807584 0.846317 0.373560
Si Si2 0.827555 0.866508 0.186494
Si Si3 0.556839 0.678218 0.836237
Si Si4 0.009960 0.817379 0.498021
Si Si5 0.420634 0.441099 0.381025
Si Si6 0.767676 0.357849 0.844786
Si Si7 0.406835 0.391914 0.645920
Si Si8 0.226781 0.052459 0.376145
O O1 0.876454 0.861362 0.265097
O O2 0.934573 0.815639 0.434363
O O3 0.743648 0.637021 0.510016
O O4 0.628469 0.094529 0.279632
O O5 0.648620 0.804382 0.255109
O O6 0.020041 0.696870 0.200300
O O7 0.774476 0.117007 0.015200
O O8 0.684770 0.535938 0.823651
O O9 0.682871 0.791610 0.776672
O O10 0.500000 0.500000 0.000000
O O11 0.868012 0.847485 0.581734
O O12 0.200029 0.584865 0.600769
O O13 0.077845 0.018238 0.378271
O O14 0.373607 0.530544 0.256114
O O15 0.453421 0.636487 0.301967
O O16 0.606682 0.200157 0.492895
O O17 0.500000 0.500000 0.500000
#
# Coordination Sequence:
#
# PCOD9002586 Si02
#       8
#     2   2   2   2   2   2   2   2
#     4  11  21  38  64  93 112 157 202 242 288 359
#     4  11  24  40  59  87 127 156 196 241 298 349
#     4  11  21  39  63  84 120 158 193 240 297 348
#     4  10  21  36  62  89 120 148 198 248 293 340
#     4  10  21  37  64  89 114 152 203 241 292 351
#     4  11  24  40  60  88 120 160 196 243 292 355
#     4  11  22  37  59  89 119 157 193 245 291 346
#     4   9  20  39  60  92 117 150 194 252 294 343
#
# _framework density 19.565035000000002
#
# number of rings (size 3 to 8) (size 9 to 14) (size 15 to 20)
#    0.000    1.500    2.500    3.000    1.750    3.500 
#    0.000    0.625    5.500    0.000    0.000    0.000 
#    0.000    0.000    0.000    0.000    0.000    0.000 
#
# Total GULP energy -89190.621765 kJ/mol
# GULP energy per Si atom -5574.413860 kJ/mol
# Density = 1.952050 g / cm^3
# Si number density = 19.565035 Si / 1000 Ang^3
#
#
#
# Elastic Constant Matrix: (Units=GPa)
#
#
# Indices 1 2 3 4 5 6 
#
# 1 126.7398 20.8207 62.2120 17.9401 -27.7246 20.4066
# 2 20.8207 76.3005 16.5035 6.2114 -6.7711 8.4219
# 3 62.2120 16.5035 90.8220 11.4791 -19.9266 9.9192
# 4 17.9401 6.2114 11.4791 25.0770 -5.9362 4.5506
# 5 -27.7246 -6.7711 -19.9266 -5.9362 26.6841 -0.8879
# 6 20.4066 8.4219 9.9192 4.5506 -0.8879 22.8937
#
#
#
# Elastic Compliance Matrix: (Units=1/GPa)
#
#
# Indices 1 2 3 4 5 6 
#
# 1 0.015576 -0.000527 -0.006915 -0.003812 0.009720 -0.009559
# 2 -0.000527 0.014214 -0.001247 -0.001477 0.001671 -0.003861
# 3 -0.006915 -0.001247 0.017314 -0.001387 0.005106 -0.000405
# 4 -0.003812 -0.001477 -0.001387 0.045478 0.004603 -0.004319
# 5 0.009720 0.001671 0.005106 0.004603 0.052490 -0.010370
# 6 -0.009559 -0.003861 -0.000405 -0.004319 -0.010370 0.054253
#
#
# Mechanical properties :
#
#
# Convention : Reuss Voigt Hill
#
# Bulk Modulus (GPa) = 33.64071 54.77053 44.20562
# Shear Modulus (GPa) = 22.06410 27.88603 24.97506
#
# Velocity S-wave (km/s) = 3.36181 3.77941 3.57671
# Velocity P-wave (km/s) = 5.68337 6.86295 6.30083
#
# Compressibility (1/GPa) = 0.02972588
#
# Stress axis : x y z
#
# Youngs Moduli (GPa) = 64.20076 70.35203 57.75688
#
# Poissons Ratio (x) = 0.03705 0.39942
# Poissons Ratio (y) = 0.03381 0.07203
# Poissons Ratio (z) = 0.44398 0.08774
#
# Static dielectric constant tensor:
#      x y z
#    x 1.760810 0.038570 -0.044470 
#    y 0.038570 1.764750 -0.007130 
#    z -0.044470 -0.007130 1.675960 
# 
# From -- ./inp_files/188527.got.cif
#   From: 2010.05.17/outbox.cif.g08.bks.cpg/sg2_95_cif.got.tgz:188527.got - 2010.06.03 11:33:40.
