data_PCOD9002783
_publ_section_title
;
Structure prediction by ZEFSAII (Michael W. Deem and Ramdas Pophale) SiO2 
 PCOD9002783
Probable space group: P -1
;
_chemical_formula_sum "Si O2"
_cell_formula_units_Z 16
_cell_length_a 11.798708
_cell_length_b 5.352924
_cell_length_c 12.983007
_cell_angle_alpha 112.712065
_cell_angle_beta 115.352587
_cell_angle_gamma 76.777985
_cell_volume 681.563868
_symmetry_space_group_name_H-M "P -1"
_symmetry_group_IT_number 2
_symmetry_cell_setting 'triclinic'
loop_
_space_group_symop_operation_xyz
x,y,z
-x,-y,-z
loop_
_atom_site_type_symbol
_atom_site_label
_atom_site_fract_x
_atom_site_fract_y
_atom_site_fract_z
Si Si1 0.148144 0.041498 0.346890
Si Si2 0.620545 0.139750 0.740241
Si Si3 0.083991 0.646395 0.438671
Si Si4 0.483680 0.604529 0.627637
Si Si5 0.245589 0.858808 0.689637
Si Si6 0.184244 0.468759 0.774204
Si Si7 0.022713 0.111306 0.913909
Si Si8 0.809459 0.475354 0.977614
O O1 0.270122 0.966608 0.313458
O O2 0.138933 0.811576 0.391959
O O3 0.023908 0.048650 0.226883
O O4 0.151701 0.347188 0.436334
O O5 0.523109 0.344363 0.672856
O O6 0.684849 0.332835 0.878536
O O7 0.567495 0.863570 0.716977
O O8 0.110196 0.817385 0.577642
O O9 0.942683 0.598854 0.344362
O O10 0.500000 0.500000 0.500000
O O11 0.346519 0.730037 0.627008
O O12 0.253188 0.682341 0.767668
O O13 0.260834 0.174542 0.763957
O O14 0.158315 0.572522 0.897206
O O15 0.910238 0.355118 0.912162
O O16 0.161727 0.209904 0.972993
O O17 0.000000 0.000000 0.000000
#
# Coordination Sequence:
#
# PCOD9002783 Si02
#       8
#     2   2   2   2   2   2   2   2
#     4  11  22  37  67 104 138 171 221 271 349 400
#     4  11  25  42  71 103 135 175 228 288 338 398
#     4  12  23  43  66 102 139 181 219 275 338 416
#     4  12  26  50  73  99 129 175 233 296 342 384
#     4  12  27  45  70  95 134 181 239 279 333 407
#     4  12  25  45  67 101 140 185 218 272 345 413
#     4  10  21  36  64  97 142 180 219 268 335 407
#     4  10  24  40  64 101 140 180 220 278 335 405
#
# _framework density 23.475424
#
# number of rings (size 3 to 8) (size 9 to 14) (size 15 to 20)
#    0.000    0.750    1.250    6.375    8.750    0.000 
#    0.000    3.750    0.000    0.000    0.000    0.000 
#    0.000    0.000    0.000    0.000    0.000    0.000 
#
# Total GULP energy -89435.118031 kJ/mol
# GULP energy per Si atom -5589.694877 kJ/mol
# Density = 2.342199 g / cm^3
# Si number density = 23.475424 Si / 1000 Ang^3
#
#
#
# Elastic Constant Matrix: (Units=GPa)
#
#
# Indices 1 2 3 4 5 6 
#
# 1 75.2987 26.0523 14.2306 8.4554 -14.6370 8.8550
# 2 26.0523 116.8034 11.5071 11.0185 -11.3595 12.2221
# 3 14.2306 11.5071 96.6548 10.3574 -11.0205 5.5967
# 4 8.4554 11.0185 10.3574 38.1045 5.0735 -9.6301
# 5 -14.6370 -11.3595 -11.0205 5.0735 34.2871 -0.6001
# 6 8.8550 12.2221 5.5967 -9.6301 -0.6001 46.0016
#
#
#
# Elastic Compliance Matrix: (Units=1/GPa)
#
#
# Indices 1 2 3 4 5 6 
#
# 1 0.016359 -0.002151 -0.000712 -0.004549 0.006656 -0.003356
# 2 -0.002151 0.009957 0.000004 -0.003524 0.002852 -0.002933
# 3 -0.000712 0.000004 0.011445 -0.003993 0.003931 -0.002041
# 4 -0.004549 -0.003524 -0.003993 0.032858 -0.009097 0.009058
# 5 0.006656 0.002852 0.003931 -0.009097 0.035492 -0.003959
# 6 -0.003356 -0.002933 -0.002041 0.009058 -0.003959 0.025256
#
#
# Mechanical properties :
#
#
# Convention : Reuss Voigt Hill
#
# Bulk Modulus (GPa) = 31.20772 43.59299 37.40035
# Shear Modulus (GPa) = 33.83734 39.47644 36.65689
#
# Velocity S-wave (km/s) = 3.80069 4.10519 3.95587
# Velocity P-wave (km/s) = 5.70815 6.40937 6.06890
#
# Compressibility (1/GPa) = 0.03204336
#
# Stress axis : x y z
#
# Youngs Moduli (GPa) = 61.13009 100.42764 87.37624
#
# Poissons Ratio (x) = 0.21601 0.06218
# Poissons Ratio (y) = 0.13148 -0.00034
# Poissons Ratio (z) = 0.04350 -0.00039
#
# Static dielectric constant tensor:
#      x y z
#    x 1.922100 -0.040180 0.028110 
#    y -0.040180 2.002050 0.051780 
#    z 0.028110 0.051780 1.927020 
# 
# From -- ./inp_files/411127.got.cif
#   From: 2010.05.17/outbox.cif.g08.bks.cpg/sg2_206_cif.got.tgz:411127.got - 2010.06.03 11:33:40.
