data_PCOD9002446
_publ_section_title
;
Structure prediction by ZEFSAII (Michael W. Deem and Ramdas Pophale) SiO2 
 PCOD9002446
Probable space group: P -1
;
_chemical_formula_sum "Si O2"
_cell_formula_units_Z 16
_cell_length_a 9.437273
_cell_length_b 11.264752
_cell_length_c 8.675524
_cell_angle_alpha 120.008142
_cell_angle_beta 112.618450
_cell_angle_gamma 69.565062
_cell_volume 722.904206
_symmetry_space_group_name_H-M "P -1"
_symmetry_group_IT_number 2
_symmetry_cell_setting 'triclinic'
loop_
_space_group_symop_operation_xyz
x,y,z
-x,-y,-z
loop_
_atom_site_type_symbol
_atom_site_label
_atom_site_fract_x
_atom_site_fract_y
_atom_site_fract_z
Si Si1 0.625222 0.063172 0.994851
Si Si2 0.830919 0.785140 0.469579
Si Si3 0.372152 0.661384 0.371317
Si Si4 0.026010 0.981784 0.818254
Si Si5 0.052640 0.578458 0.216292
Si Si6 0.306630 0.927118 0.330225
Si Si7 0.827234 0.549737 0.524201
Si Si8 0.568112 0.373257 0.271435
O O1 0.580034 0.230877 0.094728
O O2 0.792716 0.015816 0.122664
O O3 0.647647 0.036666 0.802054
O O4 0.500000 0.000000 0.000000
O O5 0.980317 0.839278 0.642800
O O6 0.902569 0.679963 0.296443
O O7 0.709355 0.929998 0.483314
O O8 0.762927 0.696056 0.512713
O O9 0.399191 0.787856 0.357383
O O10 0.439947 0.503177 0.242103
O O11 0.446467 0.661145 0.574270
O O12 0.186783 0.668500 0.310980
O O13 0.876909 0.090296 0.761790
O O14 0.000000 0.000000 0.000000
O O15 0.141718 0.454698 0.285335
O O16 0.000000 0.500000 0.000000
O O17 0.724899 0.436235 0.367554
O O18 0.000000 0.500000 0.500000
#
# Coordination Sequence:
#
# PCOD9002446 Si02
#       8
#     2   2   2   2   2   2   2   2
#     4  11  22  41  65 100 134 171 223 273 336 405
#     4   9  19  39  63  95 127 171 229 269 330 390
#     4  10  22  44  61  91 133 176 219 269 343 403
#     4   8  17  37  63  96 127 174 216 273 329 390
#     4  10  21  36  60  98 131 167 220 283 329 383
#     4   9  22  40  67  92 129 173 223 270 332 395
#     4   9  18  37  66  87 122 170 225 266 322 398
#     4  10  23  42  66  88 131 183 214 274 340 399
#
# _framework density 22.132947000000001
#
# number of rings (size 3 to 8) (size 9 to 14) (size 15 to 20)
#    0.750    1.750    0.000    2.250    0.000    8.000 
#    2.250    2.500    2.750    0.000    0.000    0.000 
#    0.000    0.000    0.000    0.000    0.000    0.000 
#
# Total GULP energy -89115.857323 kJ/mol
# GULP energy per Si atom -5569.741083 kJ/mol
# Density = 2.208257 g / cm^3
# Si number density = 22.132947 Si / 1000 Ang^3
#
#
#
# Elastic Constant Matrix: (Units=GPa)
#
#
# Indices 1 2 3 4 5 6 
#
# 1 105.0541 62.8671 19.2642 9.4355 4.5711 9.2600
# 2 62.8671 128.3997 51.1349 -25.4621 -1.3240 -5.4098
# 3 19.2642 51.1349 77.0983 28.2973 -17.2699 1.2718
# 4 9.4355 -25.4621 28.2973 7.5427 -5.7743 -9.3354
# 5 4.5711 -1.3240 -17.2699 -5.7743 24.2797 7.1520
# 6 9.2600 -5.4098 1.2718 -9.3354 7.1520 28.1439
#
#
#
# Elastic Compliance Matrix: (Units=1/GPa)
#
#
# Indices 1 2 3 4 5 6 
#
# 1 0.010284 -0.000402 -0.006918 0.009465 -0.004999 0.001262
# 2 -0.000402 0.002339 0.005196 -0.016915 0.001542 -0.005656
# 3 -0.006918 0.005196 0.005959 0.019122 0.008235 0.007256
# 4 0.009465 -0.016915 0.019122 -0.020523 0.010972 -0.016825
# 5 -0.004999 0.001542 0.008235 0.010972 0.053121 -0.008291
# 6 0.001262 -0.005656 0.007256 -0.016825 -0.008291 0.030227
#
#
# Mechanical properties :
#
#
# Convention : Reuss Voigt Hill
#
# Bulk Modulus (GPa) = 69.75540 64.12050 66.93795
# Shear Modulus (GPa) = 55.28975 23.81232 39.55103
#
# Velocity S-wave (km/s) = 5.00350 3.28361 4.23185
# Velocity P-wave (km/s) = 8.06008 6.58860 7.36120
#
# Compressibility (1/GPa) = 0.01433581
#
# Stress axis : x y z
#
# Youngs Moduli (GPa) = 97.23712 427.55006 167.80367
#
# Poissons Ratio (x) = 0.17182 1.16080
# Poissons Ratio (y) = 0.03908 -0.87194
# Poissons Ratio (z) = 0.67265 -2.22163
#
# Static dielectric constant tensor:
#      x y z
#    x 2.279770 -0.437870 0.203370 
#    y -0.437870 2.302860 -0.223910 
#    z 0.203370 -0.223910 1.896320 
# 
# From -- ./inp_files/190374.got.cif
#   From: 2010.05.17/outbox.cif.g08.bks.cpg/sg2_96_cif.got.tgz:190374.got - 2010.06.03 11:33:40.
