data_PCOD9002383
_publ_section_title
;
Structure prediction by ZEFSAII (Michael W. Deem and Ramdas Pophale) SiO2 
 PCOD9002383
Probable space group: P -1
;
_chemical_formula_sum "Si O2"
_cell_formula_units_Z 16
_cell_length_a 14.143587
_cell_length_b 8.941587
_cell_length_c 13.412620
_cell_angle_alpha 116.922576
_cell_angle_beta 150.065246
_cell_angle_gamma 72.647538
_cell_volume 737.624826
_symmetry_space_group_name_H-M "P -1"
_symmetry_group_IT_number 2
_symmetry_cell_setting 'triclinic'
loop_
_space_group_symop_operation_xyz
x,y,z
-x,-y,-z
loop_
_atom_site_type_symbol
_atom_site_label
_atom_site_fract_x
_atom_site_fract_y
_atom_site_fract_z
Si Si1 0.828758 0.103729 0.812594
Si Si2 0.406597 0.767998 0.101956
Si Si3 0.518342 0.906982 0.616641
Si Si4 0.456926 0.394693 0.327517
Si Si5 0.769786 0.586807 0.062643
Si Si6 0.000446 0.818231 0.802104
Si Si7 0.800714 0.452018 0.502467
Si Si8 0.495007 0.192902 0.021495
O O1 0.681603 0.191900 0.644668
O O2 0.683799 0.955022 0.699183
O O3 0.949800 0.213540 0.044241
O O4 0.944985 0.002306 0.815726
O O5 0.358414 0.580288 0.049487
O O6 0.518233 0.912318 0.322350
O O7 0.195052 0.818516 0.918969
O O8 0.505719 0.784367 0.090989
O O9 0.582528 0.801624 0.732417
O O10 0.500000 0.500000 0.500000
O O11 0.287073 0.427337 0.110048
O O12 0.651668 0.430958 0.451196
O O13 0.687854 0.746657 0.078136
O O14 0.993017 0.591197 0.292750
O O15 0.845554 0.653407 0.574807
O O16 0.687328 0.323651 0.277499
O O17 0.500000 0.000000 0.000000
#
# Coordination Sequence:
#
# PCOD9002383 Si02
#       8
#     2   2   2   2   2   2   2   2
#     4   9  19  36  60  87 129 165 201 256 309 370
#     4  10  21  40  65  92 121 162 214 259 310 377
#     4  10  21  36  60  88 124 167 211 249 315 369
#     4  11  24  39  62  93 133 175 206 256 310 369
#     4  10  24  43  64  92 127 164 213 262 316 372
#     4   9  19  36  59  92 125 157 207 256 307 372
#     4  10  23  42  64  91 128 164 213 258 314 376
#     4  11  24  45  67  90 129 161 211 267 322 377
#
# _framework density 21.691243
#
# number of rings (size 3 to 8) (size 9 to 14) (size 15 to 20)
#    0.000    2.000    0.000    2.625   10.500    3.000 
#   11.250    0.000    0.000    0.000    0.000    0.000 
#    0.000    0.000    0.000    0.000    0.000    0.000 
#
# Total GULP energy -89345.975893 kJ/mol
# GULP energy per Si atom -5584.123493 kJ/mol
# Density = 2.164187 g / cm^3
# Si number density = 21.691243 Si / 1000 Ang^3
#
#
#
# Elastic Constant Matrix: (Units=GPa)
#
#
# Indices 1 2 3 4 5 6 
#
# 1 52.8399 -8.2766 -3.3999 -3.0540 -14.5700 -10.0423
# 2 -8.2766 61.5459 1.8963 2.2278 -0.9351 -7.3638
# 3 -3.3999 1.8963 77.0342 -2.0056 -3.2197 -7.8758
# 4 -3.0540 2.2278 -2.0056 37.4293 -4.6622 -3.2215
# 5 -14.5700 -0.9351 -3.2197 -4.6622 22.1891 -2.2962
# 6 -10.0423 -7.3638 -7.8758 -3.2215 -2.2962 36.9541
#
#
#
# Elastic Compliance Matrix: (Units=1/GPa)
#
#
# Indices 1 2 3 4 5 6 
#
# 1 0.028469 0.005202 0.003354 0.005887 0.021811 0.011356
# 2 0.005202 0.017633 0.000564 0.000480 0.004900 0.005394
# 3 0.003354 0.000564 0.013838 0.002003 0.005117 0.004466
# 4 0.005887 0.000480 0.002003 0.029085 0.010839 0.005331
# 5 0.021811 0.004900 0.005117 0.010839 0.063952 0.012913
# 6 0.011356 0.005394 0.004466 0.005331 0.012913 0.033440
#
#
# Mechanical properties :
#
#
# Convention : Reuss Voigt Hill
#
# Bulk Modulus (GPa) = 12.79089 19.09552 15.94321
# Shear Modulus (GPa) = 25.74193 32.72785 29.23489
#
# Velocity S-wave (km/s) = 3.44865 3.88855 3.67519
# Velocity P-wave (km/s) = 4.66553 5.38363 5.03740
#
# Compressibility (1/GPa) = 0.07818064
#
# Stress axis : x y z
#
# Youngs Moduli (GPa) = 35.12651 56.71296 72.26471
#
# Poissons Ratio (x) = -0.29503 -0.24240
# Poissons Ratio (y) = -0.18273 -0.04078
# Poissons Ratio (z) = -0.11783 -0.03200
#
# Static dielectric constant tensor:
#      x y z
#    x 1.749730 -0.007070 -0.003770 
#    y -0.007070 1.817510 -0.004560 
#    z -0.003770 -0.004560 1.849120 
# 
# From -- ./inp_files/315742.got.cif
#   From: 2010.05.17/outbox.cif.g08.bks.cpg/sg2_158_cif.got.tgz:315742.got - 2010.06.03 11:33:40.
