data_PCOD9002981
_publ_section_title
;
Structure prediction by ZEFSAII (Michael W. Deem and Ramdas Pophale) SiO2 
 PCOD9002981
Probable space group: P -1
;
_chemical_formula_sum "Si O2"
_cell_formula_units_Z 16
_cell_length_a 8.956119
_cell_length_b 12.596502
_cell_length_c 19.237622
_cell_angle_alpha 140.244253
_cell_angle_beta 43.350181
_cell_angle_gamma 146.262586
_cell_volume 746.889944
_symmetry_space_group_name_H-M "P -1"
_symmetry_group_IT_number 2
_symmetry_cell_setting 'triclinic'
loop_
_space_group_symop_operation_xyz
x,y,z
-x,-y,-z
loop_
_atom_site_type_symbol
_atom_site_label
_atom_site_fract_x
_atom_site_fract_y
_atom_site_fract_z
Si Si1 0.651757 0.618039 0.797365
Si Si2 0.823748 0.937920 0.784730
Si Si3 0.885722 0.607352 0.056035
Si Si4 0.227389 0.849240 0.562730
Si Si5 0.882094 0.725436 0.916885
Si Si6 0.462503 0.896604 0.761411
Si Si7 0.136128 0.591165 0.593762
Si Si8 0.417427 0.690917 0.124151
O O1 0.348683 0.431702 0.832922
O O2 0.803174 0.764306 0.888180
O O3 0.849570 0.559445 0.681828
O O4 0.641124 0.738922 0.797818
O O5 0.891520 0.143718 0.902330
O O6 0.102808 0.961301 0.690932
O O7 0.678254 0.913576 0.748743
O O8 0.751203 0.473061 0.964393
O O9 0.000000 0.500000 0.000000
O O10 0.281886 0.748286 0.557484
O O11 0.969829 0.642850 0.504401
O O12 0.500000 0.000000 0.500000
O O13 0.727619 0.470899 0.844020
O O14 0.207550 0.847867 0.869579
O O15 0.728029 0.767287 0.046398
O O16 0.320370 0.707930 0.658227
O O17 0.582387 0.112411 0.787033
#
# Coordination Sequence:
#
# PCOD9002981 Si02
#       8
#     2   2   2   2   2   2   2   2
#     4   9  21  39  59  84 116 156 199 240 289 347
#     4  11  24  38  61  89 119 155 196 243 299 350
#     4  11  22  37  54  84 123 161 197 236 284 344
#     4  10  21  42  66  86 111 152 195 241 295 356
#     4   9  21  37  57  80 114 161 202 244 280 338
#     4  11  22  37  58  88 121 152 189 245 297 342
#     4   9  21  40  62  88 114 148 196 241 291 357
#     4  10  21  37  56  82 117 161 209 236 280 340
#
# _framework density 21.422166000000001
#
# number of rings (size 3 to 8) (size 9 to 14) (size 15 to 20)
#    0.000    2.000    1.250    1.125    1.750   14.000 
#    0.000    0.625    0.000    0.000    0.000    0.000 
#    0.000    0.000    0.000    0.000    0.000    0.000 
#
# Total GULP energy -89330.715951 kJ/mol
# GULP energy per Si atom -5583.169747 kJ/mol
# Density = 2.137341 g / cm^3
# Si number density = 21.422166 Si / 1000 Ang^3
#
#
#
# Elastic Constant Matrix: (Units=GPa)
#
#
# Indices 1 2 3 4 5 6 
#
# 1 83.1362 21.7054 -0.1187 6.5075 4.1230 -8.2375
# 2 21.7054 80.3585 13.0024 9.9001 4.9092 -13.3172
# 3 -0.1187 13.0024 33.6092 12.2561 9.1308 -2.5473
# 4 6.5075 9.9001 12.2561 38.6928 -0.1714 2.3547
# 5 4.1230 4.9092 9.1308 -0.1714 25.8420 4.9389
# 6 -8.2375 -13.3172 -2.5473 2.3547 4.9389 25.0411
#
#
#
# Elastic Compliance Matrix: (Units=1/GPa)
#
#
# Indices 1 2 3 4 5 6 
#
# 1 0.013651 -0.002968 0.003615 -0.002959 -0.003732 0.004294
# 2 -0.002968 0.015644 -0.003721 -0.002809 -0.002685 0.007759
# 3 0.003615 -0.003721 0.040907 -0.013155 -0.015891 0.007743
# 4 -0.002959 -0.002809 -0.013155 0.031764 0.007443 -0.008261
# 5 -0.003732 -0.002685 -0.015891 0.007443 0.048235 -0.014485
# 6 0.004294 0.007759 0.007743 -0.008261 -0.014485 0.049894
#
#
# Mechanical properties :
#
#
# Convention : Reuss Voigt Hill
#
# Bulk Modulus (GPa) = 15.61185 29.58692 22.59938
# Shear Modulus (GPa) = 21.96904 28.74951 25.35927
#
# Velocity S-wave (km/s) = 3.20586 3.66737 3.44435
# Velocity P-wave (km/s) = 4.58333 5.63685 5.13717
#
# Compressibility (1/GPa) = 0.06405393
#
# Stress axis : x y z
#
# Youngs Moduli (GPa) = 73.25655 63.92315 24.44568
#
# Poissons Ratio (x) = 0.18971 -0.08837
# Poissons Ratio (y) = 0.21741 0.09096
# Poissons Ratio (z) = -0.26481 0.23784
#
# Static dielectric constant tensor:
#      x y z
#    x 1.812980 -0.042170 0.014160 
#    y -0.042170 1.820040 -0.005070 
#    z 0.014160 -0.005070 1.805020 
# 
# From -- ./inp_files/589610.got.cif
#   From: 2010.05.17/outbox.cif.g08.bks.cpg/sg2_295_cif.got.tgz:589610.got - 2010.06.03 11:33:40.
