data_PCOD9002572
_publ_section_title
;
Structure prediction by ZEFSAII (Michael W. Deem and Ramdas Pophale) SiO2 
 PCOD9002572
Probable space group: P -1
;
_chemical_formula_sum "Si O2"
_cell_formula_units_Z 16
_cell_length_a 12.216585
_cell_length_b 15.602906
_cell_length_c 9.077528
_cell_angle_alpha 144.732117
_cell_angle_beta 65.866254
_cell_angle_gamma 127.609522
_cell_volume 776.194544
_symmetry_space_group_name_H-M "P -1"
_symmetry_group_IT_number 2
_symmetry_cell_setting 'triclinic'
loop_
_space_group_symop_operation_xyz
x,y,z
-x,-y,-z
loop_
_atom_site_type_symbol
_atom_site_label
_atom_site_fract_x
_atom_site_fract_y
_atom_site_fract_z
Si Si1 0.149610 0.236664 0.367391
Si Si2 0.671548 0.794202 0.010520
Si Si3 0.345403 0.720276 0.694918
Si Si4 0.658690 0.387470 0.113060
Si Si5 0.341978 0.924139 0.425156
Si Si6 0.355919 0.052352 0.265040
Si Si7 0.140058 0.345990 0.213694
Si Si8 0.057658 0.976966 0.284060
O O1 0.234966 0.406723 0.660363
O O2 0.090779 0.285852 0.325779
O O3 0.035720 0.073445 0.294091
O O4 0.263116 0.199197 0.176163
O O5 0.716989 0.985459 0.311275
O O6 0.501402 0.678790 0.940019
O O7 0.739520 0.704420 0.942374
O O8 0.352004 0.663719 0.779491
O O9 0.216012 0.552897 0.454386
O O10 0.493020 0.781427 0.621258
O O11 0.336195 0.891731 0.950881
O O12 0.717124 0.280807 0.845410
O O13 0.349222 0.995472 0.357579
O O14 0.500000 0.000000 0.500000
O O15 0.224318 0.070557 0.335925
O O16 0.016591 0.225643 0.001627
O O17 0.000000 0.000000 0.500000
#
# Coordination Sequence:
#
# PCOD9002572 Si02
#       8
#     2   2   2   2   2   2   2   2
#     4   9  20  35  61  79 112 157 203 233 278 353
#     4   9  17  30  58  86 111 146 199 237 289 332
#     4   9  19  38  61  89 113 147 202 244 295 346
#     4   9  16  32  59  86 114 146 194 250 287 340
#     4   9  18  34  53  86 120 146 186 244 297 346
#     4  10  21  36  62  86 121 154 189 245 306 340
#     4   9  21  37  60  85 115 154 200 238 278 357
#     4  12  24  39  56  85 125 158 190 243 297 349
#
# _framework density 20.613391
#
# number of rings (size 3 to 8) (size 9 to 14) (size 15 to 20)
#    0.750    1.750    0.000    2.250    1.750    1.500 
#    4.500    1.250    2.750    3.000    0.000    0.000 
#    0.000    0.000    0.000    0.000    0.000    0.000 
#
# Total GULP energy -89195.478877 kJ/mol
# GULP energy per Si atom -5574.717430 kJ/mol
# Density = 2.056647 g / cm^3
# Si number density = 20.613391 Si / 1000 Ang^3
#
#
#
# Elastic Constant Matrix: (Units=GPa)
#
#
# Indices 1 2 3 4 5 6 
#
# 1 16.5023 -3.8193 -9.0255 -7.4641 1.4687 -1.9925
# 2 -3.8193 41.4097 30.0816 16.4233 1.9254 5.1598
# 3 -9.0255 30.0816 138.3048 8.3403 1.1608 2.8501
# 4 -7.4641 16.4233 8.3403 19.0659 2.2856 -0.5127
# 5 1.4687 1.9254 1.1608 2.2856 25.2756 1.1196
# 6 -1.9925 5.1598 2.8501 -0.5127 1.1196 10.2689
#
#
#
# Elastic Compliance Matrix: (Units=1/GPa)
#
#
# Indices 1 2 3 4 5 6 
#
# 1 0.086299 -0.019428 0.006361 0.049644 -0.009568 0.028263
# 2 -0.019428 0.052406 -0.009051 -0.050018 0.003425 -0.030461
# 3 0.006361 -0.009051 0.009155 0.006482 -0.000849 0.003657
# 4 0.049644 -0.050018 0.006482 0.114588 -0.011503 0.039941
# 5 -0.009568 0.003425 -0.000849 -0.011503 0.041311 -0.008420
# 6 0.028263 -0.030461 0.003657 0.039941 -0.008420 0.120068
#
#
# Mechanical properties :
#
#
# Convention : Reuss Voigt Hill
#
# Bulk Modulus (GPa) = 9.65011 25.63227 17.64119
# Shear Modulus (GPa) = 9.94821 22.85407 16.40114
#
# Velocity S-wave (km/s) = 2.19922 3.33333 2.82380
# Velocity P-wave (km/s) = 3.33772 5.22269 4.38275
#
# Compressibility (1/GPa) = 0.10362577
#
# Stress axis : x y z
#
# Youngs Moduli (GPa) = 11.58762 19.08181 109.23001
#
# Poissons Ratio (x) = 0.37071 -0.69485
# Poissons Ratio (y) = 0.22512 0.98863
# Poissons Ratio (z) = -0.07371 0.17271
#
# Static dielectric constant tensor:
#      x y z
#    x 2.219500 -0.340890 0.053110 
#    y -0.340890 1.928700 -0.039010 
#    z 0.053110 -0.039010 1.779740 
# 
# From -- ./inp_files/274623.got.cif
#   From: 2010.05.17/outbox.cif.g08.bks.cpg/sg2_138_cif.got.tgz:274623.got - 2010.06.03 11:33:40.
