data_PCOD9002623
_publ_section_title
;
Structure prediction by ZEFSAII (Michael W. Deem and Ramdas Pophale) SiO2 
 PCOD9002623
Probable space group: P -1
;
_chemical_formula_sum "Si O2"
_cell_formula_units_Z 16
_cell_length_a 11.861449
_cell_length_b 10.982066
_cell_length_c 9.385852
_cell_angle_alpha 104.807319
_cell_angle_beta 127.250679
_cell_angle_gamma 51.240330
_cell_volume 743.742558
_symmetry_space_group_name_H-M "P -1"
_symmetry_group_IT_number 2
_symmetry_cell_setting 'triclinic'
loop_
_space_group_symop_operation_xyz
x,y,z
-x,-y,-z
loop_
_atom_site_type_symbol
_atom_site_label
_atom_site_fract_x
_atom_site_fract_y
_atom_site_fract_z
Si Si1 0.047187 0.783645 0.240549
Si Si2 0.887913 0.894524 0.448597
Si Si3 0.765033 0.264645 0.141749
Si Si4 0.693040 0.136003 0.599465
Si Si5 0.399455 0.415902 0.058923
Si Si6 0.631445 0.548955 0.622276
Si Si7 0.735990 0.008616 0.886579
Si Si8 0.599794 0.859075 0.152969
O O1 0.179913 0.810852 0.275460
O O2 0.174035 0.598765 0.326400
O O3 0.959899 0.891856 0.347189
O O4 0.887460 0.842128 0.027646
O O5 0.787857 0.817497 0.325915
O O6 0.050805 0.810630 0.658151
O O7 0.733698 0.064488 0.450972
O O8 0.606401 0.338878 0.159808
O O9 0.714275 0.408879 0.044689
O O10 0.765645 0.133882 0.012962
O O11 0.484404 0.284189 0.498790
O O12 0.749324 0.010819 0.728684
O O13 0.357483 0.425580 0.195418
O O14 0.371536 0.296978 0.928355
O O15 0.500000 0.500000 0.500000
O O16 0.540794 0.071204 0.804561
O O17 0.500000 0.000000 0.000000
#
# Coordination Sequence:
#
# PCOD9002623 Si02
#       8
#     2   2   2   2   2   2   2   2
#     4  11  22  38  66  98 132 166 220 272 331 383
#     4  12  24  39  69  97 130 177 225 266 318 406
#     4  10  21  38  67  99 127 165 227 272 333 374
#     4  11  23  38  67 100 132 166 224 276 328 377
#     4  10  22  41  64  94 136 175 210 276 332 389
#     4  10  21  36  62  94 134 163 211 269 335 378
#     4  11  23  41  69  97 132 170 217 279 328 388
#     4  11  24  44  65  91 134 183 218 259 333 400
#
# _framework density 21.512820999999999
#
# number of rings (size 3 to 8) (size 9 to 14) (size 15 to 20)
#    0.000    1.250    2.500    4.500    3.500    3.000 
#    0.000    0.625    0.000    0.000    0.000    0.000 
#    0.000    0.000    0.000    0.000    0.000    0.000 
#
# Total GULP energy -89445.491197 kJ/mol
# GULP energy per Si atom -5590.343200 kJ/mol
# Density = 2.146386 g / cm^3
# Si number density = 21.512821 Si / 1000 Ang^3
#
#
#
# Elastic Constant Matrix: (Units=GPa)
#
#
# Indices 1 2 3 4 5 6 
#
# 1 73.8396 7.0012 32.4413 -3.6875 0.4626 -6.3986
# 2 7.0012 74.9494 16.1522 -21.8202 5.9114 -12.6625
# 3 32.4413 16.1522 61.7127 -18.0663 2.7573 -3.9377
# 4 -3.6875 -21.8202 -18.0663 26.3404 0.8485 -1.6820
# 5 0.4626 5.9114 2.7573 0.8485 35.5317 9.5272
# 6 -6.3986 -12.6625 -3.9377 -1.6820 9.5272 23.1816
#
#
#
# Elastic Compliance Matrix: (Units=1/GPa)
#
#
# Indices 1 2 3 4 5 6 
#
# 1 0.018314 -0.000420 -0.010838 -0.005057 0.000103 0.002576
# 2 -0.000420 0.023242 0.002249 0.022224 -0.009524 0.018488
# 3 -0.010838 0.002249 0.027748 0.019924 -0.004541 0.006262
# 4 -0.005057 0.022224 0.019924 0.071357 -0.013551 0.024875
# 5 0.000103 -0.009524 -0.004541 -0.013551 0.036256 -0.021829
# 6 0.002576 0.018488 0.006262 0.024875 -0.021829 0.065787
#
#
# Mechanical properties :
#
#
# Convention : Reuss Voigt Hill
#
# Bulk Modulus (GPa) = 19.49865 35.74346 27.62105
# Shear Modulus (GPa) = 17.99737 27.33788 22.66763
#
# Velocity S-wave (km/s) = 2.89552 3.56866 3.24956
# Velocity P-wave (km/s) = 4.50135 5.79926 5.19103
#
# Compressibility (1/GPa) = 0.05128561
#
# Stress axis : x y z
#
# Youngs Moduli (GPa) = 54.60163 43.02594 36.03870
#
# Poissons Ratio (x) = 0.01808 0.39059
# Poissons Ratio (y) = 0.02294 -0.08105
# Poissons Ratio (z) = 0.59178 -0.09677
#
# Static dielectric constant tensor:
#      x y z
#    x 1.686470 0.010770 0.054510 
#    y 0.010770 1.838090 -0.007650 
#    z 0.054510 -0.007650 1.729810 
# 
# From -- ./inp_files/218268.got.cif
#   From: 2010.05.17/outbox.cif.g08.bks.cpg/sg2_110_cif.got.tgz:218268.got - 2010.06.03 11:33:40.
