data_PCOD9002997
_publ_section_title
;
Structure prediction by ZEFSAII (Michael W. Deem and Ramdas Pophale) SiO2 
 PCOD9002997
Probable space group: P -1
;
_chemical_formula_sum "Si O2"
_cell_formula_units_Z 16
_cell_length_a 17.450601
_cell_length_b 5.685037
_cell_length_c 10.620312
_cell_angle_alpha 61.178219
_cell_angle_beta 50.936699
_cell_angle_gamma 79.450801
_cell_volume 705.360883
_symmetry_space_group_name_H-M "P -1"
_symmetry_group_IT_number 2
_symmetry_cell_setting 'triclinic'
loop_
_space_group_symop_operation_xyz
x,y,z
-x,-y,-z
loop_
_atom_site_type_symbol
_atom_site_label
_atom_site_fract_x
_atom_site_fract_y
_atom_site_fract_z
Si Si1 0.148459 0.507522 0.311477
Si Si2 0.038351 0.727907 0.572071
Si Si3 0.838915 0.039014 0.411258
Si Si4 0.499264 0.880102 0.761226
Si Si5 0.610434 0.665106 0.313572
Si Si6 0.349543 0.853725 0.264169
Si Si7 0.310555 0.254598 0.525288
Si Si8 0.656886 0.601566 0.002268
O O1 0.132328 0.717469 0.383935
O O2 0.137572 0.230568 0.475598
O O3 0.249157 0.505205 0.130214
O O4 0.054930 0.501331 0.314248
O O5 0.072823 0.734879 0.679996
O O6 0.000000 0.000000 0.500000
O O7 0.795726 0.935295 0.346838
O O8 0.738669 0.108652 0.558529
O O9 0.592831 0.884447 0.568545
O O10 0.413415 0.032983 0.758263
O O11 0.547697 0.038419 0.793769
O O12 0.443029 0.570512 0.912395
O O13 0.500000 0.500000 0.500000
O O14 0.680013 0.651459 0.364837
O O15 0.650800 0.564749 0.167947
O O16 0.331032 0.528636 0.345258
O O17 0.340930 0.077996 0.109753
#
# Coordination Sequence:
#
# PCOD9002997 Si02
#       8
#     2   2   2   2   2   2   2   2
#     4   9  19  36  57  91 120 151 189 249 310 361
#     4   9  17  34  60  86 121 149 189 243 311 368
#     4   9  19  32  58  87 117 154 196 245 295 363
#     4  11  22  37  59  80 119 161 210 251 298 353
#     4  12  24  41  58  81 121 171 212 248 290 352
#     4  10  21  37  56  86 121 156 202 252 306 349
#     4  11  22  38  59  84 122 164 212 247 292 352
#     4  11  24  37  60  89 123 159 199 254 301 358
#
# _framework density 22.683426000000001
#
# number of rings (size 3 to 8) (size 9 to 14) (size 15 to 20)
#    0.000    1.750    2.500    1.500    0.000    8.000 
#    0.000    0.000    0.000    0.750    0.000   13.125 
#    0.000   12.000    0.000    0.000    0.000    0.000 
#
# Total GULP energy -89245.192563 kJ/mol
# GULP energy per Si atom -5577.824535 kJ/mol
# Density = 2.263180 g / cm^3
# Si number density = 22.683426 Si / 1000 Ang^3
#
#
#
# Elastic Constant Matrix: (Units=GPa)
#
#
# Indices 1 2 3 4 5 6 
#
# 1 157.3105 15.1859 22.0288 5.0771 -0.3659 31.2266
# 2 15.1859 83.3456 15.5004 15.4901 2.6212 -6.3669
# 3 22.0288 15.5004 40.1196 15.4696 14.3151 -2.3088
# 4 5.0771 15.4901 15.4696 32.7320 4.2547 -6.0244
# 5 -0.3659 2.6212 14.3151 4.2547 18.6453 6.3735
# 6 31.2266 -6.3669 -2.3088 -6.0244 6.3735 40.7457
#
#
#
# Elastic Compliance Matrix: (Units=1/GPa)
#
#
# Indices 1 2 3 4 5 6 
#
# 1 0.009783 -0.001166 -0.009518 0.000284 0.010981 -0.009894
# 2 -0.001166 0.013769 -0.003037 -0.004610 0.000714 0.002080
# 3 -0.009518 -0.003037 0.052323 -0.013774 -0.041665 0.014266
# 4 0.000284 -0.004610 -0.013774 0.039847 0.000749 0.004056
# 5 0.010981 0.000714 -0.041665 0.000749 0.094211 -0.025291
# 6 -0.009894 0.002080 0.014266 0.004056 -0.025291 0.037814
#
#
# Mechanical properties :
#
#
# Convention : Reuss Voigt Hill
#
# Bulk Modulus (GPa) = 20.64729 42.91175 31.77952
# Shear Modulus (GPa) = 17.16247 33.62864 25.39556
#
# Velocity S-wave (km/s) = 2.75364 3.85453 3.34962
# Velocity P-wave (km/s) = 4.38545 6.22644 5.38520
#
# Compressibility (1/GPa) = 0.04843251
#
# Stress axis : x y z
#
# Youngs Moduli (GPa) = 102.22097 72.62846 19.11197
#
# Poissons Ratio (x) = 0.08471 0.18191
# Poissons Ratio (y) = 0.11923 0.05804
# Poissons Ratio (z) = 0.97294 0.22055
#
# Static dielectric constant tensor:
#      x y z
#    x 1.926880 0.068040 -0.001020 
#    y 0.068040 2.026670 -0.058190 
#    z -0.001020 -0.058190 1.856750 
# 
# From -- ./inp_files/126679.got.cif
#   From: 2010.05.17/outbox.cif.g08.bks.cpg/sg2_64_cif.got.tgz:126679.got - 2010.06.03 11:33:40.
