data_PCOD9002570
_publ_section_title
;
Structure prediction by ZEFSAII (Michael W. Deem and Ramdas Pophale) SiO2 
 PCOD9002570
Probable space group: P -1
;
_chemical_formula_sum "Si O2"
_cell_formula_units_Z 16
_cell_length_a 15.291403
_cell_length_b 7.274165
_cell_length_c 11.369864
_cell_angle_alpha 140.842030
_cell_angle_beta 121.800915
_cell_angle_gamma 62.709803
_cell_volume 675.783781
_symmetry_space_group_name_H-M "P -1"
_symmetry_group_IT_number 2
_symmetry_cell_setting 'triclinic'
loop_
_space_group_symop_operation_xyz
x,y,z
-x,-y,-z
loop_
_atom_site_type_symbol
_atom_site_label
_atom_site_fract_x
_atom_site_fract_y
_atom_site_fract_z
Si Si1 0.549735 0.171366 0.361496
Si Si2 0.871614 0.879601 0.307910
Si Si3 0.282685 0.498742 0.743194
Si Si4 0.502780 0.279977 0.723298
Si Si5 0.058422 0.670755 0.026890
Si Si6 0.345568 0.262453 0.932090
Si Si7 0.063241 0.783323 0.696634
Si Si8 0.775676 0.088824 0.588656
O O1 0.500000 0.500000 0.500000
O O2 0.659979 0.183621 0.511651
O O3 0.487430 0.908846 0.241521
O O4 0.581029 0.032637 0.188893
O O5 0.760426 0.842158 0.148220
O O6 0.932813 0.074254 0.360683
O O7 0.843254 0.026417 0.486351
O O8 0.926391 0.547835 0.180992
O O9 0.395289 0.487314 0.758541
O O10 0.309330 0.401184 0.847587
O O11 0.184317 0.731326 0.791186
O O12 0.233796 0.223053 0.512304
O O13 0.500000 0.000000 0.500000
O O14 0.590599 0.482500 0.848236
O O15 0.169222 0.717013 0.185492
O O16 0.995263 0.987197 0.140078
O O17 0.000000 0.500000 0.000000
O O18 0.000000 0.500000 0.500000
#
# Coordination Sequence:
#
# PCOD9002570 Si02
#       8
#     2   2   2   2   2   2   2   2
#     4   9  19  37  58  86 118 151 199 243 295 348
#     4   9  22  39  64  85 115 156 204 238 299 359
#     4   9  19  38  59  82 117 155 193 243 296 340
#     4  10  21  36  62  86 119 160 194 235 304 361
#     4  10  21  38  59  85 115 154 201 236 300 348
#     4   9  20  41  59  84 119 159 194 242 299 363
#     4  11  21  37  62  87 119 152 196 255 295 344
#     4   9  19  40  61  80 120 160 188 246 296 349
#
# _framework density 23.676210999999999
#
# number of rings (size 3 to 8) (size 9 to 14) (size 15 to 20)
#    0.000    3.000    1.250    1.500    3.500    4.000 
#    9.000    3.750    5.500    0.000    0.000    0.000 
#    0.000    0.000    0.000    0.000    0.000    0.000 
#
# Total GULP energy -89149.277850 kJ/mol
# GULP energy per Si atom -5571.829866 kJ/mol
# Density = 2.362232 g / cm^3
# Si number density = 23.676211 Si / 1000 Ang^3
#
#
#
# Elastic Constant Matrix: (Units=GPa)
#
#
# Indices 1 2 3 4 5 6 
#
# 1 106.8607 26.8943 43.1462 13.1433 14.0229 -10.3845
# 2 26.8943 73.4567 28.2374 20.8397 -8.5081 -22.9643
# 3 43.1462 28.2374 128.2333 15.8738 3.7448 -10.6907
# 4 13.1433 20.8397 15.8738 36.4447 -8.2917 -3.0185
# 5 14.0229 -8.5081 3.7448 -8.2917 53.6368 7.8614
# 6 -10.3845 -22.9643 -10.6907 -3.0185 7.8614 38.1772
#
#
#
# Elastic Compliance Matrix: (Units=1/GPa)
#
#
# Indices 1 2 3 4 5 6 
#
# 1 0.012188 -0.002623 -0.002985 -0.002375 -0.003986 0.001535
# 2 -0.002623 0.021394 -0.001819 -0.009340 0.001200 0.010661
# 3 -0.002985 -0.001819 0.009543 -0.002119 -0.000608 0.000724
# 4 -0.002375 -0.009340 -0.002119 0.035384 0.005519 -0.005196
# 5 -0.003986 0.001200 -0.000608 0.005519 0.021433 -0.004510
# 6 0.001535 0.010661 0.000724 -0.005196 -0.004510 0.033744
#
#
# Mechanical properties :
#
#
# Convention : Reuss Voigt Hill
#
# Bulk Modulus (GPa) = 35.36984 56.12293 45.74638
# Shear Modulus (GPa) = 31.65279 39.66991 35.66135
#
# Velocity S-wave (km/s) = 3.66033 4.09775 3.88520
# Velocity P-wave (km/s) = 5.73022 6.79298 6.28411
#
# Compressibility (1/GPa) = 0.02827268
#
# Stress axis : x y z
#
# Youngs Moduli (GPa) = 82.05074 46.74126 104.78366
#
# Poissons Ratio (x) = 0.12260 0.31276
# Poissons Ratio (y) = 0.21521 0.19057
# Poissons Ratio (z) = 0.24490 0.08501
#
# Static dielectric constant tensor:
#      x y z
#    x 2.029390 0.003280 -0.014180 
#    y 0.003280 1.998110 -0.007450 
#    z -0.014180 -0.007450 1.946450 
# 
# From -- ./inp_files/529212.got.cif
#   From: 2010.05.17/outbox.cif.g08.bks.cpg/sg2_265_cif.got.tgz:529212.got - 2010.06.03 11:33:40.
