data_PCOD9002178
_publ_section_title
;
Structure prediction by ZEFSAII (Michael W. Deem and Ramdas Pophale) SiO2 
 PCOD9002178
Probable space group: P -1
;
_chemical_formula_sum "Si O2"
_cell_formula_units_Z 16
_cell_length_a 8.246910
_cell_length_b 26.367287
_cell_length_c 6.280145
_cell_angle_alpha 75.544527
_cell_angle_beta 108.857061
_cell_angle_gamma 146.569696
_cell_volume 711.434656
_symmetry_space_group_name_H-M "P -1"
_symmetry_group_IT_number 2
_symmetry_cell_setting 'triclinic'
loop_
_space_group_symop_operation_xyz
x,y,z
-x,-y,-z
loop_
_atom_site_type_symbol
_atom_site_label
_atom_site_fract_x
_atom_site_fract_y
_atom_site_fract_z
Si Si1 0.069964 0.866925 0.026605
Si Si2 0.453187 0.668741 0.108282
Si Si3 0.690420 0.449733 0.484749
Si Si4 0.651062 0.004730 0.370486
Si Si5 0.933371 0.934736 0.189744
Si Si6 0.730333 0.603972 0.923284
Si Si7 0.049434 0.623072 0.670845
Si Si8 0.681742 0.263146 0.725504
O O1 0.777761 0.758274 0.046346
O O2 0.005104 0.901529 0.110645
O O3 0.377033 0.918310 0.193046
O O4 0.138492 0.905181 0.779698
O O5 0.439618 0.613537 0.301769
O O6 0.383147 0.699602 0.208372
O O7 0.198761 0.613670 0.879749
O O8 0.467807 0.397779 0.244288
O O9 0.000000 0.500000 0.500000
O O10 0.791322 0.533029 0.510238
O O11 0.850375 0.012382 0.568174
O O12 0.500000 0.000000 0.500000
O O13 0.590668 0.843289 0.219059
O O14 0.000000 0.000000 0.000000
O O15 0.910767 0.629181 0.767295
O O16 0.500000 0.500000 0.000000
O O17 0.991847 0.677194 0.130635
O O18 0.294959 0.713024 0.533412
#
# Coordination Sequence:
#
# PCOD9002178 Si02
#       8
#     2   2   2   2   2   2   2   2
#     4   9  19  37  59  83 117 153 189 240 292 340
#     4  10  21  36  58  89 114 149 201 244 284 344
#     4  12  22  39  60  89 118 153 198 243 286 343
#     4   9  18  36  60  80 112 153 189 233 295 341
#     4  10  21  36  59  89 115 150 195 238 289 349
#     4  11  23  40  61  83 120 160 194 238 292 349
#     4  11  21  40  62  82 120 160 191 237 302 341
#     4  10  21  40  60  83 117 156 196 238 293 352
#
# _framework density 22.489767000000001
#
# number of rings (size 3 to 8) (size 9 to 14) (size 15 to 20)
#    0.000    1.750    2.500    2.250    0.000    1.500 
#    0.000    3.750    0.000    0.000    0.000    0.000 
#    0.000    0.000    0.000    0.000    0.000    0.000 
#
# Total GULP energy -89469.194476 kJ/mol
# GULP energy per Si atom -5591.824655 kJ/mol
# Density = 2.243858 g / cm^3
# Si number density = 22.489767 Si / 1000 Ang^3
#
#
#
# Elastic Constant Matrix: (Units=GPa)
#
#
# Indices 1 2 3 4 5 6 
#
# 1 53.2692 22.0557 26.1549 -3.3506 7.2517 13.4999
# 2 22.0557 108.7498 52.0730 -27.2687 25.2846 26.6619
# 3 26.1549 52.0730 146.4995 -25.9335 31.0768 22.0115
# 4 -3.3506 -27.2687 -25.9335 36.7965 10.5091 -5.7535
# 5 7.2517 25.2846 31.0768 10.5091 47.0967 3.5423
# 6 13.4999 26.6619 22.0115 -5.7535 3.5423 29.0656
#
#
#
# Elastic Compliance Matrix: (Units=1/GPa)
#
#
# Indices 1 2 3 4 5 6 
#
# 1 0.022632 -0.002646 -0.002919 -0.003314 0.001103 -0.006664
# 2 -0.002646 0.019910 0.001461 0.017575 -0.014195 -0.012932
# 3 -0.002919 0.001461 0.011793 0.011188 -0.010202 -0.005456
# 4 -0.003314 0.017575 0.011188 0.054317 -0.027757 -0.008921
# 5 0.001103 -0.014195 -0.010202 -0.027757 0.040875 0.009759
# 6 -0.006664 -0.012932 -0.005456 -0.008921 0.009759 0.050540
#
#
# Mechanical properties :
#
#
# Convention : Reuss Voigt Hill
#
# Bulk Modulus (GPa) = 21.67987 56.56508 39.12248
# Shear Modulus (GPa) = 22.35620 36.47410 29.41515
#
# Velocity S-wave (km/s) = 3.15629 4.03154 3.62046
# Velocity P-wave (km/s) = 4.78996 6.84669 5.90851
#
# Compressibility (1/GPa) = 0.04612573
#
# Stress axis : x y z
#
# Youngs Moduli (GPa) = 44.18575 50.22482 84.79930
#
# Poissons Ratio (x) = 0.13288 0.24757
# Poissons Ratio (y) = 0.11690 -0.12386
# Poissons Ratio (z) = 0.12900 -0.07336
#
# Static dielectric constant tensor:
#      x y z
#    x 1.861470 0.001250 0.017600 
#    y 0.001250 1.821200 0.027790 
#    z 0.017600 0.027790 1.824520 
# 
# From -- ./inp_files/37632.got.cif
#   From: 2010.05.17/outbox.cif.g08.bks.cpg/sg2_19_cif.got.tgz:37632.got - 2010.06.03 11:33:40.
