data_PCOD9002971
_publ_section_title
;
Structure prediction by ZEFSAII (Michael W. Deem and Ramdas Pophale) SiO2 
 PCOD9002971
Probable space group: P -1
;
_chemical_formula_sum "Si O2"
_cell_formula_units_Z 12
_cell_length_a 13.967357
_cell_length_b 12.045381
_cell_length_c 11.728132
_cell_angle_alpha 124.742994
_cell_angle_beta 58.187877
_cell_angle_gamma 158.748132
_cell_volume 587.647105
_symmetry_space_group_name_H-M "P -1"
_symmetry_group_IT_number 2
_symmetry_cell_setting 'triclinic'
loop_
_space_group_symop_operation_xyz
x,y,z
-x,-y,-z
loop_
_atom_site_type_symbol
_atom_site_label
_atom_site_fract_x
_atom_site_fract_y
_atom_site_fract_z
Si Si1 0.220657 0.829127 0.802690
Si Si2 0.208208 0.182233 0.639979
Si Si3 0.219714 0.085774 0.323031
Si Si4 0.288886 0.792258 0.359800
Si Si5 0.718866 0.123449 0.954484
Si Si6 0.896187 0.171746 0.348200
O O1 0.234649 0.957542 0.770383
O O2 0.922369 0.450015 0.752494
O O3 0.421139 0.928415 0.698751
O O4 0.302093 0.961272 0.954263
O O5 0.174250 0.065639 0.473302
O O6 0.518707 0.550017 0.667601
O O7 0.102539 0.973921 0.685372
O O8 0.036620 0.132425 0.707253
O O9 0.277895 0.994143 0.205673
O O10 0.256990 0.896930 0.507522
O O11 0.176248 0.552459 0.375255
O O12 0.000000 0.500000 0.000000
O O13 0.500000 0.000000 0.000000
#
# Coordination Sequence:
#
# PCOD9002971 Si02
#       6
#     2   2   2   2   2   2
#     4  10  21  37  55  92 118 150 201 250 292 363
#     4  10  22  40  66  82 125 160 200 254 297 352
#     4  10  24  43  56  94 117 159 212 243 290 378
#     4   9  20  34  57  92 123 147 200 259 281 367
#     4  12  26  42  66  87 125 165 196 253 311 360
#     4   9  21  34  64  86 121 159 196 251 306 335
#
# _framework density 20.420418999999999
#
# number of rings (size 3 to 8) (size 9 to 14) (size 15 to 20)
#    1.000    1.000    0.000    2.500    7.000    0.000 
#    0.000    1.667    0.000    0.000    0.000    0.000 
#    0.000    0.000    0.000    0.000    0.000    0.000 
#
# Total GULP energy -66946.410929 kJ/mol
# GULP energy per Si atom -5578.867577 kJ/mol
# Density = 2.037394 g / cm^3
# Si number density = 20.420419 Si / 1000 Ang^3
#
#
#
# Elastic Constant Matrix: (Units=GPa)
#
#
# Indices 1 2 3 4 5 6 
#
# 1 100.5290 26.8218 27.1003 -6.9408 -3.1785 6.8448
# 2 26.8218 27.5398 -1.3426 -1.5866 -0.6540 0.8023
# 3 27.1003 -1.3426 47.0561 6.1519 -9.6134 -6.7184
# 4 -6.9408 -1.5866 6.1519 15.7805 -1.3612 -1.9450
# 5 -3.1785 -0.6540 -9.6134 -1.3612 31.8143 -2.9361
# 6 6.8448 0.8023 -6.7184 -1.9450 -2.9361 35.7275
#
#
#
# Elastic Compliance Matrix: (Units=1/GPa)
#
#
# Indices 1 2 3 4 5 6 
#
# 1 0.020628 -0.020048 -0.015522 0.012102 -0.003079 -0.006015
# 2 -0.020048 0.056067 0.015847 -0.008335 0.004084 0.005444
# 3 -0.015522 0.015847 0.036253 -0.017371 0.009844 0.009298
# 4 0.012102 -0.008335 -0.017371 0.074348 -0.001164 -0.001446
# 5 -0.003079 0.004084 0.009844 -0.001164 0.034607 0.005130
# 6 -0.006015 0.005444 0.009298 -0.001446 0.005130 0.031111
#
#
# Mechanical properties :
#
#
# Convention : Reuss Voigt Hill
#
# Bulk Modulus (GPa) = 13.60514 31.14264 22.37389
# Shear Modulus (GPa) = 15.77481 24.83414 20.30448
#
# Velocity S-wave (km/s) = 2.78241 3.49111 3.15671
# Velocity P-wave (km/s) = 4.12303 5.61554 4.92614
#
# Compressibility (1/GPa) = 0.07350162
#
# Stress axis : x y z
#
# Youngs Moduli (GPa) = 48.47678 17.83580 27.58419
#
# Poissons Ratio (x) = 0.35757 0.42817
# Poissons Ratio (y) = 0.97186 -0.43712
# Poissons Ratio (z) = 0.75246 -0.28264
#
# Static dielectric constant tensor:
#      x y z
#    x 1.732520 0.003840 0.049290 
#    y 0.003840 1.717460 -0.026360 
#    z 0.049290 -0.026360 1.750440 
# 
# From -- ./inp_files/23843.got.cif
#   From: 2010.05.17/outbox.cif.g08.bks.cpg/sg2_12_cif.got.tgz:23843.got - 2010.06.03 11:33:40.
