data_PCOD9002224
_publ_section_title
;
Structure prediction by ZEFSAII (Michael W. Deem and Ramdas Pophale) SiO2 
 PCOD9002224
Probable space group: P -1
;
_chemical_formula_sum "Si O2"
_cell_formula_units_Z 16
_cell_length_a 12.977984
_cell_length_b 5.928810
_cell_length_c 11.895523
_cell_angle_alpha 65.724044
_cell_angle_beta 89.907820
_cell_angle_gamma 57.772109
_cell_volume 677.114339
_symmetry_space_group_name_H-M "P -1"
_symmetry_group_IT_number 2
_symmetry_cell_setting 'triclinic'
loop_
_space_group_symop_operation_xyz
x,y,z
-x,-y,-z
loop_
_atom_site_type_symbol
_atom_site_label
_atom_site_fract_x
_atom_site_fract_y
_atom_site_fract_z
Si Si1 0.212297 0.286238 0.414866
Si Si2 0.609153 0.556257 0.593885
Si Si3 0.841971 0.854184 0.774105
Si Si4 0.986770 0.085240 0.615869
Si Si5 0.754392 0.200232 0.209309
Si Si6 0.564201 0.145389 0.101730
Si Si7 0.368014 0.610461 0.617514
Si Si8 0.311122 0.255794 0.039727
O O1 0.341505 0.254629 0.401495
O O2 0.143925 0.365666 0.279855
O O3 0.127996 0.557581 0.445898
O O4 0.251939 0.956510 0.516085
O O5 0.486136 0.621602 0.637924
O O6 0.596182 0.590542 0.451756
O O7 0.717737 0.200694 0.686675
O O8 0.798629 0.759159 0.901817
O O9 0.951700 0.896613 0.733325
O O10 0.108103 0.029587 0.690283
O O11 0.000000 0.000000 0.500000
O O12 0.674895 0.065115 0.206527
O O13 0.675496 0.454239 0.255947
O O14 0.751596 0.394391 0.066610
O O15 0.441688 0.142647 0.131622
O O16 0.500000 0.500000 0.000000
O O17 0.632213 0.959310 0.025793
#
# Coordination Sequence:
#
# PCOD9002224 Si02
#       8
#     2   2   2   2   2   2   2   2
#     4  10  21  40  63  89 120 175 210 263 322 375
#     4   9  20  36  59  91 132 157 208 265 323 384
#     4  10  23  39  66  91 126 174 207 264 323 381
#     4  11  25  45  66  91 133 168 219 270 313 380
#     4  11  24  39  64  95 125 174 216 260 316 386
#     4   9  22  40  63  93 127 170 211 261 315 383
#     4  10  21  36  58  95 126 160 211 265 322 383
#     4  10  23  43  63  94 134 165 210 268 327 370
#
# _framework density 23.629687000000001
#
# number of rings (size 3 to 8) (size 9 to 14) (size 15 to 20)
#    0.000    2.000    0.000    2.625    7.000    8.500 
#    0.000    1.250    0.000    0.000    0.000    0.000 
#    0.000    0.000    0.000    0.000    0.000    0.000 
#
# Total GULP energy -89262.120934 kJ/mol
# GULP energy per Si atom -5578.882558 kJ/mol
# Density = 2.357590 g / cm^3
# Si number density = 23.629687 Si / 1000 Ang^3
#
#
#
# Elastic Constant Matrix: (Units=GPa)
#
#
# Indices 1 2 3 4 5 6 
#
# 1 130.5349 -4.6692 39.8139 6.2019 2.3667 -0.4730
# 2 -4.6692 63.1749 5.4121 12.0518 -5.2029 0.9960
# 3 39.8139 5.4121 64.2318 3.8145 -14.0557 0.5449
# 4 6.2019 12.0518 3.8145 24.3973 -2.5411 -1.4259
# 5 2.3667 -5.2029 -14.0557 -2.5411 45.8362 -0.1748
# 6 -0.4730 0.9960 0.5449 -1.4259 -0.1748 30.4952
#
#
#
# Elastic Compliance Matrix: (Units=1/GPa)
#
#
# Indices 1 2 3 4 5 6 
#
# 1 0.009922 0.001576 -0.006687 -0.002513 -0.002523 0.000090
# 2 0.001576 0.017888 -0.001746 -0.008924 0.000915 -0.000941
# 3 -0.006687 -0.001746 0.021332 -0.000100 0.006681 -0.000394
# 4 -0.002513 -0.008924 -0.000100 0.046366 0.001666 0.002432
# 5 -0.002523 0.000915 0.006681 0.001666 0.024192 0.000028
# 6 0.000090 -0.000941 -0.000394 0.002432 0.000028 0.032945
#
#
# Mechanical properties :
#
#
# Convention : Reuss Voigt Hill
#
# Bulk Modulus (GPa) = 28.22554 37.67281 32.94918
# Shear Modulus (GPa) = 28.06350 34.63806 31.35078
#
# Velocity S-wave (km/s) = 3.44995 3.83282 3.64642
# Velocity P-wave (km/s) = 5.27640 5.96364 5.63052
#
# Compressibility (1/GPa) = 0.03542890
#
# Stress axis : x y z
#
# Youngs Moduli (GPa) = 100.78537 55.90430 46.87850
#
# Poissons Ratio (x) = -0.08813 0.31346
# Poissons Ratio (y) = -0.15887 0.08185
# Poissons Ratio (z) = 0.67391 0.09762
#
# Static dielectric constant tensor:
#      x y z
#    x 1.967400 0.002640 -0.005670 
#    y 0.002640 1.888980 -0.017160 
#    z -0.005670 -0.017160 1.997110 
# 
# From -- ./inp_files/410273.got.cif
#   From: 2010.05.17/outbox.cif.g08.bks.cpg/sg2_206_cif.got.tgz:410273.got - 2010.06.03 11:33:40.
