data_PCOD9002153
_publ_section_title
;
Structure prediction by ZEFSAII (Michael W. Deem and Ramdas Pophale) SiO2 
 PCOD9002153
Probable space group: P -1
;
_chemical_formula_sum "Si O2"
_cell_formula_units_Z 14
_cell_length_a 10.937334
_cell_length_b 6.826360
_cell_length_c 12.614984
_cell_angle_alpha 126.334533
_cell_angle_beta 106.710563
_cell_angle_gamma 61.897759
_cell_volume 669.241228
_symmetry_space_group_name_H-M "P -1"
_symmetry_group_IT_number 2
_symmetry_cell_setting 'triclinic'
loop_
_space_group_symop_operation_xyz
x,y,z
-x,-y,-z
loop_
_atom_site_type_symbol
_atom_site_label
_atom_site_fract_x
_atom_site_fract_y
_atom_site_fract_z
Si Si1 0.334149 0.175335 0.514970
Si Si2 0.832094 0.120098 0.502817
Si Si3 0.686160 0.259779 0.283021
Si Si4 0.416649 0.225382 0.135068
Si Si5 0.995396 0.292167 0.098797
Si Si6 0.193730 0.317179 0.967287
Si Si7 0.226432 0.296895 0.288536
O O1 0.304013 0.462422 0.651170
O O2 0.283860 0.215677 0.393398
O O3 0.500000 0.000000 0.500000
O O4 0.239002 0.048730 0.508561
O O5 0.760867 0.177442 0.388157
O O6 0.787715 0.404352 0.637783
O O7 0.000000 0.000000 0.500000
O O8 0.522654 0.317921 0.253416
O O9 0.753976 0.994779 0.145807
O O10 0.334862 0.130190 0.172704
O O11 0.301634 0.413881 0.086166
O O12 0.500000 0.000000 0.000000
O O13 0.073770 0.305208 0.230176
O O14 0.850937 0.521880 0.102232
O O15 0.085196 0.343198 0.042367
O O16 0.000000 0.000000 0.000000
#
# Coordination Sequence:
#
# PCOD9002153 Si02
#       7
#     2   2   2   2   2   2   2
#     4  11  24  40  64  92 122 165 211 256 306 365
#     4  11  24  40  61  90 126 166 205 255 312 364
#     4  10  21  38  61  87 120 157 204 251 302 365
#     4   9  18  37  62  87 119 161 202 252 312 366
#     4  10  21  36  58  85 114 153 197 244 302 364
#     4   9  20  37  57  84 118 154 193 246 305 359
#     4  10  22  39  60  88 124 160 204 257 312 368
#
# _framework density 20.919211000000001
#
# number of rings (size 3 to 8) (size 9 to 14) (size 15 to 20)
#    0.000    2.000    0.000    2.571    0.000   12.571 
#    0.000    0.000    0.000   12.000    0.000    0.000 
#    0.000    0.000    0.000    0.000    0.000    0.000 
#
# Total GULP energy -77943.390481 kJ/mol
# GULP energy per Si atom -5567.385034 kJ/mol
# Density = 2.087160 g / cm^3
# Si number density = 20.919211 Si / 1000 Ang^3
#
#
#
# Elastic Constant Matrix: (Units=GPa)
#
#
# Indices 1 2 3 4 5 6 
#
# 1 95.6777 50.3485 22.5145 -16.7190 25.3720 -3.8826
# 2 50.3485 112.9691 29.0374 -8.1046 26.2834 -5.1833
# 3 22.5145 29.0374 82.0901 -16.3916 28.1662 -17.0400
# 4 -16.7190 -8.1046 -16.3916 26.3100 -9.4928 8.2154
# 5 25.3720 26.2834 28.1662 -9.4928 45.1256 -1.5060
# 6 -3.8826 -5.1833 -17.0400 8.2154 -1.5060 22.1310
#
#
#
# Elastic Compliance Matrix: (Units=1/GPa)
#
#
# Indices 1 2 3 4 5 6 
#
# 1 0.015686 -0.005622 0.000337 0.007319 -0.004260 -0.001312
# 2 -0.005622 0.012529 -0.002004 -0.002529 -0.003381 0.001114
# 3 0.000337 -0.002004 0.019672 0.004375 -0.009966 0.012435
# 4 0.007319 -0.002529 0.004375 0.050882 0.004847 -0.014498
# 5 -0.004260 -0.003381 -0.009966 0.004847 0.033473 -0.008734
# 6 -0.001312 0.001114 0.012435 -0.014498 -0.008734 0.059578
#
#
# Mechanical properties :
#
#
# Convention : Reuss Voigt Hill
#
# Bulk Modulus (GPa) = 30.02070 54.94865 42.48467
# Shear Modulus (GPa) = 22.98852 31.30241 27.14547
#
# Velocity S-wave (km/s) = 3.31859 3.87246 3.60618
# Velocity P-wave (km/s) = 5.39129 6.80579 6.13941
#
# Compressibility (1/GPa) = 0.03331035
#
# Stress axis : x y z
#
# Youngs Moduli (GPa) = 63.75101 79.81647 50.83323
#
# Poissons Ratio (x) = 0.44871 -0.01713
# Poissons Ratio (y) = 0.35839 0.10185
# Poissons Ratio (z) = -0.02149 0.15992
#
# Static dielectric constant tensor:
#      x y z
#    x 1.867020 -0.116710 0.008550 
#    y -0.116710 1.817930 -0.000270 
#    z 0.008550 -0.000270 1.784400 
# 
# From -- ./inp_files/65228.got.cif
#   From: 2010.05.17/outbox.cif.g08.bks.cpg/sg2_33_cif.got.tgz:65228.got - 2010.06.03 11:33:40.
