data_PCOD9002895
_publ_section_title
;
Structure prediction by ZEFSAII (Michael W. Deem and Ramdas Pophale) SiO2 
 PCOD9002895
Probable space group: P -1
;
_chemical_formula_sum "Si O2"
_cell_formula_units_Z 16
_cell_length_a 25.371569
_cell_length_b 8.443568
_cell_length_c 5.274181
_cell_angle_alpha 70.074582
_cell_angle_beta 75.594729
_cell_angle_gamma 42.983624
_cell_volume 724.218398
_symmetry_space_group_name_H-M "P -1"
_symmetry_group_IT_number 2
_symmetry_cell_setting 'triclinic'
loop_
_space_group_symop_operation_xyz
x,y,z
-x,-y,-z
loop_
_atom_site_type_symbol
_atom_site_label
_atom_site_fract_x
_atom_site_fract_y
_atom_site_fract_z
Si Si1 0.303007 0.481925 0.001791
Si Si2 0.547224 0.781287 0.261344
Si Si3 0.601144 0.951999 0.489255
Si Si4 0.262245 0.261406 0.857660
Si Si5 0.893868 0.392916 0.461860
Si Si6 0.826716 0.787372 0.683118
Si Si7 0.164370 0.017225 0.933799
Si Si8 0.968805 0.927894 0.883766
O O1 0.344120 0.252343 0.253950
O O2 0.372787 0.448340 0.839340
O O3 0.265802 0.446313 0.848862
O O4 0.235066 0.737306 0.065520
O O5 0.576405 0.847050 0.403748
O O6 0.480940 0.804104 0.435826
O O7 0.500000 0.000000 0.000000
O O8 0.655979 0.951148 0.260007
O O9 0.189395 0.410244 0.676376
O O10 0.243868 0.173272 0.154522
O O11 0.890162 0.515959 0.649477
O O12 0.961332 0.298774 0.241672
O O13 0.913880 0.157720 0.636671
O O14 0.811058 0.935566 0.374184
O O15 0.849867 0.842647 0.872607
O O16 0.086353 0.089121 0.920522
O O17 0.000000 0.000000 0.000000
#
# Coordination Sequence:
#
# PCOD9002895 Si02
#       8
#     2   2   2   2   2   2   2   2
#     4  10  21  36  68  94 130 166 223 270 321 380
#     4   8  16  31  54 100 126 161 210 279 319 369
#     4   9  17  32  63  94 128 164 216 273 321 373
#     4  11  21  42  66  94 128 175 218 267 318 393
#     4  11  24  46  68  96 127 170 217 270 319 395
#     4  12  27  45  63  95 136 173 218 258 329 395
#     4  12  28  43  67  96 133 175 212 270 325 384
#     4  11  26  45  73  96 128 163 223 273 325 381
#
# _framework density 22.092782
#
# number of rings (size 3 to 8) (size 9 to 14) (size 15 to 20)
#    0.000    1.500    1.250    3.750    8.750    1.000 
#    0.000    0.000    0.000    1.500    0.000    0.000 
#    0.000    0.000    0.000    0.000    0.000    0.000 
#
# Total GULP energy -89306.387209 kJ/mol
# GULP energy per Si atom -5581.649201 kJ/mol
# Density = 2.204250 g / cm^3
# Si number density = 22.092782 Si / 1000 Ang^3
#
#
#
# Elastic Constant Matrix: (Units=GPa)
#
#
# Indices 1 2 3 4 5 6 
#
# 1 109.0432 70.3817 51.6048 23.6414 -8.9991 -22.3411
# 2 70.3817 70.9815 30.5048 36.2597 -13.3325 -11.6956
# 3 51.6048 30.5048 101.7865 27.3458 -14.2251 -14.2837
# 4 23.6414 36.2597 27.3458 38.5348 -12.1667 -5.8553
# 5 -8.9991 -13.3325 -14.2251 -12.1667 47.2195 16.2449
# 6 -22.3411 -11.6956 -14.2837 -5.8553 16.2449 27.8081
#
#
#
# Elastic Compliance Matrix: (Units=1/GPa)
#
#
# Indices 1 2 3 4 5 6 
#
# 1 0.055051 -0.066453 -0.017415 0.041153 -0.010536 0.022154
# 2 -0.066453 0.108538 0.020137 -0.075026 0.011583 -0.019960
# 3 -0.017415 0.020137 0.018264 -0.020516 0.003430 -0.002464
# 4 0.041153 -0.075026 -0.020516 0.087202 -0.000329 0.009523
# 5 -0.010536 0.011583 0.003430 -0.000329 0.030090 -0.019478
# 6 0.022154 -0.019960 -0.002464 0.009523 -0.019478 0.057483
#
#
# Mechanical properties :
#
#
# Convention : Reuss Voigt Hill
#
# Bulk Modulus (GPa) = 18.38478 65.19929 41.79204
# Shear Modulus (GPa) = 9.95580 31.33381 20.64481
#
# Velocity S-wave (km/s) = 2.12512 3.77010 3.06021
# Velocity P-wave (km/s) = 3.78962 6.96614 5.60751
#
# Compressibility (1/GPa) = 0.05439281
#
# Stress axis : x y z
#
# Youngs Moduli (GPa) = 18.16488 9.21334 54.75234
#
# Poissons Ratio (x) = 0.61225 0.95349
# Poissons Ratio (y) = 1.20711 -1.10255
# Poissons Ratio (z) = 0.31633 -0.18553
#
# Static dielectric constant tensor:
#      x y z
#    x 1.929990 -0.033580 0.060900 
#    y -0.033580 1.817580 0.013340 
#    z 0.060900 0.013340 1.961820 
# 
# From -- ./inp_files/126400.got.cif
#   From: 2010.05.17/outbox.cif.g08.bks.cpg/sg2_64_cif.got.tgz:126400.got - 2010.06.03 11:33:40.
