data_PCOD9002929
_publ_section_title
;
Structure prediction by ZEFSAII (Michael W. Deem and Ramdas Pophale) SiO2 
 PCOD9002929
Probable space group: P -1
;
_chemical_formula_sum "Si O2"
_cell_formula_units_Z 16
_cell_length_a 17.381518
_cell_length_b 5.001996
_cell_length_c 12.923078
_cell_angle_alpha 94.298786
_cell_angle_beta 131.045508
_cell_angle_gamma 69.402671
_cell_volume 773.588096
_symmetry_space_group_name_H-M "P -1"
_symmetry_group_IT_number 2
_symmetry_cell_setting 'triclinic'
loop_
_space_group_symop_operation_xyz
x,y,z
-x,-y,-z
loop_
_atom_site_type_symbol
_atom_site_label
_atom_site_fract_x
_atom_site_fract_y
_atom_site_fract_z
Si Si1 0.321598 0.939359 0.690400
Si Si2 0.633431 0.393053 0.740857
Si Si3 0.429814 0.282951 0.512456
Si Si4 0.143937 0.135579 0.104988
Si Si5 0.620239 0.314539 0.049991
Si Si6 0.244571 0.472103 0.505736
Si Si7 0.583811 0.814614 0.889623
Si Si8 0.912398 0.285224 0.810480
O O1 0.308268 0.866592 0.795998
O O2 0.291531 0.708601 0.590782
O O3 0.450801 0.896434 0.787002
O O4 0.244337 0.265268 0.593787
O O5 0.628207 0.466481 0.616274
O O6 0.625498 0.664978 0.811737
O O7 0.741710 0.100244 0.844799
O O8 0.606575 0.094468 0.947912
O O9 0.337183 0.254903 0.502156
O O10 0.519205 0.354095 0.658847
O O11 0.500000 0.000000 0.500000
O O12 0.147240 0.434562 0.158236
O O13 0.111091 0.981657 0.169592
O O14 0.042913 0.210411 0.937230
O O15 0.500000 0.500000 0.000000
O O16 0.647334 0.559152 0.022001
O O17 0.135881 0.628522 0.344154
#
# Coordination Sequence:
#
# PCOD9002929 Si02
#       8
#     2   2   2   2   2   2   2   2
#     4  11  21  35  54  78 108 142 180 226 277 320
#     4  11  23  35  52  82 111 158 179 220 268 334
#     4  11  23  33  50  77 123 149 180 208 267 338
#     4  10  21  38  55  76 109 149 191 226 268 308
#     4  10  21  37  54  77 108 147 183 231 272 326
#     4  12  21  34  54  81 108 145 180 221 271 324
#     4  11  21  35  54  79 112 145 187 219 272 336
#     4  10  21  37  56  77 107 146 191 235 261 313
#
# _framework density 20.682842999999998
#
# number of rings (size 3 to 8) (size 9 to 14) (size 15 to 20)
#    0.000    1.250    2.500    6.000    3.500    0.000 
#    0.000    0.000    0.000    0.000    0.000    5.250 
#    0.000    0.000    0.000    0.000    0.000    0.000 
#
# Total GULP energy -89470.830825 kJ/mol
# GULP energy per Si atom -5591.926927 kJ/mol
# Density = 2.063577 g / cm^3
# Si number density = 20.682843 Si / 1000 Ang^3
#
#
#
# Elastic Constant Matrix: (Units=GPa)
#
#
# Indices 1 2 3 4 5 6 
#
# 1 23.0232 2.1111 23.1942 -7.8115 0.2976 0.4582
# 2 2.1111 84.2981 17.8950 -1.5868 9.0347 -0.0578
# 3 23.1942 17.8950 141.1666 -26.3940 0.2710 -3.1579
# 4 -7.8115 -1.5868 -26.3940 34.1983 4.0862 -9.5499
# 5 0.2976 9.0347 0.2710 4.0862 27.5233 -6.8497
# 6 0.4582 -0.0578 -3.1579 -9.5499 -6.8497 28.7025
#
#
#
# Elastic Compliance Matrix: (Units=1/GPa)
#
#
# Indices 1 2 3 4 5 6 
#
# 1 0.053278 0.000577 -0.007595 0.006560 -0.001638 0.000107
# 2 0.000577 0.012701 -0.001834 -0.000564 -0.004429 -0.001430
# 3 -0.007595 -0.001834 0.009909 0.006769 0.000471 0.003572
# 4 0.006560 -0.000564 0.006769 0.039965 -0.002570 0.013323
# 5 -0.001638 -0.004429 0.000471 -0.002570 0.040384 0.008851
# 6 0.000107 -0.001430 0.003572 0.013323 0.008851 0.041774
#
#
# Mechanical properties :
#
#
# Convention : Reuss Voigt Hill
#
# Bulk Modulus (GPa) = 17.18685 37.20983 27.19834
# Shear Modulus (GPa) = 21.26686 31.77066 26.51876
#
# Velocity S-wave (km/s) = 3.21009 3.92355 3.58461
# Velocity P-wave (km/s) = 4.69759 6.20930 5.50557
#
# Compressibility (1/GPa) = 0.05818401
#
# Stress axis : x y z
#
# Youngs Moduli (GPa) = 18.76963 78.73638 100.92106
#
# Poissons Ratio (x) = -0.04544 0.76647
# Poissons Ratio (y) = -0.01083 0.18507
# Poissons Ratio (z) = 0.14255 0.14439
#
# Static dielectric constant tensor:
#      x y z
#    x 1.749540 0.037260 -0.026190 
#    y 0.037260 1.750770 -0.025700 
#    z -0.026190 -0.025700 1.794310 
# 
# From -- ./inp_files/82089.got.cif
#   From: 2010.05.17/outbox.cif.g08.bks.cpg/sg2_42_cif.got.tgz:82089.got - 2010.06.03 11:33:40.
