data_PCOD9002333
_publ_section_title
;
Structure prediction by ZEFSAII (Michael W. Deem and Ramdas Pophale) SiO2 
 PCOD9002333
Probable space group: P -1
;
_chemical_formula_sum "Si O2"
_cell_formula_units_Z 12
_cell_length_a 13.299175
_cell_length_b 9.548674
_cell_length_c 9.797453
_cell_angle_alpha 30.613947
_cell_angle_beta 64.065447
_cell_angle_gamma 63.946505
_cell_volume 564.402962
_symmetry_space_group_name_H-M "P -1"
_symmetry_group_IT_number 2
_symmetry_cell_setting 'triclinic'
loop_
_space_group_symop_operation_xyz
x,y,z
-x,-y,-z
loop_
_atom_site_type_symbol
_atom_site_label
_atom_site_fract_x
_atom_site_fract_y
_atom_site_fract_z
Si Si1 0.626871 0.542278 0.341539
Si Si2 0.332432 0.556129 0.190244
Si Si3 0.245579 0.928174 0.149849
Si Si4 0.476279 0.033261 0.645587
Si Si5 0.075755 0.206627 0.214436
Si Si6 0.688680 0.707869 0.873055
O O1 0.500000 0.500000 0.500000
O O2 0.710169 0.305311 0.568336
O O3 0.597184 0.985512 0.686264
O O4 0.647153 0.541322 0.166374
O O5 0.236782 0.756400 0.160011
O O6 0.308923 0.443322 0.148830
O O7 0.386543 0.309511 0.465112
O O8 0.425239 0.759784 0.947201
O O9 0.129297 0.093754 0.133542
O O10 0.335833 0.151705 0.901892
O O11 0.500000 0.000000 0.500000
O O12 0.186732 0.231930 0.217019
O O13 0.000000 0.000000 0.500000
O O14 0.000000 0.500000 0.000000
#
# Coordination Sequence:
#
# PCOD9002333 Si02
#       6
#     2   2   2   2   2   2
#     4  11  23  39  61  94 132 170 205 244 306 388
#     4  11  23  39  63  97 132 160 197 253 316 384
#     4  11  24  41  62  91 126 161 206 267 316 362
#     4  10  21  36  59  95 134 164 193 238 308 387
#     4  11  25  45  65  86 118 166 220 269 310 358
#     4  10  23  42  66  93 127 173 212 251 309 375
#
# _framework density 21.261406000000001
#
# number of rings (size 3 to 8) (size 9 to 14) (size 15 to 20)
#    0.000    1.333    0.000    6.500    0.000   17.333 
#    0.000    1.667    0.000    0.000    0.000    0.000 
#    0.000    0.000    0.000    0.000    0.000    0.000 
#
# Total GULP energy -67025.904715 kJ/mol
# GULP energy per Si atom -5585.492060 kJ/mol
# Density = 2.121301 g / cm^3
# Si number density = 21.261406 Si / 1000 Ang^3
#
#
#
# Elastic Constant Matrix: (Units=GPa)
#
#
# Indices 1 2 3 4 5 6 
#
# 1 103.8630 48.5233 53.2952 4.0207 -12.6867 -10.9543
# 2 48.5233 181.9287 41.3718 4.4728 -3.0760 1.5435
# 3 53.2952 41.3718 166.6517 -1.4539 -5.4607 0.9079
# 4 4.0207 4.4728 -1.4539 41.2600 -1.2547 3.1121
# 5 -12.6867 -3.0760 -5.4607 -1.2547 34.2413 3.8180
# 6 -10.9543 1.5435 0.9079 3.1121 3.8180 36.3520
#
#
#
# Elastic Compliance Matrix: (Units=1/GPa)
#
#
# Indices 1 2 3 4 5 6 
#
# 1 0.013716 -0.002775 -0.003608 -0.001355 0.003754 0.004063
# 2 -0.002775 0.006410 -0.000717 -0.000388 -0.000469 -0.001008
# 3 -0.003608 -0.000717 0.007345 0.000785 -0.000056 -0.001302
# 4 -0.001355 -0.000388 0.000785 0.024659 0.000782 -0.002605
# 5 0.003754 -0.000469 -0.000056 0.000782 0.030813 -0.002151
# 6 0.004063 -0.001008 -0.001302 -0.002605 -0.002151 0.029257
#
#
# Mechanical properties :
#
#
# Convention : Reuss Voigt Hill
#
# Bulk Modulus (GPa) = 75.36261 82.09156 78.72708
# Shear Modulus (GPa) = 38.21950 42.98754 40.60352
#
# Velocity S-wave (km/s) = 4.24441 4.50139 4.37479
# Velocity P-wave (km/s) = 7.71639 8.10624 7.91371
#
# Compressibility (1/GPa) = 0.01326918
#
# Stress axis : x y z
#
# Youngs Moduli (GPa) = 72.90921 156.00350 136.15545
#
# Poissons Ratio (x) = 0.43296 0.49128
# Poissons Ratio (y) = 0.20235 0.09763
# Poissons Ratio (z) = 0.26307 0.11186
#
# Static dielectric constant tensor:
#      x y z
#    x 1.722040 -0.001360 -0.027340 
#    y -0.001360 1.890220 -0.018570 
#    z -0.027340 -0.018570 1.782310 
# 
# From -- ./inp_files/297210.got.cif
#   From: 2010.05.17/outbox.cif.g08.bks.cpg/sg2_149_cif.got.tgz:297210.got - 2010.06.03 11:33:40.
