data_PCOD9002285
_publ_section_title
;
Structure prediction by ZEFSAII (Michael W. Deem and Ramdas Pophale) SiO2 
 PCOD9002285
Probable space group: P -1
;
_chemical_formula_sum "Si O2"
_cell_formula_units_Z 16
_cell_length_a 15.187800
_cell_length_b 13.505691
_cell_length_c 14.910579
_cell_angle_alpha 40.256966
_cell_angle_beta 19.225812
_cell_angle_gamma 40.227001
_cell_volume 637.463637
_symmetry_space_group_name_H-M "P -1"
_symmetry_group_IT_number 2
_symmetry_cell_setting 'triclinic'
loop_
_space_group_symop_operation_xyz
x,y,z
-x,-y,-z
loop_
_atom_site_type_symbol
_atom_site_label
_atom_site_fract_x
_atom_site_fract_y
_atom_site_fract_z
Si Si1 0.238652 0.422803 0.695025
Si Si2 0.000893 0.286500 0.595590
Si Si3 0.471706 0.817768 0.084180
Si Si4 0.092428 0.037012 0.524192
Si Si5 0.742147 0.308596 0.168439
Si Si6 0.220029 0.025151 0.698947
Si Si7 0.568865 0.551661 0.026519
Si Si8 0.094275 0.268636 0.120366
O O1 0.533688 0.388517 0.390415
O O2 0.114236 0.602769 0.711361
O O3 0.219571 0.342448 0.864279
O O4 0.032253 0.356015 0.873582
O O5 0.003803 0.140571 0.626123
O O6 0.696511 0.389084 0.820540
O O7 0.132254 0.194873 0.620183
O O8 0.180328 0.396835 0.300081
O O9 0.655866 0.794105 0.010600
O O10 0.613540 0.933390 0.806809
O O11 0.154152 0.884587 0.359883
O O12 0.511218 0.660404 0.096381
O O13 0.061255 0.860330 0.679831
O O14 0.758615 0.123381 0.285037
O O15 0.632419 0.379601 0.127594
O O16 0.500000 0.000000 0.500000
O O17 0.000000 0.000000 0.000000
#
# Coordination Sequence:
#
# PCOD9002285 Si02
#       8
#     2   2   2   2   2   2   2   2
#     4  11  27  39  66  91 137 189 221 282 320 395
#     4  10  22  43  69 100 137 173 223 267 338 401
#     4  10  21  36  59  89 130 176 228 274 322 364
#     4  10  22  36  62  89 129 180 216 277 321 380
#     4  12  25  49  70  98 136 181 225 271 353 405
#     4  12  27  49  77 107 135 167 214 281 346 422
#     4  10  21  41  70  96 133 184 220 270 327 403
#     4  11  23  40  57  97 136 177 243 271 321 371
#
# _framework density 25.09947
#
# number of rings (size 3 to 8) (size 9 to 14) (size 15 to 20)
#    0.000    1.250    1.250    3.750    3.500    8.000 
#    0.000    3.750    0.000    0.000    0.000    0.000 
#    0.000    0.000    0.000    0.000    0.000    0.000 
#
# Total GULP energy -89737.477111 kJ/mol
# GULP energy per Si atom -5608.592319 kJ/mol
# Density = 2.504234 g / cm^3
# Si number density = 25.099470 Si / 1000 Ang^3
#
#
#
# Elastic Constant Matrix: (Units=GPa)
#
#
# Indices 1 2 3 4 5 6 
#
# 1 73.5183 10.8454 -4.2102 3.0277 -14.3673 -9.1637
# 2 10.8454 64.3117 10.7842 -9.0860 -3.4028 5.2614
# 3 -4.2102 10.7842 93.2523 14.8267 -4.8843 -9.3448
# 4 3.0277 -9.0860 14.8267 33.1793 -0.3611 -2.8684
# 5 -14.3673 -3.4028 -4.8843 -0.3611 37.5178 -5.4497
# 6 -9.1637 5.2614 -9.3448 -2.8684 -5.4497 51.5770
#
#
#
# Elastic Compliance Matrix: (Units=1/GPa)
#
#
# Indices 1 2 3 4 5 6 
#
# 1 0.016252 -0.003572 0.002421 -0.003103 0.006801 0.004237
# 2 -0.003572 0.017882 -0.003585 0.006576 -0.000556 -0.002801
# 3 0.002421 -0.003585 0.012738 -0.006605 0.002635 0.003015
# 4 -0.003103 0.006576 -0.006605 0.035111 -0.001200 -0.000593
# 5 0.006801 -0.000556 0.002635 -0.001200 0.030247 0.004872
# 6 0.004237 -0.002801 0.003015 -0.000593 0.004872 0.021455
#
#
# Mechanical properties :
#
#
# Convention : Reuss Voigt Hill
#
# Bulk Modulus (GPa) = 26.73757 29.54679 28.14218
# Shear Modulus (GPa) = 32.12908 38.69902 35.41405
#
# Velocity S-wave (km/s) = 3.58169 3.93087 3.76033
# Velocity P-wave (km/s) = 5.27071 5.69208 5.48544
#
# Compressibility (1/GPa) = 0.03740056
#
# Stress axis : x y z
#
# Youngs Moduli (GPa) = 61.52910 55.92352 78.50683
#
# Poissons Ratio (x) = 0.19975 -0.19006
# Poissons Ratio (y) = 0.21977 0.28142
# Poissons Ratio (z) = -0.14896 0.20047
#
# Static dielectric constant tensor:
#      x y z
#    x 2.013400 0.014390 0.001680 
#    y 0.014390 2.045270 0.006130 
#    z 0.001680 0.006130 1.884880 
# 
# From -- ./inp_files/534220.got.cif
#   From: 2010.05.17/outbox.cif.g08.bks.cpg/sg2_268_cif.got.tgz:534220.got - 2010.06.03 11:33:40.
