data_PCOD9002496
_publ_section_title
;
Structure prediction by ZEFSAII (Michael W. Deem and Ramdas Pophale) SiO2 
 PCOD9002496
Probable space group: P -1
;
_chemical_formula_sum "Si O2"
_cell_formula_units_Z 14
_cell_length_a 6.624527
_cell_length_b 5.700200
_cell_length_c 22.800172
_cell_angle_alpha 78.931818
_cell_angle_beta 137.834642
_cell_angle_gamma 101.192797
_cell_volume 565.431857
_symmetry_space_group_name_H-M "P -1"
_symmetry_group_IT_number 2
_symmetry_cell_setting 'triclinic'
loop_
_space_group_symop_operation_xyz
x,y,z
-x,-y,-z
loop_
_atom_site_type_symbol
_atom_site_label
_atom_site_fract_x
_atom_site_fract_y
_atom_site_fract_z
Si Si1 0.769638 0.940132 0.797799
Si Si2 0.164766 0.565331 0.915183
Si Si3 0.163224 0.685851 0.472838
Si Si4 0.766466 0.163604 0.910167
Si Si5 0.291876 0.189428 0.503396
Si Si6 0.213670 0.577247 0.679756
Si Si7 0.863245 0.682320 0.201559
O O1 0.535524 0.721578 0.740889
O O2 0.084913 0.836268 0.889863
O O3 0.663368 0.058589 0.829077
O O4 0.860012 0.116705 0.755503
O O5 0.099417 0.484316 0.838357
O O6 0.951376 0.413282 0.921992
O O7 0.500000 0.500000 0.000000
O O8 0.252814 0.421144 0.525354
O O9 0.392799 0.759131 0.464580
O O10 0.850247 0.628296 0.373327
O O11 0.231927 0.909766 0.520287
O O12 0.462497 0.206580 0.877157
O O13 0.000000 0.000000 0.000000
O O14 0.032464 0.234868 0.397583
O O15 0.146946 0.463470 0.733877
#
# Coordination Sequence:
#
# PCOD9002496 Si02
#       7
#     2   2   2   2   2   2   2
#     4  11  25  39  60  91 121 159 213 263 316 386
#     4  11  24  41  59  86 119 160 214 258 314 390
#     4   8  16  31  57  92 122 168 208 251 316 389
#     4  11  24  41  62  86 119 163 209 264 328 380
#     4   8  16  31  58  90 125 165 211 248 319 387
#     4  10  21  36  61  88 125 165 204 266 321 372
#     4  11  25  39  60  91 121 160 212 261 322 379
#
# _framework density 24.759834999999999
#
# number of rings (size 3 to 8) (size 9 to 14) (size 15 to 20)
#    0.857    1.143    1.429    1.714    6.000    3.429 
#    0.000    0.000    0.000    3.429    0.000    8.000 
#    0.000    0.000    0.000    0.000    0.000    0.000 
#
# Total GULP energy -78232.650663 kJ/mol
# GULP energy per Si atom -5588.046476 kJ/mol
# Density = 2.470348 g / cm^3
# Si number density = 24.759835 Si / 1000 Ang^3
#
#
#
# Elastic Constant Matrix: (Units=GPa)
#
#
# Indices 1 2 3 4 5 6 
#
# 1 125.1864 42.8699 34.2203 8.5275 -11.3103 11.2938
# 2 42.8699 129.7083 9.1322 14.4242 -7.4698 16.9989
# 3 34.2203 9.1322 72.4566 3.8188 5.3330 17.0856
# 4 8.5275 14.4242 3.8188 35.4715 2.2804 4.9854
# 5 -11.3103 -7.4698 5.3330 2.2804 32.2225 -8.7032
# 6 11.2938 16.9989 17.0856 4.9854 -8.7032 47.6824
#
#
#
# Elastic Compliance Matrix: (Units=1/GPa)
#
#
# Indices 1 2 3 4 5 6 
#
# 1 0.010831 -0.002982 -0.005317 -0.001294 0.004446 0.001350
# 2 -0.002982 0.009307 0.000959 -0.002838 0.000458 -0.002575
# 3 -0.005317 0.000959 0.018274 0.000305 -0.006542 -0.006856
# 4 -0.001294 -0.002838 0.000305 0.030261 -0.004031 -0.002691
# 5 0.004446 0.000458 -0.006542 -0.004031 0.036276 0.008170
# 6 0.001350 -0.002575 -0.006856 -0.002691 0.008170 0.025800
#
#
# Mechanical properties :
#
#
# Convention : Reuss Voigt Hill
#
# Bulk Modulus (GPa) = 42.13934 55.53289 48.83612
# Shear Modulus (GPa) = 32.60728 39.15055 35.87891
#
# Velocity S-wave (km/s) = 3.63291 3.98076 3.81080
# Velocity P-wave (km/s) = 5.88673 6.60348 6.25538
#
# Compressibility (1/GPa) = 0.02373079
#
# Stress axis : x y z
#
# Youngs Moduli (GPa) = 92.32897 107.44311 54.72343
#
# Poissons Ratio (x) = 0.32043 0.29095
# Poissons Ratio (y) = 0.27535 -0.05245
# Poissons Ratio (z) = 0.49089 -0.10299
#
# Static dielectric constant tensor:
#      x y z
#    x 1.955360 -0.035220 0.035030 
#    y -0.035220 2.031410 -0.002880 
#    z 0.035030 -0.002880 1.958630 
# 
# From -- ./inp_files/12205.got.cif
#   From: 2010.05.17/outbox.cif.g08.bks.cpg/sg2_7_cif.got.tgz:12205.got - 2010.06.03 11:33:40.
