data_PCOD9002238
_publ_section_title
;
Structure prediction by ZEFSAII (Michael W. Deem and Ramdas Pophale) SiO2 
 PCOD9002238
Probable space group: P -1
;
_chemical_formula_sum "Si O2"
_cell_formula_units_Z 16
_cell_length_a 12.212157
_cell_length_b 13.421825
_cell_length_c 16.532823
_cell_angle_alpha 153.323357
_cell_angle_beta 135.028662
_cell_angle_gamma 54.879500
_cell_volume 845.930229
_symmetry_space_group_name_H-M "P -1"
_symmetry_group_IT_number 2
_symmetry_cell_setting 'triclinic'
loop_
_space_group_symop_operation_xyz
x,y,z
-x,-y,-z
loop_
_atom_site_type_symbol
_atom_site_label
_atom_site_fract_x
_atom_site_fract_y
_atom_site_fract_z
Si Si1 0.735728 0.171979 0.203757
Si Si2 0.408551 0.072872 0.886936
Si Si3 0.176923 0.132043 0.671454
Si Si4 0.102504 0.573762 0.982982
Si Si5 0.499806 0.660078 0.538397
Si Si6 0.841984 0.674192 0.657244
Si Si7 0.773496 0.316410 0.700909
Si Si8 0.988134 0.936972 0.078437
O O1 0.843583 0.413310 0.451370
O O2 0.680079 0.048302 0.169060
O O3 0.831791 0.013333 0.088404
O O4 0.574366 0.213823 0.106669
O O5 0.281275 0.164499 0.831568
O O6 0.465011 0.887285 0.724675
O O7 0.163208 0.385408 0.822423
O O8 0.243439 0.953042 0.519799
O O9 0.000000 0.000000 0.500000
O O10 0.936241 0.444250 0.838801
O O11 0.215123 0.639966 0.166516
O O12 0.069527 0.794873 0.081446
O O13 0.500000 0.500000 0.500000
O O14 0.664646 0.687620 0.599695
O O15 0.362127 0.588192 0.349005
O O16 0.944199 0.772582 0.859532
O O17 0.901766 0.837623 0.732960
#
# Coordination Sequence:
#
# PCOD9002238 Si02
#       8
#     2   2   2   2   2   2   2   2
#     4  11  23  37  62  90 122 152 194 251 302 350
#     4  10  22  35  60  96 120 147 193 252 304 350
#     4   9  20  35  53  86 124 150 188 239 299 350
#     4  10  21  36  59  84 119 155 195 241 287 359
#     4  11  19  37  62  90 121 150 194 251 305 344
#     4  11  24  41  61  85 120 162 196 249 295 356
#     4   9  21  33  57  89 117 150 190 248 299 346
#     4  11  25  41  59  87 119 163 206 234 295 362
#
# _framework density 18.914090000000002
#
# number of rings (size 3 to 8) (size 9 to 14) (size 15 to 20)
#    0.000    1.750    2.500    1.125   10.500    0.000 
#    0.000    0.625    0.000    1.500    0.000    0.000 
#    0.000    0.000    0.000    0.000    0.000    0.000 
#
# Total GULP energy -89242.142707 kJ/mol
# GULP energy per Si atom -5577.633919 kJ/mol
# Density = 1.887104 g / cm^3
# Si number density = 18.914090 Si / 1000 Ang^3
#
#
#
# Elastic Constant Matrix: (Units=GPa)
#
#
# Indices 1 2 3 4 5 6 
#
# 1 48.2586 33.5487 16.3516 2.9674 -2.6486 0.0830
# 2 33.5487 103.0127 41.7207 -4.0828 -1.4998 -7.6124
# 3 16.3516 41.7207 82.0719 4.8716 -4.2079 6.5423
# 4 2.9674 -4.0828 4.8716 28.9410 -8.3271 0.5129
# 5 -2.6486 -1.4998 -4.2079 -8.3271 20.9173 -2.0305
# 6 0.0830 -7.6124 6.5423 0.5129 -2.0305 20.0701
#
#
#
# Elastic Compliance Matrix: (Units=1/GPa)
#
#
# Indices 1 2 3 4 5 6 
#
# 1 0.027521 -0.009246 -0.000244 -0.003751 0.000954 -0.003349
# 2 -0.009246 0.016626 -0.007530 0.004767 0.001259 0.008805
# 3 -0.000244 -0.007530 0.016961 -0.003567 0.000622 -0.008230
# 4 -0.003751 0.004767 -0.003567 0.040659 0.015679 0.003534
# 5 0.000954 0.001259 0.000622 0.015679 0.054912 0.005426
# 6 -0.003349 0.008805 -0.008230 0.003534 0.005426 0.056320
#
#
# Mechanical properties :
#
#
# Convention : Reuss Voigt Hill
#
# Bulk Modulus (GPa) = 36.94549 46.28723 41.61636
# Shear Modulus (GPa) = 19.52644 23.43383 21.48014
#
# Velocity S-wave (km/s) = 3.21655 3.52371 3.37362
# Velocity P-wave (km/s) = 5.77673 6.40943 6.10129
#
# Compressibility (1/GPa) = 0.02706691
#
# Stress axis : x y z
#
# Youngs Moduli (GPa) = 36.33574 60.14513 58.95996
#
# Poissons Ratio (x) = 0.55611 0.01441
# Poissons Ratio (y) = 0.33597 0.44397
# Poissons Ratio (z) = 0.00888 0.45290
#
# Static dielectric constant tensor:
#      x y z
#    x 1.634700 -0.029590 -0.021680 
#    y -0.029590 1.675680 0.000170 
#    z -0.021680 0.000170 1.712850 
# 
# From -- ./inp_files/425317.got.cif
#   From: 2010.05.17/outbox.cif.g08.bks.cpg/sg2_213_cif.got.tgz:425317.got - 2010.06.03 11:33:40.
