data_PCOD9002634
_publ_section_title
;
Structure prediction by ZEFSAII (Michael W. Deem and Ramdas Pophale) SiO2 
 PCOD9002634
Probable space group: P -1
;
_chemical_formula_sum "Si O2"
_cell_formula_units_Z 14
_cell_length_a 8.667378
_cell_length_b 8.397475
_cell_length_c 11.114941
_cell_angle_alpha 88.750642
_cell_angle_beta 66.462954
_cell_angle_gamma 127.894987
_cell_volume 543.948168
_symmetry_space_group_name_H-M "P -1"
_symmetry_group_IT_number 2
_symmetry_cell_setting 'triclinic'
loop_
_space_group_symop_operation_xyz
x,y,z
-x,-y,-z
loop_
_atom_site_type_symbol
_atom_site_label
_atom_site_fract_x
_atom_site_fract_y
_atom_site_fract_z
Si Si1 0.933905 0.902659 0.177582
Si Si2 0.325522 0.270171 0.491302
Si Si3 0.654475 0.174745 0.635409
Si Si4 0.886156 0.635029 0.634967
Si Si5 0.872836 0.193601 0.207729
Si Si6 0.400891 0.074157 0.112906
Si Si7 0.701179 0.416485 0.196836
O O1 0.837021 0.880246 0.344748
O O2 0.806064 0.658927 0.179262
O O3 0.196352 0.029206 0.112274
O O4 0.900991 0.052072 0.120328
O O5 0.500000 0.500000 0.500000
O O6 0.178640 0.260885 0.432652
O O7 0.500940 0.270522 0.364129
O O8 0.699187 0.381575 0.666149
O O9 0.686829 0.079035 0.740186
O O10 0.862419 0.270716 0.480085
O O11 0.397490 0.998211 0.669138
O O12 0.920789 0.683926 0.763489
O O13 0.870332 0.374275 0.159016
O O14 0.582100 0.314610 0.107243
O O15 0.500000 0.000000 0.000000
#
# Coordination Sequence:
#
# PCOD9002634 Si02
#       7
#     2   2   2   2   2   2   2
#     4  11  23  41  64  95 133 173 213 270 331 391
#     4  10  21  36  62  96 134 168 207 260 332 401
#     4  10  22  38  59  95 128 167 216 270 321 387
#     4  11  21  36  62  94 135 168 202 271 334 388
#     4  11  24  36  65  98 133 170 214 260 339 403
#     4  11  24  44  67  91 127 181 231 264 317 391
#     4  10  24  42  63  97 136 167 216 275 326 391
#
# _framework density 25.737746000000001
#
# number of rings (size 3 to 8) (size 9 to 14) (size 15 to 20)
#    0.000    1.429    1.429    3.857   12.000    1.714 
#    0.000    2.857    0.000   14.571    0.000    0.000 
#    0.000    0.000    0.000    0.000    0.000    0.000 
#
# Total GULP energy -78317.927771 kJ/mol
# GULP energy per Si atom -5594.137698 kJ/mol
# Density = 2.567917 g / cm^3
# Si number density = 25.737746 Si / 1000 Ang^3
#
#
#
# Elastic Constant Matrix: (Units=GPa)
#
#
# Indices 1 2 3 4 5 6 
#
# 1 151.6031 53.4708 42.6681 25.5764 -14.7933 -7.4825
# 2 53.4708 113.3407 61.3968 38.9696 -5.4133 -18.6077
# 3 42.6681 61.3968 82.8478 18.3868 -6.1021 -0.3416
# 4 25.5764 38.9696 18.3868 42.7707 -7.0540 -3.3542
# 5 -14.7933 -5.4133 -6.1021 -7.0540 45.6998 11.3060
# 6 -7.4825 -18.6077 -0.3416 -3.3542 11.3060 47.8259
#
#
#
# Elastic Compliance Matrix: (Units=1/GPa)
#
#
# Indices 1 2 3 4 5 6 
#
# 1 0.008459 -0.001988 -0.002312 -0.001943 0.001908 -0.000054
# 2 -0.001988 0.022838 -0.013049 -0.013996 -0.003926 0.008428
# 3 -0.002312 -0.013049 0.022285 0.003685 0.002647 -0.005647
# 4 -0.001943 -0.013996 0.003685 0.036172 0.004861 -0.004336
# 5 0.001908 -0.003926 0.002647 0.004861 0.024804 -0.006733
# 6 -0.000054 0.008428 -0.005647 -0.004336 -0.006733 0.025427
#
#
# Mechanical properties :
#
#
# Convention : Reuss Voigt Hill
#
# Bulk Modulus (GPa) = 52.95383 73.65145 63.30264
# Shear Modulus (GPa) = 27.62758 39.94302 33.78530
#
# Velocity S-wave (km/s) = 3.27987 3.94372 3.62702
# Velocity P-wave (km/s) = 5.91291 7.02962 6.49530
#
# Compressibility (1/GPa) = 0.01888437
#
# Stress axis : x y z
#
# Youngs Moduli (GPa) = 118.21260 43.78643 44.87307
#
# Poissons Ratio (x) = 0.08706 0.10373
# Poissons Ratio (y) = 0.23505 0.58555
# Poissons Ratio (z) = 0.27328 0.57137
#
# Static dielectric constant tensor:
#      x y z
#    x 1.992840 -0.092830 0.048810 
#    y -0.092830 2.071210 -0.055540 
#    z 0.048810 -0.055540 2.141380 
# 
# From -- ./inp_files/226546.got.cif
#   From: 2010.05.17/outbox.cif.g08.bks.cpg/sg2_114_cif.got.tgz:226546.got - 2010.06.03 11:33:40.
