data_PCOD9002558
_publ_section_title
;
Structure prediction by ZEFSAII (Michael W. Deem and Ramdas Pophale) SiO2 
 PCOD9002558
Probable space group: P -1
;
_chemical_formula_sum "Si O2"
_cell_formula_units_Z 16
_cell_length_a 10.837797
_cell_length_b 15.814134
_cell_length_c 9.705402
_cell_angle_alpha 141.998949
_cell_angle_beta 128.474139
_cell_angle_gamma 72.935488
_cell_volume 731.889722
_symmetry_space_group_name_H-M "P -1"
_symmetry_group_IT_number 2
_symmetry_cell_setting 'triclinic'
loop_
_space_group_symop_operation_xyz
x,y,z
-x,-y,-z
loop_
_atom_site_type_symbol
_atom_site_label
_atom_site_fract_x
_atom_site_fract_y
_atom_site_fract_z
Si Si1 0.295685 0.358068 0.024936
Si Si2 0.691931 0.576871 0.562170
Si Si3 0.956015 0.339476 0.702331
Si Si4 0.629793 0.908302 0.349633
Si Si5 0.228727 0.695741 0.753862
Si Si6 0.834138 0.036795 0.924926
Si Si7 0.639767 0.870016 0.842442
Si Si8 0.298601 0.884434 0.570119
O O1 0.487759 0.473271 0.266053
O O2 0.272425 0.403085 0.222795
O O3 0.290951 0.192865 0.804313
O O4 0.143067 0.348015 0.803767
O O5 0.786190 0.471956 0.435942
O O6 0.712440 0.741111 0.735671
O O7 0.818701 0.310057 0.448283
O O8 0.879385 0.222717 0.623316
O O9 0.000000 0.500000 0.000000
O O10 0.700092 0.936335 0.588449
O O11 0.692285 0.066137 0.517007
O O12 0.424769 0.812985 0.071983
O O13 0.121389 0.788147 0.854496
O O14 0.742086 0.988681 0.947621
O O15 0.000000 0.000000 0.000000
O O16 0.436332 0.810699 0.590884
O O17 0.649994 0.962630 0.108393
#
# Coordination Sequence:
#
# PCOD9002558 Si02
#       8
#     2   2   2   2   2   2   2   2
#     4  10  21  36  62 100 137 169 216 271 341 392
#     4  10  21  39  67  94 136 177 215 278 333 398
#     4  12  22  36  62 101 138 167 215 282 340 378
#     4  11  23  42  70  97 131 181 223 269 334 406
#     4  11  22  43  66  94 134 180 221 265 337 403
#     4  12  26  45  70  96 138 178 223 276 333 402
#     4  11  22  42  68 102 130 171 232 276 330 394
#     4  11  22  37  70 102 132 168 227 288 322 393
#
# _framework density 21.861218000000001
#
# number of rings (size 3 to 8) (size 9 to 14) (size 15 to 20)
#    0.000    1.000    5.000    2.625    1.750    1.500 
#    0.000    3.125    2.750    0.000    0.000    0.000 
#    0.000    0.000    0.000    0.000    0.000    0.000 
#
# Total GULP energy -89239.637498 kJ/mol
# GULP energy per Si atom -5577.477344 kJ/mol
# Density = 2.181146 g / cm^3
# Si number density = 21.861218 Si / 1000 Ang^3
#
#
#
# Elastic Constant Matrix: (Units=GPa)
#
#
# Indices 1 2 3 4 5 6 
#
# 1 40.0525 19.6537 17.3340 -9.6773 -6.6256 -28.6567
# 2 19.6537 119.2720 48.8586 7.8594 -5.2190 -31.0022
# 3 17.3340 48.8586 58.0647 6.3109 -8.8683 -17.4797
# 4 -9.6773 7.8594 6.3109 39.8194 -6.9249 -9.1020
# 5 -6.6256 -5.2190 -8.8683 -6.9249 21.0266 3.9168
# 6 -28.6567 -31.0022 -17.4797 -9.1020 3.9168 41.0543
#
#
#
# Elastic Compliance Matrix: (Units=1/GPa)
#
#
# Indices 1 2 3 4 5 6 
#
# 1 0.095793 0.006955 -0.012867 0.045714 0.027732 0.074129
# 2 0.006955 0.014722 -0.011238 0.003284 -0.000032 0.011919
# 3 -0.012867 -0.011238 0.029982 -0.006302 0.004950 -0.006572
# 4 0.045714 0.003284 -0.006302 0.049576 0.021315 0.040664
# 5 0.027732 -0.000032 0.004950 0.021315 0.061618 0.020287
# 6 0.074129 0.011919 -0.006572 0.040664 0.020287 0.089384
#
#
# Mechanical properties :
#
#
# Convention : Reuss Voigt Hill
#
# Bulk Modulus (GPa) = 9.41642 43.23131 26.32387
# Shear Modulus (GPa) = 12.17218 29.14958 20.66088
#
# Velocity S-wave (km/s) = 2.36221 3.65553 3.07757
# Velocity P-wave (km/s) = 3.42881 6.13477 4.96952
#
# Compressibility (1/GPa) = 0.10619748
#
# Stress axis : x y z
#
# Youngs Moduli (GPa) = 10.43918 67.92659 33.35304
#
# Poissons Ratio (x) = -0.47245 0.42916
# Poissons Ratio (y) = -0.07261 0.37482
# Poissons Ratio (z) = 0.13432 0.76336
#
# Static dielectric constant tensor:
#      x y z
#    x 1.822800 -0.009410 -0.002340 
#    y -0.009410 1.746360 0.024160 
#    z -0.002340 0.024160 1.797270 
# 
# From -- ./inp_files/256975.got.cif
#   From: 2010.05.17/outbox.cif.g08.bks.cpg/sg2_129_cif.got.tgz:256975.got - 2010.06.03 11:33:40.
