data_PCOD9002223
_publ_section_title
;
Structure prediction by ZEFSAII (Michael W. Deem and Ramdas Pophale) SiO2 
 PCOD9002223
Probable space group: P -1
;
_chemical_formula_sum "Si O2"
_cell_formula_units_Z 16
_cell_length_a 14.165227
_cell_length_b 8.097718
_cell_length_c 13.939960
_cell_angle_alpha 42.045039
_cell_angle_beta 41.600401
_cell_angle_gamma 33.677527
_cell_volume 556.361161
_symmetry_space_group_name_H-M "P -1"
_symmetry_group_IT_number 2
_symmetry_cell_setting 'triclinic'
loop_
_space_group_symop_operation_xyz
x,y,z
-x,-y,-z
loop_
_atom_site_type_symbol
_atom_site_label
_atom_site_fract_x
_atom_site_fract_y
_atom_site_fract_z
Si Si1 0.589829 0.211507 0.980220
Si Si2 0.568769 0.663098 0.671443
Si Si3 0.585770 0.391241 0.363024
Si Si4 0.796571 0.475476 0.930875
Si Si5 0.938802 0.848219 0.414557
Si Si6 0.918152 0.438549 0.386592
Si Si7 0.658228 0.699118 0.314125
Si Si8 0.060959 0.109336 0.048378
O O1 0.658717 0.326737 0.796446
O O2 0.417061 0.252835 0.047863
O O3 0.772051 0.910854 0.024827
O O4 0.500000 0.500000 0.000000
O O5 0.417509 0.691984 0.707787
O O6 0.720071 0.653313 0.500612
O O7 0.472174 0.943695 0.701121
O O8 0.877948 0.401617 0.008871
O O9 0.613948 0.638669 0.269107
O O10 0.397644 0.486925 0.501715
O O11 0.730412 0.076960 0.447077
O O12 0.841312 0.155777 0.994257
O O13 0.985165 0.856619 0.486385
O O14 0.008114 0.975658 0.230436
O O15 0.000000 0.500000 0.500000
O O16 0.072390 0.485297 0.246675
O O17 0.856818 0.517255 0.287684
#
# Coordination Sequence:
#
# PCOD9002223 Si02
#       8
#     2   2   2   2   2   2   2   2
#     4  10  22  37  61 102 140 179 229 286 345 416
#     4  11  21  42  71  98 133 178 232 282 338 412
#     4  10  23  39  62  98 139 174 220 284 349 409
#     4  10  22  37  57  96 144 175 223 284 345 415
#     4  12  20  35  63  99 129 169 228 285 336 402
#     4  11  22  37  64  99 132 170 230 287 336 405
#     4  10  23  40  60  97 137 179 217 279 352 410
#     4  10  21  36  58  94 139 177 224 279 347 413
#
# _framework density 28.758296000000001
#
# number of rings (size 3 to 8) (size 9 to 14) (size 15 to 20)
#    0.000    1.500    2.500    3.750    5.250    0.500 
#    2.250    0.000    0.000    3.750    0.000    0.000 
#    0.000    1.000    0.000    0.000    0.000    0.000 
#
# Total GULP energy -89263.045097 kJ/mol
# GULP energy per Si atom -5578.940319 kJ/mol
# Density = 2.869284 g / cm^3
# Si number density = 28.758296 Si / 1000 Ang^3
#
#
#
# Elastic Constant Matrix: (Units=GPa)
#
#
# Indices 1 2 3 4 5 6 
#
# 1 260.9079 91.9693 64.9704 -2.3469 -3.3448 -37.6138
# 2 91.9693 97.2995 23.2300 -5.9150 14.6838 -19.0605
# 3 64.9704 23.2300 126.1113 5.1951 -9.6049 -16.3822
# 4 -2.3469 -5.9150 5.1951 30.4857 -12.9473 18.8578
# 5 -3.3448 14.6838 -9.6049 -12.9473 63.8672 -13.5483
# 6 -37.6138 -19.0605 -16.3822 18.8578 -13.5483 51.5710
#
#
#
# Elastic Compliance Matrix: (Units=1/GPa)
#
#
# Indices 1 2 3 4 5 6 
#
# 1 0.006773 -0.005685 -0.001814 -0.001560 0.001772 0.003298
# 2 -0.005685 0.016471 -0.000372 0.000881 -0.003858 0.000487
# 3 -0.001814 -0.000372 0.009578 -0.003156 0.001453 0.003117
# 4 -0.001560 0.000881 -0.003156 0.046269 0.004921 -0.017441
# 5 0.001772 -0.003858 0.001453 0.004921 0.018577 0.003409
# 6 0.003298 0.000487 0.003117 -0.017441 0.003409 0.030240
#
#
# Mechanical properties :
#
#
# Convention : Reuss Voigt Hill
#
# Bulk Modulus (GPa) = 58.54955 93.85089 76.20022
# Shear Modulus (GPa) = 33.48003 49.46139 41.47071
#
# Velocity S-wave (km/s) = 3.41572 4.15167 3.80154
# Velocity P-wave (km/s) = 5.99663 7.46237 6.76929
#
# Compressibility (1/GPa) = 0.01707955
#
# Stress axis : x y z
#
# Youngs Moduli (GPa) = 147.65552 60.71327 104.40211
#
# Poissons Ratio (x) = 0.34513 0.18942
# Poissons Ratio (y) = 0.83935 0.03887
# Poissons Ratio (z) = 0.26789 0.02260
#
# Static dielectric constant tensor:
#      x y z
#    x 2.380120 0.018900 -0.098440 
#    y 0.018900 2.248910 -0.011650 
#    z -0.098440 -0.011650 2.650400 
# 
# From -- ./inp_files/528274.got.cif
#   From: 2010.05.17/outbox.cif.g08.bks.cpg/sg2_265_cif.got.tgz:528274.got - 2010.06.03 11:33:40.
