data_PCOD9002684
_publ_section_title
;
Structure prediction by ZEFSAII (Michael W. Deem and Ramdas Pophale) SiO2 
 PCOD9002684
Probable space group: P -1
;
_chemical_formula_sum "Si O2"
_cell_formula_units_Z 14
_cell_length_a 15.669836
_cell_length_b 16.426004
_cell_length_c 16.946083
_cell_angle_alpha 16.972275
_cell_angle_beta 139.989137
_cell_angle_gamma 148.053001
_cell_volume 643.612119
_symmetry_space_group_name_H-M "P -1"
_symmetry_group_IT_number 2
_symmetry_cell_setting 'triclinic'
loop_
_space_group_symop_operation_xyz
x,y,z
-x,-y,-z
loop_
_atom_site_type_symbol
_atom_site_label
_atom_site_fract_x
_atom_site_fract_y
_atom_site_fract_z
Si Si1 0.136780 0.037576 0.121425
Si Si2 0.443939 0.416693 0.401146
Si Si3 0.403354 0.004704 0.248107
Si Si4 0.104630 0.564663 0.675355
Si Si5 0.758754 0.182945 0.851237
Si Si6 0.650618 0.381636 0.718135
Si Si7 0.378824 0.204509 0.380669
O O1 0.277419 0.043259 0.169864
O O2 0.069950 0.723608 0.428616
O O3 0.199274 0.400685 0.872309
O O4 0.000000 0.000000 0.000000
O O5 0.553029 0.400590 0.559263
O O6 0.305861 0.383538 0.391462
O O7 0.362352 0.166642 0.499389
O O8 0.592726 0.795241 0.116880
O O9 0.305757 0.760467 0.328093
O O10 0.475146 0.830279 0.505088
O O11 0.558096 0.407033 0.959279
O O12 0.927942 0.249005 0.883413
O O13 0.214165 0.892240 0.508360
O O14 0.793361 0.406210 0.747791
O O15 0.500000 0.000000 0.000000
#
# Coordination Sequence:
#
# PCOD9002684 Si02
#       7
#     2   2   2   2   2   2   2
#     4  12  26  43  65  94 123 165 218 267 302 366
#     4   9  19  36  63  91 123 158 209 256 300 373
#     4  11  23  41  67  85 124 170 214 252 312 368
#     4  12  27  41  64  94 132 162 208 263 322 365
#     4  10  21  36  63  92 119 166 206 259 307 369
#     4   9  17  34  62  94 116 157 215 251 296 366
#     4  11  24  42  62  96 127 167 203 260 318 372
#
# _framework density 21.752230999999998
#
# number of rings (size 3 to 8) (size 9 to 14) (size 15 to 20)
#    0.000    1.429    2.857    2.143    4.000    3.429 
#    0.000    0.714    0.000    7.714    0.000    0.000 
#    0.000    0.000    0.000    0.000    0.000    0.000 
#
# Total GULP energy -77986.746271 kJ/mol
# GULP energy per Si atom -5570.481877 kJ/mol
# Density = 2.170272 g / cm^3
# Si number density = 21.752231 Si / 1000 Ang^3
#
#
#
# Elastic Constant Matrix: (Units=GPa)
#
#
# Indices 1 2 3 4 5 6 
#
# 1 133.4199 29.4295 20.7963 -0.4087 1.8649 -27.1514
# 2 29.4295 63.8558 3.1857 -3.6780 -5.0820 -19.7402
# 3 20.7963 3.1857 68.8485 11.2149 2.9875 -8.5111
# 4 -0.4087 -3.6780 11.2149 27.7342 -3.5055 7.5995
# 5 1.8649 -5.0820 2.9875 -3.5055 28.8392 -0.2205
# 6 -27.1514 -19.7402 -8.5111 7.5995 -0.2205 25.2573
#
#
#
# Elastic Compliance Matrix: (Units=1/GPa)
#
#
# Indices 1 2 3 4 5 6 
#
# 1 0.010076 -0.001808 -0.001342 -0.002326 -0.001040 0.009657
# 2 -0.001808 0.021553 0.001660 -0.001769 0.003651 0.016025
# 3 -0.001342 0.001660 0.017599 -0.009609 -0.002546 0.008654
# 4 -0.002326 -0.001769 -0.009609 0.046215 0.006291 -0.020972
# 5 -0.001040 0.003651 -0.002546 0.006291 0.036409 -0.000698
# 6 0.009657 0.016025 0.008654 -0.020972 -0.000698 0.071718
#
#
# Mechanical properties :
#
#
# Convention : Reuss Voigt Hill
#
# Bulk Modulus (GPa) = 21.62312 41.43858 31.53085
# Shear Modulus (GPa) = 22.52597 30.54700 26.53648
#
# Velocity S-wave (km/s) = 3.22152 3.75149 3.49656
# Velocity P-wave (km/s) = 4.87850 6.15276 5.55231
#
# Compressibility (1/GPa) = 0.04624679
#
# Stress axis : x y z
#
# Youngs Moduli (GPa) = 99.24818 46.39645 56.82229
#
# Poissons Ratio (x) = 0.08389 0.07625
# Poissons Ratio (y) = 0.17946 -0.09431
# Poissons Ratio (z) = 0.13319 -0.07700
#
# Static dielectric constant tensor:
#      x y z
#    x 1.774790 0.051990 0.205660 
#    y 0.051990 1.761480 -0.081260 
#    z 0.205660 -0.081260 1.747340 
# 
# From -- ./inp_files/45942.got.cif
#   From: 2010.05.17/outbox.cif.g08.bks.cpg/sg2_23_cif.got.tgz:45942.got - 2010.06.03 11:33:40.
