data_PCOD9002237
_publ_section_title
;
Structure prediction by ZEFSAII (Michael W. Deem and Ramdas Pophale) SiO2 
 PCOD9002237
Probable space group: P -1
;
_chemical_formula_sum "Si O2"
_cell_formula_units_Z 16
_cell_length_a 7.152366
_cell_length_b 5.499019
_cell_length_c 21.106933
_cell_angle_alpha 86.874229
_cell_angle_beta 60.554873
_cell_angle_gamma 95.459697
_cell_volume 714.712709
_symmetry_space_group_name_H-M "P -1"
_symmetry_group_IT_number 2
_symmetry_cell_setting 'triclinic'
loop_
_space_group_symop_operation_xyz
x,y,z
-x,-y,-z
loop_
_atom_site_type_symbol
_atom_site_label
_atom_site_fract_x
_atom_site_fract_y
_atom_site_fract_z
Si Si1 0.413394 0.725321 0.093395
Si Si2 0.566521 0.735957 0.315809
Si Si3 0.748736 0.446337 0.528943
Si Si4 0.751850 0.168070 0.183240
Si Si5 0.610494 0.530157 0.773043
Si Si6 0.417907 0.788754 0.564616
Si Si7 0.889117 0.386923 0.285619
Si Si8 0.781429 0.802536 0.930901
O O1 0.437866 0.688204 0.164695
O O2 0.298390 0.460153 0.087818
O O3 0.286281 0.956962 0.097083
O O4 0.643816 0.781368 0.018823
O O5 0.386898 0.759791 0.399791
O O6 0.440711 0.537677 0.290195
O O7 0.769226 0.624827 0.315101
O O8 0.657999 0.943189 0.247282
O O9 0.622224 0.676910 0.559262
O O10 0.717085 0.398129 0.460070
O O11 0.000000 0.500000 0.500000
O O12 0.551012 0.276362 0.184405
O O13 0.862345 0.357053 0.215691
O O14 0.958157 0.143838 0.105683
O O15 0.865522 0.611966 0.736120
O O16 0.257787 0.826447 0.647586
O O17 0.500000 0.000000 0.500000
#
# Coordination Sequence:
#
# PCOD9002237 Si02
#       8
#     2   2   2   2   2   2   2   2
#     4  10  22  42  68  95 127 172 214 256 320 382
#     4  10  23  38  57  87 123 158 206 261 317 377
#     4  10  21  38  57  84 119 158 202 259 312 372
#     4  11  23  37  61  90 122 161 207 262 315 373
#     4  11  23  37  61  91 119 163 210 256 314 381
#     4  10  21  36  59  84 113 157 205 251 313 374
#     4  10  21  40  57  83 122 158 202 258 315 378
#     4  10  22  42  68  94 129 171 211 262 318 377
#
# _framework density 22.386614999999999
#
# number of rings (size 3 to 8) (size 9 to 14) (size 15 to 20)
#    0.000    1.750    1.250    2.250    3.500    3.000 
#    0.000    0.625    0.000    0.000    0.000    0.000 
#    0.000    0.000    0.000    0.000    0.000    0.000 
#
# Total GULP energy -89239.804139 kJ/mol
# GULP energy per Si atom -5577.487759 kJ/mol
# Density = 2.233566 g / cm^3
# Si number density = 22.386615 Si / 1000 Ang^3
#
#
#
# Elastic Constant Matrix: (Units=GPa)
#
#
# Indices 1 2 3 4 5 6 
#
# 1 148.9300 30.5077 58.2596 -4.5314 -42.0977 -26.4041
# 2 30.5077 75.8462 16.7185 -17.4635 -14.1992 -17.3325
# 3 58.2596 16.7185 132.3585 -25.0217 -28.0676 -17.0087
# 4 -4.5314 -17.4635 -25.0217 34.1758 -0.9421 11.3299
# 5 -42.0977 -14.1992 -28.0676 -0.9421 48.4120 9.2057
# 6 -26.4041 -17.3325 -17.0087 11.3299 9.2057 18.0414
#
#
#
# Elastic Compliance Matrix: (Units=1/GPa)
#
#
# Indices 1 2 3 4 5 6 
#
# 1 0.012221 -0.001237 -0.003362 -0.006181 0.005409 0.014649
# 2 -0.001237 0.018003 0.001627 0.006567 0.003127 0.011299
# 3 -0.003362 0.001627 0.011413 0.009047 0.004451 -0.000550
# 4 -0.006181 0.006567 0.009047 0.048127 0.008172 -0.028601
# 5 0.005409 0.003127 0.004451 0.008172 0.030032 -0.005338
# 6 0.014649 0.011299 -0.000550 -0.028601 -0.005338 0.107890
#
#
# Mechanical properties :
#
#
# Convention : Reuss Voigt Hill
#
# Bulk Modulus (GPa) = 28.01655 63.12291 45.56973
# Shear Modulus (GPa) = 20.36420 36.90244 28.63332
#
# Velocity S-wave (km/s) = 3.01933 4.06447 3.58024
# Velocity P-wave (km/s) = 4.96962 7.09116 6.12298
#
# Compressibility (1/GPa) = 0.03569319
#
# Stress axis : x y z
#
# Youngs Moduli (GPa) = 81.82338 55.54567 87.61924
#
# Poissons Ratio (x) = 0.06874 0.29457
# Poissons Ratio (y) = 0.10126 -0.14258
# Poissons Ratio (z) = 0.27509 -0.09039
#
# Static dielectric constant tensor:
#      x y z
#    x 1.798400 0.061670 0.001250 
#    y 0.061670 2.011200 0.021250 
#    z 0.001250 0.021250 1.855260 
# 
# From -- ./inp_files/11036.got.cif
#   From: 2010.05.17/outbox.cif.g08.bks.cpg/sg2_6_cif.got.tgz:11036.got - 2010.06.03 11:33:40.
