data_PCOD9002881
_publ_section_title
;
Structure prediction by ZEFSAII (Michael W. Deem and Ramdas Pophale) SiO2 
 PCOD9002881
Probable space group: P -1
;
_chemical_formula_sum "Si O2"
_cell_formula_units_Z 14
_cell_length_a 9.319758
_cell_length_b 12.747017
_cell_length_c 8.071230
_cell_angle_alpha 50.828017
_cell_angle_beta 80.666355
_cell_angle_gamma 69.040680
_cell_volume 691.473694
_symmetry_space_group_name_H-M "P -1"
_symmetry_group_IT_number 2
_symmetry_cell_setting 'triclinic'
loop_
_space_group_symop_operation_xyz
x,y,z
-x,-y,-z
loop_
_atom_site_type_symbol
_atom_site_label
_atom_site_fract_x
_atom_site_fract_y
_atom_site_fract_z
Si Si1 0.415336 0.935402 0.220259
Si Si2 0.463438 0.357553 0.681026
Si Si3 0.095925 0.592777 0.969126
Si Si4 0.596777 0.581717 0.000472
Si Si5 0.881327 0.919341 0.660295
Si Si6 0.317203 0.174438 0.465035
Si Si7 0.159926 0.426074 0.456727
O O1 0.429422 0.779371 0.301744
O O2 0.530613 0.915133 0.375266
O O3 0.239785 0.017796 0.228560
O O4 0.500000 0.000000 0.000000
O O5 0.500000 0.500000 0.500000
O O6 0.471481 0.341877 0.892170
O O7 0.293970 0.390792 0.602475
O O8 0.244881 0.550213 0.865671
O O9 0.988783 0.755909 0.837003
O O10 0.161651 0.533321 0.197894
O O11 0.000000 0.500000 0.000000
O O12 0.500000 0.500000 0.000000
O O13 0.635016 0.706686 0.767355
O O14 0.765415 0.912990 0.540269
O O15 0.000000 0.000000 0.500000
O O16 0.188643 0.272786 0.517523
O O17 0.000000 0.500000 0.500000
#
# Coordination Sequence:
#
# PCOD9002881 Si02
#       7
#     2   2   2   2   2   2   2
#     4  11  26  47  69  97 139 182 225 280 351 405
#     4  11  24  41  67  98 130 171 224 286 333 399
#     4  11  22  42  68  96 132 184 230 278 336 404
#     4  11  22  41  75  99 129 174 240 281 334 409
#     4  12  27  44  68 102 142 182 228 281 339 411
#     4  10  23  44  66  96 131 192 226 276 336 419
#     4  10  21  36  67  96 128 165 228 283 335 382
#
# _framework density 20.246614000000001
#
# number of rings (size 3 to 8) (size 9 to 14) (size 15 to 20)
#    0.000    1.143    2.857    4.714    8.000    0.000 
#    2.571    0.714    0.000    0.000    0.000    0.000 
#    0.000    0.000    0.000    0.000    0.000    0.000 
#
# Total GULP energy -78099.025348 kJ/mol
# GULP energy per Si atom -5578.501811 kJ/mol
# Density = 2.020053 g / cm^3
# Si number density = 20.246614 Si / 1000 Ang^3
#
#
#
# Elastic Constant Matrix: (Units=GPa)
#
#
# Indices 1 2 3 4 5 6 
#
# 1 103.9139 74.2607 27.6188 -7.1923 -11.0365 0.0500
# 2 74.2607 118.5596 25.2891 -8.9612 -9.4963 -2.2252
# 3 27.6188 25.2891 78.5226 -5.1057 -7.3378 4.1845
# 4 -7.1923 -8.9612 -5.1057 34.6761 0.3443 9.0594
# 5 -11.0365 -9.4963 -7.3378 0.3443 34.0213 -1.3604
# 6 0.0500 -2.2252 4.1845 9.0594 -1.3604 47.3743
#
#
#
# Elastic Compliance Matrix: (Units=1/GPa)
#
#
# Indices 1 2 3 4 5 6 
#
# 1 0.018214 -0.010595 -0.002710 0.000708 0.002346 -0.000345
# 2 -0.010595 0.015488 -0.001135 0.001481 0.000649 0.000574
# 3 -0.002710 -0.001135 0.014418 0.001665 0.001833 -0.001590
# 4 0.000708 0.001481 0.001665 0.031184 0.000445 -0.006029
# 5 0.002346 0.000649 0.001833 0.000445 0.030753 0.000664
# 6 -0.000345 0.000574 -0.001590 -0.006029 0.000664 0.022448
#
#
# Mechanical properties :
#
#
# Convention : Reuss Voigt Hill
#
# Bulk Modulus (GPa) = 51.97890 61.70370 56.84130
# Shear Modulus (GPa) = 29.79756 34.80284 32.30020
#
# Velocity S-wave (km/s) = 3.84048 4.15052 3.99850
# Velocity P-wave (km/s) = 6.73753 7.31514 7.03227
#
# Compressibility (1/GPa) = 0.01923857
#
# Stress axis : x y z
#
# Youngs Moduli (GPa) = 54.90334 64.56656 69.35623
#
# Poissons Ratio (x) = 0.68411 0.18798
# Poissons Ratio (y) = 0.58172 0.07872
# Poissons Ratio (z) = 0.14881 0.07328
#
# Static dielectric constant tensor:
#      x y z
#    x 1.752040 -0.016850 -0.013160 
#    y -0.016850 1.745690 0.013160 
#    z -0.013160 0.013160 1.738910 
# 
# From -- ./inp_files/174121.got.cif
#   From: 2010.05.17/outbox.cif.g08.bks.cpg/sg2_88_cif.got.tgz:174121.got - 2010.06.03 11:33:40.
