data_PCOD9002555
_publ_section_title
;
Structure prediction by ZEFSAII (Michael W. Deem and Ramdas Pophale) SiO2 
 PCOD9002555
Probable space group: P -1
;
_chemical_formula_sum "Si O2"
_cell_formula_units_Z 16
_cell_length_a 14.473626
_cell_length_b 10.113151
_cell_length_c 18.403831
_cell_angle_alpha 33.092049
_cell_angle_beta 28.025037
_cell_angle_gamma 39.294783
_cell_volume 684.845835
_symmetry_space_group_name_H-M "P -1"
_symmetry_group_IT_number 2
_symmetry_cell_setting 'triclinic'
loop_
_space_group_symop_operation_xyz
x,y,z
-x,-y,-z
loop_
_atom_site_type_symbol
_atom_site_label
_atom_site_fract_x
_atom_site_fract_y
_atom_site_fract_z
Si Si1 0.172146 0.304312 0.438145
Si Si2 0.181219 0.204057 0.959205
Si Si3 0.384086 0.617687 0.438522
Si Si4 0.411267 0.862379 0.451644
Si Si5 0.887091 0.621382 0.912362
Si Si6 0.128983 0.873380 0.371625
Si Si7 0.469880 0.652707 0.126010
Si Si8 0.441928 0.780338 0.933707
O O1 0.358802 0.441617 0.265749
O O2 0.000000 0.500000 0.500000
O O3 0.067276 0.244879 0.461772
O O4 0.248276 0.024439 0.538943
O O5 0.399934 0.293575 0.765764
O O6 0.037016 0.372378 0.927977
O O7 0.219471 0.918121 0.041453
O O8 0.105985 0.256116 0.069071
O O9 0.332904 0.688814 0.524828
O O10 0.424470 0.324313 0.536147
O O11 0.222226 0.753239 0.435076
O O12 0.490858 0.062384 0.251904
O O13 0.917625 0.835038 0.736190
O O14 0.664865 0.564507 0.076799
O O15 0.306568 0.807085 0.219172
O O16 0.530952 0.795471 0.946213
O O17 0.500000 0.500000 0.000000
#
# Coordination Sequence:
#
# PCOD9002555 Si02
#       8
#     2   2   2   2   2   2   2   2
#     4  10  23  40  62  90 132 168 213 258 320 384
#     4  10  21  36  62 100 127 162 206 274 317 369
#     4  10  21  39  65  94 129 163 214 265 325 376
#     4  10  21  40  63  92 129 170 207 263 323 380
#     4  11  20  36  67  99 126 156 219 270 315 370
#     4  11  21  39  67  98 124 167 216 269 316 382
#     4  11  21  40  63  96 125 171 214 257 321 383
#     4  11  21  40  69  85 130 176 211 255 319 388
#
# _framework density 23.362922000000001
#
# number of rings (size 3 to 8) (size 9 to 14) (size 15 to 20)
#    0.000    1.500    3.750    2.625    0.000    0.500 
#    0.000    8.125    0.000    0.000    0.000    0.000 
#    0.000    0.000    0.000    0.000    0.000    0.000 
#
# Total GULP energy -89140.427509 kJ/mol
# GULP energy per Si atom -5571.276719 kJ/mol
# Density = 2.330975 g / cm^3
# Si number density = 23.362922 Si / 1000 Ang^3
#
#
#
# Elastic Constant Matrix: (Units=GPa)
#
#
# Indices 1 2 3 4 5 6 
#
# 1 77.6478 54.8850 25.7310 -12.9204 -5.3340 -27.8763
# 2 54.8850 224.8642 30.1800 -29.8135 -3.4474 -12.8584
# 3 25.7310 30.1800 67.8939 -13.9937 -12.7833 -11.7978
# 4 -12.9204 -29.8135 -13.9937 36.8243 -6.2211 6.5823
# 5 -5.3340 -3.4474 -12.7833 -6.2211 36.4460 9.9251
# 6 -27.8763 -12.8584 -11.7978 6.5823 9.9251 51.3322
#
#
#
# Elastic Compliance Matrix: (Units=1/GPa)
#
#
# Indices 1 2 3 4 5 6 
#
# 1 0.020396 -0.003793 -0.004614 0.000426 -0.001450 0.009291
# 2 -0.003793 0.005853 -0.000505 0.003586 0.000794 -0.001323
# 3 -0.004614 -0.000505 0.019376 0.006654 0.007331 -0.000450
# 4 0.000426 0.003586 0.006654 0.035045 0.009729 -0.003716
# 5 -0.001450 0.000794 0.007331 0.009729 0.033329 -0.006595
# 6 0.009291 -0.001323 -0.000450 -0.003716 -0.006595 0.025843
#
#
# Mechanical properties :
#
#
# Convention : Reuss Voigt Hill
#
# Bulk Modulus (GPa) = 35.97318 65.77757 50.87537
# Shear Modulus (GPa) = 29.95183 42.22784 36.08984
#
# Velocity S-wave (km/s) = 3.58442 4.25605 3.93459
# Velocity P-wave (km/s) = 5.70629 7.23656 6.51650
#
# Compressibility (1/GPa) = 0.02779849
#
# Stress axis : x y z
#
# Youngs Moduli (GPa) = 49.02919 170.85775 51.61050
#
# Poissons Ratio (x) = 0.64814 0.23815
# Poissons Ratio (y) = 0.18599 0.02608
# Poissons Ratio (z) = 0.22624 0.08635
#
# Static dielectric constant tensor:
#      x y z
#    x 1.875600 0.045240 0.052230 
#    y 0.045240 2.010400 0.035970 
#    z 0.052230 0.035970 2.133830 
# 
# From -- ./inp_files/597865.got.cif
#   From: 2010.05.17/outbox.cif.g08.bks.cpg/sg2_299_cif.got.tgz:597865.got - 2010.06.03 11:33:40.
