data_PCOD9002414
_publ_section_title
;
Structure prediction by ZEFSAII (Michael W. Deem and Ramdas Pophale) SiO2 
 PCOD9002414
Probable space group: P -1
;
_chemical_formula_sum "Si O2"
_cell_formula_units_Z 14
_cell_length_a 25.095905
_cell_length_b 12.901744
_cell_length_c 5.904081
_cell_angle_alpha 126.080669
_cell_angle_beta 123.732548
_cell_angle_gamma 18.686243
_cell_volume 494.957569
_symmetry_space_group_name_H-M "P -1"
_symmetry_group_IT_number 2
_symmetry_cell_setting 'triclinic'
loop_
_space_group_symop_operation_xyz
x,y,z
-x,-y,-z
loop_
_atom_site_type_symbol
_atom_site_label
_atom_site_fract_x
_atom_site_fract_y
_atom_site_fract_z
Si Si1 0.408358 0.252925 0.418793
Si Si2 0.266596 0.320954 0.827855
Si Si3 0.018911 0.625743 0.879150
Si Si4 0.462365 0.398871 0.992863
Si Si5 0.754025 0.197242 0.615798
Si Si6 0.990771 0.134094 0.472045
Si Si7 0.749137 0.996738 0.954898
O O1 0.365395 0.462207 0.723186
O O2 0.500000 0.000000 0.500000
O O3 0.552266 0.027436 0.295353
O O4 0.290882 0.369242 0.162339
O O5 0.149610 0.601510 0.716688
O O6 0.184942 0.340477 0.756905
O O7 0.031820 0.696369 0.213881
O O8 0.927196 0.669575 0.824223
O O9 0.882265 0.933893 0.781557
O O10 0.376583 0.692900 0.105513
O O11 0.423460 0.456372 0.239066
O O12 0.649436 0.058995 0.897170
O O13 0.755989 0.074995 0.292967
O O14 0.835773 0.165463 0.638894
O O15 0.000000 0.000000 0.500000
#
# Coordination Sequence:
#
# PCOD9002414 Si02
#       7
#     2   2   2   2   2   2   2
#     4  11  25  41  61  88 127 175 213 250 302 379
#     4  10  23  42  60  86 126 169 213 254 308 375
#     4   9  19  35  59  86 118 154 199 259 314 368
#     4  10  21  38  60  89 124 162 208 257 313 376
#     4   9  19  34  57  90 123 156 196 255 323 373
#     4  10  21  36  60  92 124 161 208 264 318 368
#     4   9  19  37  62  92 122 154 203 267 321 369
#
# _framework density 28.285250000000001
#
# number of rings (size 3 to 8) (size 9 to 14) (size 15 to 20)
#    0.000    2.286    0.000    1.286    0.000   13.714 
#    0.000    4.286    0.000   12.000    0.000    0.000 
#    0.000    0.000    0.000    0.000    0.000    0.000 
#
# Total GULP energy -78349.815200 kJ/mol
# GULP energy per Si atom -5596.415371 kJ/mol
# Density = 2.822087 g / cm^3
# Si number density = 28.285250 Si / 1000 Ang^3
#
#
#
# Elastic Constant Matrix: (Units=GPa)
#
#
# Indices 1 2 3 4 5 6 
#
# 1 174.2818 72.1751 49.2681 -9.8914 -36.2189 -35.7769
# 2 72.1751 83.2579 24.1937 -1.3485 -16.2877 -31.4665
# 3 49.2681 24.1937 138.3782 -37.1272 5.2712 -5.9139
# 4 -9.8914 -1.3485 -37.1272 55.0502 -6.5385 -23.7964
# 5 -36.2189 -16.2877 5.2712 -6.5385 53.3337 3.4101
# 6 -35.7769 -31.4665 -5.9139 -23.7964 3.4101 79.3858
#
#
#
# Elastic Compliance Matrix: (Units=1/GPa)
#
#
# Indices 1 2 3 4 5 6 
#
# 1 0.011009 -0.006797 -0.002311 0.001989 0.005716 0.002446
# 2 -0.006797 0.020408 -0.000619 0.001337 0.001502 0.005316
# 3 -0.002311 -0.000619 0.010147 0.006871 -0.002022 0.001616
# 4 0.001989 0.001337 0.006871 0.028050 0.003868 0.010180
# 5 0.005716 0.001502 -0.002022 0.003868 0.023562 0.003168
# 6 0.002446 0.005316 0.001616 0.010180 0.003168 0.018842
#
#
# Mechanical properties :
#
#
# Convention : Reuss Voigt Hill
#
# Bulk Modulus (GPa) = 45.22876 76.35465 60.79171
# Shear Modulus (GPa) = 36.01234 54.23936 45.12585
#
# Velocity S-wave (km/s) = 3.57204 4.38377 3.99856
# Velocity P-wave (km/s) = 5.74783 7.25785 6.54653
#
# Compressibility (1/GPa) = 0.02210983
#
# Stress axis : x y z
#
# Youngs Moduli (GPa) = 90.83624 49.00112 98.54910
#
# Poissons Ratio (x) = 0.33307 0.22771
# Poissons Ratio (y) = 0.61742 0.06102
# Poissons Ratio (z) = 0.20989 0.03034
#
# Static dielectric constant tensor:
#      x y z
#    x 2.232250 -0.036500 -0.052140 
#    y -0.036500 2.300570 -0.022910 
#    z -0.052140 -0.022910 2.132140 
# 
# From -- ./inp_files/64303.got.cif
#   From: 2010.05.17/outbox.cif.g08.bks.cpg/sg2_33_cif.got.tgz:64303.got - 2010.06.03 11:33:40.
