data_PCOD9002246
_publ_section_title
;
Structure prediction by ZEFSAII (Michael W. Deem and Ramdas Pophale) SiO2 
 PCOD9002246
Probable space group: P -1
;
_chemical_formula_sum "Si O2"
_cell_formula_units_Z 16
_cell_length_a 5.309800
_cell_length_b 9.181466
_cell_length_c 15.355234
_cell_angle_alpha 117.643321
_cell_angle_beta 76.185460
_cell_angle_gamma 104.294790
_cell_volume 635.848597
_symmetry_space_group_name_H-M "P -1"
_symmetry_group_IT_number 2
_symmetry_cell_setting 'triclinic'
loop_
_space_group_symop_operation_xyz
x,y,z
-x,-y,-z
loop_
_atom_site_type_symbol
_atom_site_label
_atom_site_fract_x
_atom_site_fract_y
_atom_site_fract_z
Si Si1 0.155977 0.084507 0.168398
Si Si2 0.607427 0.886206 0.121268
Si Si3 0.697349 0.535991 0.786390
Si Si4 0.292839 0.129165 0.539952
Si Si5 0.707877 0.442407 0.571051
Si Si6 0.241580 0.239210 0.758982
Si Si7 0.106684 0.220089 0.401317
Si Si8 0.815449 0.392014 0.917322
O O1 0.254739 0.266142 0.169794
O O2 0.074780 0.122755 0.285998
O O3 0.412893 0.997736 0.127326
O O4 0.904878 0.979932 0.110537
O O5 0.583449 0.862285 0.222326
O O6 0.475497 0.696040 0.052682
O O7 0.818928 0.472231 0.669308
O O8 0.405989 0.424689 0.783587
O O9 0.813803 0.487557 0.853617
O O10 0.445793 0.315500 0.567383
O O11 0.172074 0.151232 0.650064
O O12 0.136998 0.116107 0.457939
O O13 0.500000 0.000000 0.500000
O O14 0.660445 0.623330 0.592372
O O15 0.882510 0.334287 0.469913
O O16 0.983677 0.248177 0.838388
O O17 0.000000 0.500000 0.000000
#
# Coordination Sequence:
#
# PCOD9002246 Si02
#       8
#     2   2   2   2   2   2   2   2
#     4  11  24  42  69  99 138 185 219 284 336 406
#     4  11  24  45  68 100 138 173 223 277 350 400
#     4   9  22  41  67  98 135 176 231 274 349 402
#     4  11  22  34  59  95 133 171 223 277 326 389
#     4   9  20  38  54  89 124 179 218 280 317 396
#     4  10  22  43  67  97 140 182 225 284 339 408
#     4  10  21  36  59  85 130 176 231 261 327 391
#     4  11  24  46  76 100 131 178 229 281 346 419
#
# _framework density 25.163222999999999
#
# number of rings (size 3 to 8) (size 9 to 14) (size 15 to 20)
#    0.000    1.750    1.250    1.875    5.250    2.500 
#    4.500    1.250    0.000    0.000    0.000    0.000 
#    0.000    0.000    0.000    0.000    0.000    0.000 
#
# Total GULP energy -89316.664884 kJ/mol
# GULP energy per Si atom -5582.291555 kJ/mol
# Density = 2.510595 g / cm^3
# Si number density = 25.163223 Si / 1000 Ang^3
#
#
#
# Elastic Constant Matrix: (Units=GPa)
#
#
# Indices 1 2 3 4 5 6 
#
# 1 107.4860 49.4133 36.5026 7.2581 30.6425 -0.9299
# 2 49.4133 127.0287 25.4844 11.6442 38.0724 11.4712
# 3 36.5026 25.4844 103.3327 5.2229 30.7463 -7.1119
# 4 7.2581 11.6442 5.2229 24.2388 7.4162 8.0911
# 5 30.6425 38.0724 30.7463 7.4162 44.5163 7.5298
# 6 -0.9299 11.4712 -7.1119 8.0911 7.5298 40.2209
#
#
#
# Elastic Compliance Matrix: (Units=1/GPa)
#
#
# Indices 1 2 3 4 5 6 
#
# 1 0.012999 -0.003258 -0.002166 -0.001039 -0.004824 0.001959
# 2 -0.003258 0.011578 0.000499 -0.001916 -0.007429 -0.001513
# 3 -0.002166 0.000499 0.013187 -0.001149 -0.008523 0.003966
# 4 -0.001039 -0.001916 -0.001149 0.046526 -0.003176 -0.008446
# 5 -0.004824 -0.007429 -0.008523 -0.003176 0.039615 -0.006277
# 6 0.001959 -0.001513 0.003966 -0.008446 -0.006277 0.028915
#
#
# Mechanical properties :
#
#
# Convention : Reuss Voigt Hill
#
# Bulk Modulus (GPa) = 35.82498 62.29423 49.05961
# Shear Modulus (GPa) = 29.07401 36.89166 32.98284
#
# Velocity S-wave (km/s) = 3.40283 3.83312 3.62436
# Velocity P-wave (km/s) = 5.45041 6.66335 6.08716
#
# Compressibility (1/GPa) = 0.02791348
#
# Stress axis : x y z
#
# Youngs Moduli (GPa) = 76.92838 86.36782 75.83511
#
# Poissons Ratio (x) = 0.28138 0.16425
# Poissons Ratio (y) = 0.25063 -0.03781
# Poissons Ratio (z) = 0.16661 -0.04306
#
# Static dielectric constant tensor:
#      x y z
#    x 2.200720 0.237470 0.101860 
#    y 0.237470 1.755410 -0.040920 
#    z 0.101860 -0.040920 2.071080 
# 
# From -- ./inp_files/480757.got.cif
#   From: 2010.05.17/outbox.cif.g08.bks.cpg/sg2_241_cif.got.tgz:480757.got - 2010.06.03 11:33:40.
