data_PCOD9002815
_publ_section_title
;
Structure prediction by ZEFSAII (Michael W. Deem and Ramdas Pophale) SiO2 
 PCOD9002815
Probable space group: P -1
;
_chemical_formula_sum "Si O2"
_cell_formula_units_Z 14
_cell_length_a 10.135997
_cell_length_b 12.456686
_cell_length_c 19.225454
_cell_angle_alpha 147.944785
_cell_angle_beta 146.532027
_cell_angle_gamma 36.518776
_cell_volume 670.616530
_symmetry_space_group_name_H-M "P -1"
_symmetry_group_IT_number 2
_symmetry_cell_setting 'triclinic'
loop_
_space_group_symop_operation_xyz
x,y,z
-x,-y,-z
loop_
_atom_site_type_symbol
_atom_site_label
_atom_site_fract_x
_atom_site_fract_y
_atom_site_fract_z
Si Si1 0.034183 0.441461 0.563474
Si Si2 0.327629 0.111715 0.330565
Si Si3 0.198880 0.434646 0.270355
Si Si4 0.369758 0.776010 0.273039
Si Si5 0.270581 0.688899 0.034522
Si Si6 0.193252 0.772875 0.350953
Si Si7 0.218873 0.789780 0.580991
O O1 0.876912 0.288417 0.432838
O O2 0.000000 0.500000 0.500000
O O3 0.326462 0.334359 0.652759
O O4 0.897827 0.672197 0.665879
O O5 0.308272 0.016755 0.347570
O O6 0.586457 0.165544 0.477115
O O7 0.321743 0.914345 0.172277
O O8 0.200969 0.543648 0.256133
O O9 0.139292 0.641018 0.408215
O O10 0.479285 0.278207 0.325160
O O11 0.988746 0.321843 0.116261
O O12 0.257677 0.769214 0.295628
O O13 0.267545 0.665648 0.104653
O O14 0.500000 0.500000 0.000000
O O15 0.932195 0.960698 0.355688
#
# Coordination Sequence:
#
# PCOD9002815 Si02
#       7
#     2   2   2   2   2   2   2
#     4  12  19  36  65  98 120 155 209 258 297 357
#     4  10  21  36  65  91 122 159 202 251 303 356
#     4  11  24  43  59  91 126 162 202 256 307 366
#     4  10  22  37  65  89 127 156 209 250 304 353
#     4  10  23  45  61  86 131 161 200 256 306 370
#     4  12  20  40  66  93 117 165 209 252 305 356
#     4  11  23  38  65  89 126 157 209 256 302 361
#
# _framework density 20.876313
#
# number of rings (size 3 to 8) (size 9 to 14) (size 15 to 20)
#    0.857    0.286    4.286    3.429    0.000    0.571 
#    2.571    2.143    0.000    0.000    0.000    0.000 
#    0.000    0.000    0.000    0.000    0.000    0.000 
#
# Total GULP energy -78221.587785 kJ/mol
# GULP energy per Si atom -5587.256270 kJ/mol
# Density = 2.082880 g / cm^3
# Si number density = 20.876313 Si / 1000 Ang^3
#
#
#
# Elastic Constant Matrix: (Units=GPa)
#
#
# Indices 1 2 3 4 5 6 
#
# 1 52.9698 15.0757 17.3577 -5.3270 -5.2655 0.5739
# 2 15.0757 115.3520 28.7227 -0.0415 -7.1859 -16.5202
# 3 17.3577 28.7227 108.6533 -8.5232 -1.6540 -16.4031
# 4 -5.3270 -0.0415 -8.5232 29.7382 -1.0660 -0.7785
# 5 -5.2655 -7.1859 -1.6540 -1.0660 19.9578 2.7097
# 6 0.5739 -16.5202 -16.4031 -0.7785 2.7097 41.2908
#
#
#
# Elastic Compliance Matrix: (Units=1/GPa)
#
#
# Indices 1 2 3 4 5 6 
#
# 1 0.021280 -0.002104 -0.002911 0.003091 0.005130 -0.002572
# 2 -0.002104 0.010005 -0.001857 -0.000726 0.002431 0.003121
# 3 -0.002911 -0.001857 0.010921 0.002672 -0.000898 0.003745
# 4 0.003091 -0.000726 0.002672 0.035066 0.002482 0.001226
# 5 0.005130 0.002431 -0.000898 0.002482 0.052782 -0.002872
# 6 -0.002572 0.003121 0.003745 0.001226 -0.002872 0.027202
#
#
# Mechanical properties :
#
#
# Convention : Reuss Voigt Hill
#
# Bulk Modulus (GPa) = 35.13630 44.36524 39.75077
# Shear Modulus (GPa) = 27.70250 32.58529 30.14389
#
# Velocity S-wave (km/s) = 3.64673 3.95508 3.80403
# Velocity P-wave (km/s) = 5.88207 6.49265 6.19488
#
# Compressibility (1/GPa) = 0.02846059
#
# Stress axis : x y z
#
# Youngs Moduli (GPa) = 46.99212 99.95259 91.56691
#
# Poissons Ratio (x) = 0.21030 0.26657
# Poissons Ratio (y) = 0.09887 0.17008
# Poissons Ratio (z) = 0.13680 0.18566
#
# Static dielectric constant tensor:
#      x y z
#    x 1.829490 0.022290 -0.042160 
#    y 0.022290 1.738260 0.003420 
#    z -0.042160 0.003420 1.722730 
# 
# From -- ./inp_files/560067.got.cif
#   From: 2010.05.17/outbox.cif.g08.bks.cpg/sg2_281_cif.got.tgz:560067.got - 2010.06.03 11:33:40.
