data_PCOD9002329
_publ_section_title
;
Structure prediction by ZEFSAII (Michael W. Deem and Ramdas Pophale) SiO2 
 PCOD9002329
Probable space group: P -1
;
_chemical_formula_sum "Si O2"
_cell_formula_units_Z 16
_cell_length_a 14.363821
_cell_length_b 29.764919
_cell_length_c 9.972353
_cell_angle_alpha 39.340388
_cell_angle_beta 143.693778
_cell_angle_gamma 162.302359
_cell_volume 767.038673
_symmetry_space_group_name_H-M "P -1"
_symmetry_group_IT_number 2
_symmetry_cell_setting 'triclinic'
loop_
_space_group_symop_operation_xyz
x,y,z
-x,-y,-z
loop_
_atom_site_type_symbol
_atom_site_label
_atom_site_fract_x
_atom_site_fract_y
_atom_site_fract_z
Si Si1 0.908935 0.915491 0.467334
Si Si2 0.295239 0.578956 0.583353
Si Si3 0.678879 0.402367 0.927703
Si Si4 0.237244 0.093356 0.186174
Si Si5 0.305984 0.490496 0.047082
Si Si6 0.544459 0.436705 0.436186
Si Si7 0.133329 0.792342 0.933832
Si Si8 0.503726 0.070246 0.698071
O O1 0.980277 0.990484 0.247011
O O2 0.190603 0.967452 0.664412
O O3 0.422196 0.956441 0.831254
O O4 0.000000 0.000000 0.500000
O O5 0.556334 0.741325 0.469705
O O6 0.430416 0.580956 0.851661
O O7 0.206342 0.499794 0.527840
O O8 0.000000 0.500000 0.500000
O O9 0.508603 0.378742 0.664205
O O10 0.738668 0.477559 0.949981
O O11 0.000000 0.500000 0.000000
O O12 0.464804 0.251791 0.076784
O O13 0.462574 0.112017 0.435508
O O14 0.000000 0.000000 0.000000
O O15 0.559772 0.525853 0.284782
O O16 0.960126 0.317039 0.000095
O O17 0.793687 0.698965 0.726885
O O18 0.202888 0.806981 0.138082
#
# Coordination Sequence:
#
# PCOD9002329 Si02
#       8
#     2   2   2   2   2   2   2   2
#     4  10  21  36  59  94 130 171 216 278 330 398
#     4  12  23  39  64 105 134 172 228 288 343 402
#     4  12  24  44  68 104 137 182 230 288 342 407
#     4  10  22  42  66  94 137 179 223 278 340 403
#     4  10  24  39  66  99 137 177 227 282 346 400
#     4  10  22  42  64  97 137 179 223 279 348 402
#     4   9  19  38  65  92 131 176 227 272 334 402
#     4   9  19  38  64  94 128 178 226 272 332 402
#
# _framework density 20.859442000000001
#
# number of rings (size 3 to 8) (size 9 to 14) (size 15 to 20)
#    1.500    0.250    1.250    3.750    1.750    1.000 
#    0.000    0.000    0.000    0.750    0.000    0.000 
#    0.000    0.000    0.000    0.000    0.000    0.000 
#
# Total GULP energy -89088.700590 kJ/mol
# GULP energy per Si atom -5568.043787 kJ/mol
# Density = 2.081197 g / cm^3
# Si number density = 20.859442 Si / 1000 Ang^3
#
#
#
# Elastic Constant Matrix: (Units=GPa)
#
#
# Indices 1 2 3 4 5 6 
#
# 1 125.0861 70.7923 38.6767 -18.5777 -23.5487 -20.3731
# 2 70.7923 126.6180 55.2259 -21.3577 -9.2389 -14.7146
# 3 38.6767 55.2259 145.0243 -15.9694 -30.0248 -6.0830
# 4 -18.5777 -21.3577 -15.9694 40.3710 -1.0471 -6.5578
# 5 -23.5487 -9.2389 -30.0248 -1.0471 34.2449 0.5174
# 6 -20.3731 -14.7146 -6.0830 -6.5578 0.5174 35.2417
#
#
#
# Elastic Compliance Matrix: (Units=1/GPa)
#
#
# Indices 1 2 3 4 5 6 
#
# 1 0.015132 -0.006620 0.001441 0.005442 0.009942 0.007099
# 2 -0.006620 0.013693 -0.003945 0.002819 -0.004258 0.001796
# 3 0.001441 -0.003945 0.010280 0.003105 0.009014 0.001406
# 4 0.005442 0.002819 0.003105 0.031938 0.008040 0.010684
# 5 0.009942 -0.004258 0.009014 0.008040 0.042942 0.006391
# 6 0.007099 0.001796 0.001406 0.010684 0.006391 0.035366
#
#
# Mechanical properties :
#
#
# Convention : Reuss Voigt Hill
#
# Bulk Modulus (GPa) = 47.94555 80.67979 64.31267
# Shear Modulus (GPa) = 28.64485 37.44041 33.04263
#
# Velocity S-wave (km/s) = 3.70973 4.24121 3.98434
# Velocity P-wave (km/s) = 6.43308 7.92121 7.21561
#
# Compressibility (1/GPa) = 0.02085699
#
# Stress axis : x y z
#
# Youngs Moduli (GPa) = 66.08588 73.02866 97.27366
#
# Poissons Ratio (x) = 0.48348 -0.14015
# Poissons Ratio (y) = 0.43751 0.38371
# Poissons Ratio (z) = -0.09522 0.28807
#
# Static dielectric constant tensor:
#      x y z
#    x 1.723750 -0.033700 0.007640 
#    y -0.033700 1.782900 -0.035840 
#    z 0.007640 -0.035840 1.728920 
# 
# From -- ./inp_files/284768.got.cif
#   From: 2010.05.17/outbox.cif.g08.bks.cpg/sg2_143_cif.got.tgz:284768.got - 2010.06.03 11:33:40.
