data_PCOD9002943
_publ_section_title
;
Structure prediction by ZEFSAII (Michael W. Deem and Ramdas Pophale) SiO2 
 PCOD9002943
Probable space group: P -1
;
_chemical_formula_sum "Si O2"
_cell_formula_units_Z 16
_cell_length_a 9.565668
_cell_length_b 15.253610
_cell_length_c 11.378646
_cell_angle_alpha 77.628704
_cell_angle_beta 65.947570
_cell_angle_gamma 30.927416
_cell_volume 746.088555
_symmetry_space_group_name_H-M "P -1"
_symmetry_group_IT_number 2
_symmetry_cell_setting 'triclinic'
loop_
_space_group_symop_operation_xyz
x,y,z
-x,-y,-z
loop_
_atom_site_type_symbol
_atom_site_label
_atom_site_fract_x
_atom_site_fract_y
_atom_site_fract_z
Si Si1 0.273394 0.619457 0.836230
Si Si2 0.815236 0.007327 0.097406
Si Si3 0.068665 0.378003 0.929332
Si Si4 0.954305 0.222697 0.700853
Si Si5 0.480022 0.708143 0.736073
Si Si6 0.110235 0.345112 0.654686
Si Si7 0.683219 0.991739 0.896223
Si Si8 0.783345 0.069312 0.454313
O O1 0.597196 0.418477 0.741115
O O2 0.381090 0.662355 0.840748
O O3 0.999700 0.792122 0.795165
O O4 0.114415 0.618162 0.962841
O O5 0.535814 0.193652 0.209202
O O6 0.740710 0.005602 0.998764
O O7 0.993025 0.852936 0.169842
O O8 0.000000 0.000000 0.000000
O O9 0.992922 0.423463 0.805130
O O10 0.435547 0.175687 0.860551
O O11 0.000000 0.500000 0.000000
O O12 0.124098 0.231790 0.654600
O O13 0.086020 0.089925 0.595830
O O14 0.246215 0.848623 0.670480
O O15 0.821171 0.523193 0.626870
O O16 0.436046 0.225326 0.564542
O O17 0.500000 0.000000 0.000000
O O18 0.000000 0.000000 0.500000
#
# Coordination Sequence:
#
# PCOD9002943 Si02
#       8
#     2   2   2   2   2   2   2   2
#     4  10  22  39  63  94 138 163 216 261 341 383
#     4  11  21  35  63  94 134 174 215 261 325 402
#     4  11  25  37  67 102 141 173 213 273 334 401
#     4  10  24  42  67  96 127 180 223 273 326 404
#     4  10  23  42  67  97 129 175 221 276 322 406
#     4  11  24  44  71  94 135 177 223 268 333 395
#     4  10  21  37  54  92 139 174 206 261 327 392
#     4  11  26  46  72  94 129 172 230 282 332 382
#
# _framework density 21.445174999999999
#
# number of rings (size 3 to 8) (size 9 to 14) (size 15 to 20)
#    0.000    1.500    1.250    3.000    7.000    1.500 
#    0.000    2.500    5.500    0.000    0.000    0.000 
#    0.000    0.000    0.000    0.000    0.000    0.000 
#
# Total GULP energy -89088.400962 kJ/mol
# GULP energy per Si atom -5568.025060 kJ/mol
# Density = 2.139637 g / cm^3
# Si number density = 21.445175 Si / 1000 Ang^3
#
#
#
# Elastic Constant Matrix: (Units=GPa)
#
#
# Indices 1 2 3 4 5 6 
#
# 1 129.8617 24.1659 25.6338 -2.3703 -1.6675 2.7526
# 2 24.1659 130.8902 10.4346 12.0426 -1.4937 -2.5638
# 3 25.6338 10.4346 39.9985 1.6564 -2.7941 7.3107
# 4 -2.3703 12.0426 1.6564 21.5864 -11.7563 -2.3345
# 5 -1.6675 -1.4937 -2.7941 -11.7563 34.3069 1.4073
# 6 2.7526 -2.5638 7.3107 -2.3345 1.4073 37.8180
#
#
#
# Elastic Compliance Matrix: (Units=1/GPa)
#
#
# Indices 1 2 3 4 5 6 
#
# 1 0.009134 -0.001476 -0.005608 0.002771 0.000854 0.000458
# 2 -0.001476 0.008535 -0.001287 -0.005733 -0.001796 0.000648
# 3 -0.005608 -0.001287 0.030169 -0.001895 0.001712 -0.005692
# 4 0.002771 -0.005733 -0.001895 0.061555 0.020709 0.002805
# 5 0.000854 -0.001796 0.001712 0.020709 0.036372 -0.000590
# 6 0.000458 0.000648 -0.005692 0.002805 -0.000590 0.027748
#
#
# Mechanical properties :
#
#
# Convention : Reuss Voigt Hill
#
# Bulk Modulus (GPa) = 32.15786 46.80212 39.47999
# Shear Modulus (GPa) = 24.92275 34.77664 29.84969
#
# Velocity S-wave (km/s) = 3.41275 4.03134 3.73487
# Velocity P-wave (km/s) = 5.52784 6.59852 6.08677
#
# Compressibility (1/GPa) = 0.03109660
#
# Stress axis : x y z
#
# Youngs Moduli (GPa) = 109.48353 117.16915 33.14665
#
# Poissons Ratio (x) = 0.17289 0.18587
# Poissons Ratio (y) = 0.16155 0.04267
# Poissons Ratio (z) = 0.61393 0.15084
#
# Static dielectric constant tensor:
#      x y z
#    x 1.795020 -0.000380 0.018360 
#    y -0.000380 1.870810 0.031830 
#    z 0.018360 0.031830 1.870210 
# 
# From -- ./inp_files/306913.got.cif
#   From: 2010.05.17/outbox.cif.g08.bks.cpg/sg2_154_cif.got.tgz:306913.got - 2010.06.03 11:33:40.
