data_PCOD9002557
_publ_section_title
;
Structure prediction by ZEFSAII (Michael W. Deem and Ramdas Pophale) SiO2 
 PCOD9002557
Probable space group: P -1
;
_chemical_formula_sum "Si O2"
_cell_formula_units_Z 16
_cell_length_a 17.710381
_cell_length_b 9.750611
_cell_length_c 12.139666
_cell_angle_alpha 141.656827
_cell_angle_beta 146.509689
_cell_angle_gamma 33.140175
_cell_volume 606.154356
_symmetry_space_group_name_H-M "P -1"
_symmetry_group_IT_number 2
_symmetry_cell_setting 'triclinic'
loop_
_space_group_symop_operation_xyz
x,y,z
-x,-y,-z
loop_
_atom_site_type_symbol
_atom_site_label
_atom_site_fract_x
_atom_site_fract_y
_atom_site_fract_z
Si Si1 0.581595 0.841265 0.688328
Si Si2 0.059513 0.725522 0.457512
Si Si3 0.267101 0.014899 0.665090
Si Si4 0.755412 0.366558 0.756371
Si Si5 0.883346 0.763617 0.911233
Si Si6 0.169495 0.805013 0.025032
Si Si7 0.390881 0.559679 0.711625
Si Si8 0.347101 0.343300 0.832357
O O1 0.626272 0.641413 0.718051
O O2 0.744056 0.854390 0.889511
O O3 0.573460 0.686832 0.475243
O O4 0.424252 0.128252 0.694429
O O5 0.078345 0.514537 0.259263
O O6 0.241886 0.625430 0.652068
O O7 0.919585 0.770858 0.397123
O O8 0.000000 0.000000 0.500000
O O9 0.355815 0.159784 0.828564
O O10 0.265442 0.856871 0.458780
O O11 0.332927 0.805326 0.712155
O O12 0.731482 0.368104 0.858607
O O13 0.938092 0.282967 0.887533
O O14 0.794954 0.989435 0.854740
O O15 0.174869 0.612777 0.815738
O O16 0.000000 0.000000 0.000000
O O17 0.538684 0.542375 0.942321
#
# Coordination Sequence:
#
# PCOD9002557 Si02
#       8
#     2   2   2   2   2   2   2   2
#     4  10  24  39  66 104 128 166 227 274 333 387
#     4   9  19  38  64  93 124 171 220 259 324 393
#     4  10  21  36  62 100 131 169 221 271 329 391
#     4  10  22  38  69  98 133 169 223 281 320 385
#     4  10  21  44  65  91 138 176 214 275 327 392
#     4  10  24  44  64  90 133 184 216 264 340 396
#     4   9  22  39  61  98 138 163 212 285 334 377
#     4  12  25  38  69  95 134 177 217 276 334 391
#
# _framework density 26.395917000000001
#
# number of rings (size 3 to 8) (size 9 to 14) (size 15 to 20)
#    0.000    2.000    0.000    3.000   10.500    1.500 
#    0.000    8.125    0.000    0.000    0.000    0.000 
#    0.000    0.000    0.000    0.000    0.000    0.000 
#
# Total GULP energy -89464.832176 kJ/mol
# GULP energy per Si atom -5591.552011 kJ/mol
# Density = 2.633584 g / cm^3
# Si number density = 26.395917 Si / 1000 Ang^3
#
#
#
# Elastic Constant Matrix: (Units=GPa)
#
#
# Indices 1 2 3 4 5 6 
#
# 1 94.5125 41.5900 14.0887 10.1336 1.7114 -19.4681
# 2 41.5900 130.7059 35.6508 31.9022 -3.1920 -26.9376
# 3 14.0887 35.6508 81.7636 6.4913 11.4216 -13.9489
# 4 10.1336 31.9022 6.4913 39.0269 -13.3151 -1.2150
# 5 1.7114 -3.1920 11.4216 -13.3151 36.0922 -5.9835
# 6 -19.4681 -26.9376 -13.9489 -1.2150 -5.9835 42.4816
#
#
#
# Elastic Compliance Matrix: (Units=1/GPa)
#
#
# Indices 1 2 3 4 5 6 
#
# 1 0.012834 -0.003081 -0.000074 -0.000870 -0.000549 0.003801
# 2 -0.003081 0.012869 -0.003444 -0.009000 -0.000059 0.005351
# 3 -0.000074 -0.003444 0.014905 -0.001361 -0.005204 0.001904
# 4 -0.000870 -0.009000 -0.001361 0.037755 0.013001 -0.003642
# 5 -0.000549 -0.000059 -0.005204 0.013001 0.034712 0.003263
# 6 0.003801 0.005351 0.001904 -0.003642 0.003263 0.029656
#
#
# Mechanical properties :
#
#
# Convention : Reuss Voigt Hill
#
# Bulk Modulus (GPa) = 36.48482 54.40455 45.44468
# Shear Modulus (GPa) = 30.29125 37.89697 34.09411
#
# Velocity S-wave (km/s) = 3.39126 3.79319 3.59784
# Velocity P-wave (km/s) = 5.40244 6.31190 5.87480
#
# Compressibility (1/GPa) = 0.02740866
#
# Stress axis : x y z
#
# Youngs Moduli (GPa) = 77.92018 77.70739 67.09254
#
# Poissons Ratio (x) = 0.23942 0.00495
# Poissons Ratio (y) = 0.24008 0.23110
# Poissons Ratio (z) = 0.00575 0.26766
#
# Static dielectric constant tensor:
#      x y z
#    x 2.093540 -0.049750 -0.001570 
#    y -0.049750 2.147430 -0.086840 
#    z -0.001570 -0.086840 2.030900 
# 
# From -- ./inp_files/541185.got.cif
#   From: 2010.05.17/outbox.cif.g08.bks.cpg/sg2_271_cif.got.tgz:541185.got - 2010.06.03 11:33:40.
