data_PCOD9002547
_publ_section_title
;
Structure prediction by ZEFSAII (Michael W. Deem and Ramdas Pophale) SiO2 
 PCOD9002547
Probable space group: P -1
;
_chemical_formula_sum "Si O2"
_cell_formula_units_Z 13
_cell_length_a 5.291246
_cell_length_b 9.751071
_cell_length_c 10.906407
_cell_angle_alpha 101.995370
_cell_angle_beta 94.923552
_cell_angle_gamma 108.248881
_cell_volume 515.804790
_symmetry_space_group_name_H-M "P -1"
_symmetry_group_IT_number 2
_symmetry_cell_setting 'triclinic'
loop_
_space_group_symop_operation_xyz
x,y,z
-x,-y,-z
loop_
_atom_site_type_symbol
_atom_site_label
_atom_site_fract_x
_atom_site_fract_y
_atom_site_fract_z
Si Si1 0.935335 0.883732 0.585752
Si Si2 0.507576 0.592687 0.842671
Si Si3 0.000000 0.500000 0.000000
Si Si4 0.274693 0.668122 0.214463
Si Si5 0.900263 0.589097 0.411111
Si Si6 0.657463 0.955440 0.188220
Si Si7 0.214977 0.068664 0.152125
O O1 0.824797 0.719328 0.497629
O O2 0.761566 0.918874 0.692954
O O3 0.208899 0.915002 0.681907
O O4 0.000000 0.000000 0.500000
O O5 0.712252 0.496852 0.856544
O O6 0.345873 0.515229 0.699431
O O7 0.683690 0.762333 0.857730
O O8 0.278524 0.577588 0.930869
O O9 0.052513 0.662862 0.103116
O O10 0.147726 0.661653 0.340213
O O11 0.549694 0.798692 0.225784
O O12 0.000000 0.500000 0.500000
O O13 0.412878 0.981211 0.116419
O O14 0.900448 0.975976 0.109258
#
# Coordination Sequence:
#
# PCOD9002547 Si02
#       7
#     2   2   1   2   2   2   2
#     4  10  21  36  61  97 137 180 218 264 335 404
#     4  11  24  44  70  96 135 179 231 284 337 404
#     4  10  26  44  74  94 130 172 242 284 346 390
#     4  11  24  44  71  96 135 177 234 279 343 404
#     4  11  23  37  65 102 137 177 224 274 334 407
#     4  10  24  42  66  97 139 178 219 276 341 405
#     4  10  24  42  66  96 141 176 219 276 337 403
#
# _framework density 25.203334000000002
#
# number of rings (size 3 to 8) (size 9 to 14) (size 15 to 20)
#    0.923    0.615    0.000    4.154    8.615    7.385 
#    0.000    1.538    0.000    0.000    0.000    0.000 
#    0.000    0.000    0.000    0.000    0.000    0.000 
#
# Total GULP energy -72498.345491 kJ/mol
# GULP energy per Si atom -5576.795807 kJ/mol
# Density = 2.514597 g / cm^3
# Si number density = 25.203334 Si / 1000 Ang^3
#
#
#
# Elastic Constant Matrix: (Units=GPa)
#
#
# Indices 1 2 3 4 5 6 
#
# 1 145.3713 29.7791 -3.3246 -12.8123 -7.5395 23.0395
# 2 29.7791 87.9791 -5.4502 5.2091 4.5336 21.9521
# 3 -3.3246 -5.4502 95.0473 1.6672 -6.7127 12.1530
# 4 -12.8123 5.2091 1.6672 23.1440 8.5495 3.8841
# 5 -7.5395 4.5336 -6.7127 8.5495 38.8778 -4.5147
# 6 23.0395 21.9521 12.1530 3.8841 -4.5147 46.7609
#
#
#
# Elastic Compliance Matrix: (Units=1/GPa)
#
#
# Indices 1 2 3 4 5 6 
#
# 1 0.008453 -0.002257 0.000562 0.005644 0.000330 -0.003688
# 2 -0.002257 0.013905 0.001367 -0.002830 -0.001865 -0.005716
# 3 0.000562 0.001367 0.011211 -0.000806 0.001644 -0.003607
# 4 0.005644 -0.002830 -0.000806 0.052191 -0.010962 -0.006637
# 5 0.000330 -0.001865 0.001644 -0.010962 0.029164 0.004012
# 6 -0.003688 -0.005716 -0.003607 -0.006637 0.004012 0.027762
#
#
# Mechanical properties :
#
#
# Convention : Reuss Voigt Hill
#
# Bulk Modulus (GPa) = 30.38342 41.15627 35.76985
# Shear Modulus (GPa) = 32.40186 42.24941 37.32564
#
# Velocity S-wave (km/s) = 3.58944 4.09876 3.85253
# Velocity P-wave (km/s) = 5.40928 6.22615 5.83203
#
# Compressibility (1/GPa) = 0.03291268
#
# Stress axis : x y z
#
# Youngs Moduli (GPa) = 118.29612 71.91715 89.20191
#
# Poissons Ratio (x) = 0.16234 -0.05015
# Poissons Ratio (y) = 0.26704 -0.12195
# Poissons Ratio (z) = -0.06650 -0.09832
#
# Static dielectric constant tensor:
#      x y z
#    x 2.878260 -0.109670 1.178380 
#    y -0.109670 1.981520 -0.181610 
#    z 1.178380 -0.181610 3.444730 
# 
# From -- ./inp_files/73941.got.cif
#   From: 2010.05.17/outbox.cif.g08.bks.cpg/sg2_37_cif.got.tgz:73941.got - 2010.06.03 11:33:40.
