data_PCOD9002349
_publ_section_title
;
Structure prediction by ZEFSAII (Michael W. Deem and Ramdas Pophale) SiO2 
 PCOD9002349
Probable space group: P -1
;
_chemical_formula_sum "Si O2"
_cell_formula_units_Z 16
_cell_length_a 11.190560
_cell_length_b 15.741368
_cell_length_c 15.039085
_cell_angle_alpha 161.117023
_cell_angle_beta 72.461951
_cell_angle_gamma 109.209698
_cell_volume 809.209160
_symmetry_space_group_name_H-M "P -1"
_symmetry_group_IT_number 2
_symmetry_cell_setting 'triclinic'
loop_
_space_group_symop_operation_xyz
x,y,z
-x,-y,-z
loop_
_atom_site_type_symbol
_atom_site_label
_atom_site_fract_x
_atom_site_fract_y
_atom_site_fract_z
Si Si1 0.886870 0.521779 0.348407
Si Si2 0.356900 0.303858 0.717807
Si Si3 0.129827 0.878028 0.347968
Si Si4 0.281689 0.650872 0.933961
Si Si5 0.506553 0.154266 0.803040
Si Si6 0.215056 0.065242 0.777952
Si Si7 0.886474 0.449185 0.803976
Si Si8 0.008736 0.965167 0.068293
O O1 0.758348 0.395975 0.204448
O O2 0.979772 0.581403 0.301427
O O3 0.897344 0.793182 0.669028
O O4 0.942992 0.307156 0.183810
O O5 0.300023 0.374458 0.704328
O O6 0.241350 0.100909 0.580642
O O7 0.469935 0.128793 0.518634
O O8 0.415008 0.601317 0.028834
O O9 0.115705 0.626500 0.167751
O O10 0.179697 0.782970 0.147835
O O11 0.000000 0.000000 0.500000
O O12 0.417300 0.818841 0.093631
O O13 0.361224 0.180744 0.871091
O O14 0.129069 0.031785 0.852631
O O15 0.207440 0.779220 0.450855
O O16 0.147063 0.266538 0.933038
O O17 0.000000 0.000000 0.000000
#
# Coordination Sequence:
#
# PCOD9002349 Si02
#       8
#     2   2   2   2   2   2   2   2
#     4  10  21  36  60  84 115 147 181 232 283 349
#     4   9  20  35  51  80 106 153 197 225 276 316
#     4  11  23  35  56  81 124 151 194 243 286 319
#     4   9  22  36  56  83 115 151 196 225 287 322
#     4   9  19  37  58  75 110 151 200 227 276 333
#     4  10  21  40  59  81 111 152 191 231 278 346
#     4  10  23  34  54  85 111 149 197 230 283 325
#     4  10  22  39  62  90 114 140 179 233 296 345
#
# _framework density 19.772390999999999
#
# number of rings (size 3 to 8) (size 9 to 14) (size 15 to 20)
#    0.750    1.500    0.000    1.875   10.500    1.000 
#    0.000    8.750    0.000    1.500    0.000    0.000 
#    0.000    0.000    0.000    0.000    0.000    0.000 
#
# Total GULP energy -89194.920853 kJ/mol
# GULP energy per Si atom -5574.682553 kJ/mol
# Density = 1.972739 g / cm^3
# Si number density = 19.772391 Si / 1000 Ang^3
#
#
#
# Elastic Constant Matrix: (Units=GPa)
#
#
# Indices 1 2 3 4 5 6 
#
# 1 54.0901 7.3927 -7.4819 -9.2841 0.9118 6.5786
# 2 7.3927 69.1831 16.1574 -2.2100 2.4984 -7.5698
# 3 -7.4819 16.1574 83.3714 8.1194 -0.0672 3.9477
# 4 -9.2841 -2.2100 8.1194 21.9415 -4.4168 2.2633
# 5 0.9118 2.4984 -0.0672 -4.4168 31.2379 -0.6656
# 6 6.5786 -7.5698 3.9477 2.2633 -0.6656 12.0404
#
#
#
# Elastic Compliance Matrix: (Units=1/GPa)
#
#
# Indices 1 2 3 4 5 6 
#
# 1 0.023686 -0.004994 0.002967 0.010542 0.000800 -0.018992
# 2 -0.004994 0.017769 -0.004582 -0.000424 -0.001017 0.015426
# 3 0.002967 -0.004582 0.013893 -0.003555 -0.000372 -0.008409
# 4 0.010542 -0.000424 -0.003555 0.054246 0.007076 -0.014667
# 5 0.000800 -0.001017 -0.000372 0.007076 0.033060 -0.000457
# 6 -0.018992 0.015426 -0.008409 -0.014667 -0.000457 0.108618
#
#
# Mechanical properties :
#
#
# Convention : Reuss Voigt Hill
#
# Bulk Modulus (GPa) = 23.73609 26.53122 25.13365
# Shear Modulus (GPa) = 17.95114 25.74905 21.85009
#
# Velocity S-wave (km/s) = 3.01639 3.61262 3.32788
# Velocity P-wave (km/s) = 4.91550 5.55417 5.24457
#
# Compressibility (1/GPa) = 0.04212995
#
# Stress axis : x y z
#
# Youngs Moduli (GPa) = 42.21854 56.27735 71.97998
#
# Poissons Ratio (x) = 0.28105 -0.21355
# Poissons Ratio (y) = 0.21084 0.32980
# Poissons Ratio (z) = -0.12525 0.25785
#
# Static dielectric constant tensor:
#      x y z
#    x 1.740760 -0.007660 0.033820 
#    y -0.007660 1.679080 -0.003420 
#    z 0.033820 -0.003420 1.749430 
# 
# From -- ./inp_files/522036.got.cif
#   From: 2010.05.17/outbox.cif.g08.bks.cpg/sg2_262_cif.got.tgz:522036.got - 2010.06.03 11:33:40.
