data_PCOD9002440
_publ_section_title
;
Structure prediction by ZEFSAII (Michael W. Deem and Ramdas Pophale) SiO2 
 PCOD9002440
Probable space group: P -1
;
_chemical_formula_sum "Si O2"
_cell_formula_units_Z 16
_cell_length_a 13.195164
_cell_length_b 14.202274
_cell_length_c 7.569824
_cell_angle_alpha 72.181253
_cell_angle_beta 132.416431
_cell_angle_gamma 136.122010
_cell_volume 679.408918
_symmetry_space_group_name_H-M "P -1"
_symmetry_group_IT_number 2
_symmetry_cell_setting 'triclinic'
loop_
_space_group_symop_operation_xyz
x,y,z
-x,-y,-z
loop_
_atom_site_type_symbol
_atom_site_label
_atom_site_fract_x
_atom_site_fract_y
_atom_site_fract_z
Si Si1 0.224818 0.114691 0.272455
Si Si2 0.539567 0.938014 0.439012
Si Si3 0.208210 0.050042 0.690419
Si Si4 0.297504 0.354876 0.087369
Si Si5 0.409786 0.342456 0.848370
Si Si6 0.096317 0.648410 0.112836
Si Si7 0.899482 0.249815 0.570430
Si Si8 0.012268 0.256675 0.329726
O O1 0.349220 0.098176 0.322630
O O2 0.239084 0.075028 0.504169
O O3 0.304210 0.268842 0.281597
O O4 0.000000 0.000000 0.000000
O O5 0.320679 0.782112 0.218220
O O6 0.500000 0.000000 0.500000
O O7 0.687942 0.080307 0.407252
O O8 0.380399 0.209913 0.879480
O O9 0.166419 0.918852 0.786145
O O10 0.000000 0.000000 0.500000
O O11 0.408192 0.518397 0.133330
O O12 0.411994 0.368506 0.043757
O O13 0.066585 0.257477 0.826590
O O14 0.212881 0.298960 0.576164
O O15 0.105283 0.670217 0.324540
O O16 0.972558 0.675105 0.870720
O O17 0.000000 0.500000 0.000000
O O18 0.972300 0.307617 0.422089
#
# Coordination Sequence:
#
# PCOD9002440 Si02
#       8
#     2   2   2   2   2   2   2   2
#     4  12  21  37  68  95 124 169 222 268 330 395
#     4  10  23  42  63  94 132 170 228 272 321 400
#     4  10  21  36  60  96 130 163 217 270 329 400
#     4  10  21  37  65  94 131 169 211 270 341 394
#     4   9  21  38  57  99 134 165 207 272 344 397
#     4  11  27  43  67  94 129 176 226 272 333 391
#     4  10  21  45  66  94 128 172 221 272 330 405
#     4  10  21  43  66  88 137 169 219 276 329 391
#
# _framework density 23.549880999999999
#
# number of rings (size 3 to 8) (size 9 to 14) (size 15 to 20)
#    0.000    1.750    2.500    1.500    5.250    4.500 
#    0.000    0.000    0.000    0.000    0.000    0.000 
#    0.000    0.000    0.000    0.000    0.000    0.000 
#
# Total GULP energy -89227.300538 kJ/mol
# GULP energy per Si atom -5576.706284 kJ/mol
# Density = 2.349628 g / cm^3
# Si number density = 23.549881 Si / 1000 Ang^3
#
#
#
# Elastic Constant Matrix: (Units=GPa)
#
#
# Indices 1 2 3 4 5 6 
#
# 1 66.9607 15.3204 1.2837 5.5862 -11.7771 -8.2746
# 2 15.3204 122.8155 6.1126 15.3907 -12.2085 -18.5541
# 3 1.2837 6.1126 27.1159 3.7249 -4.9580 -4.1456
# 4 5.5862 15.3907 3.7249 33.4448 -0.1032 2.6341
# 5 -11.7771 -12.2085 -4.9580 -0.1032 31.4819 5.5223
# 6 -8.2746 -18.5541 -4.1456 2.6341 5.5223 33.4209
#
#
#
# Elastic Compliance Matrix: (Units=1/GPa)
#
#
# Indices 1 2 3 4 5 6 
#
# 1 0.016692 -0.000759 0.001273 -0.002813 0.005585 0.003168
# 2 -0.000759 0.009898 -0.000265 -0.004802 0.002580 0.005226
# 3 0.001273 -0.000265 0.039273 -0.004799 0.005759 0.004466
# 4 -0.002813 -0.004802 -0.004799 0.033595 -0.002473 -0.006197
# 5 0.005585 0.002580 0.005759 -0.002473 0.036148 -0.002248
# 6 0.003168 0.005226 0.004466 -0.006197 -0.002248 0.035021
#
#
# Mechanical properties :
#
#
# Convention : Reuss Voigt Hill
#
# Bulk Modulus (GPa) = 15.06918 29.14729 22.10824
# Shear Modulus (GPa) = 26.00792 32.61455 29.31124
#
# Velocity S-wave (km/s) = 3.32682 3.72548 3.53178
# Velocity P-wave (km/s) = 4.60106 5.55961 5.10289
#
# Compressibility (1/GPa) = 0.06636059
#
# Stress axis : x y z
#
# Youngs Moduli (GPa) = 59.90925 101.03029 25.46264
#
# Poissons Ratio (x) = 0.07671 -0.03241
# Poissons Ratio (y) = 0.04549 0.00674
# Poissons Ratio (z) = -0.07626 0.02676
#
# Static dielectric constant tensor:
#      x y z
#    x 1.944270 -0.008050 -0.007980 
#    y -0.008050 1.959560 0.047160 
#    z -0.007980 0.047160 1.809670 
# 
# From -- ./inp_files/312890.got.cif
#   From: 2010.05.17/outbox.cif.g08.bks.cpg/sg2_157_cif.got.tgz:312890.got - 2010.06.03 11:33:40.
