data_PCOD9002913
_publ_section_title
;
Structure prediction by ZEFSAII (Michael W. Deem and Ramdas Pophale) SiO2 
 PCOD9002913
Probable space group: P -1
;
_chemical_formula_sum "Si O2"
_cell_formula_units_Z 14
_cell_length_a 8.175232
_cell_length_b 11.840311
_cell_length_c 8.957875
_cell_angle_alpha 135.140479
_cell_angle_beta 68.849794
_cell_angle_gamma 91.280569
_cell_volume 533.313511
_symmetry_space_group_name_H-M "P -1"
_symmetry_group_IT_number 2
_symmetry_cell_setting 'triclinic'
loop_
_space_group_symop_operation_xyz
x,y,z
-x,-y,-z
loop_
_atom_site_type_symbol
_atom_site_label
_atom_site_fract_x
_atom_site_fract_y
_atom_site_fract_z
Si Si1 0.928424 0.643418 0.368732
Si Si2 0.426548 0.230135 0.548857
Si Si3 0.042498 0.228906 0.224056
Si Si4 0.052103 0.032015 0.766830
Si Si5 0.771412 0.004182 0.633450
Si Si6 0.637145 0.594890 0.980304
Si Si7 0.370107 0.550130 0.448280
O O1 0.857577 0.700766 0.614620
O O2 0.140148 0.514262 0.183776
O O3 0.760500 0.614959 0.307618
O O4 0.925762 0.812541 0.437343
O O5 0.408857 0.051820 0.333524
O O6 0.590539 0.288300 0.490311
O O7 0.406149 0.245070 0.746973
O O8 0.849693 0.375343 0.378161
O O9 0.986058 0.097057 0.224114
O O10 0.122499 0.148684 0.964207
O O11 0.196918 0.962997 0.518439
O O12 0.847372 0.112425 0.825338
O O13 0.590204 0.602124 0.828181
O O14 0.500000 0.500000 0.000000
O O15 0.500000 0.500000 0.500000
#
# Coordination Sequence:
#
# PCOD9002913 Si02
#       7
#     2   2   2   2   2   2   2
#     4   8  16  31  50  76 101 131 168 213 254 294
#     4   9  18  34  51  74 106 130 172 215 247 303
#     4   9  18  33  54  74 104 138 165 209 258 304
#     4   9  16  33  54  77 102 132 172 206 259 303
#     4   8  17  30  54  77  98 129 171 214 245 304
#     4   9  17  31  51  71 102 140 167 205 258 301
#     4  10  21  37  50  73 106 141 169 207 260 308
#
# _framework density 26.250972999999998
#
# number of rings (size 3 to 8) (size 9 to 14) (size 15 to 20)
#    0.857    2.286    0.000    0.429    0.000    2.286 
#    2.571    4.286    0.000    0.000    0.000    0.000 
#    0.000    0.000    0.000    0.000    0.000    0.000 
#
# Total GULP energy -77977.256595 kJ/mol
# GULP energy per Si atom -5569.804042 kJ/mol
# Density = 2.619123 g / cm^3
# Si number density = 26.250973 Si / 1000 Ang^3
#
#
#
# Elastic Constant Matrix: (Units=GPa)
#
#
# Indices 1 2 3 4 5 6 
#
# 1 91.3716 15.9000 40.1418 -8.5253 9.6679 -14.9395
# 2 15.9000 89.1381 32.9163 -27.3066 2.6821 -0.4014
# 3 40.1418 32.9163 67.4463 -35.6186 33.1386 -28.9051
# 4 -8.5253 -27.3066 -35.6186 27.1583 -10.9139 10.0651
# 5 9.6679 2.6821 33.1386 -10.9139 34.6822 -7.6853
# 6 -14.9395 -0.4014 -28.9051 10.0651 -7.6853 54.8493
#
#
#
# Elastic Compliance Matrix: (Units=1/GPa)
#
#
# Indices 1 2 3 4 5 6 
#
# 1 -0.172240 -0.024110 0.717866 0.644915 -0.398290 0.157067
# 2 -0.024110 0.015111 0.085045 0.096844 -0.041973 0.014709
# 3 0.717866 0.085045 -2.796208 -2.514875 1.540716 -0.600055
# 4 0.644915 0.096844 -2.514875 -2.193928 1.403481 -0.549703
# 5 -0.398290 -0.041973 1.540716 1.403481 -0.813915 0.331564
# 6 0.157067 0.014709 -0.600055 -0.549703 0.331564 -0.107773
#
#
# Mechanical properties :
#
#
# Convention : Reuss Voigt Hill
#
# Bulk Modulus (GPa) = -0.71647 47.31913 23.30133
# Shear Modulus (GPa) = -0.61791 33.93783 16.65996
#
# Velocity S-wave (km/s) = -0.48569 3.59948 2.52194
# Velocity P-wave (km/s) = 0.76684 5.94473 4.16844
#
# Compressibility (1/GPa) = -1.39573546
#
# Stress axis : x y z
#
# Youngs Moduli (GPa) = -5.80584 66.17770 -0.35763
#
# Poissons Ratio (x) = 1.59553 0.25673
# Poissons Ratio (y) = -0.13998 0.03041
# Poissons Ratio (z) = 4.16781 -5.62805
#
# Static dielectric constant tensor:
#      x y z
#    x 2.208530 0.051650 0.051190 
#    y 0.051650 2.140040 0.080850 
#    z 0.051190 0.080850 2.133440 
# 
# From -- ./inp_files/204180.got.cif
#   From: 2010.05.17/outbox.cif.g08.bks.cpg/sg2_103_cif.got.tgz:204180.got - 2010.06.03 11:33:40.
