data_PCOD9002946
_publ_section_title
;
Structure prediction by ZEFSAII (Michael W. Deem and Ramdas Pophale) SiO2 
 PCOD9002946
Probable space group: P -1
;
_chemical_formula_sum "Si O2"
_cell_formula_units_Z 16
_cell_length_a 5.846441
_cell_length_b 9.252800
_cell_length_c 17.905697
_cell_angle_alpha 122.152241
_cell_angle_beta 71.481021
_cell_angle_gamma 130.624669
_cell_volume 621.800259
_symmetry_space_group_name_H-M "P -1"
_symmetry_group_IT_number 2
_symmetry_cell_setting 'triclinic'
loop_
_space_group_symop_operation_xyz
x,y,z
-x,-y,-z
loop_
_atom_site_type_symbol
_atom_site_label
_atom_site_fract_x
_atom_site_fract_y
_atom_site_fract_z
Si Si1 0.379246 0.619144 0.085632
Si Si2 0.358849 0.926069 0.074770
Si Si3 0.335005 0.978162 0.386971
Si Si4 0.801033 0.657030 0.608617
Si Si5 0.049570 0.973632 0.808975
Si Si6 0.937040 0.336702 0.184091
Si Si7 0.776990 0.945655 0.415414
Si Si8 0.206083 0.582471 0.625812
O O1 0.326358 0.722827 0.050775
O O2 0.594840 0.834037 0.174029
O O3 0.103073 0.459954 0.125693
O O4 0.500000 0.500000 0.000000
O O5 0.051704 0.888578 0.111320
O O6 0.589795 0.141780 0.155787
O O7 0.500000 0.000000 0.000000
O O8 0.502018 0.873765 0.367581
O O9 0.992331 0.870044 0.363086
O O10 0.324720 0.073986 0.494161
O O11 0.557587 0.168557 0.358265
O O12 0.447879 0.530397 0.593284
O O13 0.920282 0.525050 0.589260
O O14 0.907642 0.839231 0.711210
O O15 0.991154 0.799211 0.556439
O O16 0.940090 0.790851 0.832067
O O17 0.927554 0.456900 0.288325
#
# Coordination Sequence:
#
# PCOD9002946 Si02
#       8
#     2   2   2   2   2   2   2   2
#     4  11  24  39  55  81 107 137 184 229 278 338
#     4  11  22  37  58  78 103 138 177 225 281 333
#     4   8  13  21  37  65 102 131 174 214 264 309
#     4   9  16  29  50  72 105 141 182 218 274 320
#     4  10  21  37  55  77 106 142 178 229 273 335
#     4  10  21  37  55  77 108 141 180 226 280 327
#     4   8  13  21  37  66  99 136 168 220 260 311
#     4   9  16  29  49  74 102 145 177 222 270 325
#
# _framework density 25.731733999999999
#
# number of rings (size 3 to 8) (size 9 to 14) (size 15 to 20)
#    0.000    2.500    1.250    1.500    0.000    5.000 
#    0.000    0.000    0.000    0.000    0.000    0.875 
#    0.000    1.000    0.000    0.625    0.000    0.500 
#
# Total GULP energy -89200.041797 kJ/mol
# GULP energy per Si atom -5575.002612 kJ/mol
# Density = 2.567317 g / cm^3
# Si number density = 25.731734 Si / 1000 Ang^3
#
#
#
# Elastic Constant Matrix: (Units=GPa)
#
#
# Indices 1 2 3 4 5 6 
#
# 1 185.4922 51.7621 36.7809 14.0783 -10.4433 -14.9377
# 2 51.7621 133.0667 40.4986 -26.7716 1.4336 -1.2843
# 3 36.7809 40.4986 104.4120 -21.3643 0.0642 -0.0219
# 4 14.0783 -26.7716 -21.3643 38.1119 3.6827 4.2426
# 5 -10.4433 1.4336 0.0642 3.6827 36.3226 0.1177
# 6 -14.9377 -1.2843 -0.0219 4.2426 0.1177 31.6876
#
#
#
# Elastic Compliance Matrix: (Units=1/GPa)
#
#
# Indices 1 2 3 4 5 6 
#
# 1 0.008370 -0.004008 -0.003144 -0.008547 0.003421 0.004913
# 2 -0.004008 0.011277 -0.001046 0.009358 -0.002536 -0.002677
# 3 -0.003144 -0.001046 0.012731 0.008014 -0.001689 -0.002582
# 4 -0.008547 0.009358 0.008014 0.042178 -0.007087 -0.009265
# 5 0.003421 -0.002536 -0.001689 -0.007087 0.029329 0.002349
# 6 0.004913 -0.002677 -0.002582 -0.009265 0.002349 0.034995
#
#
# Mechanical properties :
#
#
# Convention : Reuss Voigt Hill
#
# Bulk Modulus (GPa) = 62.57171 75.67269 69.12220
# Shear Modulus (GPa) = 31.13284 40.81970 35.97627
#
# Velocity S-wave (km/s) = 3.48214 3.98723 3.74321
# Velocity P-wave (km/s) = 6.36685 7.11825 6.75301
#
# Compressibility (1/GPa) = 0.01598166
#
# Stress axis : x y z
#
# Youngs Moduli (GPa) = 119.47824 88.67743 78.54938
#
# Poissons Ratio (x) = 0.35542 0.24693
# Poissons Ratio (y) = 0.47886 0.08218
# Poissons Ratio (z) = 0.37560 0.09278
#
# Static dielectric constant tensor:
#      x y z
#    x 2.220120 0.041000 0.045230 
#    y 0.041000 1.935790 0.011050 
#    z 0.045230 0.011050 1.975550 
# 
# From -- ./inp_files/10711.got.cif
#   From: 2010.05.17/outbox.cif.g08.bks.cpg/sg2_6_cif.got.tgz:10711.got - 2010.06.03 11:33:40.
