data_PCOD9002986
_publ_section_title
;
Structure prediction by ZEFSAII (Michael W. Deem and Ramdas Pophale) SiO2 
 PCOD9002986
Probable space group: P -1
;
_chemical_formula_sum "Si O2"
_cell_formula_units_Z 16
_cell_length_a 5.887923
_cell_length_b 26.731479
_cell_length_c 5.114076
_cell_angle_alpha 78.075512
_cell_angle_beta 89.659898
_cell_angle_gamma 128.128110
_cell_volume 610.120082
_symmetry_space_group_name_H-M "P -1"
_symmetry_group_IT_number 2
_symmetry_cell_setting 'triclinic'
loop_
_space_group_symop_operation_xyz
x,y,z
-x,-y,-z
loop_
_atom_site_type_symbol
_atom_site_label
_atom_site_fract_x
_atom_site_fract_y
_atom_site_fract_z
Si Si1 0.276886 0.602799 0.466973
Si Si2 0.308938 0.278616 0.953246
Si Si3 0.419301 0.757661 0.608095
Si Si4 0.813437 0.070668 0.405324
Si Si5 0.655610 0.490212 0.739686
Si Si6 0.792783 0.884328 0.155611
Si Si7 0.227675 0.365134 0.182381
Si Si8 0.702849 0.160676 0.117719
O O1 0.389731 0.670790 0.259741
O O2 0.248424 0.553908 0.303851
O O3 0.545091 0.623973 0.621381
O O4 0.978759 0.561272 0.678859
O O5 0.381531 0.255132 0.230598
O O6 0.229999 0.324924 0.989570
O O7 0.007868 0.214719 0.907055
O O8 0.587693 0.805685 0.307932
O O9 0.380467 0.800795 0.757488
O O10 0.100850 0.686976 0.654172
O O11 0.755791 0.123049 0.363191
O O12 0.030037 0.080833 0.617517
O O13 0.500000 0.000000 0.500000
O O14 0.971215 0.087671 0.105910
O O15 0.500000 0.500000 0.500000
O O16 0.393958 0.439788 0.999719
O O17 0.553946 0.888993 0.030720
#
# Coordination Sequence:
#
# PCOD9002986 Si02
#       8
#     2   2   2   2   2   2   2   2
#     4  10  21  37  57  87 124 175 223 287 346 421
#     4  10  21  40  63  96 135 176 230 292 353 418
#     4  11  23  43  68 104 136 184 235 294 359 423
#     4  12  29  50  76 109 149 191 238 292 356 427
#     4  10  21  37  56  83 127 170 227 283 351 416
#     4  12  25  48  73 109 141 192 237 291 357 425
#     4  10  22  36  61  93 128 175 229 288 354 420
#     4  11  24  45  74 101 149 182 241 292 357 420
#
# _framework density 26.224349
#
# number of rings (size 3 to 8) (size 9 to 14) (size 15 to 20)
#    0.000    1.250    2.500    2.250    1.750    4.500 
#    0.000    0.000    0.000    0.000    0.000    0.000 
#    0.000    0.000    0.000    0.000    0.000    0.000 
#
# Total GULP energy -89552.217843 kJ/mol
# GULP energy per Si atom -5597.013615 kJ/mol
# Density = 2.616466 g / cm^3
# Si number density = 26.224349 Si / 1000 Ang^3
#
#
#
# Elastic Constant Matrix: (Units=GPa)
#
#
# Indices 1 2 3 4 5 6 
#
# 1 69.6166 32.7236 34.6912 -18.6442 -24.8295 35.4969
# 2 32.7236 132.6711 44.7506 -39.7395 -18.9558 51.1684
# 3 34.6912 44.7506 156.0121 -28.7238 -28.8486 29.1930
# 4 -18.6442 -39.7395 -28.7238 43.0383 15.6283 -6.7721
# 5 -24.8295 -18.9558 -28.8486 15.6283 56.1514 0.1165
# 6 35.4969 51.1684 29.1930 -6.7721 0.1165 54.8714
#
#
#
# Elastic Compliance Matrix: (Units=1/GPa)
#
#
# Indices 1 2 3 4 5 6 
#
# 1 0.032647 0.008128 0.000431 0.012552 0.013965 -0.027409
# 2 0.008128 0.019449 0.000841 0.016400 0.006073 -0.021831
# 3 0.000431 0.000841 0.008518 0.004550 0.003595 -0.005042
# 4 0.012552 0.016400 0.004550 0.043088 0.001474 -0.020519
# 5 0.013965 0.006073 0.003595 0.001474 0.027505 -0.016486
# 6 -0.027409 -0.021831 -0.005042 -0.020519 -0.016486 0.056498
#
#
# Mechanical properties :
#
#
# Convention : Reuss Voigt Hill
#
# Bulk Modulus (GPa) = 12.59207 64.73674 38.66440
# Shear Modulus (GPa) = 25.59175 47.22117 36.40646
#
# Velocity S-wave (km/s) = 3.12729 4.24802 3.72999
# Velocity P-wave (km/s) = 4.22517 6.98572 5.77288
#
# Compressibility (1/GPa) = 0.07941509
#
# Stress axis : x y z
#
# Youngs Moduli (GPa) = 30.63093 51.41766 117.39204
#
# Poissons Ratio (x) = -0.41794 -0.05060
# Poissons Ratio (y) = -0.24898 -0.09877
# Poissons Ratio (z) = -0.01320 -0.04326
#
# Static dielectric constant tensor:
#      x y z
#    x 2.091940 -0.062250 -0.109880 
#    y -0.062250 2.092950 0.035160 
#    z -0.109880 0.035160 2.137360 
# 
# From -- ./inp_files/14773.got.cif
#   From: 2010.05.17/outbox.cif.g08.bks.cpg/sg2_8_cif.got.tgz:14773.got - 2010.06.03 11:33:40.
