data_PCOD9002366
_publ_section_title
;
Structure prediction by ZEFSAII (Michael W. Deem and Ramdas Pophale) SiO2 
 PCOD9002366
Probable space group: P -1
;
_chemical_formula_sum "Si O2"
_cell_formula_units_Z 14
_cell_length_a 7.318426
_cell_length_b 5.038103
_cell_length_c 16.843548
_cell_angle_alpha 119.632355
_cell_angle_beta 80.123487
_cell_angle_gamma 115.016449
_cell_volume 488.617689
_symmetry_space_group_name_H-M "P -1"
_symmetry_group_IT_number 2
_symmetry_cell_setting 'triclinic'
loop_
_space_group_symop_operation_xyz
x,y,z
-x,-y,-z
loop_
_atom_site_type_symbol
_atom_site_label
_atom_site_fract_x
_atom_site_fract_y
_atom_site_fract_z
Si Si1 0.223283 0.665894 0.789496
Si Si2 0.543642 0.184541 0.352084
Si Si3 0.349586 0.599813 0.946214
Si Si4 0.311753 0.679474 0.128276
Si Si5 0.695359 0.939917 0.508311
Si Si6 0.869128 0.765131 0.775573
Si Si7 0.080513 0.943587 0.635446
O O1 0.429553 0.791439 0.741026
O O2 0.250388 0.601578 0.868848
O O3 0.092585 0.311415 0.705228
O O4 0.092325 0.879539 0.813561
O O5 0.643550 0.558333 0.433649
O O6 0.330616 0.035986 0.391766
O O7 0.700934 0.026611 0.343001
O O8 0.474479 0.363248 0.901581
O O9 0.222602 0.507549 0.023519
O O10 0.500000 0.000000 0.000000
O O11 0.252761 0.519287 0.196004
O O12 0.226997 0.966798 0.173118
O O13 0.895921 0.132386 0.469891
O O14 0.500000 0.000000 0.500000
O O15 0.905239 0.705607 0.670912
#
# Coordination Sequence:
#
# PCOD9002366 Si02
#       7
#     2   2   2   2   2   2   2
#     4  10  21  36  60  87 117 149 195 246 286 339
#     4   8  15  26  48  80 118 148 185 227 287 330
#     4  11  25  44  59  81 114 155 198 241 292 350
#     4  11  24  42  60  81 115 151 195 237 298 350
#     4   8  13  25  45  77 120 153 176 225 284 339
#     4  11  21  40  60  88 114 147 193 242 293 343
#     4   9  17  31  52  85 120 145 189 233 291 332
#
# _framework density 28.652255
#
# number of rings (size 3 to 8) (size 9 to 14) (size 15 to 20)
#    0.000    2.286    2.857    0.000    0.000    5.714 
#    0.000    0.000    0.000    0.000    0.000    2.000 
#    0.000    2.429    0.000    0.000    0.000    0.000 
#
# Total GULP energy -78243.673748 kJ/mol
# GULP energy per Si atom -5588.833839 kJ/mol
# Density = 2.858704 g / cm^3
# Si number density = 28.652255 Si / 1000 Ang^3
#
#
#
# Elastic Constant Matrix: (Units=GPa)
#
#
# Indices 1 2 3 4 5 6 
#
# 1 113.1656 55.4124 75.3434 -0.6095 -8.6394 -28.4040
# 2 55.4124 177.1333 63.7051 -11.9411 -13.3959 -31.9665
# 3 75.3434 63.7051 199.4806 -26.9433 -27.6039 -31.7191
# 4 -0.6095 -11.9411 -26.9433 53.8187 -5.4541 -1.2947
# 5 -8.6394 -13.3959 -27.6039 -5.4541 42.2341 -5.8976
# 6 -28.4040 -31.9665 -31.7191 -1.2947 -5.8976 55.8029
#
#
#
# Elastic Compliance Matrix: (Units=1/GPa)
#
#
# Indices 1 2 3 4 5 6 
#
# 1 0.013558 -0.002378 -0.004342 -0.002552 -0.000739 0.002934
# 2 -0.002378 0.007377 -0.000442 0.001685 0.002206 0.003036
# 3 -0.004342 -0.000442 0.008777 0.004912 0.005797 0.003252
# 4 -0.002552 0.001685 0.004912 0.022142 0.006595 0.003669
# 5 -0.000739 0.002206 0.005797 0.006595 0.029913 0.007497
# 6 0.002934 0.003036 0.003252 0.003669 0.007497 0.023879
#
#
# Mechanical properties :
#
#
# Convention : Reuss Voigt Hill
#
# Bulk Modulus (GPa) = 64.98688 97.63347 81.31017
# Shear Modulus (GPa) = 39.96841 50.05904 45.01373
#
# Velocity S-wave (km/s) = 3.73895 4.18440 3.96793
# Velocity P-wave (km/s) = 6.43196 7.58254 7.03083
#
# Compressibility (1/GPa) = 0.01538772
#
# Stress axis : x y z
#
# Youngs Moduli (GPa) = 73.75719 135.56068 113.93696
#
# Poissons Ratio (x) = 0.32241 0.49469
# Poissons Ratio (y) = 0.17542 0.05034
# Poissons Ratio (z) = 0.32024 0.05989
#
# Static dielectric constant tensor:
#      x y z
#    x 2.344640 0.175740 0.040720 
#    y 0.175740 2.379310 -0.023090 
#    z 0.040720 -0.023090 2.271610 
# 
# From -- ./inp_files/488634.got.cif
#   From: 2010.05.17/outbox.cif.g08.bks.cpg/sg2_245_cif.got.tgz:488634.got - 2010.06.03 11:33:40.
