data_PCOD9002857
_publ_section_title
;
Structure prediction by ZEFSAII (Michael W. Deem and Ramdas Pophale) SiO2 
 PCOD9002857
Probable space group: P -1
;
_chemical_formula_sum "Si O2"
_cell_formula_units_Z 16
_cell_length_a 9.172184
_cell_length_b 8.634715
_cell_length_c 20.054542
_cell_angle_alpha 149.519976
_cell_angle_beta 63.211745
_cell_angle_gamma 117.042557
_cell_volume 711.446926
_symmetry_space_group_name_H-M "P -1"
_symmetry_group_IT_number 2
_symmetry_cell_setting 'triclinic'
loop_
_space_group_symop_operation_xyz
x,y,z
-x,-y,-z
loop_
_atom_site_type_symbol
_atom_site_label
_atom_site_fract_x
_atom_site_fract_y
_atom_site_fract_z
Si Si1 0.960330 0.883475 0.626446
Si Si2 0.851028 0.086409 0.151448
Si Si3 0.640551 0.791926 0.572901
Si Si4 0.872200 0.750569 0.739601
Si Si5 0.541125 0.724164 0.137971
Si Si6 0.339500 0.797774 0.991057
Si Si7 0.037728 0.580268 0.871737
Si Si8 0.165476 0.930292 0.478311
O O1 0.808222 0.745252 0.559503
O O2 0.936286 0.709180 0.636563
O O3 0.126031 0.940250 0.568562
O O4 0.953486 0.239518 0.779488
O O5 0.896740 0.377679 0.201974
O O6 0.969676 0.110193 0.198888
O O7 0.669008 0.004881 0.185562
O O8 0.898906 0.800724 0.992650
O O9 0.500000 0.500000 0.500000
O O10 0.590361 0.100784 0.731825
O O11 0.687168 0.858937 0.510864
O O12 0.808902 0.425551 0.667091
O O13 0.737177 0.978861 0.858233
O O14 0.500000 0.500000 0.000000
O O15 0.617425 0.507326 0.094969
O O16 0.194821 0.696850 0.929337
O O17 0.500000 0.000000 0.000000
O O18 0.000000 0.000000 0.500000
#
# Coordination Sequence:
#
# PCOD9002857 Si02
#       8
#     2   2   2   2   2   2   2   2
#     4  11  23  42  68  94 130 177 232 271 331 402
#     4  10  21  36  66  92 131 169 221 274 336 395
#     4  11  26  45  69  97 139 179 225 280 339 406
#     4  11  22  41  68  97 130 172 226 284 331 406
#     4  12  24  40  67  98 135 177 222 276 344 402
#     4  11  23  40  64  97 140 174 218 285 348 395
#     4  10  21  39  62  99 128 174 225 273 328 404
#     4  10  23  43  67  91 129 177 223 268 330 404
#
# _framework density 22.489379
#
# number of rings (size 3 to 8) (size 9 to 14) (size 15 to 20)
#    0.000    1.250    0.000    6.375    5.250    4.000 
#    2.250    0.625    0.000    0.000    0.000    0.000 
#    0.000    0.000    0.000    0.000    0.000    0.000 
#
# Total GULP energy -89398.229829 kJ/mol
# GULP energy per Si atom -5587.389364 kJ/mol
# Density = 2.243819 g / cm^3
# Si number density = 22.489379 Si / 1000 Ang^3
#
#
#
# Elastic Constant Matrix: (Units=GPa)
#
#
# Indices 1 2 3 4 5 6 
#
# 1 47.3143 29.5934 8.9114 -8.6038 -1.0393 2.2149
# 2 29.5934 175.6120 30.7578 -12.4518 2.6896 3.8587
# 3 8.9114 30.7578 77.2484 -9.4064 -8.9967 1.4545
# 4 -8.6038 -12.4518 -9.4064 48.6857 0.2929 2.2543
# 5 -1.0393 2.6896 -8.9967 0.2929 30.1259 6.3468
# 6 2.2149 3.8587 1.4545 2.2543 6.3468 35.2876
#
#
#
# Elastic Compliance Matrix: (Units=1/GPa)
#
#
# Indices 1 2 3 4 5 6 
#
# 1 0.024292 -0.003716 -0.000754 0.003260 0.001233 -0.001517
# 2 -0.003716 0.006806 -0.002363 0.000645 -0.001405 -0.000202
# 3 -0.000754 -0.002363 0.014828 0.002159 0.004870 -0.001319
# 4 0.003260 0.000645 0.002159 0.021782 0.000892 -0.001916
# 5 0.001233 -0.001405 0.004870 0.000892 0.036218 -0.006696
# 6 -0.001517 -0.000202 -0.001319 -0.001916 -0.006696 0.029837
#
#
# Mechanical properties :
#
#
# Convention : Reuss Voigt Hill
#
# Bulk Modulus (GPa) = 30.99646 48.74442 39.87044
# Shear Modulus (GPa) = 31.60923 38.21398 34.91161
#
# Velocity S-wave (km/s) = 3.75309 4.12661 3.94427
# Velocity P-wave (km/s) = 5.70908 6.66533 6.20565
#
# Compressibility (1/GPa) = 0.03226175
#
# Stress axis : x y z
#
# Youngs Moduli (GPa) = 41.16523 146.92718 67.44074
#
# Poissons Ratio (x) = 0.54599 0.05083
# Poissons Ratio (y) = 0.15297 0.15933
# Poissons Ratio (z) = 0.03103 0.34712
#
# Static dielectric constant tensor:
#      x y z
#    x 1.800100 -0.009600 -0.025020 
#    y -0.009600 1.823390 -0.010010 
#    z -0.025020 -0.010010 1.921130 
# 
# From -- ./inp_files/588271.got.cif
#   From: 2010.05.17/outbox.cif.g08.bks.cpg/sg2_295_cif.got.tgz:588271.got - 2010.06.03 11:33:40.
