data_PCOD9002387
_publ_section_title
;
Structure prediction by ZEFSAII (Michael W. Deem and Ramdas Pophale) SiO2 
 PCOD9002387
Probable space group: P -1
;
_chemical_formula_sum "Si O2"
_cell_formula_units_Z 16
_cell_length_a 13.701980
_cell_length_b 21.019512
_cell_length_c 12.445722
_cell_angle_alpha 155.367395
_cell_angle_beta 46.810902
_cell_angle_gamma 148.703334
_cell_volume 702.000100
_symmetry_space_group_name_H-M "P -1"
_symmetry_group_IT_number 2
_symmetry_cell_setting 'triclinic'
loop_
_space_group_symop_operation_xyz
x,y,z
-x,-y,-z
loop_
_atom_site_type_symbol
_atom_site_label
_atom_site_fract_x
_atom_site_fract_y
_atom_site_fract_z
Si Si1 0.278237 0.510921 0.191726
Si Si2 0.973098 0.713182 0.755264
Si Si3 0.829011 0.507064 0.313606
Si Si4 0.495448 0.633879 0.909038
Si Si5 0.209142 0.623894 0.208530
Si Si6 0.390405 0.043836 0.846180
Si Si7 0.112228 0.176038 0.412400
Si Si8 0.704289 0.822976 0.276936
O O1 0.169935 0.483509 0.126209
O O2 0.525847 0.760659 0.378337
O O3 0.159279 0.457470 0.305844
O O4 0.271956 0.320642 0.904998
O O5 0.853466 0.573344 0.521088
O O6 0.202762 0.848722 0.769610
O O7 0.019936 0.933025 0.075496
O O8 0.866303 0.691767 0.500145
O O9 0.006288 0.539502 0.199785
O O10 0.605401 0.245766 0.054168
O O11 0.343898 0.363553 0.575884
O O12 0.323977 0.619668 0.029622
O O13 0.638644 0.822969 0.995744
O O14 0.607418 0.716478 0.065634
O O15 0.370055 0.891566 0.541473
O O16 0.935261 0.087557 0.490980
#
# Coordination Sequence:
#
# PCOD9002387 Si02
#       8
#     2   2   2   2   2   2   2   2
#     4   9  20  37  58  78 112 151 189 227 267 328
#     4  10  21  39  56  80 116 149 185 232 271 323
#     4  10  22  37  58  85 113 148 185 225 280 336
#     4  10  21  36  60  89 112 139 183 235 285 334
#     4  10  21  39  56  80 116 149 185 232 271 323
#     4  10  22  37  58  85 113 148 185 225 280 336
#     4  10  21  36  60  89 112 139 183 235 285 334
#     4   9  18  38  58  82 112 145 182 234 284 317
#
# _framework density 22.792020000000001
#
# number of rings (size 3 to 8) (size 9 to 14) (size 15 to 20)
#    0.000    2.250    0.000    2.250    0.000   12.000 
#    0.000   23.125    0.000    0.000    0.000    0.000 
#    0.000    0.000    0.000    0.000    0.000    0.000 
#
# Total GULP energy -89400.264971 kJ/mol
# GULP energy per Si atom -5587.516561 kJ/mol
# Density = 2.274014 g / cm^3
# Si number density = 22.792020 Si / 1000 Ang^3
#
#
#
# Elastic Constant Matrix: (Units=GPa)
#
#
# Indices 1 2 3 4 5 6 
#
# 1 72.0966 -1.3347 30.7908 15.3565 -0.5092 -11.4843
# 2 -1.3347 103.6549 27.3050 6.9042 3.4552 -19.9022
# 3 30.7908 27.3050 61.5532 9.7873 27.0913 16.5418
# 4 15.3565 6.9042 9.7873 30.9101 8.8073 -1.7782
# 5 -0.5092 3.4552 27.0913 8.8073 18.7351 -2.6322
# 6 -11.4843 -19.9022 16.5418 -1.7782 -2.6322 19.9860
#
#
#
# Elastic Compliance Matrix: (Units=1/GPa)
#
#
# Indices 1 2 3 4 5 6 
#
# 1 0.005377 -0.005961 0.013463 -0.000812 -0.020190 -0.016721
# 2 -0.005961 0.006003 0.009570 0.003193 -0.017649 -0.007408
# 3 0.013463 0.009570 -0.013684 -0.010606 0.027773 0.031306
# 4 -0.000812 0.003193 -0.010606 0.036327 -0.000289 0.014685
# 5 -0.020190 -0.017649 0.027773 -0.000289 0.008889 -0.051018
# 6 -0.016721 -0.007408 0.031306 0.014685 -0.051018 0.001726
#
#
# Mechanical properties :
#
#
# Convention : Reuss Voigt Hill
#
# Bulk Modulus (GPa) = 31.40658 38.98077 35.19368
# Shear Modulus (GPa) = 236.88942 25.96249 131.42595
#
# Velocity S-wave (km/s) = 10.20592 3.37872 7.60186
# Velocity P-wave (km/s) = 12.35681 5.68867 9.61904
#
# Compressibility (1/GPa) = 0.03184046
#
# Stress axis : x y z
#
# Youngs Moduli (GPa) = 185.98029 166.58332 -73.07612
#
# Poissons Ratio (x) = 0.99295 0.98385
# Poissons Ratio (y) = 1.10856 0.69932
# Poissons Ratio (z) = -2.50393 -1.59415
#
# Static dielectric constant tensor:
#      x y z
#    x 1.836250 0.041290 -0.028790 
#    y 0.041290 1.927200 -0.013710 
#    z -0.028790 -0.013710 1.864830 
# 
# From -- ./inp_files/457742.got.cif
#   From: 2010.05.17/outbox.cif.g08.bks.cpg/sg2_229_cif.got.tgz:457742.got - 2010.06.03 11:33:40.
