data_PCOD9002021
_publ_section_title
;
Structure prediction by ZEFSAII (Michael W. Deem and Ramdas Pophale) SiO2 
 PCOD9002021
Probable space group: P -1
;
_chemical_formula_sum "Si O2"
_cell_formula_units_Z 16
_cell_length_a 7.522849
_cell_length_b 12.940521
_cell_length_c 8.450577
_cell_angle_alpha 115.136616
_cell_angle_beta 127.126791
_cell_angle_gamma 84.187055
_cell_volume 579.920204
_symmetry_space_group_name_H-M "P -1"
_symmetry_group_IT_number 2
_symmetry_cell_setting 'triclinic'
loop_
_space_group_symop_operation_xyz
x,y,z
-x,-y,-z
loop_
_atom_site_type_symbol
_atom_site_label
_atom_site_fract_x
_atom_site_fract_y
_atom_site_fract_z
Si Si1 0.319606 0.171483 0.500549
Si Si2 0.236407 0.595238 0.704882
Si Si3 0.660509 0.637430 0.124685
Si Si4 0.072432 0.151415 0.784038
Si Si5 0.139604 0.952632 0.903497
Si Si6 0.399289 0.963764 0.643363
Si Si7 0.845910 0.418166 0.685569
Si Si8 0.922181 0.334500 0.013870
O O1 0.390716 0.297140 0.701529
O O2 0.467056 0.136237 0.412905
O O3 0.344676 0.062286 0.556740
O O4 0.050353 0.160680 0.317883
O O5 0.000000 0.500000 0.500000
O O6 0.287223 0.637499 0.578864
O O7 0.452912 0.552598 0.867869
O O8 0.194724 0.674031 0.883060
O O9 0.731969 0.751589 0.123337
O O10 0.890867 0.589879 0.213494
O O11 0.158309 0.042914 0.827009
O O12 0.857883 0.113552 0.525910
O O13 0.976763 0.211517 0.920580
O O14 0.398415 0.958280 0.093420
O O15 0.000000 0.000000 0.000000
O O16 0.808570 0.368544 0.810417
O O17 0.857595 0.557405 0.784513
#
# Coordination Sequence:
#
# PCOD9002021 Si02
#       8
#     2   2   2   2   2   2   2   2
#     4   9  19  35  56  81 113 152 194 250 301 353
#     4  10  22  40  62  89 121 162 209 258 311 366
#     4  11  23  38  58  89 124 158 211 263 302 371
#     4  10  21  36  56  86 120 158 203 255 306 359
#     4   9  19  35  57  85 114 152 203 247 298 367
#     4   9  18  35  56  80 114 152 196 246 304 364
#     4   9  21  41  61  88 124 160 202 257 318 365
#     4   9  19  40  63  85 123 162 201 256 308 366
#
# _framework density 27.590001999999998
#
# number of rings (size 3 to 8) (size 9 to 14) (size 15 to 20)
#    0.000    2.500    0.000    1.500    0.000    9.000 
#    0.000   21.875    0.000    0.000    0.000    0.000 
#    0.000    0.000    0.000    0.000    0.000    0.000 
#
# Total GULP energy -89323.271837 kJ/mol
# GULP energy per Si atom -5582.704490 kJ/mol
# Density = 2.752721 g / cm^3
# Si number density = 27.590002 Si / 1000 Ang^3
#
#
#
# Elastic Constant Matrix: (Units=GPa)
#
#
# Indices 1 2 3 4 5 6 
#
# 1 97.2419 7.1334 62.8388 4.6832 -6.0814 -11.4666
# 2 7.1334 71.5459 37.6968 6.7565 -5.4558 -11.5024
# 3 62.8388 37.6968 189.0545 -1.9505 4.6027 -17.7637
# 4 4.6832 6.7565 -1.9505 51.0534 -4.1583 -3.5135
# 5 -6.0814 -5.4558 4.6027 -4.1583 64.7584 2.8244
# 6 -11.4666 -11.5024 -17.7637 -3.5135 2.8244 32.6734
#
#
#
# Elastic Compliance Matrix: (Units=1/GPa)
#
#
# Indices 1 2 3 4 5 6 
#
# 1 0.013662 0.001780 -0.004706 -0.001363 0.001567 0.002581
# 2 0.001780 0.016673 -0.003581 -0.002095 0.001509 0.004192
# 3 -0.004706 -0.003581 0.007757 0.001204 -0.001285 0.001545
# 4 -0.001363 -0.002095 0.001204 0.020210 0.000841 0.001539
# 5 0.001567 0.001509 -0.001285 0.000841 0.015901 -0.000902
# 6 0.002581 0.004192 0.001545 0.001539 -0.000902 0.034071
#
#
# Mechanical properties :
#
#
# Convention : Reuss Voigt Hill
#
# Bulk Modulus (GPa) = 39.87349 63.68669 51.78009
# Shear Modulus (GPa) = 38.56667 46.37527 42.47097
#
# Velocity S-wave (km/s) = 3.74284 4.10429 3.92773
# Velocity P-wave (km/s) = 5.75864 6.75231 6.27517
#
# Compressibility (1/GPa) = 0.02507932
#
# Stress axis : x y z
#
# Youngs Moduli (GPa) = 73.19601 59.97682 128.92382
#
# Poissons Ratio (x) = -0.10679 0.60668
# Poissons Ratio (y) = -0.13032 0.46165
# Poissons Ratio (z) = 0.34444 0.21477
#
# Static dielectric constant tensor:
#      x y z
#    x 2.309730 0.032210 -0.044070 
#    y 0.032210 2.171870 0.009620 
#    z -0.044070 0.009620 2.236340 
# 
# From -- ./inp_files/213404.got.cif
#   From: 2010.05.17/outbox.cif.g08.bks.cpg/sg2_107_cif.got.tgz:213404.got - 2010.06.03 11:33:40.
