data_PCOD9002808
_publ_section_title
;
Structure prediction by ZEFSAII (Michael W. Deem and Ramdas Pophale) SiO2 
 PCOD9002808
Probable space group: P -1
;
_chemical_formula_sum "Si O2"
_cell_formula_units_Z 16
_cell_length_a 7.188774
_cell_length_b 13.941331
_cell_length_c 8.795564
_cell_angle_alpha 49.556591
_cell_angle_beta 76.289933
_cell_angle_gamma 78.778187
_cell_volume 650.753021
_symmetry_space_group_name_H-M "P -1"
_symmetry_group_IT_number 2
_symmetry_cell_setting 'triclinic'
loop_
_space_group_symop_operation_xyz
x,y,z
-x,-y,-z
loop_
_atom_site_type_symbol
_atom_site_label
_atom_site_fract_x
_atom_site_fract_y
_atom_site_fract_z
Si Si1 0.680865 0.816094 0.679944
Si Si2 0.970812 0.900452 0.741747
Si Si3 0.814149 0.501090 0.858606
Si Si4 0.653734 0.033248 0.243648
Si Si5 0.835089 0.595848 0.283112
Si Si6 0.978686 0.320320 0.554576
Si Si7 0.581855 0.574631 0.085541
Si Si8 0.182945 0.946221 0.116066
O O1 0.867678 0.797077 0.770434
O O2 0.703738 0.889681 0.441003
O O3 0.543290 0.916607 0.696793
O O4 0.568821 0.689729 0.849272
O O5 0.826632 0.965544 0.826398
O O6 0.752846 0.489160 0.058274
O O7 0.000000 0.000000 0.500000
O O8 0.844401 0.447787 0.483957
O O9 0.619351 0.486834 0.816377
O O10 0.901056 0.635156 0.659890
O O11 0.975108 0.403382 0.860792
O O12 0.824574 0.114886 0.197220
O O13 0.653062 0.046490 0.049002
O O14 0.874818 0.685163 0.324942
O O15 0.649717 0.617587 0.192384
O O16 0.861385 0.197317 0.685460
O O17 0.000000 0.000000 0.000000
#
# Coordination Sequence:
#
# PCOD9002808 Si02
#       8
#     2   2   2   2   2   2   2   2
#     4  10  22  37  59  89 119 161 198 251 291 364
#     4   9  20  37  59  88 116 156 204 239 297 364
#     4   9  22  40  57  91 122 147 205 249 298 365
#     4   9  21  39  56  83 127 152 201 242 295 352
#     4   9  21  40  63  86 120 157 203 246 307 349
#     4   9  21  40  62  87 124 155 198 254 302 355
#     4  11  22  36  64  90 117 159 202 243 311 357
#     4  10  21  36  65  88 117 166 195 242 308 358
#
# _framework density 24.5869
#
# number of rings (size 3 to 8) (size 9 to 14) (size 15 to 20)
#    0.750    1.750    0.000    0.375   10.500    1.000 
#    0.000    7.500    0.000    0.000    0.000    0.000 
#    0.000    0.000    0.000    0.000    0.000    0.000 
#
# Total GULP energy -89249.555033 kJ/mol
# GULP energy per Si atom -5578.097190 kJ/mol
# Density = 2.453094 g / cm^3
# Si number density = 24.586900 Si / 1000 Ang^3
#
#
#
# Elastic Constant Matrix: (Units=GPa)
#
#
# Indices 1 2 3 4 5 6 
#
# 1 65.6050 16.4819 25.1281 8.5381 2.1639 20.2080
# 2 16.4819 59.6164 25.1561 16.3220 3.1681 28.2643
# 3 25.1281 25.1561 116.8953 1.5404 -6.3249 5.6661
# 4 8.5381 16.3220 1.5404 50.7956 -3.7196 3.4697
# 5 2.1639 3.1681 -6.3249 -3.7196 19.9941 4.3399
# 6 20.2080 28.2643 5.6661 3.4697 4.3399 31.7268
#
#
#
# Elastic Compliance Matrix: (Units=1/GPa)
#
#
# Indices 1 2 3 4 5 6 
#
# 1 0.021673 0.005499 -0.005061 -0.004229 -0.001898 -0.017077
# 2 0.005499 0.037866 -0.007728 -0.010788 -0.003628 -0.034179
# 3 -0.005061 -0.007728 0.011149 0.002814 0.004254 0.007228
# 4 -0.004229 -0.010788 0.002814 0.023613 0.005616 0.008451
# 5 -0.001898 -0.003628 0.004254 0.005616 0.054127 -0.004337
# 6 -0.017077 -0.034179 0.007228 0.008451 -0.004337 0.071223
#
#
# Mechanical properties :
#
#
# Convention : Reuss Voigt Hill
#
# Bulk Modulus (GPa) = 17.82356 41.73879 29.78118
# Shear Modulus (GPa) = 19.76803 32.19334 25.98069
#
# Velocity S-wave (km/s) = 2.83858 3.62245 3.25420
# Velocity P-wave (km/s) = 4.24362 5.87444 5.12432
#
# Compressibility (1/GPa) = 0.05610551
#
# Stress axis : x y z
#
# Youngs Moduli (GPa) = 46.14028 26.40916 89.69779
#
# Poissons Ratio (x) = -0.14522 0.45400
# Poissons Ratio (y) = -0.25372 0.69321
# Poissons Ratio (z) = 0.23354 0.20410
#
# Static dielectric constant tensor:
#      x y z
#    x 1.976780 -0.053310 -0.035170 
#    y -0.053310 2.057440 -0.018240 
#    z -0.035170 -0.018240 2.070380 
# 
# From -- ./inp_files/199446.got.cif
#   From: 2010.05.17/outbox.cif.g08.bks.cpg/sg2_100_cif.got.tgz:199446.got - 2010.06.03 11:33:40.
