data_PCOD9002703
_publ_section_title
;
Structure prediction by ZEFSAII (Michael W. Deem and Ramdas Pophale) SiO2 
 PCOD9002703
Probable space group: P -1
;
_chemical_formula_sum "Si O2"
_cell_formula_units_Z 14
_cell_length_a 16.471607
_cell_length_b 5.210925
_cell_length_c 17.550125
_cell_angle_alpha 58.589887
_cell_angle_beta 152.626032
_cell_angle_gamma 121.982758
_cell_volume 582.481292
_symmetry_space_group_name_H-M "P -1"
_symmetry_group_IT_number 2
_symmetry_cell_setting 'triclinic'
loop_
_space_group_symop_operation_xyz
x,y,z
-x,-y,-z
loop_
_atom_site_type_symbol
_atom_site_label
_atom_site_fract_x
_atom_site_fract_y
_atom_site_fract_z
Si Si1 0.018812 0.991176 0.709987
Si Si2 0.381150 0.239661 0.890591
Si Si3 0.298172 0.698021 0.628687
Si Si4 0.042931 0.813124 0.917765
Si Si5 0.185042 0.848567 0.184296
Si Si6 0.729538 0.390899 0.560093
Si Si7 0.428692 0.781192 0.268788
O O1 0.888721 0.190100 0.529724
O O2 0.211021 0.065423 0.821411
O O3 0.909569 0.648509 0.668966
O O4 0.034854 0.043003 0.806551
O O5 0.315820 0.405320 0.736699
O O6 0.500000 0.500000 0.000000
O O7 0.500000 0.000000 0.000000
O O8 0.304362 0.673383 0.546624
O O9 0.467032 0.966380 0.740748
O O10 0.889576 0.518393 0.830565
O O11 0.062700 0.965663 0.995133
O O12 0.229951 0.678013 0.084596
O O13 0.240332 0.875323 0.315222
O O14 0.373783 0.906007 0.285458
O O15 0.563160 0.544582 0.427263
#
# Coordination Sequence:
#
# PCOD9002703 Si02
#       7
#     2   2   2   2   2   2   2
#     4  10  23  44  66  93 139 175 224 279 342 408
#     4  12  30  49  77 105 134 176 230 286 349 411
#     4  11  25  41  66  96 134 175 224 281 347 410
#     4   8  16  34  63  86 127 181 222 276 335 396
#     4   8  16  33  59  92 127 178 223 274 333 398
#     4  10  21  36  63  94 129 181 221 274 342 400
#     4   9  18  36  60  88 135 169 227 277 331 396
#
# _framework density 24.035104
#
# number of rings (size 3 to 8) (size 9 to 14) (size 15 to 20)
#    0.857    1.429    0.000    1.714    8.000    1.143 
#    0.000    0.714    0.000    0.000    0.000    0.000 
#    0.000    0.000    0.000    0.000    0.000    0.000 
#
# Total GULP energy -78121.577520 kJ/mol
# GULP energy per Si atom -5580.112680 kJ/mol
# Density = 2.398040 g / cm^3
# Si number density = 24.035104 Si / 1000 Ang^3
#
#
#
# Elastic Constant Matrix: (Units=GPa)
#
#
# Indices 1 2 3 4 5 6 
#
# 1 121.4755 38.9547 59.2160 -2.0757 37.6347 6.0641
# 2 38.9547 67.5418 51.7446 -4.8070 16.9486 6.5599
# 3 59.2160 51.7446 114.8586 -9.7453 22.7576 17.5512
# 4 -2.0757 -4.8070 -9.7453 48.0765 5.4179 -4.7259
# 5 37.6347 16.9486 22.7576 5.4179 95.5420 -18.2620
# 6 6.0641 6.5599 17.5512 -4.7259 -18.2620 42.4936
#
#
#
# Elastic Compliance Matrix: (Units=1/GPa)
#
#
# Indices 1 2 3 4 5 6 
#
# 1 0.012376 -0.002935 -0.004208 -0.000324 -0.003551 -0.001137
# 2 -0.002935 0.023571 -0.008897 0.000541 -0.000913 0.000123
# 3 -0.004208 -0.008897 0.016189 0.001890 -0.001730 -0.005246
# 4 -0.000324 0.000541 0.001890 0.021480 -0.001456 0.000945
# 5 -0.003551 -0.000913 -0.001730 -0.001456 0.013892 0.007171
# 6 -0.001137 0.000123 -0.005246 0.000945 0.007171 0.029030
#
#
# Mechanical properties :
#
#
# Convention : Reuss Voigt Hill
#
# Bulk Modulus (GPa) = 49.86650 67.07850 58.47250
# Shear Modulus (GPa) = 32.19459 47.48645 39.84052
#
# Velocity S-wave (km/s) = 3.66386 4.44972 4.07578
# Velocity P-wave (km/s) = 6.22020 7.37354 6.82129
#
# Compressibility (1/GPa) = 0.02005354
#
# Stress axis : x y z
#
# Youngs Moduli (GPa) = 80.79979 42.42550 61.77027
#
# Poissons Ratio (x) = 0.12454 0.25995
# Poissons Ratio (y) = 0.23719 0.54959
# Poissons Ratio (z) = 0.34004 0.37747
#
# Static dielectric constant tensor:
#      x y z
#    x 2.008070 -0.112530 0.052360 
#    y -0.112530 1.913490 -0.046130 
#    z 0.052360 -0.046130 2.092860 
# 
# From -- ./inp_files/137229.got.cif
#   From: 2010.05.17/outbox.cif.g08.bks.cpg/sg2_69_cif.got.tgz:137229.got - 2010.06.03 11:33:40.
