data_PCOD9002748
_publ_section_title
;
Structure prediction by ZEFSAII (Michael W. Deem and Ramdas Pophale) SiO2 
 PCOD9002748
Probable space group: P -1
;
_chemical_formula_sum "Si O2"
_cell_formula_units_Z 16
_cell_length_a 9.096499
_cell_length_b 8.043148
_cell_length_c 26.227463
_cell_angle_alpha 41.975755
_cell_angle_beta 37.783778
_cell_angle_gamma 42.645550
_cell_volume 733.236834
_symmetry_space_group_name_H-M "P -1"
_symmetry_group_IT_number 2
_symmetry_cell_setting 'triclinic'
loop_
_space_group_symop_operation_xyz
x,y,z
-x,-y,-z
loop_
_atom_site_type_symbol
_atom_site_label
_atom_site_fract_x
_atom_site_fract_y
_atom_site_fract_z
Si Si1 0.279175 0.957654 0.952201
Si Si2 0.916857 0.430680 0.125912
Si Si3 0.783814 0.946732 0.783765
Si Si4 0.614995 0.489447 0.774329
Si Si5 0.476330 0.289453 0.959743
Si Si6 0.642944 0.827224 0.548296
Si Si7 0.226671 0.752423 0.381940
Si Si8 0.734172 0.968255 0.596871
O O1 0.521042 0.884065 0.865429
O O2 0.242710 0.257879 0.908001
O O3 0.364588 0.757029 0.021212
O O4 0.000000 0.000000 0.000000
O O5 0.687560 0.331269 0.195594
O O6 0.018294 0.298095 0.183034
O O7 0.173753 0.404719 0.029997
O O8 0.733910 0.212736 0.772321
O O9 0.839734 0.026897 0.694470
O O10 0.594787 0.418614 0.854876
O O11 0.773668 0.676588 0.675006
O O12 0.500000 0.000000 0.000000
O O13 0.615876 0.537995 0.618900
O O14 0.571323 0.981210 0.586746
O O15 0.948807 0.758787 0.474871
O O16 0.500000 0.000000 0.500000
O O17 0.364925 0.826466 0.375749
O O18 0.000000 0.000000 0.500000
#
# Coordination Sequence:
#
# PCOD9002748 Si02
#       8
#     2   2   2   2   2   2   2   2
#     4  10  23  38  57  89 132 162 210 265 313 379
#     4  10  21  36  64  89 126 170 215 255 326 381
#     4  10  21  38  61  91 126 170 212 256 323 382
#     4  11  21  38  64  91 130 169 214 268 317 382
#     4  11  20  38  61  93 122 167 217 261 312 384
#     4  10  22  41  69  89 124 165 207 266 324 379
#     4  10  22  41  63  91 128 165 206 264 324 374
#     4  10  23  43  64  97 130 164 216 270 314 385
#
# _framework density 21.821054
#
# number of rings (size 3 to 8) (size 9 to 14) (size 15 to 20)
#    0.000    1.750    5.000    0.375    1.750    4.500 
#    0.000    3.750    0.000    0.000    0.000    0.000 
#    0.000    0.000    0.000    0.000    0.000    0.000 
#
# Total GULP energy -89130.572873 kJ/mol
# GULP energy per Si atom -5570.660805 kJ/mol
# Density = 2.177139 g / cm^3
# Si number density = 21.821054 Si / 1000 Ang^3
#
#
#
# Elastic Constant Matrix: (Units=GPa)
#
#
# Indices 1 2 3 4 5 6 
#
# 1 99.7394 26.7088 31.4697 -8.1038 14.3195 18.0806
# 2 26.7088 48.6747 5.7373 -6.1359 5.3165 1.1116
# 3 31.4697 5.7373 129.2571 -16.6670 12.0044 3.3970
# 4 -8.1038 -6.1359 -16.6670 21.3217 -2.7080 3.2506
# 5 14.3195 5.3165 12.0044 -2.7080 36.7283 4.2035
# 6 18.0806 1.1116 3.3970 3.2506 4.2035 26.9037
#
#
#
# Elastic Compliance Matrix: (Units=1/GPa)
#
#
# Indices 1 2 3 4 5 6 
#
# 1 0.015036 -0.007088 -0.002480 0.002823 -0.002740 -0.009412
# 2 -0.007088 0.024960 0.001276 0.004839 -0.001275 0.003185
# 3 -0.002480 0.001276 0.009283 0.006466 -0.001768 -0.000063
# 4 0.002823 0.004839 0.006466 0.056103 0.001355 -0.009904
# 5 -0.002740 -0.001275 -0.001768 0.001355 0.029461 -0.002649
# 6 -0.009412 0.003185 -0.000063 -0.009904 -0.002649 0.044981
#
#
# Mechanical properties :
#
#
# Convention : Reuss Voigt Hill
#
# Bulk Modulus (GPa) = 30.58529 45.05588 37.82058
# Shear Modulus (GPa) = 24.11895 31.24111 27.68003
#
# Velocity S-wave (km/s) = 3.32822 3.78788 3.56547
# Velocity P-wave (km/s) = 5.36808 6.31058 5.85831
#
# Compressibility (1/GPa) = 0.03269545
#
# Stress axis : x y z
#
# Youngs Moduli (GPa) = 66.50893 40.06433 107.71938
#
# Poissons Ratio (x) = 0.28397 0.26717
# Poissons Ratio (y) = 0.47141 -0.13749
# Poissons Ratio (z) = 0.16496 -0.05114
#
# Static dielectric constant tensor:
#      x y z
#    x 1.996370 0.110430 -0.131590 
#    y 0.110430 1.860690 -0.001810 
#    z -0.131590 -0.001810 1.937270 
# 
# From -- ./inp_files/117275.got.cif
#   From: 2010.05.17/outbox.cif.g08.bks.cpg/sg2_59_cif.got.tgz:117275.got - 2010.06.03 11:33:40.
