data_PCOD9002020
_publ_section_title
;
Structure prediction by ZEFSAII (Michael W. Deem and Ramdas Pophale) SiO2 
 PCOD9002020
Probable space group: P -1
;
_chemical_formula_sum "Si O2"
_cell_formula_units_Z 14
_cell_length_a 13.579021
_cell_length_b 13.729008
_cell_length_c 13.678184
_cell_angle_alpha 20.606583
_cell_angle_beta 42.940178
_cell_angle_gamma 40.172113
_cell_volume 577.344547
_symmetry_space_group_name_H-M "P -1"
_symmetry_group_IT_number 2
_symmetry_cell_setting 'triclinic'
loop_
_space_group_symop_operation_xyz
x,y,z
-x,-y,-z
loop_
_atom_site_type_symbol
_atom_site_label
_atom_site_fract_x
_atom_site_fract_y
_atom_site_fract_z
Si Si1 0.643594 0.172028 0.307188
Si Si2 0.956111 0.254553 0.066432
Si Si3 0.444910 0.841422 0.834026
Si Si4 0.450045 0.619781 0.313904
Si Si5 0.734116 0.811758 0.181466
Si Si6 0.754686 0.664037 0.994163
Si Si7 0.141443 0.850649 0.469189
O O1 0.811528 0.187761 0.188649
O O2 0.632068 0.074740 0.295417
O O3 0.590271 0.960380 0.616883
O O4 0.516245 0.491205 0.112813
O O5 0.873427 0.506576 0.970593
O O6 0.065224 0.966035 0.313819
O O7 0.082242 0.311122 0.850161
O O8 0.323889 0.991482 0.864415
O O9 0.500000 0.500000 0.500000
O O10 0.344500 0.438367 0.523716
O O11 0.594588 0.607745 0.152746
O O12 0.350598 0.962292 0.056199
O O13 0.811386 0.487899 0.220496
O O14 0.741892 0.995702 0.713914
O O15 0.000000 0.000000 0.500000
#
# Coordination Sequence:
#
# PCOD9002020 Si02
#       7
#     2   2   2   2   2   2   2
#     4  10  23  42  70  89 120 158 208 252 306 375
#     4  11  23  38  60  92 120 159 199 251 310 358
#     4  10  22  45  65  93 119 159 204 255 306 367
#     4  12  25  43  62  90 126 171 210 249 297 359
#     4  12  25  39  63  92 130 157 203 259 308 359
#     4  11  22  39  61  81 120 166 209 243 294 363
#     4  10  21  36  56  86 120 155 202 253 292 349
#
# _framework density 24.248951999999999
#
# number of rings (size 3 to 8) (size 9 to 14) (size 15 to 20)
#    0.000    1.143    0.000    7.286    0.000    8.571 
#    0.000    1.429    0.000    6.857    0.000    0.000 
#    0.000    0.000    0.000    0.000    0.000    0.000 
#
# Total GULP energy -78297.422641 kJ/mol
# GULP energy per Si atom -5592.673046 kJ/mol
# Density = 2.419376 g / cm^3
# Si number density = 24.248952 Si / 1000 Ang^3
#
#
#
# Elastic Constant Matrix: (Units=GPa)
#
#
# Indices 1 2 3 4 5 6 
#
# 1 92.0840 46.2930 15.6239 21.6655 -26.5195 -0.8620
# 2 46.2930 201.0645 48.7688 31.9683 -22.8812 -3.5941
# 3 15.6239 48.7688 117.5336 -3.6907 -24.1974 -2.0220
# 4 21.6655 31.9683 -3.6907 47.5430 -10.8375 -5.6310
# 5 -26.5195 -22.8812 -24.1974 -10.8375 39.7388 8.7456
# 6 -0.8620 -3.5941 -2.0220 -5.6310 8.7456 37.6164
#
#
#
# Elastic Compliance Matrix: (Units=1/GPa)
#
#
# Indices 1 2 3 4 5 6 
#
# 1 0.015205 -0.002059 0.000473 -0.003801 0.008746 -0.002425
# 2 -0.002059 0.006675 -0.002650 -0.003803 -0.000163 -0.000083
# 3 0.000473 -0.002650 0.011037 0.003878 0.006705 -0.000628
# 4 -0.003801 -0.003803 0.003878 0.026950 0.004374 0.002775
# 5 0.008746 -0.000163 0.006705 0.004374 0.037856 -0.007601
# 6 -0.002425 -0.000083 -0.000628 0.002775 -0.007601 0.028670
#
#
# Mechanical properties :
#
#
# Convention : Reuss Voigt Hill
#
# Bulk Modulus (GPa) = 40.91130 70.22815 55.56972
# Shear Modulus (GPa) = 34.96182 44.97941 39.97062
#
# Velocity S-wave (km/s) = 3.80121 4.31153 4.06438
# Velocity P-wave (km/s) = 6.01445 7.33552 6.70759
#
# Compressibility (1/GPa) = 0.02444313
#
# Stress axis : x y z
#
# Youngs Moduli (GPa) = 65.76702 149.81141 90.60777
#
# Poissons Ratio (x) = 0.30848 -0.04284
# Poissons Ratio (y) = 0.13542 0.24015
# Poissons Ratio (z) = -0.03109 0.39707
#
# Static dielectric constant tensor:
#      x y z
#    x 1.992230 -0.002410 0.023550 
#    y -0.002410 1.962880 0.075390 
#    z 0.023550 0.075390 2.029400 
# 
# From -- ./inp_files/533995.got.cif
#   From: 2010.05.17/outbox.cif.g08.bks.cpg/sg2_267_cif.got.tgz:533995.got - 2010.06.03 11:33:40.
