data_PCOD9002664
_publ_section_title
;
Structure prediction by ZEFSAII (Michael W. Deem and Ramdas Pophale) SiO2 
 PCOD9002664
Probable space group: P -1
;
_chemical_formula_sum "Si O2"
_cell_formula_units_Z 16
_cell_length_a 17.589517
_cell_length_b 7.130505
_cell_length_c 9.281509
_cell_angle_alpha 54.828936
_cell_angle_beta 124.566875
_cell_angle_gamma 87.885744
_cell_volume 659.361692
_symmetry_space_group_name_H-M "P -1"
_symmetry_group_IT_number 2
_symmetry_cell_setting 'triclinic'
loop_
_space_group_symop_operation_xyz
x,y,z
-x,-y,-z
loop_
_atom_site_type_symbol
_atom_site_label
_atom_site_fract_x
_atom_site_fract_y
_atom_site_fract_z
Si Si1 0.541234 0.934656 0.411941
Si Si2 0.905873 0.997085 0.493510
Si Si3 0.224364 0.510842 0.050825
Si Si4 0.846917 0.569942 0.527058
Si Si5 0.396639 0.767906 0.208332
Si Si6 0.397752 0.985182 0.840139
Si Si7 0.176755 0.190754 0.913233
Si Si8 0.053434 0.895701 0.939005
O O1 0.434272 0.974696 0.202110
O O2 0.583416 0.071735 0.284970
O O3 0.500000 0.000000 0.500000
O O4 0.654287 0.639986 0.685592
O O5 0.898985 0.738557 0.565928
O O6 0.799619 0.264599 0.195810
O O7 0.000000 0.000000 0.500000
O O8 0.938213 0.990563 0.696331
O O9 0.138359 0.658266 0.022035
O O10 0.203202 0.301086 0.035021
O O11 0.720214 0.739609 0.372803
O O12 0.912941 0.271203 0.801688
O O13 0.845466 0.611193 0.334248
O O14 0.500000 0.500000 0.500000
O O15 0.281313 0.901064 0.102509
O O16 0.397456 0.763339 0.039257
O O17 0.500000 0.000000 0.000000
O O18 0.083439 0.125255 0.861826
#
# Coordination Sequence:
#
# PCOD9002664 Si02
#       8
#     2   2   2   2   2   2   2   2
#     4  11  20  39  61  92 130 172 215 269 330 391
#     4  10  22  43  70  97 126 181 224 271 344 393
#     4  11  22  42  66  95 138 171 219 279 325 400
#     4  11  21  42  70  94 135 174 222 277 332 402
#     4  10  21  36  63  88 127 174 221 263 330 395
#     4   9  21  36  60  95 127 172 218 264 328 398
#     4  11  23  41  64 101 131 175 221 271 336 393
#     4  11  23  45  69  94 132 176 224 275 337 397
#
# _framework density 24.265892000000001
#
# number of rings (size 3 to 8) (size 9 to 14) (size 15 to 20)
#    0.000    1.500    5.000    1.125    3.500    0.500 
#    2.250    1.250    0.000    0.000    0.000    0.000 
#    0.000    0.000    0.000    0.000    0.000    0.000 
#
# Total GULP energy -89313.545096 kJ/mol
# GULP energy per Si atom -5582.096569 kJ/mol
# Density = 2.421066 g / cm^3
# Si number density = 24.265892 Si / 1000 Ang^3
#
#
#
# Elastic Constant Matrix: (Units=GPa)
#
#
# Indices 1 2 3 4 5 6 
#
# 1 110.9040 16.6176 32.4042 19.5890 -4.6763 -5.4518
# 2 16.6176 65.1692 2.0832 16.2651 -8.9591 8.0232
# 3 32.4042 2.0832 137.6462 1.8313 -8.6270 1.1579
# 4 19.5890 16.2651 1.8313 43.3100 -2.3770 -0.5687
# 5 -4.6763 -8.9591 -8.6270 -2.3770 48.8039 17.7065
# 6 -5.4518 8.0232 1.1579 -0.5687 17.7065 36.9328
#
#
#
# Elastic Compliance Matrix: (Units=1/GPa)
#
#
# Indices 1 2 3 4 5 6 
#
# 1 0.010879 -0.002121 -0.002553 -0.004033 -0.000909 0.002521
# 2 -0.002121 0.019064 0.000716 -0.006009 0.005796 -0.007348
# 3 -0.002553 0.000716 0.007983 0.000633 0.001948 -0.001707
# 4 -0.004033 -0.006009 0.000633 0.027131 -0.000555 0.001374
# 5 -0.000909 0.005796 0.001948 -0.000555 0.027014 -0.014414
# 6 0.002521 -0.007348 -0.001707 0.001374 -0.014414 0.036030
#
#
# Mechanical properties :
#
#
# Convention : Reuss Voigt Hill
#
# Bulk Modulus (GPa) = 33.32409 46.21438 39.76924
# Shear Modulus (GPa) = 34.24176 43.31696 38.77936
#
# Velocity S-wave (km/s) = 3.76055 4.22962 4.00196
# Velocity P-wave (km/s) = 5.71124 6.55281 6.14645
#
# Compressibility (1/GPa) = 0.03000832
#
# Stress axis : x y z
#
# Youngs Moduli (GPa) = 91.92411 52.45520 125.26123
#
# Poissons Ratio (x) = 0.11127 0.31984
# Poissons Ratio (y) = 0.19499 -0.08967
# Poissons Ratio (z) = 0.23472 -0.03755
#
# Static dielectric constant tensor:
#      x y z
#    x 2.303720 0.137460 -0.133070 
#    y 0.137460 2.120740 -0.035320 
#    z -0.133070 -0.035320 2.080240 
# 
# From -- ./inp_files/327153.got.cif
#   From: 2010.05.17/outbox.cif.g08.bks.cpg/sg2_164_cif.got.tgz:327153.got - 2010.06.03 11:33:40.
