data_PCOD9002761
_publ_section_title
;
Structure prediction by ZEFSAII (Michael W. Deem and Ramdas Pophale) SiO2 
 PCOD9002761
Probable space group: P -1
;
_chemical_formula_sum "Si O2"
_cell_formula_units_Z 16
_cell_length_a 14.574472
_cell_length_b 13.887699
_cell_length_c 8.782333
_cell_angle_alpha 83.090567
_cell_angle_beta 52.240791
_cell_angle_gamma 126.965740
_cell_volume 711.838519
_symmetry_space_group_name_H-M "P -1"
_symmetry_group_IT_number 2
_symmetry_cell_setting 'triclinic'
loop_
_space_group_symop_operation_xyz
x,y,z
-x,-y,-z
loop_
_atom_site_type_symbol
_atom_site_label
_atom_site_fract_x
_atom_site_fract_y
_atom_site_fract_z
Si Si1 0.453042 0.731670 0.539645
Si Si2 0.093427 0.369135 0.177919
Si Si3 0.474725 0.684618 0.209384
Si Si4 0.075384 0.547153 0.586771
Si Si5 0.680017 0.629447 0.433763
Si Si6 0.512081 0.614286 0.892608
Si Si7 0.752143 0.222155 0.217469
Si Si8 0.126031 0.897751 0.773297
O O1 0.280761 0.531644 0.827093
O O2 0.581841 0.792967 0.243030
O O3 0.291134 0.707312 0.665646
O O4 0.629742 0.889145 0.461901
O O5 0.257300 0.466665 0.136161
O O6 0.933301 0.347387 0.368335
O O7 0.950743 0.172302 0.309809
O O8 0.303087 0.648288 0.350867
O O9 0.349126 0.494609 0.425537
O O10 0.602771 0.748717 0.910491
O O11 0.000000 0.500000 0.500000
O O12 0.879036 0.348345 0.914214
O O13 0.500000 0.500000 0.500000
O O14 0.640037 0.684622 0.589738
O O15 0.929663 0.814159 0.074415
O O16 0.500000 0.500000 0.000000
O O17 0.880033 0.220220 0.148670
O O18 0.500000 0.000000 0.500000
#
# Coordination Sequence:
#
# PCOD9002761 Si02
#       8
#     2   2   2   2   2   2   2   2
#     4  10  21  36  64  92 118 155 207 257 310 367
#     4  11  20  39  63  90 122 155 207 257 304 376
#     4  11  20  38  59  89 126 155 203 263 310 367
#     4  11  20  33  64  97 121 167 206 252 327 381
#     4  11  20  37  63  87 115 163 213 251 300 365
#     4  10  22  36  61  83 120 164 196 254 316 360
#     4   9  19  35  58  91 127 157 201 258 307 372
#     4  11  20  36  65  88 118 158 211 252 306 364
#
# _framework density 22.477004999999998
#
# number of rings (size 3 to 8) (size 9 to 14) (size 15 to 20)
#    0.000    1.500    5.000    0.750    0.000    2.000 
#    0.000    3.125   11.000    5.250    0.000    0.000 
#    0.000    0.000    0.000    0.000    0.000    0.000 
#
# Total GULP energy -89179.244310 kJ/mol
# GULP energy per Si atom -5573.702769 kJ/mol
# Density = 2.242585 g / cm^3
# Si number density = 22.477005 Si / 1000 Ang^3
#
#
#
# Elastic Constant Matrix: (Units=GPa)
#
#
# Indices 1 2 3 4 5 6 
#
# 1 82.2904 11.2944 1.5066 -0.1377 -15.6296 -8.6111
# 2 11.2944 110.7728 35.7779 23.0372 6.5197 14.3639
# 3 1.5066 35.7779 56.5364 15.1905 -14.4443 -0.9935
# 4 -0.1377 23.0372 15.1905 48.0631 0.6698 -6.4430
# 5 -15.6296 6.5197 -14.4443 0.6698 28.4709 7.4114
# 6 -8.6111 14.3639 -0.9935 -6.4430 7.4114 34.4495
#
#
#
# Elastic Compliance Matrix: (Units=1/GPa)
#
#
# Indices 1 2 3 4 5 6 
#
# 1 0.015127 -0.004472 0.005029 0.000930 0.010917 0.003616
# 2 -0.004472 0.015449 -0.010997 -0.004700 -0.009727 -0.006663
# 3 0.005029 -0.010997 0.031101 -0.004647 0.020804 0.001394
# 4 0.000930 -0.004700 -0.004647 0.025591 -0.003342 0.007563
# 5 0.010917 -0.009727 0.020804 -0.003342 0.055316 -0.005141
# 6 0.003616 -0.006663 0.001394 0.007563 -0.005141 0.035271
#
#
# Mechanical properties :
#
#
# Convention : Reuss Voigt Hill
#
# Bulk Modulus (GPa) = 24.51004 38.52860 31.51932
# Shear Modulus (GPa) = 23.54805 35.59810 29.57307
#
# Velocity S-wave (km/s) = 3.24025 3.98396 3.63120
# Velocity P-wave (km/s) = 4.99271 6.19202 5.62443
#
# Compressibility (1/GPa) = 0.04079961
#
# Stress axis : x y z
#
# Youngs Moduli (GPa) = 66.10661 64.72894 32.15308
#
# Poissons Ratio (x) = 0.28944 -0.16171
# Poissons Ratio (y) = 0.29560 0.35358
# Poissons Ratio (z) = -0.33248 0.71181
#
# Static dielectric constant tensor:
#      x y z
#    x 1.891550 0.030870 -0.024590 
#    y 0.030870 1.915710 0.039570 
#    z -0.024590 0.039570 1.776570 
# 
# From -- ./inp_files/239104.got.cif
#   From: 2010.05.17/outbox.cif.g08.bks.cpg/sg2_120_cif.got.tgz:239104.got - 2010.06.03 11:33:40.
