data_PCOD9002941
_publ_section_title
;
Structure prediction by ZEFSAII (Michael W. Deem and Ramdas Pophale) SiO2 
 PCOD9002941
Probable space group: P -1
;
_chemical_formula_sum "Si O2"
_cell_formula_units_Z 16
_cell_length_a 14.961712
_cell_length_b 13.754549
_cell_length_c 8.235993
_cell_angle_alpha 79.323016
_cell_angle_beta 53.359005
_cell_angle_gamma 37.938065
_cell_volume 681.980188
_symmetry_space_group_name_H-M "P -1"
_symmetry_group_IT_number 2
_symmetry_cell_setting 'triclinic'
loop_
_space_group_symop_operation_xyz
x,y,z
-x,-y,-z
loop_
_atom_site_type_symbol
_atom_site_label
_atom_site_fract_x
_atom_site_fract_y
_atom_site_fract_z
Si Si1 0.053432 0.209090 0.863336
Si Si2 0.255143 0.995560 0.190933
Si Si3 0.973359 0.359264 0.578666
Si Si4 0.665952 0.761999 0.657594
Si Si5 0.520875 0.187487 0.668814
Si Si6 0.375989 0.697554 0.604297
Si Si7 0.779585 0.727881 0.182807
Si Si8 0.064399 0.009738 0.119572
O O1 0.909958 0.367450 0.825356
O O2 0.134532 0.227612 0.898314
O O3 0.265378 0.012796 0.594944
O O4 0.986700 0.163193 0.047080
O O5 0.410167 0.841971 0.215609
O O6 0.057226 0.207915 0.419273
O O7 0.163722 0.978379 0.183848
O O8 0.420698 0.939546 0.929905
O O9 0.183543 0.269489 0.412249
O O10 0.791055 0.564377 0.625438
O O11 0.665491 0.786161 0.459405
O O12 0.460497 0.335061 0.595972
O O13 0.363624 0.212713 0.820741
O O14 0.500000 0.500000 0.500000
O O15 0.165244 0.871812 0.657936
O O16 0.254386 0.807748 0.875824
O O17 0.000000 0.500000 0.000000
#
# Coordination Sequence:
#
# PCOD9002941 Si02
#       8
#     2   2   2   2   2   2   2   2
#     4   9  20  40  60  88 128 161 204 255 298 368
#     4  11  23  37  63  87 126 161 203 258 310 362
#     4   9  21  36  56  88 126 172 201 253 302 363
#     4  10  21  37  54  87 130 166 214 243 298 368
#     4  10  23  41  61  91 122 165 206 249 314 365
#     4  10  23  44  69  88 119 158 210 260 307 370
#     4  11  24  36  61  92 127 164 206 252 304 366
#     4  10  23  41  65  95 119 162 209 254 309 368
#
# _framework density 23.461093000000002
#
# number of rings (size 3 to 8) (size 9 to 14) (size 15 to 20)
#    0.000    2.000    0.000    2.250    8.750    3.500 
#    0.000    0.625    0.000    0.000    0.000    0.000 
#    0.000    0.000    0.000    0.000    0.000    0.000 
#
# Total GULP energy -89421.543672 kJ/mol
# GULP energy per Si atom -5588.846479 kJ/mol
# Density = 2.340769 g / cm^3
# Si number density = 23.461093 Si / 1000 Ang^3
#
#
#
# Elastic Constant Matrix: (Units=GPa)
#
#
# Indices 1 2 3 4 5 6 
#
# 1 163.8099 26.3041 30.3048 8.7119 25.9566 -1.8185
# 2 26.3041 81.6058 1.7633 10.7637 13.9514 13.8569
# 3 30.3048 1.7633 70.4556 4.9015 3.5054 3.4005
# 4 8.7119 10.7637 4.9015 23.7199 7.8515 1.5822
# 5 25.9566 13.9514 3.5054 7.8515 32.5838 0.4627
# 6 -1.8185 13.8569 3.4005 1.5822 0.4627 43.6346
#
#
#
# Elastic Compliance Matrix: (Units=1/GPa)
#
#
# Indices 1 2 3 4 5 6 
#
# 1 0.007791 -0.001790 -0.003122 0.000230 -0.005176 0.001183
# 2 -0.001790 0.014887 0.001145 -0.004744 -0.003862 -0.004678
# 3 -0.003122 0.001145 0.015734 -0.002852 0.001014 -0.001627
# 4 0.000230 -0.004744 -0.002852 0.047919 -0.009394 0.000100
# 5 -0.005176 -0.003862 0.001014 -0.009394 0.038609 0.000863
# 6 0.001183 -0.004678 -0.001627 0.000100 0.000863 0.024567
#
#
# Mechanical properties :
#
#
# Convention : Reuss Voigt Hill
#
# Bulk Modulus (GPa) = 32.38524 48.06839 40.22682
# Shear Modulus (GPa) = 29.88084 37.15426 33.51755
#
# Velocity S-wave (km/s) = 3.57267 3.98383 3.78384
# Velocity P-wave (km/s) = 5.55450 6.45711 6.02274
#
# Compressibility (1/GPa) = 0.03087826
#
# Stress axis : x y z
#
# Youngs Moduli (GPa) = 128.35862 67.17440 63.55705
#
# Poissons Ratio (x) = 0.12025 0.19841
# Poissons Ratio (y) = 0.22977 -0.07280
# Poissons Ratio (z) = 0.40071 -0.07694
#
# Static dielectric constant tensor:
#      x y z
#    x 1.714280 -0.054070 -0.165740 
#    y -0.054070 1.948840 -0.103000 
#    z -0.165740 -0.103000 1.844520 
# 
# From -- ./inp_files/313297.got.cif
#   From: 2010.05.17/outbox.cif.g08.bks.cpg/sg2_157_cif.got.tgz:313297.got - 2010.06.03 11:33:40.
