data_PCOD9002919
_publ_section_title
;
Structure prediction by ZEFSAII (Michael W. Deem and Ramdas Pophale) SiO2 
 PCOD9002919
Probable space group: P -1
;
_chemical_formula_sum "Si O2"
_cell_formula_units_Z 14
_cell_length_a 9.477382
_cell_length_b 15.415936
_cell_length_c 14.268756
_cell_angle_alpha 152.350554
_cell_angle_beta 104.203935
_cell_angle_gamma 58.296283
_cell_volume 683.246324
_symmetry_space_group_name_H-M "P -1"
_symmetry_group_IT_number 2
_symmetry_cell_setting 'triclinic'
loop_
_space_group_symop_operation_xyz
x,y,z
-x,-y,-z
loop_
_atom_site_type_symbol
_atom_site_label
_atom_site_fract_x
_atom_site_fract_y
_atom_site_fract_z
Si Si1 0.947910 0.262806 0.736820
Si Si2 0.457484 0.647607 0.536341
Si Si3 0.107537 0.714382 0.768789
Si Si4 0.800273 0.418006 0.652997
Si Si5 0.033721 0.412807 0.541483
Si Si6 0.660255 0.824144 0.274092
Si Si7 0.497994 0.013768 0.813445
O O1 0.853269 0.360940 0.713606
O O2 0.155554 0.192288 0.709843
O O3 0.776360 0.521706 0.016901
O O4 0.000000 0.000000 0.500000
O O5 0.500000 0.500000 0.500000
O O6 0.666381 0.434937 0.310473
O O7 0.261494 0.723761 0.535964
O O8 0.435430 0.888697 0.745846
O O9 0.003679 0.663072 0.775045
O O10 0.101954 0.582940 0.550526
O O11 0.000000 0.000000 0.000000
O O12 0.982367 0.362162 0.580919
O O13 0.606396 0.718775 0.899409
O O14 0.263855 0.179741 0.330553
O O15 0.500000 0.000000 0.500000
O O16 0.565791 0.931332 0.255531
#
# Coordination Sequence:
#
# PCOD9002919 Si02
#       7
#     2   2   2   2   2   2   2
#     4  10  22  40  62  93 123 153 201 253 301 367
#     4  11  22  37  56  85 118 153 198 239 287 350
#     4  10  21  37  53  78 114 149 194 239 279 336
#     4  11  22  38  62  85 116 158 195 241 300 350
#     4  10  21  37  55  81 112 150 194 235 281 344
#     4  10  21  41  65  89 122 159 198 249 311 363
#     4  10  23  39  58  88 119 151 198 246 291 358
#
# _framework density 20.490413
#
# number of rings (size 3 to 8) (size 9 to 14) (size 15 to 20)
#    0.000    1.714    1.429    2.571    2.000    1.143 
#    0.000    4.286    0.000    0.000    0.000    0.000 
#    0.000    0.000    0.000    0.000    0.000    0.000 
#
# Total GULP energy -77975.199826 kJ/mol
# GULP energy per Si atom -5569.657130 kJ/mol
# Density = 2.044378 g / cm^3
# Si number density = 20.490413 Si / 1000 Ang^3
#
#
#
# Elastic Constant Matrix: (Units=GPa)
#
#
# Indices 1 2 3 4 5 6 
#
# 1 108.7201 5.0393 45.4149 2.7230 5.6601 12.4731
# 2 5.0393 34.5260 4.9146 2.4849 -1.8811 -2.0277
# 3 45.4149 4.9146 97.1930 14.1903 2.3252 19.9585
# 4 2.7230 2.4849 14.1903 26.9324 4.3836 -1.5510
# 5 5.6601 -1.8811 2.3252 4.3836 30.1625 3.4638
# 6 12.4731 -2.0277 19.9585 -1.5510 3.4638 28.4312
#
#
#
# Elastic Compliance Matrix: (Units=1/GPa)
#
#
# Indices 1 2 3 4 5 6 
#
# 1 0.011704 -0.001254 -0.005446 0.002073 -0.002037 -0.001040
# 2 -0.001254 0.029792 -0.001333 -0.002079 0.002126 0.003238
# 3 -0.005446 -0.001333 0.016129 -0.008726 0.002084 -0.009758
# 4 0.002073 -0.002079 -0.008726 0.043343 -0.007098 0.008297
# 5 -0.002037 0.002126 0.002084 -0.007098 0.035123 -0.005084
# 6 -0.001040 0.003238 -0.009758 0.008297 -0.005084 0.043782
#
#
# Mechanical properties :
#
#
# Convention : Reuss Voigt Hill
#
# Bulk Modulus (GPa) = 24.06193 39.01965 31.54079
# Shear Modulus (GPa) = 23.83307 29.44324 26.63816
#
# Velocity S-wave (km/s) = 3.41417 3.79480 3.60950
# Velocity P-wave (km/s) = 5.22596 6.18748 5.72693
#
# Compressibility (1/GPa) = 0.04155943
#
# Stress axis : x y z
#
# Youngs Moduli (GPa) = 85.43765 33.56595 62.00065
#
# Poissons Ratio (x) = 0.04210 0.33766
# Poissons Ratio (y) = 0.10717 0.08262
# Poissons Ratio (z) = 0.46530 0.04473
#
# Static dielectric constant tensor:
#      x y z
#    x 1.726670 0.032110 0.015130 
#    y 0.032110 1.733170 0.016430 
#    z 0.015130 0.016430 1.776430 
# 
# From -- ./inp_files/116436.got.cif
#   From: 2010.05.17/outbox.cif.g08.bks.cpg/sg2_59_cif.got.tgz:116436.got - 2010.06.03 11:33:40.
