data_PCOD9002812
_publ_section_title
;
Structure prediction by ZEFSAII (Michael W. Deem and Ramdas Pophale) SiO2 
 PCOD9002812
Probable space group: P -1
;
_chemical_formula_sum "Si O2"
_cell_formula_units_Z 14
_cell_length_a 13.111412
_cell_length_b 9.435816
_cell_length_c 19.025577
_cell_angle_alpha 33.000469
_cell_angle_beta 33.617680
_cell_angle_gamma 34.094324
_cell_volume 640.737703
_symmetry_space_group_name_H-M "P -1"
_symmetry_group_IT_number 2
_symmetry_cell_setting 'triclinic'
loop_
_space_group_symop_operation_xyz
x,y,z
-x,-y,-z
loop_
_atom_site_type_symbol
_atom_site_label
_atom_site_fract_x
_atom_site_fract_y
_atom_site_fract_z
Si Si1 0.928798 0.800165 0.670366
Si Si2 0.571116 0.356044 0.693801
Si Si3 0.596669 0.788948 0.770213
Si Si4 0.289913 0.076470 0.946708
Si Si5 0.106052 0.871873 0.918306
Si Si6 0.478064 0.598019 0.136432
Si Si7 0.316577 0.287464 0.635374
O O1 0.804323 0.694417 0.732044
O O2 0.134338 0.525673 0.687611
O O3 0.757264 0.032304 0.721420
O O4 0.000000 0.000000 0.500000
O O5 0.543341 0.459849 0.746253
O O6 0.625768 0.552390 0.526804
O O7 0.369496 0.323829 0.797150
O O8 0.423028 0.850724 0.903212
O O9 0.615314 0.562131 0.794776
O O10 0.511507 0.096112 0.650733
O O11 0.364550 0.926973 0.041368
O O12 0.060265 0.137550 0.036009
O O13 0.224589 0.069249 0.750259
O O14 0.282900 0.550140 0.958461
O O15 0.000000 0.000000 0.000000
#
# Coordination Sequence:
#
# PCOD9002812 Si02
#       7
#     2   2   2   2   2   2   2
#     4   9  20  38  60  88 120 159 203 247 300 360
#     4  10  24  40  62  93 128 167 189 257 324 353
#     4  10  21  36  65  90 112 168 207 250 301 349
#     4  11  22  40  62  94 123 162 209 246 308 363
#     4  11  23  39  65  97 112 165 210 255 298 355
#     4  11  23  41  62  90 131 157 206 253 305 370
#     4  10  21  42  63  90 125 153 215 249 297 371
#
# _framework density 21.849816000000001
#
# number of rings (size 3 to 8) (size 9 to 14) (size 15 to 20)
#    0.000    1.714    2.857    1.714    4.000    8.000 
#    0.000   12.143    0.000    0.000    0.000    0.000 
#    0.000    0.000    0.000    0.000    0.000    0.000 
#
# Total GULP energy -78185.378326 kJ/mol
# GULP energy per Si atom -5584.669880 kJ/mol
# Density = 2.180008 g / cm^3
# Si number density = 21.849816 Si / 1000 Ang^3
#
#
#
# Elastic Constant Matrix: (Units=GPa)
#
#
# Indices 1 2 3 4 5 6 
#
# 1 82.9286 20.7531 35.2136 7.2201 9.1169 2.4174
# 2 20.7531 45.5627 15.3387 -1.3673 6.1885 -8.3391
# 3 35.2136 15.3387 88.8912 -14.3819 10.9532 -4.2169
# 4 7.2201 -1.3673 -14.3819 27.5094 0.9834 5.1132
# 5 9.1169 6.1885 10.9532 0.9834 34.9256 3.0741
# 6 2.4174 -8.3391 -4.2169 5.1132 3.0741 39.8099
#
#
#
# Elastic Compliance Matrix: (Units=1/GPa)
#
#
# Indices 1 2 3 4 5 6 
#
# 1 0.017505 -0.006037 -0.007223 -0.008276 -0.000829 -0.001966
# 2 -0.006037 0.026714 -0.001331 0.001234 -0.003295 0.005917
# 3 -0.007223 -0.001331 0.016486 0.010416 -0.003416 0.000832
# 4 -0.008276 0.001234 0.010416 0.044801 -0.002259 -0.003715
# 5 -0.000829 -0.003295 -0.003416 -0.002259 0.030840 -0.003093
# 6 -0.001966 0.005917 0.000832 -0.003715 -0.003093 0.027282
#
#
# Mechanical properties :
#
#
# Convention : Reuss Voigt Hill
#
# Bulk Modulus (GPa) = 31.72418 39.99924 35.86171
# Shear Modulus (GPa) = 24.59182 30.18745 27.38963
#
# Velocity S-wave (km/s) = 3.35848 3.72100 3.54438
# Velocity P-wave (km/s) = 5.43966 6.06691 5.76182
#
# Compressibility (1/GPa) = 0.03152169
#
# Stress axis : x y z
#
# Youngs Moduli (GPa) = 57.12530 37.43410 60.65636
#
# Poissons Ratio (x) = 0.22601 0.43812
# Poissons Ratio (y) = 0.34489 0.08076
# Poissons Ratio (z) = 0.41261 0.04984
#
# Static dielectric constant tensor:
#      x y z
#    x 1.833180 0.018020 -0.117340 
#    y 0.018020 1.877020 -0.109750 
#    z -0.117340 -0.109750 2.021590 
# 
# From -- ./inp_files/172735.got.cif
#   From: 2010.05.17/outbox.cif.g08.bks.cpg/sg2_87_cif.got.tgz:172735.got - 2010.06.03 11:33:40.
