data_PCOD9002877
_publ_section_title
;
Structure prediction by ZEFSAII (Michael W. Deem and Ramdas Pophale) SiO2 
 PCOD9002877
Probable space group: P -1
;
_chemical_formula_sum "Si O2"
_cell_formula_units_Z 14
_cell_length_a 15.681500
_cell_length_b 8.094050
_cell_length_c 7.926222
_cell_angle_alpha 73.729855
_cell_angle_beta 116.922238
_cell_angle_gamma 136.894000
_cell_volume 610.875311
_symmetry_space_group_name_H-M "P -1"
_symmetry_group_IT_number 2
_symmetry_cell_setting 'triclinic'
loop_
_space_group_symop_operation_xyz
x,y,z
-x,-y,-z
loop_
_atom_site_type_symbol
_atom_site_label
_atom_site_fract_x
_atom_site_fract_y
_atom_site_fract_z
Si Si1 0.576808 0.763792 0.064923
Si Si2 0.141264 0.076110 0.131227
Si Si3 0.887802 0.374605 0.759499
Si Si4 0.676145 0.404768 0.974990
Si Si5 0.636314 0.270059 0.575456
Si Si6 0.636746 0.641933 0.472488
Si Si7 0.169245 0.710953 0.896939
O O1 0.460185 0.752967 0.998582
O O2 0.637529 0.790102 0.293375
O O3 0.707359 0.008333 0.022577
O O4 0.500000 0.500000 0.000000
O O5 0.244473 0.311913 0.033773
O O6 0.224300 0.195555 0.346691
O O7 0.125409 0.849447 0.175272
O O8 0.000000 0.000000 0.000000
O O9 0.756332 0.306777 0.597158
O O10 0.028697 0.605871 0.732157
O O11 0.883950 0.435299 0.932468
O O12 0.646806 0.324653 0.772375
O O13 0.769417 0.367335 0.130614
O O14 0.624625 0.441550 0.431513
O O15 0.500000 0.000000 0.500000
O O16 0.500000 0.500000 0.500000
#
# Coordination Sequence:
#
# PCOD9002877 Si02
#       7
#     2   2   2   2   2   2   2
#     4  12  25  42  66  94 136 173 215 270 327 380
#     4  11  20  38  70  95 123 168 216 263 324 384
#     4  10  21  38  66  94 124 170 216 262 325 392
#     4  10  21  39  63  99 124 166 222 266 319 393
#     4  10  21  36  67  94 125 166 215 273 319 380
#     4  11  23  42  64  97 127 166 224 269 315 394
#     4  10  22  39  62  94 131 165 214 266 320 392
#
# _framework density 22.917933999999999
#
# number of rings (size 3 to 8) (size 9 to 14) (size 15 to 20)
#    0.000    1.429    4.286    2.143    6.000    0.000 
#    0.000    1.429    0.000    0.000    0.000    0.000 
#    0.000    0.000    0.000    0.000    0.000    0.000 
#
# Total GULP energy -78027.408147 kJ/mol
# GULP energy per Si atom -5573.386296 kJ/mol
# Density = 2.286577 g / cm^3
# Si number density = 22.917934 Si / 1000 Ang^3
#
#
#
# Elastic Constant Matrix: (Units=GPa)
#
#
# Indices 1 2 3 4 5 6 
#
# 1 171.0235 68.9332 23.4050 21.2317 45.8104 12.8512
# 2 68.9332 140.6355 2.3884 31.9809 11.8641 9.4274
# 3 23.4050 2.3884 42.1076 10.7235 14.8001 14.9499
# 4 21.2317 31.9809 10.7235 27.0421 6.2086 4.0348
# 5 45.8104 11.8641 14.8001 6.2086 33.4462 9.4199
# 6 12.8512 9.4274 14.9499 4.0348 9.4199 48.9676
#
#
#
# Elastic Compliance Matrix: (Units=1/GPa)
#
#
# Indices 1 2 3 4 5 6 
#
# 1 0.011480 -0.004505 -0.001667 -0.000037 -0.013662 0.000995
# 2 -0.004505 0.012117 0.004939 -0.013059 0.002702 -0.002102
# 3 -0.001667 0.004939 0.034379 -0.014753 -0.009710 -0.007926
# 4 -0.000037 -0.013059 -0.014753 0.058007 -0.000201 0.002287
# 5 -0.013662 0.002702 -0.009710 -0.000201 0.053164 -0.004181
# 6 0.000995 -0.002102 -0.007926 0.002287 -0.004181 0.023601
#
#
# Mechanical properties :
#
#
# Convention : Reuss Voigt Hill
#
# Bulk Modulus (GPa) = 18.01476 60.35776 39.18626
# Shear Modulus (GPa) = 23.39524 39.16052 31.27788
#
# Velocity S-wave (km/s) = 3.19850 4.13816 3.69830
# Velocity P-wave (km/s) = 4.63877 7.01614 5.94745
#
# Compressibility (1/GPa) = 0.05551005
#
# Stress axis : x y z
#
# Youngs Moduli (GPa) = 87.10617 82.52758 29.08722
#
# Poissons Ratio (x) = 0.37175 0.04850
# Poissons Ratio (y) = 0.39237 -0.14365
# Poissons Ratio (z) = 0.14525 -0.40758
#
# Static dielectric constant tensor:
#      x y z
#    x 1.926580 0.026700 0.063130 
#    y 0.026700 1.663450 -0.013480 
#    z 0.063130 -0.013480 1.963480 
# 
# From -- ./inp_files/295289.got.cif
#   From: 2010.05.17/outbox.cif.g08.bks.cpg/sg2_148_cif.got.tgz:295289.got - 2010.06.03 11:33:40.
