data_PCOD9002924
_publ_section_title
;
Structure prediction by ZEFSAII (Michael W. Deem and Ramdas Pophale) SiO2 
 PCOD9002924
Probable space group: P -1
;
_chemical_formula_sum "Si O2"
_cell_formula_units_Z 16
_cell_length_a 6.984595
_cell_length_b 10.969787
_cell_length_c 23.889221
_cell_angle_alpha 139.028589
_cell_angle_beta 39.664473
_cell_angle_gamma 137.302672
_cell_volume 712.497911
_symmetry_space_group_name_H-M "P -1"
_symmetry_group_IT_number 2
_symmetry_cell_setting 'triclinic'
loop_
_space_group_symop_operation_xyz
x,y,z
-x,-y,-z
loop_
_atom_site_type_symbol
_atom_site_label
_atom_site_fract_x
_atom_site_fract_y
_atom_site_fract_z
Si Si1 0.480574 0.350797 0.903032
Si Si2 0.388239 0.251215 0.279696
Si Si3 0.282458 0.520521 0.222859
Si Si4 0.785803 0.076466 0.191313
Si Si5 0.825617 0.568108 0.510914
Si Si6 0.667043 0.143808 0.363991
Si Si7 0.432584 0.812522 0.387271
Si Si8 0.114232 0.335078 0.715264
O O1 0.505300 0.452256 0.871464
O O2 0.813301 0.305218 0.812963
O O3 0.186937 0.138046 0.897771
O O4 0.500000 0.500000 0.000000
O O5 0.579882 0.106166 0.195485
O O6 0.364803 0.323511 0.373762
O O7 0.603541 0.447824 0.266202
O O8 0.035441 0.166903 0.303777
O O9 0.464011 0.654614 0.279671
O O10 0.088981 0.287427 0.198696
O O11 0.030474 0.629016 0.299261
O O12 0.609374 0.054575 0.284022
O O13 0.643848 0.361236 0.448028
O O14 0.000000 0.500000 0.500000
O O15 0.100215 0.713569 0.460251
O O16 0.466539 0.006531 0.411503
O O17 0.724871 0.828844 0.369683
#
# Coordination Sequence:
#
# PCOD9002924 Si02
#       8
#     2   2   2   2   2   2   2   2
#     4  10  22  41  63  91 115 141 196 249 292 357
#     4  10  21  39  57  85 120 160 196 235 284 338
#     4   9  21  37  61  86 115 155 191 238 293 349
#     4  11  20  40  62  82 116 159 190 232 307 346
#     4  10  21  37  53  90 122 153 205 243 266 333
#     4  11  21  34  61  84 116 164 194 237 286 334
#     4  12  19  38  61  85 120 159 197 234 287 341
#     4   9  19  38  59  80 120 152 186 238 298 337
#
# _framework density 22.456204
#
# number of rings (size 3 to 8) (size 9 to 14) (size 15 to 20)
#    0.750    1.000    5.000    0.750    0.000    3.000 
#    2.250    1.250    0.000    1.500    0.000    0.000 
#    0.000    0.000    0.000    0.000    0.000    0.000 
#
# Total GULP energy -89250.453672 kJ/mol
# GULP energy per Si atom -5578.153354 kJ/mol
# Density = 2.240509 g / cm^3
# Si number density = 22.456204 Si / 1000 Ang^3
#
#
#
# Elastic Constant Matrix: (Units=GPa)
#
#
# Indices 1 2 3 4 5 6 
#
# 1 52.0068 14.1517 7.8119 0.5487 13.8710 -10.9423
# 2 14.1517 135.9978 19.6048 5.8332 7.9803 -16.2394
# 3 7.8119 19.6048 52.2298 13.8858 24.6710 3.3404
# 4 0.5487 5.8332 13.8858 26.4410 4.4079 3.7968
# 5 13.8710 7.9803 24.6710 4.4079 22.6818 -3.9221
# 6 -10.9423 -16.2394 3.3404 3.7968 -3.9221 30.3263
#
#
#
# Elastic Compliance Matrix: (Units=1/GPa)
#
#
# Indices 1 2 3 4 5 6 
#
# 1 0.025408 -0.001773 0.006924 -0.000885 -0.021444 0.004793
# 2 -0.001773 0.008717 -0.005678 -0.000553 0.005234 0.005400
# 3 0.006924 -0.005678 0.052824 -0.015086 -0.058850 -0.012083
# 4 -0.000885 -0.000553 -0.015086 0.045107 0.007757 -0.003598
# 5 -0.021444 0.005234 -0.058850 0.007757 0.120663 0.016182
# 6 0.004793 0.005400 -0.012083 -0.003598 0.016182 0.041470
#
#
# Mechanical properties :
#
#
# Convention : Reuss Voigt Hill
#
# Bulk Modulus (GPa) = 11.64222 35.93014 23.78618
# Shear Modulus (GPa) = 15.43805 29.13421 22.28613
#
# Velocity S-wave (km/s) = 2.62482 3.60582 3.15370
# Velocity P-wave (km/s) = 3.79235 5.77674 4.88634
#
# Compressibility (1/GPa) = 0.08589430
#
# Stress axis : x y z
#
# Youngs Moduli (GPa) = 39.35743 114.71300 18.93090
#
# Poissons Ratio (x) = 0.20343 -0.13107
# Poissons Ratio (y) = 0.06980 0.10748
# Poissons Ratio (z) = -0.27250 0.65131
#
# Static dielectric constant tensor:
#      x y z
#    x 1.883220 0.008410 -0.010790 
#    y 0.008410 1.895570 0.029300 
#    z -0.010790 0.029300 1.803090 
# 
# From -- ./inp_files/607310.got.cif
#   From: 2010.05.17/outbox.cif.g08.bks.cpg/sg2_304_cif.got.tgz:607310.got - 2010.06.03 11:33:40.
