data_PCOD9002055
_publ_section_title
;
Structure prediction by ZEFSAII (Michael W. Deem and Ramdas Pophale) SiO2 
 PCOD9002055
Probable space group: P -1
;
_chemical_formula_sum "Si O2"
_cell_formula_units_Z 16
_cell_length_a 20.605346
_cell_length_b 22.191530
_cell_length_c 5.435356
_cell_angle_alpha 110.664770
_cell_angle_beta 101.458312
_cell_angle_gamma 20.018351
_cell_volume 724.274592
_symmetry_space_group_name_H-M "P -1"
_symmetry_group_IT_number 2
_symmetry_cell_setting 'triclinic'
loop_
_space_group_symop_operation_xyz
x,y,z
-x,-y,-z
loop_
_atom_site_type_symbol
_atom_site_label
_atom_site_fract_x
_atom_site_fract_y
_atom_site_fract_z
Si Si1 0.294840 0.089469 0.414660
Si Si2 0.638452 0.314420 0.720494
Si Si3 0.290666 0.212982 0.291158
Si Si4 0.025593 0.366964 0.996706
Si Si5 0.802512 0.327814 0.103917
Si Si6 0.105467 0.609070 0.698741
Si Si7 0.313817 0.313241 0.179858
Si Si8 0.926860 0.137681 0.417533
O O1 0.294605 0.166841 0.472683
O O2 0.106354 0.224199 0.339072
O O3 0.238901 0.137326 0.726644
O O4 0.497331 0.875599 0.129766
O O5 0.450860 0.437068 0.720484
O O6 0.760628 0.232205 0.460204
O O7 0.500000 0.500000 0.000000
O O8 0.834893 0.107198 0.728421
O O9 0.300998 0.279686 0.363216
O O10 0.099533 0.356731 0.207831
O O11 0.500000 0.000000 0.000000
O O12 0.894283 0.429759 0.102147
O O13 0.889271 0.517864 0.887598
O O14 0.886216 0.323058 0.172999
O O15 0.886639 0.210411 0.234616
O O16 0.874823 0.229036 0.755241
O O17 0.289731 0.408674 0.385265
#
# Coordination Sequence:
#
# PCOD9002055 Si02
#       8
#     2   2   2   2   2   2   2   2
#     4   9  21  39  57  80 117 153 200 261 320 386
#     4   9  21  43  70 105 137 170 218 272 323 381
#     4   9  19  35  57  83 113 145 197 260 325 381
#     4  10  21  36  57  83 113 154 201 259 315 375
#     4  11  24  42  67  95 140 178 223 264 322 391
#     4  10  24  40  56  83 125 161 208 258 308 381
#     4  10  21  37  59  84 110 155 204 257 320 384
#     4  10  23  41  70 102 134 176 216 270 327 377
#
# _framework density 22.091068
#
# number of rings (size 3 to 8) (size 9 to 14) (size 15 to 20)
#    0.000    2.250    0.000    0.750    3.500   18.000 
#    2.250    0.000    0.000    0.000    0.000    0.000 
#    0.000    0.000    0.000    0.000    0.000    0.000 
#
# Total GULP energy -89221.483349 kJ/mol
# GULP energy per Si atom -5576.342709 kJ/mol
# Density = 2.204079 g / cm^3
# Si number density = 22.091068 Si / 1000 Ang^3
#
#
#
# Elastic Constant Matrix: (Units=GPa)
#
#
# Indices 1 2 3 4 5 6 
#
# 1 89.0935 28.7423 22.1184 0.4013 -3.5801 -13.3718
# 2 28.7423 94.0202 35.9057 25.8082 -6.2932 -10.4409
# 3 22.1184 35.9057 117.0381 17.7734 -2.0231 4.2226
# 4 0.4013 25.8082 17.7734 39.2055 -0.2232 0.2150
# 5 -3.5801 -6.2932 -2.0231 -0.2232 24.9746 -3.1985
# 6 -13.3718 -10.4409 4.2226 0.2150 -3.1985 20.7404
#
#
#
# Elastic Compliance Matrix: (Units=1/GPa)
#
#
# Indices 1 2 3 4 5 6 
#
# 1 0.014170 -0.003160 -0.002428 0.003002 0.002133 0.008337
# 2 -0.003160 0.016589 -0.003265 -0.009426 0.004371 0.007750
# 3 -0.002428 -0.003265 0.010580 -0.002598 -0.001041 -0.005497
# 4 0.003002 -0.009426 -0.002598 0.032862 -0.002241 -0.002967
# 5 0.002133 0.004371 -0.001041 -0.002241 0.042674 0.010392
# 6 0.008337 0.007750 -0.005497 -0.002967 0.010392 0.060244
#
#
# Mechanical properties :
#
#
# Convention : Reuss Voigt Hill
#
# Bulk Modulus (GPa) = 42.31461 52.63163 47.47312
# Shear Modulus (GPa) = 24.66659 31.20979 27.93819
#
# Velocity S-wave (km/s) = 3.34516 3.76277 3.56010
# Velocity P-wave (km/s) = 5.84092 6.53869 6.19963
#
# Compressibility (1/GPa) = 0.02363250
#
# Stress axis : x y z
#
# Youngs Moduli (GPa) = 70.57195 60.27927 94.52143
#
# Poissons Ratio (x) = 0.19048 0.22953
# Poissons Ratio (y) = 0.22301 0.30861
# Poissons Ratio (z) = 0.17137 0.19681
#
# Static dielectric constant tensor:
#      x y z
#    x 1.811000 0.035080 -0.000070 
#    y 0.035080 1.901050 0.001760 
#    z -0.000070 0.001760 1.892730 
# 
# From -- ./inp_files/120668.got.cif
#   From: 2010.05.17/outbox.cif.g08.bks.cpg/sg2_61_cif.got.tgz:120668.got - 2010.06.03 11:33:40.
