data_PCOD9002970
_publ_section_title
;
Structure prediction by ZEFSAII (Michael W. Deem and Ramdas Pophale) SiO2 
 PCOD9002970
Probable space group: P -1
;
_chemical_formula_sum "Si O2"
_cell_formula_units_Z 16
_cell_length_a 17.250225
_cell_length_b 12.507392
_cell_length_c 20.285352
_cell_angle_alpha 146.249943
_cell_angle_beta 22.064316
_cell_angle_gamma 133.381018
_cell_volume 836.675088
_symmetry_space_group_name_H-M "P -1"
_symmetry_group_IT_number 2
_symmetry_cell_setting 'triclinic'
loop_
_space_group_symop_operation_xyz
x,y,z
-x,-y,-z
loop_
_atom_site_type_symbol
_atom_site_label
_atom_site_fract_x
_atom_site_fract_y
_atom_site_fract_z
Si Si1 0.173233 0.581683 0.793194
Si Si2 0.429011 0.464577 0.322562
Si Si3 0.539694 0.247332 0.260107
Si Si4 0.364011 0.188811 0.650648
Si Si5 0.777623 0.774477 0.878460
Si Si6 0.963164 0.235694 0.137729
Si Si7 0.417918 0.185400 0.799685
Si Si8 0.694606 0.460727 0.683687
O O1 0.306585 0.347337 0.538236
O O2 0.311628 0.629838 0.766594
O O3 0.181903 0.707761 0.785100
O O4 0.906852 0.686703 0.070952
O O5 0.509597 0.292053 0.228457
O O6 0.545036 0.629837 0.321679
O O7 0.174753 0.607688 0.617178
O O8 0.427055 0.409523 0.219415
O O9 0.667561 0.004741 0.051542
O O10 0.500000 0.000000 0.500000
O O11 0.434836 0.056535 0.459265
O O12 0.708711 0.613764 0.807947
O O13 0.048792 0.689867 0.615680
O O14 0.681940 0.788954 0.035168
O O15 0.199583 0.257076 0.960452
O O16 0.000000 0.000000 0.000000
O O17 0.562205 0.321095 0.740631
#
# Coordination Sequence:
#
# PCOD9002970 Si02
#       8
#     2   2   2   2   2   2   2   2
#     4  10  21  37  55  91 136 164 206 244 327 397
#     4  11  22  38  61  96 126 170 206 262 325 385
#     4  10  24  40  61  88 137 176 197 261 331 392
#     4  12  21  35  63 100 127 162 211 265 316 382
#     4  11  25  45  64  92 126 174 216 277 319 365
#     4  11  18  32  61  91 129 163 201 254 320 373
#     4  12  22  37  68  97 126 163 210 275 315 374
#     4  11  24  43  70  91 122 166 235 271 306 377
#
# _framework density 19.123315000000002
#
# number of rings (size 3 to 8) (size 9 to 14) (size 15 to 20)
#    0.000    1.000    5.000    1.875    3.500    1.000 
#    2.250    0.000    0.000    3.750    0.000    0.000 
#    0.000    0.000    0.000    0.000    0.000    0.000 
#
# Total GULP energy -89188.930464 kJ/mol
# GULP energy per Si atom -5574.308154 kJ/mol
# Density = 1.907979 g / cm^3
# Si number density = 19.123315 Si / 1000 Ang^3
#
#
#
# Elastic Constant Matrix: (Units=GPa)
#
#
# Indices 1 2 3 4 5 6 
#
# 1 111.9098 36.3191 47.2117 -1.2503 -1.4466 -14.0105
# 2 36.3191 69.3199 31.5468 -13.5680 -7.3244 5.5190
# 3 47.2117 31.5468 115.0758 -14.6144 -1.3951 0.1358
# 4 -1.2503 -13.5680 -14.6144 31.6363 -3.0255 -8.1500
# 5 -1.4466 -7.3244 -1.3951 -3.0255 26.7682 -6.8416
# 6 -14.0105 5.5190 0.1358 -8.1500 -6.8416 20.7513
#
#
#
# Elastic Compliance Matrix: (Units=1/GPa)
#
#
# Indices 1 2 3 4 5 6 
#
# 1 0.014272 -0.006523 -0.004195 -0.001055 0.001590 0.011508
# 2 -0.006523 0.021105 -0.002196 0.006705 0.004567 -0.005864
# 3 -0.004195 -0.002196 0.011527 0.004035 0.000044 -0.000725
# 4 -0.001055 0.006705 0.004035 0.041929 0.011239 0.017651
# 5 0.001590 0.004567 0.000044 0.011239 0.044836 0.019055
# 6 0.011508 -0.005864 -0.000725 0.017651 0.019055 0.070739
#
#
# Mechanical properties :
#
#
# Convention : Reuss Voigt Hill
#
# Bulk Modulus (GPa) = 47.44848 58.49562 52.97205
# Shear Modulus (GPa) = 21.07384 27.91300 24.49342
#
# Velocity S-wave (km/s) = 3.32324 3.82466 3.58273
# Velocity P-wave (km/s) = 6.29213 7.08231 6.69888
#
# Compressibility (1/GPa) = 0.02107549
#
# Stress axis : x y z
#
# Youngs Moduli (GPa) = 70.06587 47.38316 86.75392
#
# Poissons Ratio (x) = 0.30909 0.36397
# Poissons Ratio (y) = 0.45705 0.19047
# Poissons Ratio (z) = 0.29396 0.10403
#
# Static dielectric constant tensor:
#      x y z
#    x 1.695390 -0.027110 -0.016330 
#    y -0.027110 1.644570 -0.041150 
#    z -0.016330 -0.041150 1.669920 
# 
# From -- ./inp_files/282025.got.cif
#   From: 2010.05.17/outbox.cif.g08.bks.cpg/sg2_142_cif.got.tgz:282025.got - 2010.06.03 11:33:40.
