data_PCOD9003887
_publ_section_title
;
Structure prediction by ZEFSAII (Michael W. Deem and Ramdas Pophale) SiO2 
 PCOD9003887
Probable space group: P -1
;
_chemical_formula_sum "Si O2"
_cell_formula_units_Z 16
_cell_length_a 8.647212
_cell_length_b 22.122868
_cell_length_c 5.344070
_cell_angle_alpha 69.237056
_cell_angle_beta 134.858947
_cell_angle_gamma 121.349984
_cell_volume 618.741942
_symmetry_space_group_name_H-M "P -1"
_symmetry_group_IT_number 2
_symmetry_cell_setting 'triclinic'
loop_
_space_group_symop_operation_xyz
x,y,z
-x,-y,-z
loop_
_atom_site_type_symbol
_atom_site_label
_atom_site_fract_x
_atom_site_fract_y
_atom_site_fract_z
Si Si1 0.468560 0.171368 0.138929
Si Si2 0.422104 0.453765 0.236375
Si Si3 0.967589 0.419089 0.522934
Si Si4 0.054343 0.089054 0.185729
Si Si5 0.629500 0.964561 0.018693
Si Si6 0.448509 0.667905 0.551556
Si Si7 0.885917 0.298960 0.259379
Si Si8 0.864724 0.780772 0.657869
O O1 0.263605 0.133257 0.166694
O O2 0.713656 0.241336 0.352610
O O3 0.533797 0.108620 0.195349
O O4 0.322261 0.197592 0.738059
O O5 0.500000 0.500000 0.500000
O O6 0.538625 0.398462 0.476334
O O7 0.500000 0.500000 0.000000
O O8 0.139908 0.412257 0.943338
O O9 0.688176 0.369729 0.301369
O O10 0.025766 0.377932 0.418370
O O11 0.000000 0.500000 0.500000
O O12 0.197731 0.059354 0.580184
O O13 0.967379 0.145193 0.136285
O O14 0.809174 0.021606 0.942889
O O15 0.500000 0.000000 0.000000
O O16 0.712521 0.727412 0.780968
O O17 0.285172 0.694850 0.163516
O O18 0.036448 0.260971 0.353831
#
# Coordination Sequence:
#
# PCOD9003887 Si02
#       8
#     2   2   2   2   2   2   2   2
#     4  10  22  40  64  97 135 179 233 286 350 421
#     4  12  28  47  75 104 143 184 235 300 373 442
#     4  12  26  44  69 100 133 180 233 292 364 436
#     4  10  21  39  61  92 136 178 229 284 344 416
#     4  10  21  37  62  95 134 179 228 283 344 411
#     4  11  25  43  68  96 138 177 232 291 359 427
#     4  11  25  43  69  98 135 180 236 295 360 433
#     4  10  23  41  64  96 135 182 232 290 355 419
#
# _framework density 25.858923000000001
#
# number of rings (size 3 to 8) (size 9 to 14) (size 15 to 20)
#    0.000    1.250    1.250    3.375    3.500    5.500 
#    0.000    0.000    0.000    0.000    0.000    0.000 
#    0.000    0.000    0.000    0.000    0.000    0.000 
#
# Total GULP energy -89329.192890 kJ/mol
# GULP energy per Si atom -5583.074556 kJ/mol
# Density = 2.580007 g / cm^3
# Si number density = 25.858923 Si / 1000 Ang^3
#
#
#
# Elastic Constant Matrix: (Units=GPa)
#
#
# Indices 1 2 3 4 5 6 
#
# 1 123.6405 88.8882 10.8736 -7.1738 5.3749 -8.4217
# 2 88.8882 197.2896 21.3616 2.5872 2.3003 -25.3282
# 3 10.8736 21.3616 46.9843 -4.9295 -3.2376 -10.2617
# 4 -7.1738 2.5872 -4.9295 37.1348 -5.2729 0.8027
# 5 5.3749 2.3003 -3.2376 -5.2729 27.3113 -8.4359
# 6 -8.4217 -25.3282 -10.2617 0.8027 -8.4359 79.8107
#
#
#
# Elastic Compliance Matrix: (Units=1/GPa)
#
#
# Indices 1 2 3 4 5 6 
#
# 1 0.012333 -0.005630 -0.000312 0.002503 -0.001733 -0.000734
# 2 -0.005630 0.008086 -0.002171 -0.001929 0.000337 0.001748
# 3 -0.000312 -0.002171 0.023671 0.003833 0.004647 0.002774
# 4 0.002503 -0.001929 0.003833 0.028875 0.005845 0.000472
# 5 -0.001733 0.000337 0.004647 0.005845 0.040058 0.004697
# 6 -0.000734 0.001748 0.002774 0.000472 0.004697 0.013855
#
#
# Mechanical properties :
#
#
# Convention : Reuss Voigt Hill
#
# Bulk Modulus (GPa) = 35.88628 67.79568 51.84098
# Shear Modulus (GPa) = 32.80999 45.30410 39.05704
#
# Velocity S-wave (km/s) = 3.56590 4.19020 3.89059
# Velocity P-wave (km/s) = 5.55536 7.04874 6.34613
#
# Compressibility (1/GPa) = 0.02786580
#
# Stress axis : x y z
#
# Youngs Moduli (GPa) = 81.08052 123.67034 42.24547
#
# Poissons Ratio (x) = 0.69624 0.01317
# Poissons Ratio (y) = 0.45647 0.09171
# Poissons Ratio (z) = 0.02528 0.26847
#
# Static dielectric constant tensor:
#      x y z
#    x 2.223310 0.084270 -0.008000 
#    y 0.084270 2.107880 0.007300 
#    z -0.008000 0.007300 1.955450 
# 
# From -- ./inp_files/52845.got.cif
#   From: 2010.05.17/outbox.cif.g08.bks.cpg/sg2_27_cif.got.tgz:52845.got - 2010.06.03 11:33:40.
