data_PCOD9003437
_publ_section_title
;
Structure prediction by ZEFSAII (Michael W. Deem and Ramdas Pophale) SiO2 
 PCOD9003437
Probable space group: P -1
;
_chemical_formula_sum "Si O2"
_cell_formula_units_Z 16
_cell_length_a 6.784511
_cell_length_b 14.062777
_cell_length_c 7.608292
_cell_angle_alpha 96.052197
_cell_angle_beta 58.281746
_cell_angle_gamma 100.567279
_cell_volume 606.974600
_symmetry_space_group_name_H-M "P -1"
_symmetry_group_IT_number 2
_symmetry_cell_setting 'triclinic'
loop_
_space_group_symop_operation_xyz
x,y,z
-x,-y,-z
loop_
_atom_site_type_symbol
_atom_site_label
_atom_site_fract_x
_atom_site_fract_y
_atom_site_fract_z
Si Si1 0.320263 0.570299 0.237667
Si Si2 0.452824 0.580159 0.770321
Si Si3 0.837908 0.817433 0.257498
Si Si4 0.490140 0.919432 0.642175
Si Si5 0.707639 0.798881 0.936391
Si Si6 0.162848 0.001451 0.251910
Si Si7 0.936617 0.635853 0.627853
Si Si8 0.239114 0.749248 0.910379
O O1 0.517106 0.532977 0.264683
O O2 0.126327 0.472851 0.284773
O O3 0.180984 0.645059 0.414891
O O4 0.418768 0.593294 0.002100
O O5 0.272396 0.645037 0.790480
O O6 0.006061 0.736996 0.136176
O O7 0.675048 0.845272 0.494563
O O8 0.674328 0.803956 0.160618
O O9 0.043907 0.910631 0.181190
O O10 0.578949 0.986426 0.780861
O O11 0.269642 0.839615 0.778124
O O12 0.500000 0.000000 0.500000
O O13 0.839189 0.901780 0.834534
O O14 0.874286 0.718823 0.799900
O O15 0.466191 0.779670 0.936666
O O16 0.000000 0.000000 0.500000
O O17 0.711990 0.629620 0.599161
#
# Coordination Sequence:
#
# PCOD9003437 Si02
#       8
#     2   2   2   2   2   2   2   2
#     4   8  14  28  57  87 112 156 187 234 299 355
#     4   8  15  30  52  87 115 146 200 229 289 358
#     4  11  24  40  61  84 121 159 196 247 299 343
#     4  10  24  40  59  86 118 158 207 245 294 352
#     4  10  21  37  60  87 121 153 203 243 289 360
#     4   9  21  37  56  85 115 156 197 240 293 346
#     4   8  15  30  51  86 116 149 192 230 292 348
#     4  10  23  38  59  89 120 155 198 247 287 357
#
# _framework density 26.360247999999999
#
# number of rings (size 3 to 8) (size 9 to 14) (size 15 to 20)
#    0.750    2.000    0.000    0.375    7.000    5.000 
#    0.000    2.500    0.000    1.500    0.000    0.000 
#    0.000    0.000    0.000    0.000    0.000    0.000 
#
# Total GULP energy -89117.255703 kJ/mol
# GULP energy per Si atom -5569.828481 kJ/mol
# Density = 2.630025 g / cm^3
# Si number density = 26.360248 Si / 1000 Ang^3
#
#
#
# Elastic Constant Matrix: (Units=GPa)
#
#
# Indices 1 2 3 4 5 6 
#
# 1 86.0961 12.7162 24.3787 -2.6893 5.4913 -2.9610
# 2 12.7162 68.6556 14.7389 -2.5954 -11.2437 -17.2795
# 3 24.3787 14.7389 128.1230 20.8972 -21.8814 -8.3713
# 4 -2.6893 -2.5954 20.8972 37.9684 -4.4644 -3.7218
# 5 5.4913 -11.2437 -21.8814 -4.4644 39.6491 7.3604
# 6 -2.9610 -17.2795 -8.3713 -3.7218 7.3604 31.5351
#
#
#
# Elastic Compliance Matrix: (Units=1/GPa)
#
#
# Indices 1 2 3 4 5 6 
#
# 1 0.013217 -0.002246 -0.003284 0.002142 -0.004103 0.000349
# 2 -0.002246 0.018142 -0.000930 0.002897 0.003601 0.008984
# 3 -0.003284 -0.000930 0.010313 -0.005347 0.005269 0.000059
# 4 0.002142 0.002897 -0.005347 0.030037 0.000240 0.003858
# 5 -0.004103 0.003601 0.005269 0.000240 0.030508 -0.004106
# 6 0.000349 0.008984 0.000059 0.003858 -0.004106 0.038095
#
#
# Mechanical properties :
#
#
# Convention : Reuss Voigt Hill
#
# Bulk Modulus (GPa) = 34.78139 42.94914 38.86527
# Shear Modulus (GPa) = 30.70962 37.23326 33.97144
#
# Velocity S-wave (km/s) = 3.41691 3.76237 3.59379
# Velocity P-wave (km/s) = 5.36566 5.93316 5.65653
#
# Compressibility (1/GPa) = 0.02875101
#
# Stress axis : x y z
#
# Youngs Moduli (GPa) = 75.65923 55.12201 96.96818
#
# Poissons Ratio (x) = 0.12382 0.31843
# Poissons Ratio (y) = 0.16995 0.09019
# Poissons Ratio (z) = 0.24845 0.05127
#
# Static dielectric constant tensor:
#      x y z
#    x 2.187980 -0.068910 -0.010060 
#    y -0.068910 2.137040 0.013280 
#    z -0.010060 0.013280 2.060570 
# 
# From -- ./inp_files/201904.got.cif
#   From: 2010.05.17/outbox.cif.g08.bks.cpg/sg2_101_cif.got.tgz:201904.got - 2010.06.03 11:33:40.
