data_PCOD9003283
_publ_section_title
;
Structure prediction by ZEFSAII (Michael W. Deem and Ramdas Pophale) SiO2 
 PCOD9003283
Probable space group: P -1
;
_chemical_formula_sum "Si O2"
_cell_formula_units_Z 13
_cell_length_a 9.123535
_cell_length_b 9.744176
_cell_length_c 10.946277
_cell_angle_alpha 114.104224
_cell_angle_beta 33.274377
_cell_angle_gamma 118.335489
_cell_volume 469.805002
_symmetry_space_group_name_H-M "P -1"
_symmetry_group_IT_number 2
_symmetry_cell_setting 'triclinic'
loop_
_space_group_symop_operation_xyz
x,y,z
-x,-y,-z
loop_
_atom_site_type_symbol
_atom_site_label
_atom_site_fract_x
_atom_site_fract_y
_atom_site_fract_z
Si Si1 0.231394 0.718575 0.361317
Si Si2 0.303961 0.344542 0.409908
Si Si3 0.645672 0.009372 0.129663
Si Si4 0.695401 0.613506 0.110387
Si Si5 0.000000 0.000000 0.500000
Si Si6 0.118672 0.819419 0.744902
Si Si7 0.090154 0.205999 0.746626
O O1 0.468056 0.630816 0.177075
O O2 0.955453 0.612082 0.458801
O O3 0.188848 0.775872 0.546550
O O4 0.353345 0.881370 0.255096
O O5 0.584249 0.452638 0.199973
O O6 0.228689 0.164073 0.356873
O O7 0.233105 0.343727 0.602600
O O8 0.647385 0.078824 0.290649
O O9 0.781105 0.155371 0.002078
O O10 0.879006 0.912331 0.937019
O O11 0.729799 0.747426 0.239659
O O12 0.984113 0.661290 0.856826
O O13 0.059645 0.063583 0.624170
#
# Coordination Sequence:
#
# PCOD9003283 Si02
#       7
#     2   2   2   2   1   2   2
#     4  11  21  34  61  89 117 148 196 245 283 340
#     4  10  21  37  59  87 120 154 191 238 294 343
#     4   9  18  34  58  85 119 154 190 239 291 340
#     4  10  21  39  63  84 117 159 189 238 293 344
#     4   8  20  34  58  86 108 150 192 234 278 342
#     4   9  19  34  56  88 118 152 194 237 288 345
#     4   9  19  38  60  84 116 156 194 231 293 347
#
# _framework density 27.671054000000002
#
# number of rings (size 3 to 8) (size 9 to 14) (size 15 to 20)
#    0.923    1.538    0.000    3.231    0.000    2.462 
#    0.000    1.538    0.000    2.769    0.000    0.000 
#    0.000    0.000    0.000    0.000    0.000    0.000 
#
# Total GULP energy -72415.477205 kJ/mol
# GULP energy per Si atom -5570.421323 kJ/mol
# Density = 2.760807 g / cm^3
# Si number density = 27.671054 Si / 1000 Ang^3
#
#
#
# Elastic Constant Matrix: (Units=GPa)
#
#
# Indices 1 2 3 4 5 6 
#
# 1 74.5983 15.5845 32.7171 -3.5957 11.3335 10.5528
# 2 15.5845 143.1495 52.1524 -34.6850 9.9604 -5.0756
# 3 32.7171 52.1524 62.3417 -37.5062 20.5599 -2.0876
# 4 -3.5957 -34.6850 -37.5062 72.5468 -1.9593 8.5150
# 5 11.3335 9.9604 20.5599 -1.9593 41.9307 -10.7679
# 6 10.5528 -5.0756 -2.0876 8.5150 -10.7679 33.5188
#
#
#
# Elastic Compliance Matrix: (Units=1/GPa)
#
#
# Indices 1 2 3 4 5 6 
#
# 1 0.020584 0.002071 -0.016209 -0.005699 0.000169 -0.005674
# 2 0.002071 0.010511 -0.011170 -0.000727 0.002721 0.001303
# 3 -0.016209 -0.011170 0.052774 0.021190 -0.019089 -0.004817
# 4 -0.005699 -0.000727 0.021190 0.024587 -0.009112 -0.006169
# 5 0.000169 0.002721 -0.019089 -0.009112 0.035392 0.012855
# 6 -0.005674 0.001303 -0.004817 -0.006169 0.012855 0.037215
#
#
# Mechanical properties :
#
#
# Convention : Reuss Voigt Hill
#
# Bulk Modulus (GPa) = 30.07442 53.44416 41.75929
# Shear Modulus (GPa) = 20.59609 41.57494 31.08552
#
# Velocity S-wave (km/s) = 2.73118 3.88038 3.35534
# Velocity P-wave (km/s) = 4.56486 6.27953 5.48955
#
# Compressibility (1/GPa) = 0.03325085
#
# Stress axis : x y z
#
# Youngs Moduli (GPa) = 48.58179 95.14109 18.94859
#
# Poissons Ratio (x) = -0.19699 0.30714
# Poissons Ratio (y) = -0.10059 0.21166
# Poissons Ratio (z) = 0.78747 1.06277
#
# Static dielectric constant tensor:
#      x y z
#    x 2.241300 -0.136050 0.005900 
#    y -0.136050 2.155470 -0.082010 
#    z 0.005900 -0.082010 2.074060 
# 
# From -- ./inp_files/423991.got.cif
#   From: 2010.05.17/outbox.cif.g08.bks.cpg/sg2_212_cif.got.tgz:423991.got - 2010.06.03 11:33:40.
