data_PCOD9003735
_publ_section_title
;
Structure prediction by ZEFSAII (Michael W. Deem and Ramdas Pophale) SiO2 
 PCOD9003735
Probable space group: P -1
;
_chemical_formula_sum "Si O2"
_cell_formula_units_Z 16
_cell_length_a 10.638750
_cell_length_b 8.368501
_cell_length_c 11.150850
_cell_angle_alpha 95.668081
_cell_angle_beta 57.024445
_cell_angle_gamma 113.368158
_cell_volume 755.627055
_symmetry_space_group_name_H-M "P -1"
_symmetry_group_IT_number 2
_symmetry_cell_setting 'triclinic'
loop_
_space_group_symop_operation_xyz
x,y,z
-x,-y,-z
loop_
_atom_site_type_symbol
_atom_site_label
_atom_site_fract_x
_atom_site_fract_y
_atom_site_fract_z
Si Si1 0.102455 0.564957 0.761143
Si Si2 0.361990 0.477776 0.467511
Si Si3 0.170183 0.957326 0.681208
Si Si4 0.806619 0.917583 0.573994
Si Si5 0.118153 0.012163 0.051024
Si Si6 0.535081 0.943826 0.848471
Si Si7 0.201107 0.667660 0.982049
Si Si8 0.421094 0.189104 0.770662
O O1 0.213293 0.504987 0.613937
O O2 0.135662 0.762927 0.726809
O O3 0.907338 0.447615 0.861468
O O4 0.155992 0.564560 0.872003
O O5 0.500000 0.500000 0.500000
O O6 0.279011 0.286707 0.435252
O O7 0.451349 0.625624 0.331360
O O8 0.999912 0.982703 0.781106
O O9 0.226850 0.987040 0.517914
O O10 0.308067 0.090876 0.707607
O O11 0.713018 0.949410 0.738384
O O12 0.000000 0.000000 0.500000
O O13 0.156391 0.839035 0.016421
O O14 0.288495 0.177246 0.942797
O O15 0.000000 0.000000 0.000000
O O16 0.505745 0.068881 0.773792
O O17 0.396299 0.747089 0.892468
O O18 0.500000 0.000000 0.000000
#
# Coordination Sequence:
#
# PCOD9003735 Si02
#       8
#     2   2   2   2   2   2   2   2
#     4  11  22  36  66 101 134 168 223 288 339 391
#     4  12  25  41  70 101 136 174 232 293 335 401
#     4  11  21  41  70  98 136 178 222 289 336 404
#     4  12  29  47  69  99 142 182 224 280 357 410
#     4   9  17  34  61  97 133 169 213 275 339 391
#     4  11  25  47  71  94 137 187 226 277 341 418
#     4  10  21  37  62 100 133 169 226 272 337 399
#     4  10  22  41  70 100 133 173 237 278 338 394
#
# _framework density 21.174468000000001
#
# number of rings (size 3 to 8) (size 9 to 14) (size 15 to 20)
#    0.000    1.250    5.000    2.250    7.000    2.000 
#    2.250    1.875    0.000    0.000    0.000    0.000 
#    0.000    0.000    0.000    0.000    0.000    0.000 
#
# Total GULP energy -89333.046871 kJ/mol
# GULP energy per Si atom -5583.315429 kJ/mol
# Density = 2.112627 g / cm^3
# Si number density = 21.174468 Si / 1000 Ang^3
#
#
#
# Elastic Constant Matrix: (Units=GPa)
#
#
# Indices 1 2 3 4 5 6 
#
# 1 71.0010 19.6806 31.7025 -4.5714 -18.0583 16.7848
# 2 19.6806 76.0992 51.1390 -28.6430 -7.6073 11.5425
# 3 31.7025 51.1390 151.4334 -6.7357 -23.0684 3.5233
# 4 -4.5714 -28.6430 -6.7357 47.7517 -2.0167 -3.0642
# 5 -18.0583 -7.6073 -23.0684 -2.0167 37.4071 0.0946
# 6 16.7848 11.5425 3.5233 -3.0642 0.0946 14.8900
#
#
#
# Elastic Compliance Matrix: (Units=1/GPa)
#
#
# Indices 1 2 3 4 5 6 
#
# 1 0.024391 0.001872 -0.003469 0.001611 0.010174 -0.027859
# 2 0.001872 0.025873 -0.007792 0.013564 0.002135 -0.017545
# 3 -0.003469 -0.007792 0.010090 -0.003021 0.002782 0.006924
# 4 0.001611 0.013564 -0.003021 0.028573 0.003228 -0.005756
# 5 0.010174 0.002135 0.002782 0.003228 0.034002 -0.013334
# 6 -0.027859 -0.017545 0.006924 -0.005756 -0.013334 0.109425
#
#
# Mechanical properties :
#
#
# Convention : Reuss Voigt Hill
#
# Bulk Modulus (GPa) = 24.05273 55.95310 40.00292
# Shear Modulus (GPa) = 18.86850 33.07719 25.97284
#
# Velocity S-wave (km/s) = 2.98836 3.95666 3.50610
# Velocity P-wave (km/s) = 4.82608 6.88155 5.94335
#
# Compressibility (1/GPa) = 0.04157532
#
# Stress axis : x y z
#
# Youngs Moduli (GPa) = 40.99804 38.64998 99.11156
#
# Poissons Ratio (x) = -0.07234 0.34380
# Poissons Ratio (y) = -0.07674 0.77232
# Poissons Ratio (z) = 0.14222 0.30118
#
# Static dielectric constant tensor:
#      x y z
#    x 1.803020 0.055470 -0.006310 
#    y 0.055470 1.827650 0.043590 
#    z -0.006310 0.043590 2.046580 
# 
# From -- ./inp_files/417526.got.cif
#   From: 2010.05.17/outbox.cif.g08.bks.cpg/sg2_209_cif.got.tgz:417526.got - 2010.06.03 11:33:40.
