data_PCOD9003212
_publ_section_title
;
Structure prediction by ZEFSAII (Michael W. Deem and Ramdas Pophale) SiO2 
 PCOD9003212
Probable space group: P -1
;
_chemical_formula_sum "Si O2"
_cell_formula_units_Z 14
_cell_length_a 5.383012
_cell_length_b 12.511100
_cell_length_c 8.753114
_cell_angle_alpha 78.336787
_cell_angle_beta 91.792836
_cell_angle_gamma 80.914791
_cell_volume 568.866188
_symmetry_space_group_name_H-M "P -1"
_symmetry_group_IT_number 2
_symmetry_cell_setting 'triclinic'
loop_
_space_group_symop_operation_xyz
x,y,z
-x,-y,-z
loop_
_atom_site_type_symbol
_atom_site_label
_atom_site_fract_x
_atom_site_fract_y
_atom_site_fract_z
Si Si1 0.788073 0.880518 0.642700
Si Si2 0.086937 0.756139 0.212297
Si Si3 0.006686 0.515695 0.183546
Si Si4 0.195487 0.802699 0.866701
Si Si5 0.241251 0.021495 0.898027
Si Si6 0.297403 0.861177 0.456885
Si Si7 0.460948 0.573011 0.820608
O O1 0.560267 0.843013 0.557940
O O2 0.898583 0.813101 0.815082
O O3 0.043616 0.861711 0.551122
O O4 0.724016 0.011783 0.640367
O O5 0.008307 0.638977 0.207462
O O6 0.269854 0.773486 0.349628
O O7 0.845239 0.854494 0.198216
O O8 0.227803 0.780504 0.052657
O O9 0.274513 0.445334 0.252986
O O10 0.765283 0.471505 0.254878
O O11 0.000000 0.500000 0.000000
O O12 0.359104 0.699127 0.821156
O O13 0.266045 0.923393 0.802942
O O14 0.500000 0.000000 0.000000
O O15 0.000000 0.000000 0.000000
O O16 0.500000 0.500000 0.000000
#
# Coordination Sequence:
#
# PCOD9003212 Si02
#       7
#     2   2   2   2   2   2   2
#     4  10  23  43  62  90 132 173 205 251 326 395
#     4  11  22  41  68  97 129 162 221 268 316 378
#     4  10  21  37  58  91 124 165 204 262 315 371
#     4  11  22  41  68  97 129 162 221 268 316 378
#     4  10  24  34  54  96 130 150 191 270 323 352
#     4  10  23  43  62  90 132 173 205 251 326 395
#     4  10  21  37  58  91 124 165 204 262 315 371
#
# _framework density 24.610358000000002
#
# number of rings (size 3 to 8) (size 9 to 14) (size 15 to 20)
#    0.000    1.714    4.286    0.000    4.000    6.857 
#    0.000    0.000    0.000    5.143    0.000    0.000 
#    0.000    0.000    0.000    0.000    0.000    0.000 
#
# Total GULP energy -78302.826024 kJ/mol
# GULP energy per Si atom -5593.059002 kJ/mol
# Density = 2.455434 g / cm^3
# Si number density = 24.610358 Si / 1000 Ang^3
#
#
#
# Elastic Constant Matrix: (Units=GPa)
#
#
# Indices 1 2 3 4 5 6 
#
# 1 144.9192 52.3089 49.8510 17.4100 52.1374 7.7610
# 2 52.3089 215.3608 46.4634 38.9143 32.4238 -20.7337
# 3 49.8510 46.4634 99.8487 37.3631 28.4465 6.7610
# 4 17.4100 38.9143 37.3631 40.3566 7.9164 13.3607
# 5 52.1374 32.4238 28.4465 7.9164 45.3189 -4.8036
# 6 7.7610 -20.7337 6.7610 13.3607 -4.8036 27.9533
#
#
#
# Elastic Compliance Matrix: (Units=1/GPa)
#
#
# Indices 1 2 3 4 5 6 
#
# 1 0.013856 -0.002483 -0.003007 0.005286 -0.014254 -0.009937
# 2 -0.002483 0.008468 0.001153 -0.012184 -0.000480 0.012433
# 3 -0.003007 0.001153 0.018920 -0.017756 -0.005649 0.004630
# 4 0.005286 -0.012184 -0.017756 0.062985 -0.001090 -0.036502
# 5 -0.014254 -0.000480 -0.005649 -0.001090 0.043926 0.013037
# 6 -0.009937 0.012433 0.004630 -0.036502 0.013037 0.066322
#
#
# Mechanical properties :
#
#
# Convention : Reuss Voigt Hill
#
# Bulk Modulus (GPa) = 30.70169 84.15282 57.42726
# Shear Modulus (GPa) = 21.36682 43.49279 32.42981
#
# Velocity S-wave (km/s) = 2.94973 4.20843 3.63399
# Velocity P-wave (km/s) = 4.90952 7.60808 6.40259
#
# Compressibility (1/GPa) = 0.03257150
#
# Stress axis : x y z
#
# Youngs Moduli (GPa) = 72.17054 118.08491 52.85419
#
# Poissons Ratio (x) = 0.29316 0.15893
# Poissons Ratio (y) = 0.17917 -0.06094
# Poissons Ratio (z) = 0.21701 -0.13616
#
# Static dielectric constant tensor:
#      x y z
#    x 2.028260 0.034940 -0.026890 
#    y 0.034940 2.013870 0.000490 
#    z -0.026890 0.000490 2.076980 
# 
# From -- ./inp_files/364641.got.cif
#   From: 2010.05.17/outbox.cif.g08.bks.cpg/sg2_183_cif.got.tgz:364641.got - 2010.06.03 11:33:40.
