data_PCOD9003245
_publ_section_title
;
Structure prediction by ZEFSAII (Michael W. Deem and Ramdas Pophale) SiO2 
 PCOD9003245
Probable space group: P -1
;
_chemical_formula_sum "Si O2"
_cell_formula_units_Z 16
_cell_length_a 13.162645
_cell_length_b 22.983732
_cell_length_c 8.545401
_cell_angle_alpha 35.565458
_cell_angle_beta 114.627757
_cell_angle_gamma 143.013467
_cell_volume 674.825697
_symmetry_space_group_name_H-M "P -1"
_symmetry_group_IT_number 2
_symmetry_cell_setting 'triclinic'
loop_
_space_group_symop_operation_xyz
x,y,z
-x,-y,-z
loop_
_atom_site_type_symbol
_atom_site_label
_atom_site_fract_x
_atom_site_fract_y
_atom_site_fract_z
Si Si1 0.886431 0.421853 0.908290
Si Si2 0.602718 0.516220 0.270013
Si Si3 0.527214 0.802178 0.756234
Si Si4 0.411791 0.820680 0.347974
Si Si5 0.862834 0.188262 0.331194
Si Si6 0.148958 0.222914 0.467267
Si Si7 0.157104 0.140009 0.142126
Si Si8 0.762535 0.429691 0.499680
O O1 0.855663 0.429442 0.691455
O O2 0.151700 0.627874 0.660354
O O3 0.738197 0.391665 0.961315
O O4 0.804226 0.242973 0.268925
O O5 0.346108 0.350614 0.436105
O O6 0.625672 0.415425 0.515958
O O7 0.730416 0.648594 0.900577
O O8 0.725961 0.663615 0.173815
O O9 0.558517 0.869091 0.455303
O O10 0.643261 0.786517 0.882917
O O11 0.648747 0.972400 0.581957
O O12 0.396516 0.753645 0.319796
O O13 0.500000 0.000000 0.000000
O O14 0.996716 0.199733 0.470765
O O15 0.035104 0.363999 0.923798
O O16 0.995563 0.009649 0.777920
O O17 0.000000 0.000000 0.500000
#
# Coordination Sequence:
#
# PCOD9003245 Si02
#       8
#     2   2   2   2   2   2   2   2
#     4  11  22  38  57  86 125 157 193 241 308 358
#     4   9  17  31  54  81 113 147 196 251 287 336
#     4  11  22  36  59  92 119 152 193 252 305 351
#     4  11  23  38  59  88 119 155 204 245 289 357
#     4   9  18  35  59  83 112 157 196 243 291 363
#     4   8  16  29  51  86 109 142 198 249 290 338
#     4   9  19  32  56  87 115 151 202 246 293 357
#     4  10  21  37  59  84 116 159 199 240 295 358
#
# _framework density 23.709827000000001
#
# number of rings (size 3 to 8) (size 9 to 14) (size 15 to 20)
#    0.000    2.250    0.000    4.500    8.750    0.000 
#    0.000    0.625    0.000    3.000    0.000    0.000 
#    0.000    0.000    0.000    0.000    0.000    0.000 
#
# Total GULP energy -89452.872839 kJ/mol
# GULP energy per Si atom -5590.804552 kJ/mol
# Density = 2.365586 g / cm^3
# Si number density = 23.709827 Si / 1000 Ang^3
#
#
#
# Elastic Constant Matrix: (Units=GPa)
#
#
# Indices 1 2 3 4 5 6 
#
# 1 125.3493 22.9178 24.9205 -22.8794 12.9055 7.5149
# 2 22.9178 82.3408 12.4392 -24.1159 10.3191 11.1391
# 3 24.9205 12.4392 57.8411 -18.7980 15.6060 -9.4651
# 4 -22.8794 -24.1159 -18.7980 26.2101 -11.4268 -2.8163
# 5 12.9055 10.3191 15.6060 -11.4268 27.9967 -4.0503
# 6 7.5149 11.1391 -9.4651 -2.8163 -4.0503 32.7430
#
#
#
# Elastic Compliance Matrix: (Units=1/GPa)
#
#
# Indices 1 2 3 4 5 6 
#
# 1 0.009834 -0.000144 -0.002374 0.006016 -0.001064 -0.002509
# 2 -0.000144 0.017328 0.000983 0.015547 -0.001157 -0.004383
# 3 -0.002374 0.000983 0.026328 0.015900 -0.006236 0.008417
# 4 0.006016 0.015547 0.015900 0.076167 0.014631 0.006288
# 5 -0.001064 -0.001157 -0.006236 0.014631 0.046937 0.005900
# 6 -0.002509 -0.004383 0.008417 0.006288 0.005900 0.036312
#
#
# Mechanical properties :
#
#
# Convention : Reuss Voigt Hill
#
# Bulk Modulus (GPa) = 19.83370 42.89848 31.36609
# Shear Modulus (GPa) = 21.47940 31.07353 26.27646
#
# Velocity S-wave (km/s) = 3.01313 3.62412 3.33265
# Velocity P-wave (km/s) = 4.52643 5.97032 5.29780
#
# Compressibility (1/GPa) = 0.05041924
#
# Stress axis : x y z
#
# Youngs Moduli (GPa) = 101.68797 57.71130 37.98289
#
# Poissons Ratio (x) = 0.00830 0.09018
# Poissons Ratio (y) = 0.01462 -0.03734
# Poissons Ratio (z) = 0.24144 -0.05674
#
# Static dielectric constant tensor:
#      x y z
#    x 1.910700 -0.043330 -0.053740 
#    y -0.043330 1.962830 0.099480 
#    z -0.053740 0.099480 1.987800 
# 
# From -- ./inp_files/218719.got.cif
#   From: 2010.05.17/outbox.cif.g08.bks.cpg/sg2_110_cif.got.tgz:218719.got - 2010.06.03 11:33:40.
