data_PCOD9003221
_publ_section_title
;
Structure prediction by ZEFSAII (Michael W. Deem and Ramdas Pophale) SiO2 
 PCOD9003221
Probable space group: P -1
;
_chemical_formula_sum "Si O2"
_cell_formula_units_Z 14
_cell_length_a 16.007231
_cell_length_b 10.218292
_cell_length_c 15.428366
_cell_angle_alpha 37.515223
_cell_angle_beta 27.664994
_cell_angle_gamma 37.550227
_cell_volume 676.155677
_symmetry_space_group_name_H-M "P -1"
_symmetry_group_IT_number 2
_symmetry_cell_setting 'triclinic'
loop_
_space_group_symop_operation_xyz
x,y,z
-x,-y,-z
loop_
_atom_site_type_symbol
_atom_site_label
_atom_site_fract_x
_atom_site_fract_y
_atom_site_fract_z
Si Si1 0.371132 0.048890 0.844438
Si Si2 0.778168 0.774602 0.818504
Si Si3 0.205722 0.687086 0.225829
Si Si4 0.650642 0.485294 0.446999
Si Si5 0.367293 0.730342 0.241410
Si Si6 0.803781 0.781817 0.598190
Si Si7 0.947835 0.685006 0.876554
O O1 0.321187 0.266248 0.713395
O O2 0.597245 0.969951 0.691090
O O3 0.242786 0.135577 0.003424
O O4 0.311077 0.826598 0.997624
O O5 0.866809 0.728639 0.667433
O O6 0.889838 0.609342 0.877637
O O7 0.766847 0.024921 0.730080
O O8 0.567193 0.761469 0.015969
O O9 0.287206 0.659311 0.263895
O O10 0.224731 0.442624 0.298693
O O11 0.979998 0.824180 0.365302
O O12 0.500000 0.500000 0.500000
O O13 0.599141 0.429614 0.620265
O O14 0.847712 0.288442 0.344895
O O15 0.000000 0.500000 0.000000
#
# Coordination Sequence:
#
# PCOD9003221 Si02
#       7
#     2   2   2   2   2   2   2
#     4  11  22  41  63  91 130 170 203 261 317 373
#     4  11  20  37  65  94 124 164 212 267 309 374
#     4  11  24  42  68  94 125 170 216 263 310 381
#     4  11  24  37  61  97 135 163 206 265 321 376
#     4  11  22  38  65  96 123 165 216 258 320 369
#     4  11  24  41  68  95 125 166 222 258 316 369
#     4  10  21  37  58  93 128 161 202 258 318 369
#
# _framework density 20.705290999999999
#
# number of rings (size 3 to 8) (size 9 to 14) (size 15 to 20)
#    0.000    1.143    2.857    4.714    4.000    1.143 
#    0.000    0.714    0.000    5.143    0.000    0.000 
#    0.000    0.000    0.000    0.000    0.000    0.000 
#
# Total GULP energy -78087.474963 kJ/mol
# GULP energy per Si atom -5577.676783 kJ/mol
# Density = 2.065817 g / cm^3
# Si number density = 20.705291 Si / 1000 Ang^3
#
#
#
# Elastic Constant Matrix: (Units=GPa)
#
#
# Indices 1 2 3 4 5 6 
#
# 1 92.2456 34.4996 -5.5239 -13.0091 2.6901 4.6591
# 2 34.4996 66.1967 20.9783 12.0648 -0.8029 -14.1385
# 3 -5.5239 20.9783 70.6178 -1.7230 -0.4708 -9.3672
# 4 -13.0091 12.0648 -1.7230 48.8591 -14.5054 -3.0801
# 5 2.6901 -0.8029 -0.4708 -14.5054 35.9927 0.8982
# 6 4.6591 -14.1385 -9.3672 -3.0801 0.8982 27.4279
#
#
#
# Elastic Compliance Matrix: (Units=1/GPa)
#
#
# Indices 1 2 3 4 5 6 
#
# 1 0.017902 -0.014021 0.004758 0.008512 0.002035 -0.007754
# 2 -0.014021 0.030142 -0.008525 -0.011621 -0.003419 0.013815
# 3 0.004758 -0.008525 0.017341 0.004492 0.001462 0.001176
# 4 0.008512 -0.011621 0.004492 0.028789 0.010841 -0.003024
# 5 0.002035 -0.003419 0.001462 0.010841 0.031979 -0.001439
# 6 -0.007754 0.013815 0.001176 -0.003024 -0.001439 0.045007
#
#
# Mechanical properties :
#
#
# Convention : Reuss Voigt Hill
#
# Bulk Modulus (GPa) = 33.54550 36.55201 35.04875
# Shear Modulus (GPa) = 23.07637 34.39633 28.73635
#
# Velocity S-wave (km/s) = 3.34206 4.08025 3.72946
# Velocity P-wave (km/s) = 5.57934 6.31583 5.95897
#
# Compressibility (1/GPa) = 0.02981026
#
# Stress axis : x y z
#
# Youngs Moduli (GPa) = 55.86002 33.17590 57.66766
#
# Poissons Ratio (x) = 0.46515 -0.27439
# Poissons Ratio (y) = 0.78319 0.49161
# Poissons Ratio (z) = -0.26579 0.28282
#
# Static dielectric constant tensor:
#      x y z
#    x 1.741400 -0.005030 -0.034880 
#    y -0.005030 1.824770 0.009560 
#    z -0.034880 0.009560 1.789460 
# 
# From -- ./inp_files/531603.got.cif
#   From: 2010.05.17/outbox.cif.g08.bks.cpg/sg2_266_cif.got.tgz:531603.got - 2010.06.03 11:33:40.
