data_PCOD9003527
_publ_section_title
;
Structure prediction by ZEFSAII (Michael W. Deem and Ramdas Pophale) SiO2 
 PCOD9003527
Probable space group: P -1
;
_chemical_formula_sum "Si O2"
_cell_formula_units_Z 16
_cell_length_a 12.219021
_cell_length_b 12.128877
_cell_length_c 7.570837
_cell_angle_alpha 72.628194
_cell_angle_beta 91.861289
_cell_angle_gamma 141.278246
_cell_volume 630.962063
_symmetry_space_group_name_H-M "P -1"
_symmetry_group_IT_number 2
_symmetry_cell_setting 'triclinic'
loop_
_space_group_symop_operation_xyz
x,y,z
-x,-y,-z
loop_
_atom_site_type_symbol
_atom_site_label
_atom_site_fract_x
_atom_site_fract_y
_atom_site_fract_z
Si Si1 0.653275 0.621976 0.296170
Si Si2 0.200033 0.660017 0.786028
Si Si3 0.168822 0.731086 0.409805
Si Si4 0.346294 0.122733 0.763073
Si Si5 0.390734 0.225764 0.313926
Si Si6 0.969100 0.675767 0.877680
Si Si7 0.520484 0.891479 0.921731
Si Si8 0.014958 0.183347 0.535261
O O1 0.500000 0.500000 0.500000
O O2 0.691481 0.788430 0.181285
O O3 0.544423 0.458869 0.216712
O O4 0.833751 0.724333 0.356170
O O5 0.287541 0.774128 0.552231
O O6 0.032140 0.608697 0.820453
O O7 0.343692 0.804325 0.879100
O O8 0.146718 0.479788 0.893443
O O9 0.000000 0.500000 0.500000
O O10 0.081608 0.780364 0.427638
O O11 0.304771 0.874774 0.189458
O O12 0.405808 0.186994 0.532300
O O13 0.151088 0.891214 0.858980
O O14 0.496524 0.184075 0.856662
O O15 0.440400 0.176216 0.189486
O O16 0.165167 0.056613 0.373628
O O17 0.900643 0.706155 0.706235
#
# Coordination Sequence:
#
# PCOD9003527 Si02
#       8
#     2   2   2   2   2   2   2   2
#     4  10  22  39  65  96 123 171 221 254 325 379
#     4  10  21  37  60  93 126 169 207 261 322 382
#     4  10  21  38  60  89 126 167 207 257 327 381
#     4  10  22  41  62  92 124 165 216 256 314 385
#     4   9  22  42  63  91 131 162 213 267 311 379
#     4   9  20  39  60  91 131 163 215 259 318 385
#     4  11  23  40  64  95 128 163 213 263 320 380
#     4   9  20  40  63  90 130 170 205 270 319 372
#
# _framework density 25.358101000000001
#
# number of rings (size 3 to 8) (size 9 to 14) (size 15 to 20)
#    0.000    2.250    0.000    1.875    5.250    5.500 
#    2.250    2.500    0.000    0.000    0.000    0.000 
#    0.000    0.000    0.000    0.000    0.000    0.000 
#
# Total GULP energy -89314.827182 kJ/mol
# GULP energy per Si atom -5582.176699 kJ/mol
# Density = 2.530039 g / cm^3
# Si number density = 25.358101 Si / 1000 Ang^3
#
#
#
# Elastic Constant Matrix: (Units=GPa)
#
#
# Indices 1 2 3 4 5 6 
#
# 1 63.8119 32.9600 17.4720 7.3442 17.2386 -8.9646
# 2 32.9600 138.7620 27.4087 2.6717 16.7577 -16.3900
# 3 17.4720 27.4087 62.7436 17.5790 20.3688 -3.5267
# 4 7.3442 2.6717 17.5790 32.8383 -2.2280 9.5615
# 5 17.2386 16.7577 20.3688 -2.2280 30.4387 6.1647
# 6 -8.9646 -16.3900 -3.5267 9.5615 6.1647 44.1378
#
#
#
# Elastic Compliance Matrix: (Units=1/GPa)
#
#
# Indices 1 2 3 4 5 6 
#
# 1 0.022981 -0.003024 0.003506 -0.010283 -0.016131 0.008306
# 2 -0.003024 0.008972 -0.002209 0.000148 -0.002311 0.002832
# 3 0.003506 -0.002209 0.030822 -0.021900 -0.025147 0.010611
# 4 -0.010283 0.000148 -0.021900 0.051879 0.028030 -0.018937
# 5 -0.016131 -0.002311 -0.025147 0.028030 0.066496 -0.021503
# 6 0.008306 0.002832 0.010611 -0.018937 -0.021503 0.033348
#
#
# Mechanical properties :
#
#
# Convention : Reuss Voigt Hill
#
# Bulk Modulus (GPa) = 16.85726 46.77767 31.81747
# Shear Modulus (GPa) = 21.03258 33.98141 27.50699
#
# Velocity S-wave (km/s) = 2.88309 3.66466 3.29712
# Velocity P-wave (km/s) = 4.21249 6.03267 5.20280
#
# Compressibility (1/GPa) = 0.05932163
#
# Stress axis : x y z
#
# Youngs Moduli (GPa) = 43.51372 111.45787 32.44411
#
# Poissons Ratio (x) = 0.33707 -0.11376
# Poissons Ratio (y) = 0.13159 0.07167
# Poissons Ratio (z) = -0.15257 0.24622
#
# Static dielectric constant tensor:
#      x y z
#    x 2.022110 -0.039720 -0.054160 
#    y -0.039720 2.085670 0.001060 
#    z -0.054160 0.001060 2.120770 
# 
# From -- ./inp_files/278269.got.cif
#   From: 2010.05.17/outbox.cif.g08.bks.cpg/sg2_140_cif.got.tgz:278269.got - 2010.06.03 11:33:40.
