data_PCOD9003812
_publ_section_title
;
Structure prediction by ZEFSAII (Michael W. Deem and Ramdas Pophale) SiO2 
 PCOD9003812
Probable space group: P -1
;
_chemical_formula_sum "Si O2"
_cell_formula_units_Z 16
_cell_length_a 12.333914
_cell_length_b 9.056209
_cell_length_c 7.749950
_cell_angle_alpha 75.855057
_cell_angle_beta 124.761190
_cell_angle_gamma 84.771093
_cell_volume 660.117021
_symmetry_space_group_name_H-M "P -1"
_symmetry_group_IT_number 2
_symmetry_cell_setting 'triclinic'
loop_
_space_group_symop_operation_xyz
x,y,z
-x,-y,-z
loop_
_atom_site_type_symbol
_atom_site_label
_atom_site_fract_x
_atom_site_fract_y
_atom_site_fract_z
Si Si1 0.906225 0.844440 0.664979
Si Si2 0.412395 0.867558 0.114797
Si Si3 0.390937 0.719342 0.778976
Si Si4 0.372956 0.046289 0.502291
Si Si5 0.686892 0.524063 0.016633
Si Si6 0.055128 0.863670 0.237841
Si Si7 0.805475 0.788321 0.215064
Si Si8 0.791788 0.316758 0.868561
O O1 0.858206 0.783939 0.461218
O O2 0.058895 0.747474 0.885302
O O3 0.784947 0.849652 0.693892
O O4 0.911154 0.028151 0.608539
O O5 0.559532 0.865728 0.321461
O O6 0.439188 0.784760 0.979428
O O7 0.317933 0.780186 0.160022
O O8 0.318010 0.048722 0.963497
O O9 0.355809 0.876156 0.587320
O O10 0.285880 0.630380 0.788419
O O11 0.521214 0.595569 0.844881
O O12 0.500000 0.000000 0.500000
O O13 0.753662 0.646228 0.133897
O O14 0.730874 0.480506 0.870979
O O15 0.933153 0.801179 0.212537
O O16 0.169468 0.720965 0.286354
O O17 0.000000 0.000000 0.000000
#
# Coordination Sequence:
#
# PCOD9003812 Si02
#       8
#     2   2   2   2   2   2   2   2
#     4  11  23  38  64 100 125 156 221 283 308 358
#     4  11  20  40  66  95 121 172 226 257 311 377
#     4  10  21  41  64  92 128 175 215 256 318 389
#     4  12  24  36  66 102 124 156 218 282 314 363
#     4  10  23  39  64  93 135 177 212 248 324 403
#     4  10  21  37  62  91 126 166 211 265 315 366
#     4  12  21  37  68  96 124 167 218 265 310 381
#     4  10  23  42  63  92 133 175 206 261 329 381
#
# _framework density 24.238126999999999
#
# number of rings (size 3 to 8) (size 9 to 14) (size 15 to 20)
#    0.000    1.250    5.000    2.250    1.750    1.000 
#    0.000    0.000    0.000   23.250    0.000    0.000 
#    0.000    0.000    0.000    0.000    0.000    0.000 
#
# Total GULP energy -89350.528102 kJ/mol
# GULP energy per Si atom -5584.408006 kJ/mol
# Density = 2.418296 g / cm^3
# Si number density = 24.238127 Si / 1000 Ang^3
#
#
#
# Elastic Constant Matrix: (Units=GPa)
#
#
# Indices 1 2 3 4 5 6 
#
# 1 119.6382 16.8567 0.6024 2.9729 12.1251 -19.4131
# 2 16.8567 115.7217 8.8567 40.9900 -0.4966 -4.9167
# 3 0.6024 8.8567 39.1763 20.5408 8.7500 0.5769
# 4 2.9729 40.9900 20.5408 38.6474 -4.7094 0.1793
# 5 12.1251 -0.4966 8.7500 -4.7094 37.5600 10.9023
# 6 -19.4131 -4.9167 0.5769 0.1793 10.9023 52.3174
#
#
#
# Elastic Compliance Matrix: (Units=1/GPa)
#
#
# Indices 1 2 3 4 5 6 
#
# 1 0.009775 -0.000868 0.001907 -0.001491 -0.005133 0.004599
# 2 -0.000868 0.016172 0.009401 -0.022726 -0.005200 0.002256
# 3 0.001907 0.009401 0.046597 -0.037025 -0.017390 0.004828
# 4 -0.001491 -0.022726 -0.037025 0.072214 0.019792 -0.006653
# 5 -0.005133 -0.005200 -0.017390 0.019792 0.037683 -0.010122
# 6 0.004599 0.002256 0.004828 -0.006653 -0.010122 0.023112
#
#
# Mechanical properties :
#
#
# Convention : Reuss Voigt Hill
#
# Bulk Modulus (GPa) = 10.70401 36.35197 23.52799
# Shear Modulus (GPa) = 23.16807 42.25297 32.71052
#
# Velocity S-wave (km/s) = 3.09504 4.17975 3.67761
# Velocity P-wave (km/s) = 4.14706 6.19065 5.26888
#
# Compressibility (1/GPa) = 0.09342296
#
# Stress axis : x y z
#
# Youngs Moduli (GPa) = 102.30330 61.83644 21.46069
#
# Poissons Ratio (x) = 0.05368 -0.04092
# Poissons Ratio (y) = 0.08881 -0.20176
# Poissons Ratio (z) = -0.19506 -0.58134
#
# Static dielectric constant tensor:
#      x y z
#    x 1.966920 -0.049820 -0.003960 
#    y -0.049820 1.961630 -0.026000 
#    z -0.003960 -0.026000 2.165670 
# 
# From -- ./inp_files/239289.got.cif
#   From: 2010.05.17/outbox.cif.g08.bks.cpg/sg2_120_cif.got.tgz:239289.got - 2010.06.03 11:33:40.
