data_PCOD9003826
_publ_section_title
;
Structure prediction by ZEFSAII (Michael W. Deem and Ramdas Pophale) SiO2 
 PCOD9003826
Probable space group: P -1
;
_chemical_formula_sum "Si O2"
_cell_formula_units_Z 15
_cell_length_a 8.565102
_cell_length_b 15.089294
_cell_length_c 18.577036
_cell_angle_alpha 158.832904
_cell_angle_beta 125.993405
_cell_angle_gamma 63.555550
_cell_volume 656.655001
_symmetry_space_group_name_H-M "P -1"
_symmetry_group_IT_number 2
_symmetry_cell_setting 'triclinic'
loop_
_space_group_symop_operation_xyz
x,y,z
-x,-y,-z
loop_
_atom_site_type_symbol
_atom_site_label
_atom_site_fract_x
_atom_site_fract_y
_atom_site_fract_z
Si Si1 0.500000 0.000000 0.500000
Si Si2 0.803823 0.797675 0.834668
Si Si3 0.066848 0.005024 0.837346
Si Si4 0.172145 0.866211 0.444126
Si Si5 0.512058 0.131130 0.002976
Si Si6 0.457069 0.912638 0.182520
Si Si7 0.831446 0.302891 0.931551
Si Si8 0.278075 0.385629 0.471638
O O1 0.668442 0.054412 0.519019
O O2 0.672758 0.232642 0.770101
O O3 0.728985 0.571169 0.583306
O O4 0.872708 0.767916 0.911672
O O5 0.639268 0.940998 0.906880
O O6 0.000000 0.000000 0.000000
O O7 0.945722 0.743448 0.650266
O O8 0.915315 0.062644 0.783366
O O9 0.271320 0.001576 0.854013
O O10 0.319233 0.962652 0.626685
O O11 0.000000 0.000000 0.500000
O O12 0.033023 0.558971 0.172775
O O13 0.597159 0.370817 0.262274
O O14 0.543872 0.215181 0.992032
O O15 0.301948 0.709392 0.041533
O O16 0.375647 0.155572 0.332039
#
# Coordination Sequence:
#
# PCOD9003826 Si02
#       8
#     1   2   2   2   2   2   2   2
#     4  10  24  44  70  96 124 164 216 264 330 400
#     4   9  20  39  59  87 133 164 212 264 304 376
#     4  10  21  37  62  92 123 164 216 259 312 381
#     4  11  24  44  67  96 128 168 212 269 336 396
#     4  11  21  37  64  93 125 172 213 258 312 378
#     4   9  22  41  59  96 132 162 216 265 313 389
#     4  10  22  45  65  92 129 167 208 270 329 382
#     4   9  20  40  61  87 128 173 207 261 318 364
#
# _framework density 22.843046999999999
#
# number of rings (size 3 to 8) (size 9 to 14) (size 15 to 20)
#    0.000    2.133    0.000    2.400    1.867    5.867 
#   14.400    8.000    0.000    0.000    0.000    0.000 
#    0.000    0.000    0.000    0.000    0.000    0.000 
#
# Total GULP energy -83586.397780 kJ/mol
# GULP energy per Si atom -5572.426519 kJ/mol
# Density = 2.279105 g / cm^3
# Si number density = 22.843047 Si / 1000 Ang^3
#
#
#
# Elastic Constant Matrix: (Units=GPa)
#
#
# Indices 1 2 3 4 5 6 
#
# 1 109.8983 10.9600 30.1757 -5.2449 15.6968 6.3030
# 2 10.9600 26.6320 13.7491 -13.3017 -1.3230 5.7539
# 3 30.1757 13.7491 79.2631 -9.0068 10.3262 6.2942
# 4 -5.2449 -13.3017 -9.0068 28.9981 0.2222 -2.8665
# 5 15.6968 -1.3230 10.3262 0.2222 43.8958 -13.1211
# 6 6.3030 5.7539 6.2942 -2.8665 -13.1211 26.8116
#
#
#
# Elastic Compliance Matrix: (Units=1/GPa)
#
#
# Indices 1 2 3 4 5 6 
#
# 1 0.010971 -0.002709 -0.002915 -0.000476 -0.004363 -0.003500
# 2 -0.002709 0.053940 -0.005581 0.021876 0.001894 -0.006363
# 3 -0.002915 -0.005581 0.015643 0.001452 -0.003867 -0.003527
# 4 -0.000476 0.021876 0.001452 0.044883 0.000261 0.000003
# 5 -0.004363 0.001894 -0.003867 0.000261 0.030188 0.016328
# 6 -0.003500 -0.006363 -0.003527 0.000003 0.016328 0.048304
#
#
# Mechanical properties :
#
#
# Convention : Reuss Voigt Hill
#
# Bulk Modulus (GPa) = 17.19838 36.17368 26.68603
# Shear Modulus (GPa) = 20.34850 30.66834 25.50842
#
# Velocity S-wave (km/s) = 2.98786 3.66808 3.34530
# Velocity P-wave (km/s) = 4.41003 5.81463 5.16034
#
# Compressibility (1/GPa) = 0.05814500
#
# Stress axis : x y z
#
# Youngs Moduli (GPa) = 91.15050 18.53921 63.92699
#
# Poissons Ratio (x) = 0.05021 0.18632
# Poissons Ratio (y) = 0.24688 0.35678
# Poissons Ratio (z) = 0.26567 0.10347
#
# Static dielectric constant tensor:
#      x y z
#    x 1.841590 0.008510 0.017490 
#    y 0.008510 1.910420 0.008720 
#    z 0.017490 0.008720 1.902740 
# 
# From -- ./inp_files/590815.got.cif
#   From: 2010.05.17/outbox.cif.g08.bks.cpg/sg2_296_cif.got.tgz:590815.got - 2010.06.03 11:33:40.
