data_PCOD9003597
_publ_section_title
;
Structure prediction by ZEFSAII (Michael W. Deem and Ramdas Pophale) SiO2 
 PCOD9003597
Probable space group: P -1
;
_chemical_formula_sum "Si O2"
_cell_formula_units_Z 16
_cell_length_a 12.211397
_cell_length_b 15.232189
_cell_length_c 21.880260
_cell_angle_alpha 149.219454
_cell_angle_beta 151.230700
_cell_angle_gamma 28.441405
_cell_volume 860.769300
_symmetry_space_group_name_H-M "P -1"
_symmetry_group_IT_number 2
_symmetry_cell_setting 'triclinic'
loop_
_space_group_symop_operation_xyz
x,y,z
-x,-y,-z
loop_
_atom_site_type_symbol
_atom_site_label
_atom_site_fract_x
_atom_site_fract_y
_atom_site_fract_z
Si Si1 0.299325 0.043718 0.111481
Si Si2 0.861742 0.491263 0.197929
Si Si3 0.730960 0.848917 0.978091
Si Si4 0.508011 0.375916 0.020729
Si Si5 0.270942 0.617501 0.509826
Si Si6 0.659046 0.467419 0.715697
Si Si7 0.121395 0.034238 0.641156
Si Si8 0.798816 0.440301 0.897376
O O1 0.284698 0.055651 0.037783
O O2 0.082387 0.259858 0.157893
O O3 0.280564 0.858782 0.015957
O O4 0.591523 0.993531 0.244268
O O5 0.707094 0.572074 0.106662
O O6 0.020612 0.597692 0.358914
O O7 0.650298 0.499521 0.147909
O O8 0.708644 0.651497 0.837855
O O9 0.005792 0.771625 0.102259
O O10 0.500000 0.000000 0.000000
O O11 0.369958 0.424133 0.047942
O O12 0.500000 0.500000 0.500000
O O13 0.412948 0.513766 0.580437
O O14 0.178621 0.850775 0.603704
O O15 0.621380 0.454590 0.761893
O O16 0.914985 0.255455 0.696298
O O17 0.000000 0.000000 0.500000
O O18 0.000000 0.500000 0.000000
#
# Coordination Sequence:
#
# PCOD9003597 Si02
#       8
#     2   2   2   2   2   2   2   2
#     4  12  20  35  61  90 123 157 209 252 310 366
#     4  11  24  42  62  89 127 168 208 255 309 372
#     4  11  20  35  59  93 127 160 197 260 315 365
#     4  11  24  42  62  90 128 164 205 261 312 369
#     4  12  22  39  61  90 126 162 210 254 308 368
#     4  11  22  38  56  95 125 160 206 259 315 361
#     4  12  22  33  61  91 128 163 200 261 309 363
#     4  10  21  37  61  87 123 156 203 254 314 359
#
# _framework density 18.588024000000001
#
# number of rings (size 3 to 8) (size 9 to 14) (size 15 to 20)
#    0.000    0.750    5.000    4.875    1.750    0.000 
#    0.000    0.625    0.000    0.750    0.000    0.000 
#    0.000    0.000    0.000    0.000    0.000    0.000 
#
# Total GULP energy -89359.654750 kJ/mol
# GULP energy per Si atom -5584.978422 kJ/mol
# Density = 1.854572 g / cm^3
# Si number density = 18.588024 Si / 1000 Ang^3
#
#
#
# Elastic Constant Matrix: (Units=GPa)
#
#
# Indices 1 2 3 4 5 6 
#
# 1 80.2646 21.6105 42.3257 -7.7342 -5.4245 1.2365
# 2 21.6105 114.3925 22.8160 6.6774 -6.2621 4.7302
# 3 42.3257 22.8160 77.0859 -11.6128 -0.0798 12.2214
# 4 -7.7342 6.6774 -11.6128 42.6860 6.4732 -11.6676
# 5 -5.4245 -6.2621 -0.0798 6.4732 28.2085 -1.4843
# 6 1.2365 4.7302 12.2214 -11.6676 -1.4843 24.4357
#
#
#
# Elastic Compliance Matrix: (Units=1/GPa)
#
#
# Indices 1 2 3 4 5 6 
#
# 1 0.018673 -0.001635 -0.010376 0.001897 0.003061 0.005653
# 2 -0.001635 0.009923 -0.002203 -0.003444 0.002555 -0.002226
# 3 -0.010376 -0.002203 0.021044 0.002340 -0.003418 -0.008664
# 4 0.001897 -0.003444 0.002340 0.029507 -0.006475 0.013096
# 5 0.003061 0.002555 -0.003418 -0.006475 0.038097 0.000282
# 6 0.005653 -0.002226 -0.008664 0.013096 0.000282 0.051672
#
#
# Mechanical properties :
#
#
# Convention : Reuss Voigt Hill
#
# Bulk Modulus (GPa) = 47.14122 49.47194 48.30658
# Shear Modulus (GPa) = 24.45991 31.39876 27.92933
#
# Velocity S-wave (km/s) = 3.63146 4.11444 3.88047
# Velocity P-wave (km/s) = 6.55740 7.01742 6.79131
#
# Compressibility (1/GPa) = 0.02121286
#
# Stress axis : x y z
#
# Youngs Moduli (GPa) = 53.55246 100.77668 47.51871
#
# Poissons Ratio (x) = 0.16477 0.49307
# Poissons Ratio (y) = 0.08756 0.10466
# Poissons Ratio (z) = 0.55568 0.22196
#
# Static dielectric constant tensor:
#      x y z
#    x 1.655170 0.010920 -0.006720 
#    y 0.010920 1.678570 0.000530 
#    z -0.006720 0.000530 1.672280 
# 
# From -- ./inp_files/428808.got.cif
#   From: 2010.05.17/outbox.cif.g08.bks.cpg/sg2_215_cif.got.tgz:428808.got - 2010.06.03 11:33:40.
