data_PCOD9003393
_publ_section_title
;
Structure prediction by ZEFSAII (Michael W. Deem and Ramdas Pophale) SiO2 
 PCOD9003393
Probable space group: P -1
;
_chemical_formula_sum "Si O2"
_cell_formula_units_Z 16
_cell_length_a 5.704581
_cell_length_b 26.558261
_cell_length_c 12.473321
_cell_angle_alpha 28.578675
_cell_angle_beta 50.743761
_cell_angle_gamma 58.988571
_cell_volume 695.790018
_symmetry_space_group_name_H-M "P -1"
_symmetry_group_IT_number 2
_symmetry_cell_setting 'triclinic'
loop_
_space_group_symop_operation_xyz
x,y,z
-x,-y,-z
loop_
_atom_site_type_symbol
_atom_site_label
_atom_site_fract_x
_atom_site_fract_y
_atom_site_fract_z
Si Si1 0.393702 0.461979 0.221020
Si Si2 0.762248 0.653226 0.826006
Si Si3 0.211625 0.241537 0.603328
Si Si4 0.313056 0.959652 0.523771
Si Si5 0.844826 0.537110 0.365672
Si Si6 0.855332 0.246335 0.121229
Si Si7 0.840998 0.171995 0.489022
Si Si8 0.104604 0.979955 0.886180
O O1 0.331007 0.334801 0.476964
O O2 0.076710 0.504207 0.268510
O O3 0.500000 0.500000 0.000000
O O4 0.662914 0.526844 0.092710
O O5 0.871106 0.695220 0.598126
O O6 0.444101 0.699299 0.859896
O O7 0.997308 0.716339 0.719617
O O8 0.491751 0.179504 0.601398
O O9 0.967671 0.144528 0.888013
O O10 0.233379 0.833393 0.798908
O O11 0.500000 0.000000 0.500000
O O12 0.547018 0.984452 0.310765
O O13 0.000000 0.000000 0.500000
O O14 0.500000 0.500000 0.500000
O O15 0.000000 0.500000 0.500000
O O16 0.874224 0.662712 0.139736
O O17 0.925586 0.176940 0.332004
O O18 0.935182 0.064805 0.710566
O O19 0.000000 0.000000 0.000000
#
# Coordination Sequence:
#
# PCOD9003393 Si02
#       8
#     2   2   2   2   2   2   2   2
#     4   9  21  44  67 103 142 182 241 291 367 424
#     4   9  18  38  64  97 134 181 236 281 350 437
#     4  10  21  37  60 104 143 174 227 315 358 401
#     4  12  28  47  70 106 145 193 240 296 363 431
#     4  11  27  48  75 108 145 190 241 298 366 434
#     4  10  23  44  70  95 140 194 242 280 353 453
#     4  11  20  38  71 102 137 192 241 285 361 434
#     4  12  23  43  70 102 141 184 250 293 359 425
#
# _framework density 22.995443999999999
#
# number of rings (size 3 to 8) (size 9 to 14) (size 15 to 20)
#    0.000    1.500    2.500    2.625    3.500    3.500 
#    4.500    0.000    0.000    0.000    0.000    0.000 
#    0.000    0.000    0.000    0.000    0.000    0.000 
#
# Total GULP energy -89295.772639 kJ/mol
# GULP energy per Si atom -5580.985790 kJ/mol
# Density = 2.294311 g / cm^3
# Si number density = 22.995444 Si / 1000 Ang^3
#
#
#
# Elastic Constant Matrix: (Units=GPa)
#
#
# Indices 1 2 3 4 5 6 
#
# 1 108.0307 38.4345 57.9574 -1.3386 -18.1621 13.1877
# 2 38.4345 93.9654 46.3124 -15.0733 -12.0740 12.7641
# 3 57.9574 46.3124 129.8147 -34.1726 -32.1758 13.1067
# 4 -1.3386 -15.0733 -34.1726 49.4275 9.4139 -17.6128
# 5 -18.1621 -12.0740 -32.1758 9.4139 43.8120 -7.7393
# 6 13.1877 12.7641 13.1067 -17.6128 -7.7393 40.2220
#
#
#
# Elastic Compliance Matrix: (Units=1/GPa)
#
#
# Indices 1 2 3 4 5 6 
#
# 1 0.014430 -0.003091 -0.006400 -0.006759 0.001103 -0.004412
# 2 -0.003091 0.013862 -0.003097 0.001422 -0.000363 -0.001824
# 3 -0.006400 -0.003097 0.015411 0.009561 0.006370 0.003472
# 4 -0.006759 0.001422 0.009561 0.031525 0.000039 0.012461
# 5 0.001103 -0.000363 0.006370 0.000039 0.028410 0.003161
# 6 -0.004412 -0.001824 0.003472 0.012461 0.003161 0.031821
#
#
# Mechanical properties :
#
#
# Convention : Reuss Voigt Hill
#
# Bulk Modulus (GPa) = 53.97711 68.57995 61.27853
# Shear Modulus (GPa) = 29.97391 39.29942 34.63666
#
# Velocity S-wave (km/s) = 3.61428 4.13850 3.88524
# Velocity P-wave (km/s) = 6.39854 7.26115 6.84345
#
# Compressibility (1/GPa) = 0.01852637
#
# Stress axis : x y z
#
# Youngs Moduli (GPa) = 69.29851 72.13926 64.88992
#
# Poissons Ratio (x) = 0.22299 0.41531
# Poissons Ratio (y) = 0.21421 0.20096
# Poissons Ratio (z) = 0.44353 0.22341
#
# Static dielectric constant tensor:
#      x y z
#    x 1.925190 0.049710 -0.036570 
#    y 0.049710 1.927550 -0.042840 
#    z -0.036570 -0.042840 1.903210 
# 
# From -- ./inp_files/371394.got.cif
#   From: 2010.05.17/outbox.cif.g08.bks.cpg/sg2_186_cif.got.tgz:371394.got - 2010.06.03 11:33:40.
