data_PCOD9003130
_publ_section_title
;
Structure prediction by ZEFSAII (Michael W. Deem and Ramdas Pophale) SiO2 
 PCOD9003130
Probable space group: P -1
;
_chemical_formula_sum "Si O2"
_cell_formula_units_Z 12
_cell_length_a 14.925665
_cell_length_b 7.943901
_cell_length_c 5.135973
_cell_angle_alpha 115.057953
_cell_angle_beta 122.517920
_cell_angle_gamma 62.379482
_cell_volume 442.416113
_symmetry_space_group_name_H-M "P -1"
_symmetry_group_IT_number 2
_symmetry_cell_setting 'triclinic'
loop_
_space_group_symop_operation_xyz
x,y,z
-x,-y,-z
loop_
_atom_site_type_symbol
_atom_site_label
_atom_site_fract_x
_atom_site_fract_y
_atom_site_fract_z
Si Si1 0.390391 0.196027 0.180285
Si Si2 0.168596 0.492853 0.210742
Si Si3 0.126738 0.147684 0.218307
Si Si4 0.920498 0.247085 0.268261
Si Si5 0.425868 0.494081 0.126078
Si Si6 0.645514 0.089961 0.701412
O O1 0.301182 0.375935 0.311783
O O2 0.391577 0.299402 0.972765
O O3 0.520495 0.130077 0.425418
O O4 0.352331 0.011262 0.080788
O O5 0.115923 0.327355 0.123982
O O6 0.131548 0.656146 0.481838
O O7 0.131108 0.603190 0.952303
O O8 0.052328 0.214922 0.401394
O O9 0.258050 0.053014 0.412062
O O10 0.092225 0.968302 0.924038
O O11 0.500000 0.500000 0.500000
O O12 0.332464 0.702659 0.114355
O O13 0.500000 0.500000 0.000000
#
# Coordination Sequence:
#
# PCOD9003130 Si02
#       6
#     2   2   2   2   2   2
#     4   9  20  39  64  93 128 169 213 264 326 389
#     4  11  24  44  69  96 133 175 220 274 329 390
#     4  10  23  42  68  98 133 175 221 274 330 390
#     4  11  25  44  68  98 132 174 225 273 327 391
#     4  10  21  37  58  84 119 160 202 250 307 373
#     4   9  19  39  62  93 129 167 213 266 324 388
#
# _framework density 27.123785999999999
#
# number of rings (size 3 to 8) (size 9 to 14) (size 15 to 20)
#    0.000    2.000    0.000    2.000    0.000   10.000 
#    0.000   18.333    0.000    0.000    0.000    0.000 
#    0.000    0.000    0.000    0.000    0.000    0.000 
#
# Total GULP energy -67176.608524 kJ/mol
# GULP energy per Si atom -5598.050710 kJ/mol
# Density = 2.706205 g / cm^3
# Si number density = 27.123786 Si / 1000 Ang^3
#
#
#
# Elastic Constant Matrix: (Units=GPa)
#
#
# Indices 1 2 3 4 5 6 
#
# 1 156.8393 50.7390 30.7167 -3.5192 -8.2949 -6.5847
# 2 50.7390 167.6441 25.3847 -3.7531 -0.5026 17.7600
# 3 30.7167 25.3847 85.6897 -3.1629 -18.1096 -7.2608
# 4 -3.5192 -3.7531 -3.1629 32.2321 7.9008 -8.5974
# 5 -8.2949 -0.5026 -18.1096 7.9008 34.2044 6.4523
# 6 -6.5847 17.7600 -7.2608 -8.5974 6.4523 78.4234
#
#
#
# Elastic Compliance Matrix: (Units=1/GPa)
#
#
# Indices 1 2 3 4 5 6 
#
# 1 0.007489 -0.002070 -0.001867 0.000522 0.000499 0.000941
# 2 -0.002070 0.007044 -0.001703 0.000185 -0.000999 -0.001824
# 3 -0.001867 -0.001703 0.014402 -0.000478 0.007083 0.000927
# 4 0.000522 0.000185 -0.000478 0.034435 -0.008920 0.004467
# 5 0.000499 -0.000999 0.007083 -0.008920 0.035717 -0.002993
# 6 0.000941 -0.001824 0.000927 0.004467 -0.002993 0.014065
#
#
# Mechanical properties :
#
#
# Convention : Reuss Voigt Hill
#
# Bulk Modulus (GPa) = 56.64611 69.31711 62.98161
# Shear Modulus (GPa) = 38.36793 49.19415 43.78104
#
# Velocity S-wave (km/s) = 3.76513 4.26336 4.02197
# Velocity P-wave (km/s) = 6.31120 7.06019 6.69618
#
# Compressibility (1/GPa) = 0.01765346
#
# Stress axis : x y z
#
# Youngs Moduli (GPa) = 133.52959 141.96465 69.43695
#
# Poissons Ratio (x) = 0.29393 0.12961
# Poissons Ratio (y) = 0.27647 0.11828
# Poissons Ratio (z) = 0.24925 0.24183
#
# Static dielectric constant tensor:
#      x y z
#    x 2.135570 -0.013460 0.103530 
#    y -0.013460 2.142150 0.070660 
#    z 0.103530 0.070660 2.349470 
# 
# From -- ./inp_files/87826.got.cif
#   From: 2010.05.17/outbox.cif.g08.bks.cpg/sg2_44_cif.got.tgz:87826.got - 2010.06.03 11:33:40.
