data_PCOD9003925
_publ_section_title
;
Structure prediction by ZEFSAII (Michael W. Deem and Ramdas Pophale) SiO2 
 PCOD9003925
Probable space group: P -1
;
_chemical_formula_sum "Si O2"
_cell_formula_units_Z 16
_cell_length_a 17.811406
_cell_length_b 16.821659
_cell_length_c 8.100993
_cell_angle_alpha 39.308487
_cell_angle_beta 35.341663
_cell_angle_gamma 33.084707
_cell_volume 734.424072
_symmetry_space_group_name_H-M "P -1"
_symmetry_group_IT_number 2
_symmetry_cell_setting 'triclinic'
loop_
_space_group_symop_operation_xyz
x,y,z
-x,-y,-z
loop_
_atom_site_type_symbol
_atom_site_label
_atom_site_fract_x
_atom_site_fract_y
_atom_site_fract_z
Si Si1 0.475202 0.651373 0.232269
Si Si2 0.929445 0.173519 0.800750
Si Si3 0.854909 0.848902 0.295414
Si Si4 0.144096 0.892661 0.293180
Si Si5 0.177478 0.384354 0.802858
Si Si6 0.357023 0.520852 0.117881
Si Si7 0.990283 0.399565 0.820105
Si Si8 0.687581 0.708147 0.958289
O O1 0.500000 0.500000 0.500000
O O2 0.295227 0.768878 0.320882
O O3 0.578225 0.588793 0.980284
O O4 0.534423 0.724260 0.136831
O O5 0.905080 0.184121 0.631617
O O6 0.765167 0.298460 0.981804
O O7 0.057446 0.195648 0.613919
O O8 0.000000 0.000000 0.000000
O O9 0.986132 0.738886 0.101827
O O10 0.730041 0.805515 0.612606
O O11 0.803438 0.013221 0.060628
O O12 0.000000 0.000000 0.500000
O O13 0.254394 0.475255 0.473639
O O14 0.135621 0.332285 0.794234
O O15 0.292302 0.265620 0.927823
O O16 0.000000 0.500000 0.000000
O O17 0.500000 0.500000 0.000000
O O18 0.000000 0.500000 0.500000
O O19 0.821713 0.525281 0.995764
#
# Coordination Sequence:
#
# PCOD9003925 Si02
#       8
#     2   2   2   2   2   2   2   2
#     4  12  27  45  68 102 144 181 234 292 353 416
#     4  10  22  41  66  99 130 180 228 277 349 416
#     4  10  21  41  68  92 136 175 228 284 342 417
#     4  11  27  45  67 100 138 190 234 282 352 422
#     4  10  21  37  63 102 138 174 233 277 348 416
#     4  12  22  40  69  98 135 180 230 295 339 405
#     4   9  17  34  62  97 128 173 220 275 334 404
#     4  10  21  38  63 101 132 174 228 283 347 406
#
# _framework density 21.785778000000001
#
# number of rings (size 3 to 8) (size 9 to 14) (size 15 to 20)
#    0.000    1.500    1.250    5.250    5.250    2.500 
#    0.000    0.000    0.000    2.250    0.000    0.000 
#    0.000    0.000    0.000    0.000    0.000    0.000 
#
# Total GULP energy -89273.799420 kJ/mol
# GULP energy per Si atom -5579.612464 kJ/mol
# Density = 2.173619 g / cm^3
# Si number density = 21.785778 Si / 1000 Ang^3
#
#
#
# Elastic Constant Matrix: (Units=GPa)
#
#
# Indices 1 2 3 4 5 6 
#
# 1 164.5021 29.3758 34.3564 8.3191 -12.6971 -18.0701
# 2 29.3758 87.0536 23.5253 4.9099 -4.1113 -20.6985
# 3 34.3564 23.5253 101.0189 -2.4262 -10.0236 -14.1450
# 4 8.3191 4.9099 -2.4262 27.3023 0.7955 0.2493
# 5 -12.6971 -4.1113 -10.0236 0.7955 32.0529 2.8630
# 6 -18.0701 -20.6985 -14.1450 0.2493 2.8630 35.1773
#
#
#
# Elastic Compliance Matrix: (Units=1/GPa)
#
#
# Indices 1 2 3 4 5 6 
#
# 1 0.007153 -0.001232 -0.001703 -0.002187 0.002008 0.002117
# 2 -0.001232 0.014232 -0.001964 -0.002427 0.000162 0.006956
# 3 -0.001703 -0.001964 0.011557 0.001806 0.002428 0.002407
# 4 -0.002187 -0.002427 0.001806 0.037948 -0.001378 -0.001982
# 5 0.002008 0.000162 0.002428 -0.001378 0.032858 -0.000561
# 6 0.002117 0.006956 0.002407 -0.001982 -0.000561 0.034635
#
#
# Mechanical properties :
#
#
# Convention : Reuss Voigt Hill
#
# Bulk Modulus (GPa) = 43.20586 58.56550 50.88568
# Shear Modulus (GPa) = 32.07301 36.59431 34.33366
#
# Velocity S-wave (km/s) = 3.84109 4.10290 3.97415
# Velocity P-wave (km/s) = 6.28865 7.02751 6.66832
#
# Compressibility (1/GPa) = 0.02314501
#
# Stress axis : x y z
#
# Youngs Moduli (GPa) = 139.80810 70.26463 86.52971
#
# Poissons Ratio (x) = 0.08657 0.14732
# Poissons Ratio (y) = 0.17225 0.16990
# Poissons Ratio (z) = 0.23803 0.13797
#
# Static dielectric constant tensor:
#      x y z
#    x 1.906700 0.022590 0.064980 
#    y 0.022590 1.735510 -0.000180 
#    z 0.064980 -0.000180 1.835510 
# 
# From -- ./inp_files/336664.got.cif
#   From: 2010.05.17/outbox.cif.g08.bks.cpg/sg2_169_cif.got.tgz:336664.got - 2010.06.03 11:33:40.
