data_PCOD9003144
_publ_section_title
;
Structure prediction by ZEFSAII (Michael W. Deem and Ramdas Pophale) SiO2 
 PCOD9003144
Probable space group: P -1
;
_chemical_formula_sum "Si O2"
_cell_formula_units_Z 15
_cell_length_a 19.531719
_cell_length_b 16.874005
_cell_length_c 16.933680
_cell_angle_alpha 22.365427
_cell_angle_beta 158.804463
_cell_angle_gamma 160.156471
_cell_volume 630.904024
_symmetry_space_group_name_H-M "P -1"
_symmetry_group_IT_number 2
_symmetry_cell_setting 'triclinic'
loop_
_space_group_symop_operation_xyz
x,y,z
-x,-y,-z
loop_
_atom_site_type_symbol
_atom_site_label
_atom_site_fract_x
_atom_site_fract_y
_atom_site_fract_z
Si Si1 0.890646 0.961611 0.104790
Si Si2 0.004661 0.414365 0.914749
Si Si3 0.193917 0.799904 0.638047
Si Si4 0.520502 0.321248 0.743513
Si Si5 0.933555 0.325756 0.686964
Si Si6 0.658975 0.094715 0.963346
Si Si7 0.533152 0.403922 0.206383
Si Si8 0.000000 0.000000 0.000000
O O1 0.682319 0.673740 0.163433
O O2 0.114335 0.967725 0.361598
O O3 0.883056 0.165837 0.958829
O O4 0.900169 0.061051 0.932876
O O5 0.032031 0.643603 0.684153
O O6 0.874329 0.328109 0.936205
O O7 0.264581 0.509005 0.124030
O O8 0.451588 0.959649 0.800938
O O9 0.128528 0.573723 0.715144
O O10 0.500000 0.500000 0.500000
O O11 0.584528 0.189997 0.868002
O O12 0.319634 0.115379 0.775962
O O13 0.699338 0.305981 0.465211
O O14 0.006781 0.270836 0.734359
O O15 0.500000 0.500000 0.000000
O O16 0.280339 0.189204 0.160301
#
# Coordination Sequence:
#
# PCOD9003144 Si02
#       8
#     2   2   2   2   2   2   2   1
#     4  10  21  43  60  83 125 157 191 261 301 347
#     4  10  21  37  60  86 117 154 202 243 294 363
#     4   9  21  41  58  83 124 156 194 253 299 352
#     4  10  21  37  58  85 123 153 192 248 292 347
#     4  10  23  44  61  93 127 155 211 258 299 373
#     4  10  21  37  59  88 116 156 197 240 296 357
#     4  11  24  44  63  90 127 159 204 260 304 367
#     4  12  24  40  68  90 118 168 202 250 322 364
#
# _framework density 23.775407000000001
#
# number of rings (size 3 to 8) (size 9 to 14) (size 15 to 20)
#    0.000    1.867    1.333    1.600    1.867    2.133 
#    7.200    0.000    0.000    0.000    0.000    0.000 
#    0.000    0.000    0.000    0.000    0.000    0.000 
#
# Total GULP energy -83545.364998 kJ/mol
# GULP energy per Si atom -5569.691000 kJ/mol
# Density = 2.372129 g / cm^3
# Si number density = 23.775407 Si / 1000 Ang^3
#
#
#
# Elastic Constant Matrix: (Units=GPa)
#
#
# Indices 1 2 3 4 5 6 
#
# 1 73.9974 13.1791 15.7231 -8.6618 -8.7557 14.0455
# 2 13.1791 89.1434 12.3770 5.8039 12.2325 2.6491
# 3 15.7231 12.3770 136.2565 -3.2945 -13.1727 5.8849
# 4 -8.6618 5.8039 -3.2945 29.3484 -1.5828 -9.6471
# 5 -8.7557 12.2325 -13.1727 -1.5828 44.3341 -5.0833
# 6 14.0455 2.6491 5.8849 -9.6471 -5.0833 50.3464
#
#
#
# Elastic Compliance Matrix: (Units=1/GPa)
#
#
# Indices 1 2 3 4 5 6 
#
# 1 0.015696 -0.002842 -0.000993 0.004299 0.003405 -0.002946
# 2 -0.002842 0.012772 -0.001347 -0.004096 -0.004745 -0.000986
# 3 -0.000993 -0.001347 0.007849 0.000947 0.002526 -0.000133
# 4 0.004299 -0.004096 0.000947 0.038723 0.004419 0.006772
# 5 0.003405 -0.004745 0.002526 0.004419 0.025727 0.002449
# 6 -0.002946 -0.000986 -0.000133 0.006772 0.002449 0.022296
#
#
# Mechanical properties :
#
#
# Convention : Reuss Voigt Hill
#
# Bulk Modulus (GPa) = 38.53163 42.43951 40.48557
# Shear Modulus (GPa) = 35.19165 42.01364 38.60265
#
# Velocity S-wave (km/s) = 3.85147 4.20826 4.03381
# Velocity P-wave (km/s) = 6.00168 6.44216 6.22582
#
# Compressibility (1/GPa) = 0.02595270
#
# Stress axis : x y z
#
# Youngs Moduli (GPa) = 63.70909 78.29480 127.40591
#
# Poissons Ratio (x) = 0.22254 0.12648
# Poissons Ratio (y) = 0.18108 0.17167
# Poissons Ratio (z) = 0.06325 0.10549
#
# Static dielectric constant tensor:
#      x y z
#    x 2.033840 0.006310 -0.048550 
#    y 0.006310 1.941910 -0.088640 
#    z -0.048550 -0.088640 2.091110 
# 
# From -- ./inp_files/576385.got.cif
#   From: 2010.05.17/outbox.cif.g08.bks.cpg/sg2_289_cif.got.tgz:576385.got - 2010.06.03 11:33:40.
