data_PCOD9003266
_publ_section_title
;
Structure prediction by ZEFSAII (Michael W. Deem and Ramdas Pophale) SiO2 
 PCOD9003266
Probable space group: P -1
;
_chemical_formula_sum "Si O2"
_cell_formula_units_Z 16
_cell_length_a 7.006622
_cell_length_b 12.424120
_cell_length_c 11.521951
_cell_angle_alpha 50.021135
_cell_angle_beta 66.003288
_cell_angle_gamma 94.568367
_cell_volume 613.247819
_symmetry_space_group_name_H-M "P -1"
_symmetry_group_IT_number 2
_symmetry_cell_setting 'triclinic'
loop_
_space_group_symop_operation_xyz
x,y,z
-x,-y,-z
loop_
_atom_site_type_symbol
_atom_site_label
_atom_site_fract_x
_atom_site_fract_y
_atom_site_fract_z
Si Si1 0.203973 0.907071 0.902554
Si Si2 0.341384 0.960657 0.180399
Si Si3 0.992674 0.371617 0.397745
Si Si4 0.954365 0.888861 0.765080
Si Si5 0.571347 0.454942 0.697586
Si Si6 0.246864 0.243063 0.727503
Si Si7 0.706157 0.790323 0.667159
Si Si8 0.768534 0.439565 0.180095
O O1 0.468157 0.938685 0.836038
O O2 0.092401 0.833377 0.857425
O O3 0.245077 0.088392 0.781162
O O4 0.500000 0.000000 0.000000
O O5 0.195534 0.772049 0.375608
O O6 0.158557 0.029337 0.180069
O O7 0.010663 0.807252 0.118126
O O8 0.197243 0.529015 0.303580
O O9 0.151336 0.296609 0.359276
O O10 0.849435 0.402342 0.310178
O O11 0.156989 0.027146 0.538988
O O12 0.750554 0.782050 0.798161
O O13 0.435155 0.313329 0.737909
O O14 0.678787 0.618589 0.481416
O O15 0.365186 0.457371 0.826438
O O16 0.443900 0.706610 0.736510
O O17 0.000000 0.500000 0.000000
#
# Coordination Sequence:
#
# PCOD9003266 Si02
#       8
#     2   2   2   2   2   2   2   2
#     4  11  21  37  60  90 123 154 196 244 299 353
#     4  11  21  35  60  91 120 153 196 245 299 358
#     4  10  21  40  63  84 117 161 196 243 302 351
#     4  10  21  37  59  86 118 157 192 242 298 352
#     4  10  22  42  61  85 122 158 199 242 295 360
#     4  10  21  39  62  87 121 160 193 243 299 354
#     4   9  21  40  59  84 118 152 199 246 295 352
#     4  11  24  40  60  85 115 155 203 250 292 345
#
# _framework density 26.090593999999999
#
# number of rings (size 3 to 8) (size 9 to 14) (size 15 to 20)
#    0.000    1.750    0.000    6.000    0.000    6.000 
#    0.000   11.875    0.000    0.000    0.000    0.000 
#    0.000    0.000    0.000    0.000    0.000    0.000 
#
# Total GULP energy -89651.275860 kJ/mol
# GULP energy per Si atom -5603.204741 kJ/mol
# Density = 2.603121 g / cm^3
# Si number density = 26.090594 Si / 1000 Ang^3
#
#
#
# Elastic Constant Matrix: (Units=GPa)
#
#
# Indices 1 2 3 4 5 6 
#
# 1 173.8751 62.4940 49.2472 4.1798 -20.2764 50.0750
# 2 62.4940 111.7773 30.8228 9.1294 -8.1849 41.8817
# 3 49.2472 30.8228 123.4851 9.0626 -7.9791 15.1128
# 4 4.1798 9.1294 9.0626 31.2519 8.0597 -2.9038
# 5 -20.2764 -8.1849 -7.9791 8.0597 34.0141 1.8189
# 6 50.0750 41.8817 15.1128 -2.9038 1.8189 65.7723
#
#
#
# Elastic Compliance Matrix: (Units=1/GPa)
#
#
# Indices 1 2 3 4 5 6 
#
# 1 0.009337 -0.002004 -0.002046 -0.001975 0.005371 -0.005598
# 2 -0.002004 0.013777 -0.001161 -0.004979 0.003418 -0.007295
# 3 -0.002046 -0.001161 0.009473 -0.002475 0.001311 -0.000025
# 4 -0.001975 -0.004979 -0.002475 0.038315 -0.012424 0.007279
# 5 0.005371 0.003418 0.001311 -0.012424 0.037111 -0.008142
# 6 -0.005598 -0.007295 -0.000025 0.007279 -0.008142 0.024664
#
#
# Mechanical properties :
#
#
# Convention : Reuss Voigt Hill
#
# Bulk Modulus (GPa) = 45.11400 77.14061 61.12730
# Shear Modulus (GPa) = 33.22532 43.97921 38.60227
#
# Velocity S-wave (km/s) = 3.57243 4.11010 3.85066
# Velocity P-wave (km/s) = 5.86047 7.22181 6.57646
#
# Compressibility (1/GPa) = 0.02216607
#
# Stress axis : x y z
#
# Youngs Moduli (GPa) = 107.09817 72.58462 105.55881
#
# Poissons Ratio (x) = 0.14544 0.21602
# Poissons Ratio (y) = 0.21460 0.12251
# Poissons Ratio (z) = 0.21917 0.08424
#
# Static dielectric constant tensor:
#      x y z
#    x 2.016470 0.038480 0.020990 
#    y 0.038480 2.082340 -0.011050 
#    z 0.020990 -0.011050 2.040600 
# 
# From -- ./inp_files/367508.got.cif
#   From: 2010.05.17/outbox.cif.g08.bks.cpg/sg2_184_cif.got.tgz:367508.got - 2010.06.03 11:33:40.
