data_PCOD9003618
_publ_section_title
;
Structure prediction by ZEFSAII (Michael W. Deem and Ramdas Pophale) SiO2 
 PCOD9003618
Probable space group: P -1
;
_chemical_formula_sum "Si O2"
_cell_formula_units_Z 16
_cell_length_a 12.491681
_cell_length_b 8.890547
_cell_length_c 17.620264
_cell_angle_alpha 98.606621
_cell_angle_beta 140.072591
_cell_angle_gamma 53.083713
_cell_volume 798.768681
_symmetry_space_group_name_H-M "P -1"
_symmetry_group_IT_number 2
_symmetry_cell_setting 'triclinic'
loop_
_space_group_symop_operation_xyz
x,y,z
-x,-y,-z
loop_
_atom_site_type_symbol
_atom_site_label
_atom_site_fract_x
_atom_site_fract_y
_atom_site_fract_z
Si Si1 0.356172 0.938375 0.413371
Si Si2 0.449072 0.776959 0.610782
Si Si3 0.939416 0.610890 0.893598
Si Si4 0.796341 0.424483 0.096480
Si Si5 0.389009 0.451870 0.827700
Si Si6 0.365647 0.480408 0.571883
Si Si7 0.015270 0.167705 0.497353
Si Si8 0.742633 0.077331 0.870806
O O1 0.293603 0.921682 0.461304
O O2 0.559752 0.677029 0.469222
O O3 0.500000 0.000000 0.500000
O O4 0.081232 0.146314 0.237245
O O5 0.734826 0.640544 0.746457
O O6 0.435917 0.607272 0.605868
O O7 0.309190 0.973689 0.614838
O O8 0.162573 0.485192 0.943150
O O9 0.813196 0.860703 0.865574
O O10 0.000000 0.500000 0.000000
O O11 0.730961 0.520008 0.154944
O O12 0.570933 0.468260 0.950016
O O13 0.588845 0.196618 0.875846
O O14 0.174623 0.653768 0.663039
O O15 0.548958 0.288861 0.722378
O O16 0.080152 0.675244 0.468570
O O17 0.000000 0.000000 0.500000
O O18 0.000000 0.000000 0.000000
#
# Coordination Sequence:
#
# PCOD9003618 Si02
#       8
#     2   2   2   2   2   2   2   2
#     4  12  21  40  60  88 125 158 205 253 309 369
#     4  11  22  39  60  92 122 161 202 254 314 362
#     4  12  25  40  63  92 124 160 204 262 311 368
#     4  11  22  39  60  90 121 165 203 252 313 358
#     4  10  21  38  65  88 121 165 210 251 303 370
#     4  10  21  37  61  89 119 159 208 254 300 366
#     4   9  20  36  60  90 122 158 205 255 301 359
#     4  11  19  39  62  89 118 161 211 248 301 370
#
# _framework density 20.030830999999999
#
# number of rings (size 3 to 8) (size 9 to 14) (size 15 to 20)
#    0.000    1.250    5.000    1.125    3.500    0.000 
#    2.250    2.500    0.000    0.000    0.000    0.000 
#    0.000    0.000    0.000    0.000    0.000    0.000 
#
# Total GULP energy -89170.322656 kJ/mol
# GULP energy per Si atom -5573.145166 kJ/mol
# Density = 1.998524 g / cm^3
# Si number density = 20.030831 Si / 1000 Ang^3
#
#
#
# Elastic Constant Matrix: (Units=GPa)
#
#
# Indices 1 2 3 4 5 6 
#
# 1 139.5676 48.2031 13.6405 -9.7740 -1.0711 -16.6105
# 2 48.2031 109.4951 -0.5044 -10.6488 14.6245 -16.2082
# 3 13.6405 -0.5044 27.1560 -1.7642 2.1835 8.6859
# 4 -9.7740 -10.6488 -1.7642 21.6991 -1.1558 3.4438
# 5 -1.0711 14.6245 2.1835 -1.1558 32.2281 -9.7405
# 6 -16.6105 -16.2082 8.6859 3.4438 -9.7405 39.3230
#
#
#
# Elastic Compliance Matrix: (Units=1/GPa)
#
#
# Indices 1 2 3 4 5 6 
#
# 1 0.009987 -0.004125 -0.006939 0.001345 0.004228 0.004980
# 2 -0.004125 0.012215 0.002661 0.003902 -0.005411 0.001022
# 3 -0.006939 0.002661 0.045944 0.003747 -0.008796 -0.014490
# 4 0.001345 0.003902 0.003747 0.049365 -0.001198 -0.003271
# 5 0.004228 -0.005411 -0.008796 -0.001198 0.037467 0.010884
# 6 0.004980 0.001022 -0.014490 -0.003271 0.010884 0.034139
#
#
# Mechanical properties :
#
#
# Convention : Reuss Voigt Hill
#
# Bulk Modulus (GPa) = 19.47827 44.32190 31.90008
# Shear Modulus (GPa) = 22.41773 32.97533 27.69653
#
# Velocity S-wave (km/s) = 3.34902 4.06178 3.72249
# Velocity P-wave (km/s) = 4.96989 6.64622 5.86822
#
# Compressibility (1/GPa) = 0.05133927
#
# Stress axis : x y z
#
# Youngs Moduli (GPa) = 100.12735 81.86844 21.76552
#
# Poissons Ratio (x) = 0.33773 0.15103
# Poissons Ratio (y) = 0.41305 -0.05791
# Poissons Ratio (z) = 0.69476 -0.21782
#
# Static dielectric constant tensor:
#      x y z
#    x 1.930870 -0.036050 -0.138660 
#    y -0.036050 1.720230 -0.021460 
#    z -0.138660 -0.021460 1.810430 
# 
# From -- ./inp_files/256470.got.cif
#   From: 2010.05.17/outbox.cif.g08.bks.cpg/sg2_129_cif.got.tgz:256470.got - 2010.06.03 11:33:40.
