data_PCOD9003924
_publ_section_title
;
Structure prediction by ZEFSAII (Michael W. Deem and Ramdas Pophale) SiO2 
 PCOD9003924
Probable space group: P -1
;
_chemical_formula_sum "Si O2"
_cell_formula_units_Z 12
_cell_length_a 6.581409
_cell_length_b 14.624624
_cell_length_c 12.779244
_cell_angle_alpha 37.742917
_cell_angle_beta 39.661618
_cell_angle_gamma 51.955672
_cell_volume 480.459648
_symmetry_space_group_name_H-M "P -1"
_symmetry_group_IT_number 2
_symmetry_cell_setting 'triclinic'
loop_
_space_group_symop_operation_xyz
x,y,z
-x,-y,-z
loop_
_atom_site_type_symbol
_atom_site_label
_atom_site_fract_x
_atom_site_fract_y
_atom_site_fract_z
Si Si1 0.602121 0.797361 0.952683
Si Si2 0.511109 0.714337 0.495714
Si Si3 0.779798 0.948432 0.035439
Si Si4 0.023861 0.527089 0.110723
Si Si5 0.706675 0.466623 0.779925
Si Si6 0.439061 0.993368 0.651722
O O1 0.641878 0.882336 0.748558
O O2 0.485764 0.917524 0.977491
O O3 0.874106 0.682903 0.986869
O O4 0.320823 0.686021 0.133941
O O5 0.616371 0.796301 0.273402
O O6 0.752665 0.599133 0.560645
O O7 0.204690 0.612626 0.692172
O O8 0.489384 0.848222 0.466761
O O9 0.066373 0.948879 0.840687
O O10 0.000000 0.000000 0.000000
O O11 0.061571 0.539159 0.209141
O O12 0.359498 0.496142 0.947574
O O13 0.500000 0.000000 0.500000
#
# Coordination Sequence:
#
# PCOD9003924 Si02
#       6
#     2   2   2   2   2   2
#     4   9  18  39  66  97 132 173 210 268 328 384
#     4   9  18  39  66  97 132 173 210 268 328 384
#     4   8  18  40  66  91 135 171 211 271 331 387
#     4  10  21  37  63 102 137 171 222 268 319 382
#     4  10  21  37  64 101 135 170 223 270 314 392
#     4  10  22  40  70 100 124 176 218 271 333 384
#
# _framework density 24.976082999999999
#
# number of rings (size 3 to 8) (size 9 to 14) (size 15 to 20)
#    0.000    3.000    0.000    2.000    4.667    0.000 
#    0.000   50.000    0.000   54.000    0.000    0.000 
#    0.000    0.000    0.000    0.000    0.000    0.000 
#
# Total GULP energy -67070.247870 kJ/mol
# GULP energy per Si atom -5589.187323 kJ/mol
# Density = 2.491924 g / cm^3
# Si number density = 24.976083 Si / 1000 Ang^3
#
#
#
# Elastic Constant Matrix: (Units=GPa)
#
#
# Indices 1 2 3 4 5 6 
#
# 1 119.8185 53.4106 52.6307 -14.3025 0.2294 -7.6340
# 2 53.4106 148.9560 84.8130 -31.3157 3.8793 -4.7076
# 3 52.6307 84.8130 187.3241 -11.3014 13.8322 3.2739
# 4 -14.3025 -31.3157 -11.3014 53.1111 -1.3874 1.9888
# 5 0.2294 3.8793 13.8322 -1.3874 30.5108 1.3339
# 6 -7.6340 -4.7076 3.2739 1.9888 1.3339 33.0654
#
#
#
# Elastic Compliance Matrix: (Units=1/GPa)
#
#
# Indices 1 2 3 4 5 6 
#
# 1 0.010523 -0.002451 -0.001906 0.000929 0.001044 0.002171
# 2 -0.002451 0.010938 -0.004033 0.004907 0.000632 0.001070
# 3 -0.001906 -0.004033 0.007877 -0.001234 -0.003030 -0.001598
# 4 0.000929 0.004907 -0.001234 0.021745 0.000931 -0.000310
# 5 0.001044 0.000632 -0.003030 0.000931 0.034138 -0.000802
# 6 0.002171 0.001070 -0.001598 -0.000310 -0.000802 0.031106
#
#
# Mechanical properties :
#
#
# Convention : Reuss Voigt Hill
#
# Bulk Modulus (GPa) = 79.63147 93.08969 86.36058
# Shear Modulus (GPa) = 36.41871 41.02043 38.71957
#
# Velocity S-wave (km/s) = 3.82271 4.05704 3.94161
# Velocity P-wave (km/s) = 7.17192 7.70055 7.44093
#
# Compressibility (1/GPa) = 0.01255785
#
# Stress axis : x y z
#
# Youngs Moduli (GPa) = 95.03014 91.42821 126.95543
#
# Poissons Ratio (x) = 0.22413 0.24193
# Poissons Ratio (y) = 0.23296 0.51197
# Poissons Ratio (z) = 0.18109 0.36870
#
# Static dielectric constant tensor:
#      x y z
#    x 2.048180 -0.062020 0.011220 
#    y -0.062020 2.108970 0.085140 
#    z 0.011220 0.085140 2.057850 
# 
# From -- ./inp_files/507850.got.cif
#   From: 2010.05.17/outbox.cif.g08.bks.cpg/sg2_254_cif.got.tgz:507850.got - 2010.06.03 11:33:40.
