data_PCOD9003108
_publ_section_title
;
Structure prediction by ZEFSAII (Michael W. Deem and Ramdas Pophale) SiO2 
 PCOD9003108
Probable space group: P -1
;
_chemical_formula_sum "Si O2"
_cell_formula_units_Z 14
_cell_length_a 20.599171
_cell_length_b 6.617830
_cell_length_c 21.039104
_cell_angle_alpha 56.512301
_cell_angle_beta 166.075803
_cell_angle_gamma 121.652086
_cell_volume 574.773974
_symmetry_space_group_name_H-M "P -1"
_symmetry_group_IT_number 2
_symmetry_cell_setting 'triclinic'
loop_
_space_group_symop_operation_xyz
x,y,z
-x,-y,-z
loop_
_atom_site_type_symbol
_atom_site_label
_atom_site_fract_x
_atom_site_fract_y
_atom_site_fract_z
Si Si1 0.083907 0.978921 0.292774
Si Si2 0.448102 0.224387 0.149036
Si Si3 0.787436 0.525111 0.737611
Si Si4 0.821509 0.426905 0.654859
Si Si5 0.731295 0.900590 0.324018
Si Si6 0.299737 0.677322 0.864286
Si Si7 0.640446 0.362393 0.896145
O O1 0.253832 0.880684 0.532460
O O2 0.122434 0.781701 0.307016
O O3 0.192702 0.217461 0.323428
O O4 0.767481 0.977161 0.008650
O O5 0.407268 0.429771 0.130397
O O6 0.354210 0.388901 0.970732
O O7 0.500000 0.500000 0.500000
O O8 0.844538 0.344535 0.763798
O O9 0.000000 0.500000 0.000000
O O10 0.521805 0.535515 0.336861
O O11 0.041667 0.627457 0.815228
O O12 0.532021 0.852640 0.201291
O O13 0.030383 0.767913 0.633167
O O14 0.752650 0.180918 0.276237
O O15 0.571874 0.779024 0.135353
#
# Coordination Sequence:
#
# PCOD9003108 Si02
#       7
#     2   2   2   2   2   2   2
#     4  10  21  37  58  81 107 141 178 218 265 320
#     4   9  16  30  51  77 108 144 183 218 258 312
#     4  12  26  42  60  84 109 134 173 222 276 336
#     4  10  21  37  58  81 107 141 178 218 265 320
#     4   9  15  23  40  72 112 146 179 223 264 299
#     4   9  15  23  40  72 112 146 179 223 264 299
#     4   9  16  30  51  77 108 144 183 218 258 312
#
# _framework density 24.357400999999999
#
# number of rings (size 3 to 8) (size 9 to 14) (size 15 to 20)
#    0.000    2.286    0.000    6.000    0.000    1.143 
#    0.000    0.000    0.000    0.000    0.000    6.000 
#    0.000    0.000    0.000    0.000    0.000    0.000 
#
# Total GULP energy -78200.530703 kJ/mol
# GULP energy per Si atom -5585.752193 kJ/mol
# Density = 2.430196 g / cm^3
# Si number density = 24.357401 Si / 1000 Ang^3
#
#
#
# Elastic Constant Matrix: (Units=GPa)
#
#
# Indices 1 2 3 4 5 6 
#
# 1 82.2289 11.5231 22.6597 3.7832 17.8407 14.7844
# 2 11.5231 87.6994 17.8748 8.0690 9.7583 16.6699
# 3 22.6597 17.8748 148.3376 -0.5059 17.0993 6.7532
# 4 3.7832 8.0690 -0.5059 38.2199 4.5576 -0.5112
# 5 17.8407 9.7583 17.0993 4.5576 36.5290 8.5902
# 6 14.7844 16.6699 6.7532 -0.5112 8.5902 32.3021
#
#
#
# Elastic Compliance Matrix: (Units=1/GPa)
#
#
# Indices 1 2 3 4 5 6 
#
# 1 0.014621 -0.000019 -0.001408 -0.000911 -0.005182 -0.005024
# 2 -0.000019 0.013226 -0.001181 -0.002754 -0.001144 -0.006309
# 3 -0.001408 -0.001181 0.007388 0.000809 -0.002657 0.000429
# 4 -0.000911 -0.002754 0.000809 0.027280 -0.003302 0.002979
# 5 -0.005182 -0.001144 -0.002657 -0.003302 0.033124 -0.005344
# 6 -0.005024 -0.006309 0.000429 0.002979 -0.005344 0.037892
#
#
# Mechanical properties :
#
#
# Convention : Reuss Voigt Hill
#
# Bulk Modulus (GPa) = 33.31215 46.93125 40.12170
# Shear Modulus (GPa) = 33.61243 39.15741 36.38492
#
# Velocity S-wave (km/s) = 3.71882 4.01386 3.86916
# Velocity P-wave (km/s) = 5.66971 6.38679 6.03890
#
# Compressibility (1/GPa) = 0.03001908
#
# Stress axis : x y z
#
# Youngs Moduli (GPa) = 68.39293 75.61040 135.34807
#
# Poissons Ratio (x) = 0.00141 0.19062
# Poissons Ratio (y) = 0.00128 0.15987
# Poissons Ratio (z) = 0.09632 0.08931
#
# Static dielectric constant tensor:
#      x y z
#    x 2.041960 -0.097220 -0.005430 
#    y -0.097220 2.047510 -0.018600 
#    z -0.005430 -0.018600 1.845790 
# 
# From -- ./inp_files/617657.got.cif
#   From: 2010.05.17/outbox.cif.g08.bks.cpg/sg2_309_cif.got.tgz:617657.got - 2010.06.03 11:33:40.
