data_PCOD9003099
_publ_section_title
;
Structure prediction by ZEFSAII (Michael W. Deem and Ramdas Pophale) SiO2 
 PCOD9003099
Probable space group: P -1
;
_chemical_formula_sum "Si O2"
_cell_formula_units_Z 13
_cell_length_a 8.894913
_cell_length_b 8.920331
_cell_length_c 12.494198
_cell_angle_alpha 111.752991
_cell_angle_beta 145.146577
_cell_angle_gamma 78.360602
_cell_volume 516.317649
_symmetry_space_group_name_H-M "P -1"
_symmetry_group_IT_number 2
_symmetry_cell_setting 'triclinic'
loop_
_space_group_symop_operation_xyz
x,y,z
-x,-y,-z
loop_
_atom_site_type_symbol
_atom_site_label
_atom_site_fract_x
_atom_site_fract_y
_atom_site_fract_z
Si Si1 0.919817 0.366053 0.692076
Si Si2 0.630970 0.906084 0.678181
Si Si3 0.000000 0.500000 0.000000
Si Si4 0.815127 0.907572 0.256034
Si Si5 0.601317 0.877838 0.888070
Si Si6 0.608360 0.481574 0.363725
Si Si7 0.287097 0.162439 0.526973
O O1 0.657182 0.222429 0.526771
O O2 0.804813 0.491265 0.582672
O O3 0.117875 0.266399 0.720494
O O4 0.068155 0.442055 0.904636
O O5 0.741779 0.881370 0.854853
O O6 0.777122 0.867290 0.645796
O O7 0.560754 0.088835 0.677111
O O8 0.302140 0.485464 0.216499
O O9 0.560744 0.973825 0.167638
O O10 0.772766 0.892165 0.098123
O O11 0.074416 0.053158 0.450835
O O12 0.400214 0.701444 0.734048
O O13 0.690528 0.646468 0.387799
#
# Coordination Sequence:
#
# PCOD9003099 Si02
#       7
#     2   2   1   2   2   2   2
#     4  10  21  37  62  89 120 166 205 240 305 373
#     4   9  20  37  59  87 122 158 206 246 302 369
#     4  12  20  36  60  92 126 158 198 266 286 374
#     4  10  22  42  62  88 125 165 205 254 297 369
#     4  10  22  41  64  88 118 171 216 233 302 382
#     4  11  23  37  63  92 122 159 206 251 309 358
#     4  10  21  37  57  92 127 149 201 264 309 345
#
# _framework density 25.178298999999999
#
# number of rings (size 3 to 8) (size 9 to 14) (size 15 to 20)
#    0.000    1.846    3.077    0.462    2.154    6.769 
#    2.769    0.000    0.000    6.462    0.000    0.000 
#    0.000    0.000    0.000    0.000    0.000    0.000 
#
# Total GULP energy -72406.826777 kJ/mol
# GULP energy per Si atom -5569.755906 kJ/mol
# Density = 2.512099 g / cm^3
# Si number density = 25.178299 Si / 1000 Ang^3
#
#
#
# Elastic Constant Matrix: (Units=GPa)
#
#
# Indices 1 2 3 4 5 6 
#
# 1 75.8256 25.0685 2.2804 -0.1652 -11.6465 2.2920
# 2 25.0685 139.9609 28.5250 -15.4360 -5.5287 4.9521
# 3 2.2804 28.5250 67.7232 -10.9601 -20.7766 -12.3284
# 4 -0.1652 -15.4360 -10.9601 33.6317 -11.6299 1.6950
# 5 -11.6465 -5.5287 -20.7766 -11.6299 31.3311 -1.5390
# 6 2.2920 4.9521 -12.3284 1.6950 -1.5390 27.0397
#
#
#
# Elastic Compliance Matrix: (Units=1/GPa)
#
#
# Indices 1 2 3 4 5 6 
#
# 1 0.015470 -0.002998 0.004522 0.003398 0.009561 0.001631
# 2 -0.002998 0.008901 -0.004614 0.002054 -0.002024 -0.003724
# 3 0.004522 -0.004614 0.030684 0.016909 0.028227 0.014998
# 4 0.003398 0.002054 0.016909 0.046404 0.030351 0.005864
# 5 0.009561 -0.002024 0.028227 0.030351 0.065800 0.014272
# 6 0.001631 -0.003724 0.014998 0.005864 0.014272 0.044809
#
#
# Mechanical properties :
#
#
# Convention : Reuss Voigt Hill
#
# Bulk Modulus (GPa) = 20.46079 43.91749 32.18914
# Shear Modulus (GPa) = 21.31844 33.57622 27.44733
#
# Velocity S-wave (km/s) = 2.91297 3.65573 3.30528
# Velocity P-wave (km/s) = 4.41110 5.94134 5.23247
#
# Compressibility (1/GPa) = 0.04887396
#
# Stress axis : x y z
#
# Youngs Moduli (GPa) = 64.64145 112.35226 32.59061
#
# Poissons Ratio (x) = 0.33679 -0.14737
# Poissons Ratio (y) = 0.19377 0.15038
# Poissons Ratio (z) = -0.29229 0.51842
#
# Static dielectric constant tensor:
#      x y z
#    x 1.977160 0.000220 -0.023600 
#    y 0.000220 1.981080 0.035330 
#    z -0.023600 0.035330 2.041580 
# 
# From -- ./inp_files/357211.got.cif
#   From: 2010.05.17/outbox.cif.g08.bks.cpg/sg2_179_cif.got.tgz:357211.got - 2010.06.03 11:33:40.
