data_PCOD9003273
_publ_section_title
;
Structure prediction by ZEFSAII (Michael W. Deem and Ramdas Pophale) SiO2 
 PCOD9003273
Probable space group: P -1
;
_chemical_formula_sum "Si O2"
_cell_formula_units_Z 12
_cell_length_a 11.015282
_cell_length_b 7.814812
_cell_length_c 15.562915
_cell_angle_alpha 132.847376
_cell_angle_beta 26.185344
_cell_angle_gamma 128.888231
_cell_volume 432.792133
_symmetry_space_group_name_H-M "P -1"
_symmetry_group_IT_number 2
_symmetry_cell_setting 'triclinic'
loop_
_space_group_symop_operation_xyz
x,y,z
-x,-y,-z
loop_
_atom_site_type_symbol
_atom_site_label
_atom_site_fract_x
_atom_site_fract_y
_atom_site_fract_z
Si Si1 0.964331 0.503118 0.164320
Si Si2 0.032259 0.350569 0.613181
Si Si3 0.503856 0.696792 0.171568
Si Si4 0.218183 0.985803 0.589909
Si Si5 0.945716 0.026431 0.942993
Si Si6 0.740863 0.916933 0.759248
O O1 0.857530 0.477169 0.322493
O O2 0.845958 0.743401 0.290681
O O3 0.892233 0.301515 0.072130
O O4 0.292589 0.480233 0.971958
O O5 0.768746 0.401535 0.738359
O O6 0.905699 0.127818 0.673674
O O7 0.274108 0.281077 0.371831
O O8 0.435534 0.878933 0.352410
O O9 0.675211 0.855203 0.045918
O O10 0.952278 0.840849 0.670940
O O11 0.186262 0.962028 0.703684
O O12 0.000000 0.000000 0.000000
O O13 0.500000 0.000000 0.000000
#
# Coordination Sequence:
#
# PCOD9003273 Si02
#       6
#     2   2   2   2   2   2
#     4  10  21  37  59  87 116 148 189 235 281 335
#     4   9  18  34  56  84 112 146 188 227 281 335
#     4  10  21  39  61  82 116 153 185 235 282 333
#     4  10  21  38  59  84 113 152 193 229 283 338
#     4  10  22  39  59  84 115 151 191 234 282 337
#     4   9  17  32  57  84 113 147 185 232 279 332
#
# _framework density 27.726935999999998
#
# number of rings (size 3 to 8) (size 9 to 14) (size 15 to 20)
#    0.000    2.333    0.000    3.000    0.000    3.333 
#    0.000   13.333    0.000   18.000    0.000    0.000 
#    0.000    0.000    0.000    0.000    0.000    0.000 
#
# Total GULP energy -66934.135804 kJ/mol
# GULP energy per Si atom -5577.844650 kJ/mol
# Density = 2.766383 g / cm^3
# Si number density = 27.726936 Si / 1000 Ang^3
#
#
#
# Elastic Constant Matrix: (Units=GPa)
#
#
# Indices 1 2 3 4 5 6 
#
# 1 81.8476 16.1520 22.6825 -7.0945 17.5460 -2.3676
# 2 16.1520 104.5786 36.4433 10.3105 20.7376 -28.4957
# 3 22.6825 36.4433 221.2687 -1.7100 68.9678 -2.9562
# 4 -7.0945 10.3105 -1.7100 40.5010 6.8192 -1.6835
# 5 17.5460 20.7376 68.9678 6.8192 48.8575 5.8426
# 6 -2.3676 -28.4957 -2.9562 -1.6835 5.8426 31.4892
#
#
#
# Elastic Compliance Matrix: (Units=1/GPa)
#
#
# Indices 1 2 3 4 5 6 
#
# 1 0.013973 -0.001157 0.000792 0.003909 -0.006367 0.001468
# 2 -0.001157 0.015734 0.000282 -0.002164 -0.008222 0.015587
# 3 0.000792 0.000282 0.008671 0.002863 -0.013497 0.003786
# 4 0.003909 -0.002164 0.002863 0.027560 -0.008573 0.001669
# 5 -0.006367 -0.008222 -0.013497 -0.008573 0.048728 -0.018686
# 6 0.001468 0.015587 0.003786 0.001669 -0.018686 0.049885
#
#
# Mechanical properties :
#
#
# Convention : Reuss Voigt Hill
#
# Bulk Modulus (GPa) = 26.16991 62.02784 44.09888
# Shear Modulus (GPa) = 28.17637 46.33068 37.25352
#
# Velocity S-wave (km/s) = 3.19126 4.09218 3.66947
# Velocity P-wave (km/s) = 4.79977 6.68935 5.82174
#
# Compressibility (1/GPa) = 0.03821182
#
# Stress axis : x y z
#
# Youngs Moduli (GPa) = 71.56848 63.55735 115.32084
#
# Poissons Ratio (x) = 0.07354 -0.09139
# Poissons Ratio (y) = 0.08281 -0.03247
# Poissons Ratio (z) = -0.05671 -0.01789
#
# Static dielectric constant tensor:
#      x y z
#    x 2.229770 0.073080 -0.044010 
#    y 0.073080 2.570420 0.019930 
#    z -0.044010 0.019930 2.254900 
# 
# From -- ./inp_files/36368.got.cif
#   From: 2010.05.17/outbox.cif.g08.bks.cpg/sg2_19_cif.got.tgz:36368.got - 2010.06.03 11:33:40.
