data_PCOD9003600
_publ_section_title
;
Structure prediction by ZEFSAII (Michael W. Deem and Ramdas Pophale) SiO2 
 PCOD9003600
Probable space group: P -1
;
_chemical_formula_sum "Si O2"
_cell_formula_units_Z 14
_cell_length_a 15.360919
_cell_length_b 12.678564
_cell_length_c 9.271571
_cell_angle_alpha 53.960022
_cell_angle_beta 32.501689
_cell_angle_gamma 60.132045
_cell_volume 784.532238
_symmetry_space_group_name_H-M "P -1"
_symmetry_group_IT_number 2
_symmetry_cell_setting 'triclinic'
loop_
_space_group_symop_operation_xyz
x,y,z
-x,-y,-z
loop_
_atom_site_type_symbol
_atom_site_label
_atom_site_fract_x
_atom_site_fract_y
_atom_site_fract_z
Si Si1 0.612432 0.619903 0.092371
Si Si2 0.259097 0.533342 0.693175
Si Si3 0.657973 0.916465 0.882922
Si Si4 0.019200 0.089050 0.758984
Si Si5 0.933389 0.672899 0.061774
Si Si6 0.142646 0.037069 0.160951
Si Si7 0.098382 0.375684 0.520662
O O1 0.428159 0.580129 0.354091
O O2 0.694645 0.517937 0.170967
O O3 0.621120 0.762777 0.038408
O O4 0.721208 0.620565 0.798147
O O5 0.173975 0.415144 0.823317
O O6 0.123539 0.645667 0.791557
O O7 0.811951 0.941395 0.539663
O O8 0.706464 0.951184 0.951726
O O9 0.500000 0.000000 0.000000
O O10 0.023702 0.240040 0.676389
O O11 0.874665 0.061295 0.869515
O O12 0.000000 0.000000 0.000000
O O13 0.900979 0.629211 0.304767
O O14 0.891428 0.822021 0.973028
O O15 0.000000 0.000000 0.500000
O O16 0.000000 0.500000 0.500000
#
# Coordination Sequence:
#
# PCOD9003600 Si02
#       7
#     2   2   2   2   2   2   2
#     4  10  21  39  57  88 122 153 195 248 296 359
#     4  10  22  36  61  89 116 153 206 243 294 357
#     4  10  22  39  61  84 121 154 198 251 299 344
#     4  10  21  38  63  88 118 157 205 241 293 366
#     4  11  21  38  64  87 117 158 202 248 298 355
#     4  10  21  37  61  88 117 155 205 245 295 355
#     4  11  22  39  61  89 124 158 195 247 305 354
#
# _framework density 17.845027999999999
#
# number of rings (size 3 to 8) (size 9 to 14) (size 15 to 20)
#    0.000    1.714    4.286    0.000    4.000    0.571 
#    0.000    0.714    0.000    0.000    0.000    0.000 
#    0.000    0.000    0.000    0.000    0.000    0.000 
#
# Total GULP energy -78088.557800 kJ/mol
# GULP energy per Si atom -5577.754129 kJ/mol
# Density = 1.780441 g / cm^3
# Si number density = 17.845028 Si / 1000 Ang^3
#
#
#
# Elastic Constant Matrix: (Units=GPa)
#
#
# Indices 1 2 3 4 5 6 
#
# 1 78.3878 11.9878 27.4925 7.3344 -9.5039 -17.9876
# 2 11.9878 48.6874 19.6936 -1.1872 -9.0413 -16.3975
# 3 27.4925 19.6936 74.8426 -5.6046 -9.2167 -9.3751
# 4 7.3344 -1.1872 -5.6046 20.9878 -3.7756 6.1979
# 5 -9.5039 -9.0413 -9.2167 -3.7756 34.9076 -1.3679
# 6 -17.9876 -16.3975 -9.3751 6.1979 -1.3679 22.0493
#
#
#
# Elastic Compliance Matrix: (Units=1/GPa)
#
#
# Indices 1 2 3 4 5 6 
#
# 1 0.021894 0.006148 -0.007201 -0.015432 0.004924 0.024014
# 2 0.006148 0.033307 -0.006902 -0.009424 0.008636 0.030035
# 3 -0.007201 -0.006902 0.017985 0.008945 0.001742 -0.005768
# 4 -0.015432 -0.009424 0.008945 0.065205 0.001438 -0.034033
# 5 0.004924 0.008636 0.001742 0.001438 0.033343 0.012844
# 6 0.024014 0.030035 -0.005768 -0.034033 0.012844 0.095191
#
#
# Mechanical properties :
#
#
# Convention : Reuss Voigt Hill
#
# Bulk Modulus (GPa) = 17.45988 35.58506 26.52247
# Shear Modulus (GPa) = 16.56029 25.10520 20.83274
#
# Velocity S-wave (km/s) = 3.04962 3.75486 3.42047
# Velocity P-wave (km/s) = 4.71229 6.22761 5.52217
#
# Compressibility (1/GPa) = 0.05727415
#
# Stress axis : x y z
#
# Youngs Moduli (GPa) = 45.67445 30.02388 55.60219
#
# Poissons Ratio (x) = -0.18459 0.40042
# Poissons Ratio (y) = -0.28081 0.38379
# Poissons Ratio (z) = 0.32892 0.20724
#
# Static dielectric constant tensor:
#      x y z
#    x 1.599140 0.014870 -0.004980 
#    y 0.014870 1.602500 -0.006680 
#    z -0.004980 -0.006680 1.601220 
# 
# From -- ./inp_files/168907.got.cif
#   From: 2010.05.17/outbox.cif.g08.bks.cpg/sg2_85_cif.got.tgz:168907.got - 2010.06.03 11:33:40.
