data_PCOD9003934
_publ_section_title
;
Structure prediction by ZEFSAII (Michael W. Deem and Ramdas Pophale) SiO2 
 PCOD9003934
Probable space group: P -1
;
_chemical_formula_sum "Si O2"
_cell_formula_units_Z 16
_cell_length_a 11.386833
_cell_length_b 10.096401
_cell_length_c 9.213773
_cell_angle_alpha 120.949131
_cell_angle_beta 124.496562
_cell_angle_gamma 80.708740
_cell_volume 735.978561
_symmetry_space_group_name_H-M "P -1"
_symmetry_group_IT_number 2
_symmetry_cell_setting 'triclinic'
loop_
_space_group_symop_operation_xyz
x,y,z
-x,-y,-z
loop_
_atom_site_type_symbol
_atom_site_label
_atom_site_fract_x
_atom_site_fract_y
_atom_site_fract_z
Si Si1 0.930048 0.228804 0.652754
Si Si2 0.576275 0.908028 0.879912
Si Si3 0.897225 0.530979 0.319666
Si Si4 0.103338 0.000226 0.766287
Si Si5 0.213093 0.183904 0.552160
Si Si6 0.411359 0.329067 0.014122
Si Si7 0.353818 0.888835 0.453320
Si Si8 0.635925 0.332172 0.918134
O O1 0.786169 0.231770 0.645873
O O2 0.009797 0.371884 0.690545
O O3 0.047576 0.164509 0.798604
O O4 0.875747 0.086441 0.420588
O O5 0.482946 0.904242 0.668160
O O6 0.747606 0.982103 0.031637
O O7 0.568654 0.736454 0.850406
O O8 0.500000 0.000000 0.000000
O O9 0.783788 0.631714 0.371507
O O10 0.000000 0.500000 0.500000
O O11 0.802878 0.373665 0.103377
O O12 0.953336 0.887434 0.644780
O O13 0.273848 0.215066 0.778164
O O14 0.300373 0.054216 0.484072
O O15 0.539918 0.309576 0.982852
O O16 0.393587 0.509381 0.093218
O O17 0.394017 0.812717 0.291104
#
# Coordination Sequence:
#
# PCOD9003934 Si02
#       8
#     2   2   2   2   2   2   2   2
#     4   9  17  33  60  84 119 153 198 245 301 347
#     4  12  20  33  63  97 115 154 210 250 288 360
#     4  10  21  37  63  86 117 170 205 231 294 383
#     4   9  16  32  59  90 114 152 198 249 290 355
#     4   9  19  39  63  86 118 158 203 247 304 356
#     4  10  21  41  63  82 120 171 200 236 306 386
#     4  11  22  37  63  96 119 149 206 266 301 340
#     4  10  24  41  60  86 126 163 197 247 316 358
#
# _framework density 21.739764000000001
#
# number of rings (size 3 to 8) (size 9 to 14) (size 15 to 20)
#    0.000    2.000    2.500    3.750    1.750    1.500 
#    0.000    0.625   16.500    0.000    0.000    0.000 
#    0.000    0.000    0.000    0.000    0.000    0.000 
#
# Total GULP energy -89178.770654 kJ/mol
# GULP energy per Si atom -5573.673166 kJ/mol
# Density = 2.169028 g / cm^3
# Si number density = 21.739764 Si / 1000 Ang^3
#
#
#
# Elastic Constant Matrix: (Units=GPa)
#
#
# Indices 1 2 3 4 5 6 
#
# 1 94.9019 11.5304 46.8695 0.5129 29.0822 1.2839
# 2 11.5304 59.7870 36.4795 0.9386 0.3047 -10.7443
# 3 46.8695 36.4795 120.1412 -9.9370 24.4475 -19.4920
# 4 0.5129 0.9386 -9.9370 24.9290 -10.1604 5.5205
# 5 29.0822 0.3047 24.4475 -10.1604 37.3883 4.0985
# 6 1.2839 -10.7443 -19.4920 5.5205 4.0985 28.8500
#
#
#
# Elastic Compliance Matrix: (Units=1/GPa)
#
#
# Indices 1 2 3 4 5 6 
#
# 1 0.016450 -0.000330 -0.004746 -0.006579 -0.011347 -0.001190
# 2 -0.000330 0.021589 -0.006763 -0.002945 0.003310 0.003579
# 3 -0.004746 -0.006763 0.015086 0.001820 -0.006551 0.008467
# 4 -0.006579 -0.002945 0.001820 0.051667 0.019330 -0.012207
# 5 -0.011347 0.003310 -0.006551 0.019330 0.046507 -0.012994
# 6 -0.001190 0.003579 0.008467 -0.012207 -0.012994 0.045951
#
#
# Mechanical properties :
#
#
# Convention : Reuss Voigt Hill
#
# Bulk Modulus (GPa) = 33.95850 51.62099 42.78974
# Shear Modulus (GPa) = 21.66924 30.23018 25.94971
#
# Velocity S-wave (km/s) = 3.16057 3.73305 3.45867
# Velocity P-wave (km/s) = 5.38269 6.50979 5.97288
#
# Compressibility (1/GPa) = 0.02944771
#
# Stress axis : x y z
#
# Youngs Moduli (GPa) = 60.79073 46.32055 66.28704
#
# Poissons Ratio (x) = 0.01527 0.31457
# Poissons Ratio (y) = 0.02005 0.44830
# Poissons Ratio (z) = 0.28849 0.31327
#
# Static dielectric constant tensor:
#      x y z
#    x 1.879120 0.015770 0.028670 
#    y 0.015770 1.856000 -0.005560 
#    z 0.028670 -0.005560 1.778070 
# 
# From -- ./inp_files/260381.got.cif
#   From: 2010.05.17/outbox.cif.g08.bks.cpg/sg2_131_cif.got.tgz:260381.got - 2010.06.03 11:33:40.
