data_PCOD9003447
_publ_section_title
;
Structure prediction by ZEFSAII (Michael W. Deem and Ramdas Pophale) SiO2 
 PCOD9003447
Probable space group: P -1
;
_chemical_formula_sum "Si O2"
_cell_formula_units_Z 14
_cell_length_a 14.902917
_cell_length_b 27.947124
_cell_length_c 14.993322
_cell_angle_alpha 20.799108
_cell_angle_beta 159.755733
_cell_angle_gamma 159.231912
_cell_volume 676.612869
_symmetry_space_group_name_H-M "P -1"
_symmetry_group_IT_number 2
_symmetry_cell_setting 'triclinic'
loop_
_space_group_symop_operation_xyz
x,y,z
-x,-y,-z
loop_
_atom_site_type_symbol
_atom_site_label
_atom_site_fract_x
_atom_site_fract_y
_atom_site_fract_z
Si Si1 0.038846 0.604376 0.048118
Si Si2 0.870473 0.670681 0.127701
Si Si3 0.826707 0.852823 0.157182
Si Si4 0.160068 0.648976 0.825528
Si Si5 0.279172 0.210019 0.636217
Si Si6 0.786755 0.470169 0.223272
Si Si7 0.208321 0.992651 0.784797
O O1 0.383620 0.663429 0.253550
O O2 0.855567 0.432539 0.140776
O O3 0.963640 0.598009 0.092836
O O4 0.929302 0.712485 0.709126
O O5 0.811735 0.554915 0.192167
O O6 0.067627 0.638934 0.436872
O O7 0.553952 0.626406 0.949654
O O8 0.033075 0.836435 0.948074
O O9 0.821054 0.889483 0.193441
O O10 0.980682 0.743817 0.487625
O O11 0.490465 0.757006 0.977537
O O12 0.000000 0.000000 0.000000
O O13 0.000000 0.500000 0.000000
O O14 0.280675 0.122958 0.699292
O O15 0.000000 0.000000 0.500000
O O16 0.500000 0.000000 0.000000
#
# Coordination Sequence:
#
# PCOD9003447 Si02
#       7
#     2   2   2   2   2   2   2
#     4  12  24  40  70  96 124 168 231 266 327 392
#     4  10  21  39  58  84 126 159 203 260 320 372
#     4  12  26  45  69 103 141 178 221 287 350 397
#     4  12  23  45  71  96 134 176 225 279 332 405
#     4  12  24  42  66  95 131 172 220 276 325 405
#     4  10  21  37  60  88 118 160 206 264 311 380
#     4  12  25  41  64  93 130 172 213 264 329 400
#
# _framework density 20.691300999999999
#
# number of rings (size 3 to 8) (size 9 to 14) (size 15 to 20)
#    0.000    0.571    2.857    6.000    0.000    4.571 
#    0.000    0.000    0.000    0.000    0.000    0.000 
#    0.000    0.000    0.000    0.000    0.000    0.000 
#
# Total GULP energy -78283.834806 kJ/mol
# GULP energy per Si atom -5591.702486 kJ/mol
# Density = 2.064421 g / cm^3
# Si number density = 20.691301 Si / 1000 Ang^3
#
#
#
# Elastic Constant Matrix: (Units=GPa)
#
#
# Indices 1 2 3 4 5 6 
#
# 1 92.8505 14.1953 20.3060 4.1098 -12.8265 1.5434
# 2 14.1953 69.2468 29.9015 1.1657 -4.4323 4.5421
# 3 20.3060 29.9015 112.0808 12.0218 -10.4381 2.4618
# 4 4.1098 1.1657 12.0218 30.7654 4.3927 -3.5662
# 5 -12.8265 -4.4323 -10.4381 4.3927 34.9918 -11.8524
# 6 1.5434 4.5421 2.4618 -3.5662 -11.8524 46.8011
#
#
#
# Elastic Compliance Matrix: (Units=1/GPa)
#
#
# Indices 1 2 3 4 5 6 
#
# 1 0.011932 -0.001698 -0.001156 -0.001597 0.004284 0.000795
# 2 -0.001698 0.016678 -0.004273 0.001164 -0.000387 -0.001347
# 3 -0.001156 -0.004273 0.011011 -0.004376 0.002968 0.000292
# 4 -0.001597 0.001164 -0.004376 0.035362 -0.005701 0.001421
# 5 0.004284 -0.000387 0.002968 -0.005701 0.034418 0.008022
# 6 0.000795 -0.001347 0.000292 0.001421 0.008022 0.023596
#
#
# Mechanical properties :
#
#
# Convention : Reuss Voigt Hill
#
# Bulk Modulus (GPa) = 39.42136 44.77595 42.09865
# Shear Modulus (GPa) = 32.11177 36.49669 34.30423
#
# Velocity S-wave (km/s) = 3.94375 4.20440 4.07616
# Velocity P-wave (km/s) = 6.31118 6.72728 6.52255
#
# Compressibility (1/GPa) = 0.02536696
#
# Stress axis : x y z
#
# Youngs Moduli (GPa) = 83.81112 59.95784 90.81867
#
# Poissons Ratio (x) = 0.10180 0.10498
# Poissons Ratio (y) = 0.14230 0.38809
# Poissons Ratio (z) = 0.09688 0.25621
#
# Static dielectric constant tensor:
#      x y z
#    x 1.789380 -0.034170 -0.001620 
#    y -0.034170 1.724000 0.007170 
#    z -0.001620 0.007170 1.714870 
# 
# From -- ./inp_files/488246.got.cif
#   From: 2010.05.17/outbox.cif.g08.bks.cpg/sg2_245_cif.got.tgz:488246.got - 2010.06.03 11:33:40.
