data_PCOD9003531
_publ_section_title
;
Structure prediction by ZEFSAII (Michael W. Deem and Ramdas Pophale) SiO2 
 PCOD9003531
Probable space group: P -1
;
_chemical_formula_sum "Si O2"
_cell_formula_units_Z 15
_cell_length_a 22.322820
_cell_length_b 5.132606
_cell_length_c 5.036837
_cell_angle_alpha 82.678423
_cell_angle_beta 81.527732
_cell_angle_gamma 67.771426
_cell_volume 526.751114
_symmetry_space_group_name_H-M "P -1"
_symmetry_group_IT_number 2
_symmetry_cell_setting 'triclinic'
loop_
_space_group_symop_operation_xyz
x,y,z
-x,-y,-z
loop_
_atom_site_type_symbol
_atom_site_label
_atom_site_fract_x
_atom_site_fract_y
_atom_site_fract_z
Si Si1 0.443071 0.879422 0.504160
Si Si2 0.679527 0.662180 0.708042
Si Si3 0.164634 0.361513 0.167864
Si Si4 0.084655 0.144979 0.839991
Si Si5 0.500000 0.500000 0.000000
Si Si6 0.784775 0.278600 0.313000
Si Si7 0.708120 0.082827 0.978923
Si Si8 0.958442 0.247805 0.687956
O O1 0.446989 0.688741 0.781592
O O2 0.500000 0.000000 0.500000
O O3 0.375765 0.138436 0.472513
O O4 0.460309 0.707738 0.241427
O O5 0.667253 0.387394 0.849092
O O6 0.678354 0.854347 0.938952
O O7 0.747397 0.517506 0.521119
O O8 0.198483 0.552215 0.967974
O O9 0.110721 0.529431 0.397888
O O10 0.223062 0.062719 0.207199
O O11 0.116550 0.298017 0.998966
O O12 0.144738 0.957667 0.640217
O O13 0.065622 0.913524 0.046568
O O14 0.015726 0.346891 0.742893
O O15 0.734075 0.141945 0.240740
O O16 0.000000 0.000000 0.500000
#
# Coordination Sequence:
#
# PCOD9003531 Si02
#       8
#     2   2   2   2   1   2   2   2
#     4  11  27  52  84 122 168 218 269 338 400 485
#     4  12  29  45  80 112 150 204 255 309 395 468
#     4  10  21  44  65  95 144 186 244 321 378 455
#     4   9  21  38  60  92 136 177 246 305 380 450
#     4  10  26  50  80 120 166 212 268 326 402 474
#     4  10  24  46  69 101 148 193 245 324 379 460
#     4  11  26  46  67 110 147 192 252 312 380 466
#     4  10  21  37  60  93 131 188 239 308 381 459
#
# _framework density 28.476448000000001
#
# number of rings (size 3 to 8) (size 9 to 14) (size 15 to 20)
#    0.000    1.600    1.333    0.800   11.200    1.600 
#    0.000    0.000    0.000    0.000    0.000    0.000 
#    0.000    0.000    0.000    0.000    0.000    0.000 
#
# Total GULP energy -83766.333901 kJ/mol
# GULP energy per Si atom -5584.422260 kJ/mol
# Density = 2.841163 g / cm^3
# Si number density = 28.476448 Si / 1000 Ang^3
#
#
#
# Elastic Constant Matrix: (Units=GPa)
#
#
# Indices 1 2 3 4 5 6 
#
# 1 111.6919 55.1425 34.4519 6.9537 5.7008 -5.4020
# 2 55.1425 214.1179 59.1429 3.6398 15.2748 -34.9651
# 3 34.4519 59.1429 159.4090 30.8674 8.8416 -12.0963
# 4 6.9537 3.6398 30.8674 55.3953 -5.4789 17.3424
# 5 5.7008 15.2748 8.8416 -5.4789 50.3512 2.0155
# 6 -5.4020 -34.9651 -12.0963 17.3424 2.0155 61.8479
#
#
#
# Elastic Compliance Matrix: (Units=1/GPa)
#
#
# Indices 1 2 3 4 5 6 
#
# 1 0.010571 -0.002429 -0.001379 -0.000216 -0.000215 -0.000652
# 2 -0.002429 0.006341 -0.001386 -0.000531 -0.001595 0.003302
# 3 -0.001379 -0.001386 0.008360 -0.005254 -0.001553 0.002255
# 4 -0.000216 -0.000531 -0.005254 0.024013 0.004050 -0.008212
# 5 -0.000215 -0.001595 -0.001553 0.004050 0.021204 -0.003051
# 6 -0.000652 0.003302 0.002255 -0.008212 -0.003051 0.020822
#
#
# Mechanical properties :
#
#
# Convention : Reuss Voigt Hill
#
# Bulk Modulus (GPa) = 67.18555 86.96594 77.07575
# Shear Modulus (GPa) = 46.87832 55.95097 51.41464
#
# Velocity S-wave (km/s) = 4.06176 4.43743 4.25374
# Velocity P-wave (km/s) = 6.75587 7.54058 7.15898
#
# Compressibility (1/GPa) = 0.01488415
#
# Stress axis : x y z
#
# Youngs Moduli (GPa) = 94.60196 157.71215 119.61841
#
# Poissons Ratio (x) = 0.38305 0.16497
# Poissons Ratio (y) = 0.22977 0.16574
# Poissons Ratio (z) = 0.13047 0.21852
#
# Static dielectric constant tensor:
#      x y z
#    x 2.279650 -0.017100 -0.004300 
#    y -0.017100 2.317340 -0.067360 
#    z -0.004300 -0.067360 2.233540 
# 
# From -- ./inp_files/121657.got.cif
#   From: 2010.05.17/outbox.cif.g08.bks.cpg/sg2_61_cif.got.tgz:121657.got - 2010.06.03 11:33:40.
