data_PCOD9003271
_publ_section_title
;
Structure prediction by ZEFSAII (Michael W. Deem and Ramdas Pophale) SiO2 
 PCOD9003271
Probable space group: P -1
;
_chemical_formula_sum "Si O2"
_cell_formula_units_Z 16
_cell_length_a 11.086082
_cell_length_b 21.874155
_cell_length_c 21.293541
_cell_angle_alpha 18.984920
_cell_angle_beta 29.358300
_cell_angle_gamma 31.362095
_cell_volume 809.134411
_symmetry_space_group_name_H-M "P -1"
_symmetry_group_IT_number 2
_symmetry_cell_setting 'triclinic'
loop_
_space_group_symop_operation_xyz
x,y,z
-x,-y,-z
loop_
_atom_site_type_symbol
_atom_site_label
_atom_site_fract_x
_atom_site_fract_y
_atom_site_fract_z
Si Si1 0.421010 0.061522 0.341326
Si Si2 0.810667 0.864925 0.457669
Si Si3 0.780851 0.902818 0.223258
Si Si4 0.445949 0.595837 0.499475
Si Si5 0.870474 0.583007 0.806615
Si Si6 0.496714 0.024175 0.844172
Si Si7 0.149917 0.721249 0.326836
Si Si8 0.937863 0.147601 0.233567
O O1 0.262159 0.272660 0.219785
O O2 0.595306 0.989942 0.392261
O O3 0.602123 0.036695 0.223679
O O4 0.226399 0.915823 0.573807
O O5 0.745419 0.685266 0.700596
O O6 0.018145 0.771744 0.404345
O O7 0.904000 0.004859 0.329921
O O8 0.933162 0.731805 0.362581
O O9 0.604322 0.871961 0.275722
O O10 0.000000 0.000000 0.000000
O O11 0.500000 0.500000 0.500000
O O12 0.652881 0.473211 0.569598
O O13 0.165527 0.590621 0.655793
O O14 0.487158 0.812635 0.270922
O O15 0.853103 0.365761 0.038958
O O16 0.771605 0.897165 0.836281
O O17 0.306206 0.888078 0.081167
#
# Coordination Sequence:
#
# PCOD9003271 Si02
#       8
#     2   2   2   2   2   2   2   2
#     4  10  22  42  60  87 121 154 201 244 298 354
#     4  10  21  37  59  86 125 159 192 246 294 358
#     4   9  22  45  66  83 116 160 203 251 295 350
#     4  12  22  36  60  93 127 155 196 248 295 357
#     4  11  21  36  57  93 123 153 193 243 298 354
#     4  11  22  38  62  87 119 162 202 247 296 345
#     4  10  21  38  61  89 120 159 202 245 296 349
#     4  11  21  35  59  90 121 157 196 239 302 357
#
# _framework density 19.774218000000001
#
# number of rings (size 3 to 8) (size 9 to 14) (size 15 to 20)
#    0.000    1.500    5.000    1.500    1.750    4.000 
#    0.000    9.375    0.000    0.000    0.000    0.000 
#    0.000    0.000    0.000    0.000    0.000    0.000 
#
# Total GULP energy -89242.976178 kJ/mol
# GULP energy per Si atom -5577.686011 kJ/mol
# Density = 1.972921 g / cm^3
# Si number density = 19.774218 Si / 1000 Ang^3
#
#
#
# Elastic Constant Matrix: (Units=GPa)
#
#
# Indices 1 2 3 4 5 6 
#
# 1 67.9802 37.2419 12.9778 -4.3218 5.6211 -2.6634
# 2 37.2419 135.1538 40.9832 0.2385 11.5231 -9.0494
# 3 12.9778 40.9832 91.0747 -16.3029 8.9394 5.6411
# 4 -4.3218 0.2385 -16.3029 37.7092 -3.8032 10.4091
# 5 5.6211 11.5231 8.9394 -3.8032 18.0428 2.5760
# 6 -2.6634 -9.0494 5.6411 10.4091 2.5760 21.1702
#
#
#
# Elastic Compliance Matrix: (Units=1/GPa)
#
#
# Indices 1 2 3 4 5 6 
#
# 1 0.017564 -0.004816 0.000296 0.002182 -0.001974 -0.000760
# 2 -0.004816 0.011616 -0.005711 -0.006364 -0.005817 0.009718
# 3 0.000296 -0.005711 0.016112 0.010183 -0.000621 -0.011628
# 4 0.002182 -0.006364 0.010183 0.039365 0.010316 -0.025770
# 5 -0.001974 -0.005817 -0.000621 0.010316 0.064447 -0.015484
# 6 -0.000760 0.009718 -0.011628 -0.025770 -0.015484 0.068948
#
#
# Mechanical properties :
#
#
# Convention : Reuss Voigt Hill
#
# Bulk Modulus (GPa) = 40.27433 52.95715 46.61574
# Shear Modulus (GPa) = 20.26019 28.91817 24.58918
#
# Velocity S-wave (km/s) = 3.20437 3.82831 3.53015
# Velocity P-wave (km/s) = 5.83969 6.81031 6.34359
#
# Compressibility (1/GPa) = 0.02482971
#
# Stress axis : x y z
#
# Youngs Moduli (GPa) = 56.93378 86.09110 62.06704
#
# Poissons Ratio (x) = 0.41462 -0.01836
# Poissons Ratio (y) = 0.27420 0.35445
# Poissons Ratio (z) = -0.01685 0.49164
#
# Static dielectric constant tensor:
#      x y z
#    x 1.749380 -0.030220 0.013480 
#    y -0.030220 1.708680 0.020020 
#    z 0.013480 0.020020 1.677500 
# 
# From -- ./inp_files/425076.got.cif
#   From: 2010.05.17/outbox.cif.g08.bks.cpg/sg2_213_cif.got.tgz:425076.got - 2010.06.03 11:33:40.
