data_PCOD9003225
_publ_section_title
;
Structure prediction by ZEFSAII (Michael W. Deem and Ramdas Pophale) SiO2 
 PCOD9003225
Probable space group: P -1
;
_chemical_formula_sum "Si O2"
_cell_formula_units_Z 14
_cell_length_a 8.996214
_cell_length_b 20.571403
_cell_length_c 5.439421
_cell_angle_alpha 91.039762
_cell_angle_beta 78.083673
_cell_angle_gamma 141.017193
_cell_volume 602.820984
_symmetry_space_group_name_H-M "P -1"
_symmetry_group_IT_number 2
_symmetry_cell_setting 'triclinic'
loop_
_space_group_symop_operation_xyz
x,y,z
-x,-y,-z
loop_
_atom_site_type_symbol
_atom_site_label
_atom_site_fract_x
_atom_site_fract_y
_atom_site_fract_z
Si Si1 0.419297 0.815816 0.503647
Si Si2 0.324693 0.503875 0.578880
Si Si3 0.995029 0.684799 0.002415
Si Si4 0.455719 0.379506 0.983927
Si Si5 0.187760 0.032923 0.216365
Si Si6 0.738266 0.825025 0.121552
Si Si7 0.376467 0.895763 0.151741
O O1 0.673260 0.917488 0.570373
O O2 0.495457 0.778946 0.312133
O O3 0.326971 0.856509 0.443100
O O4 0.194319 0.720774 0.754725
O O5 0.500000 0.500000 0.500000
O O6 0.349570 0.543761 0.303609
O O7 0.070507 0.387301 0.760933
O O8 0.427915 0.580762 0.780111
O O9 0.133851 0.793243 0.081945
O O10 0.745820 0.629524 0.962493
O O11 0.322485 0.266707 0.957708
O O12 0.149561 0.092558 0.131273
O O13 0.403259 0.080751 0.968043
O O14 0.957174 0.906762 0.254822
O O15 0.500000 0.000000 0.000000
#
# Coordination Sequence:
#
# PCOD9003225 Si02
#       7
#     2   2   2   2   2   2   2
#     4  10  22  38  64  89 131 173 208 269 325 394
#     4  10  23  43  67  98 130 170 215 275 333 382
#     4  10  22  39  64  90 128 166 211 267 340 374
#     4  11  24  41  70 100 127 167 229 271 315 398
#     4   9  20  39  60  89 131 173 210 259 331 386
#     4  10  21  40  63  91 131 170 219 265 323 386
#     4  10  21  37  58  95 128 163 216 262 324 391
#
# _framework density 23.224143999999999
#
# number of rings (size 3 to 8) (size 9 to 14) (size 15 to 20)
#    0.000    2.000    0.000    3.000    8.000    2.286 
#    2.571    1.429    0.000    0.000    0.000    0.000 
#    0.000    0.000    0.000    0.000    0.000    0.000 
#
# Total GULP energy -77996.383171 kJ/mol
# GULP energy per Si atom -5571.170226 kJ/mol
# Density = 2.317129 g / cm^3
# Si number density = 23.224144 Si / 1000 Ang^3
#
#
#
# Elastic Constant Matrix: (Units=GPa)
#
#
# Indices 1 2 3 4 5 6 
#
# 1 36.6275 19.9175 14.2040 3.7194 -5.0584 -2.2814
# 2 19.9175 124.1960 33.4538 -3.7894 -9.1150 -8.6920
# 3 14.2040 33.4538 94.0238 2.8366 -11.2768 4.1343
# 4 3.7194 -3.7894 2.8366 35.8246 10.3120 -1.4853
# 5 -5.0584 -9.1150 -11.2768 10.3120 20.8038 -1.8877
# 6 -2.2814 -8.6920 4.1343 -1.4853 -1.8877 30.8443
#
#
#
# Elastic Compliance Matrix: (Units=1/GPa)
#
#
# Indices 1 2 3 4 5 6 
#
# 1 0.032174 -0.003990 -0.002414 -0.005734 0.007770 0.001778
# 2 -0.003990 0.009827 -0.002911 0.001428 0.001323 0.003014
# 3 -0.002414 -0.002911 0.013015 -0.003057 0.006482 -0.002494
# 4 -0.005734 0.001428 -0.003057 0.034542 -0.019469 0.000860
# 5 0.007770 0.001323 0.006482 -0.019469 0.063979 0.003057
# 6 0.001778 0.003014 -0.002494 0.000860 0.003057 0.033965
#
#
# Mechanical properties :
#
#
# Convention : Reuss Voigt Hill
#
# Bulk Modulus (GPa) = 27.48235 43.33310 35.40772
# Shear Modulus (GPa) = 22.90847 29.97935 26.44391
#
# Velocity S-wave (km/s) = 3.14412 3.59677 3.37803
# Velocity P-wave (km/s) = 5.00398 5.99567 5.52214
#
# Compressibility (1/GPa) = 0.03638699
#
# Stress axis : x y z
#
# Youngs Moduli (GPa) = 31.08122 101.75706 76.83314
#
# Poissons Ratio (x) = 0.40598 0.18549
# Poissons Ratio (y) = 0.12400 0.22364
# Poissons Ratio (z) = 0.07504 0.29619
#
# Static dielectric constant tensor:
#      x y z
#    x 1.967670 -0.016710 0.140530 
#    y -0.016710 1.903620 -0.054440 
#    z 0.140530 -0.054440 2.233420 
# 
# From -- ./inp_files/51350.got.cif
#   From: 2010.05.17/outbox.cif.g08.bks.cpg/sg2_26_cif.got.tgz:51350.got - 2010.06.03 11:33:40.
