data_PCOD9003132
_publ_section_title
;
Structure prediction by ZEFSAII (Michael W. Deem and Ramdas Pophale) SiO2 
 PCOD9003132
Probable space group: P -1
;
_chemical_formula_sum "Si O2"
_cell_formula_units_Z 8
_cell_length_a 13.714903
_cell_length_b 5.295324
_cell_length_c 5.177412
_cell_angle_alpha 120.887552
_cell_angle_beta 98.382273
_cell_angle_gamma 100.050819
_cell_volume 305.155492
_symmetry_space_group_name_H-M "P -1"
_symmetry_group_IT_number 2
_symmetry_cell_setting 'triclinic'
loop_
_space_group_symop_operation_xyz
x,y,z
-x,-y,-z
loop_
_atom_site_type_symbol
_atom_site_label
_atom_site_fract_x
_atom_site_fract_y
_atom_site_fract_z
Si Si1 0.805159 0.385932 0.593721
Si Si2 0.118360 0.202761 0.667142
Si Si3 0.616697 0.577935 0.477891
Si Si4 0.570796 0.118828 0.836874
O O1 0.852345 0.584994 0.463243
O O2 0.859963 0.573795 0.961474
O O3 0.818799 0.048401 0.417120
O O4 0.656655 0.940232 0.749222
O O5 0.000000 0.000000 0.500000
O O6 0.500000 0.500000 0.500000
O O7 0.687160 0.398130 0.547489
O O8 0.612596 0.476211 0.121716
O O9 0.500000 0.000000 0.500000
O O10 0.500000 0.000000 0.000000
#
# Coordination Sequence:
#
# PCOD9003132 Si02
#       4
#     2   2   2   2
#     4  12  26  45  74 107 139 185 234 283 354 422
#     4  12  26  49  74 104 139 180 234 299 354 412
#     4  10  23  41  63  97 139 181 224 277 333 410
#     4  10  21  37  58  84 124 178 222 265 321 382
#
# _framework density 26.216138000000001
#
# number of rings (size 3 to 8) (size 9 to 14) (size 15 to 20)
#    0.000    1.000    0.000    6.000    0.000   12.000 
#    0.000    0.000    0.000    0.000    0.000    0.000 
#    0.000    0.000    0.000    0.000    0.000    0.000 
#
# Total GULP energy -44810.426511 kJ/mol
# GULP energy per Si atom -5601.303314 kJ/mol
# Density = 2.615647 g / cm^3
# Si number density = 26.216138 Si / 1000 Ang^3
#
#
#
# Elastic Constant Matrix: (Units=GPa)
#
#
# Indices 1 2 3 4 5 6 
#
# 1 93.9495 25.3611 14.8660 0.2469 0.6027 -11.4528
# 2 25.3611 131.9928 58.5659 -8.4622 -26.2445 -16.0313
# 3 14.8660 58.5659 223.7849 11.9490 -23.9287 -11.2155
# 4 0.2469 -8.4622 11.9490 58.9261 -5.5573 -12.6307
# 5 0.6027 -26.2445 -23.9287 -5.5573 40.8900 23.0308
# 6 -11.4528 -16.0313 -11.2155 -12.6307 23.0308 72.2177
#
#
#
# Elastic Compliance Matrix: (Units=1/GPa)
#
#
# Indices 1 2 3 4 5 6 
#
# 1 0.011663 -0.002466 -0.000356 -0.000154 -0.003256 0.002258
# 2 -0.002466 0.010262 -0.002039 0.002474 0.005653 0.000200
# 3 -0.000356 -0.002039 0.005272 -0.001293 0.001900 -0.000523
# 4 -0.000154 0.002474 -0.001293 0.018390 0.001631 0.003020
# 5 -0.003256 0.005653 0.001900 0.001631 0.035011 -0.009847
# 6 0.002258 0.000200 -0.000523 0.003020 -0.009847 0.017837
#
#
# Mechanical properties :
#
#
# Convention : Reuss Voigt Hill
#
# Bulk Modulus (GPa) = 57.22917 71.92370 64.57643
# Shear Modulus (GPa) = 43.86690 57.80238 50.83464
#
# Velocity S-wave (km/s) = 4.09501 4.70067 4.40825
# Velocity P-wave (km/s) = 6.65101 7.54693 7.11309
#
# Compressibility (1/GPa) = 0.01747361
#
# Stress axis : x y z
#
# Youngs Moduli (GPa) = 85.74445 97.45046 189.68211
#
# Poissons Ratio (x) = 0.24029 0.06756
# Poissons Ratio (y) = 0.21142 0.38683
# Poissons Ratio (z) = 0.03054 0.19874
#
# Static dielectric constant tensor:
#      x y z
#    x 2.117870 -0.075030 0.029330 
#    y -0.075030 2.610700 -0.117600 
#    z 0.029330 -0.117600 2.119910 
# 
# From -- ./inp_files/1558.got.cif
#   From: 2010.05.17/outbox.cif.g08.bks.cpg/sg2_1_cif.got.tgz:1558.got - 2010.06.03 11:33:40.
