data_PCOD9003059
_publ_section_title
;
Structure prediction by ZEFSAII (Michael W. Deem and Ramdas Pophale) SiO2 
 PCOD9003059
Probable space group: P -1
;
_chemical_formula_sum "Si O2"
_cell_formula_units_Z 16
_cell_length_a 19.532919
_cell_length_b 7.270534
_cell_length_c 8.578709
_cell_angle_alpha 95.191193
_cell_angle_beta 127.610887
_cell_angle_gamma 54.982587
_cell_volume 724.300979
_symmetry_space_group_name_H-M "P -1"
_symmetry_group_IT_number 2
_symmetry_cell_setting 'triclinic'
loop_
_space_group_symop_operation_xyz
x,y,z
-x,-y,-z
loop_
_atom_site_type_symbol
_atom_site_label
_atom_site_fract_x
_atom_site_fract_y
_atom_site_fract_z
Si Si1 0.157593 0.347344 0.829233
Si Si2 0.282010 0.824662 0.961556
Si Si3 0.871261 0.309565 0.747049
Si Si4 0.519069 0.617100 0.396483
Si Si5 0.775692 0.754331 0.444094
Si Si6 0.043105 0.207401 0.212810
Si Si7 0.703873 0.537277 0.814557
Si Si8 0.378446 0.716592 0.770461
O O1 0.173497 0.344141 0.665857
O O2 0.042360 0.591983 0.759744
O O3 0.258300 0.323868 0.048621
O O4 0.175333 0.106149 0.872180
O O5 0.395753 0.788830 0.155035
O O6 0.289978 0.628668 0.057067
O O7 0.288183 0.779242 0.781396
O O8 0.791441 0.544920 0.544257
O O9 0.799482 0.357310 0.804398
O O10 0.920133 0.054617 0.721549
O O11 0.975128 0.287183 0.960504
O O12 0.500000 0.500000 0.500000
O O13 0.581402 0.701507 0.570647
O O14 0.611443 0.402982 0.387195
O O15 0.848825 0.809418 0.638919
O O16 0.651109 0.025949 0.277386
O O17 0.500000 0.500000 0.000000
#
# Coordination Sequence:
#
# PCOD9003059 Si02
#       8
#     2   2   2   2   2   2   2   2
#     4  10  23  37  57  88 115 156 203 242 295 353
#     4   9  20  39  60  82 117 158 198 242 296 354
#     4  10  23  38  59  92 119 154 201 246 301 351
#     4   9  18  34  60  86 113 154 192 237 299 348
#     4  11  22  39  64  88 119 159 199 244 298 357
#     4  10  22  40  58  85 123 158 199 248 296 351
#     4  10  21  37  57  85 121 154 197 252 293 347
#     4   9  19  38  63  89 116 152 196 240 293 354
#
# _framework density 22.090261999999999
#
# number of rings (size 3 to 8) (size 9 to 14) (size 15 to 20)
#    0.000    2.250    0.000    1.500    0.000   13.000 
#    0.000    2.500    0.000   18.750    0.000    0.000 
#    0.000    0.000    0.000    0.000    0.000    0.000 
#
# Total GULP energy -89283.593706 kJ/mol
# GULP energy per Si atom -5580.224607 kJ/mol
# Density = 2.203998 g / cm^3
# Si number density = 22.090262 Si / 1000 Ang^3
#
#
#
# Elastic Constant Matrix: (Units=GPa)
#
#
# Indices 1 2 3 4 5 6 
#
# 1 37.2737 32.3730 8.4798 0.6813 -10.7093 -12.8574
# 2 32.3730 146.1583 20.7668 -18.5254 -19.3872 -23.2358
# 3 8.4798 20.7668 68.7223 1.8855 -4.4256 -10.0766
# 4 0.6813 -18.5254 1.8855 35.6082 7.8162 -1.3070
# 5 -10.7093 -19.3872 -4.4256 7.8162 35.3410 2.1970
# 6 -12.8574 -23.2358 -10.0766 -1.3070 2.1970 14.3334
#
#
#
# Elastic Compliance Matrix: (Units=1/GPa)
#
#
# Indices 1 2 3 4 5 6 
#
# 1 0.044067 -0.004017 0.001230 -0.004069 0.010218 0.031944
# 2 -0.004017 0.011180 -0.000809 0.005874 0.002640 0.014083
# 3 0.001230 -0.000809 0.016386 -0.001256 0.001578 0.010955
# 4 -0.004069 0.005874 -0.001256 0.032929 -0.006005 0.008912
# 5 0.010218 0.002640 0.001578 -0.006005 0.033817 0.008823
# 6 0.031944 0.014083 0.010955 0.008912 0.008823 0.128413
#
#
# Mechanical properties :
#
#
# Convention : Reuss Voigt Hill
#
# Bulk Modulus (GPa) = 15.51811 41.71041 28.61426
# Shear Modulus (GPa) = 16.92245 29.75884 23.34064
#
# Velocity S-wave (km/s) = 2.77078 3.67433 3.25407
# Velocity P-wave (km/s) = 4.15649 6.07649 5.20577
#
# Compressibility (1/GPa) = 0.06444083
#
# Stress axis : x y z
#
# Youngs Moduli (GPa) = 22.69280 89.44458 61.02610
#
# Poissons Ratio (x) = 0.35932 -0.07506
# Poissons Ratio (y) = 0.09116 0.04937
# Poissons Ratio (z) = -0.02791 0.07236
#
# Static dielectric constant tensor:
#      x y z
#    x 1.806490 -0.019360 0.057600 
#    y -0.019360 1.797330 0.000670 
#    z 0.057600 0.000670 1.912890 
# 
# From -- ./inp_files/340508.got.cif
#   From: 2010.05.17/outbox.cif.g08.bks.cpg/sg2_171_cif.got.tgz:340508.got - 2010.06.03 11:33:40.
