data_PCOD9003303
_publ_section_title
;
Structure prediction by ZEFSAII (Michael W. Deem and Ramdas Pophale) SiO2 
 PCOD9003303
Probable space group: P -1
;
_chemical_formula_sum "Si O2"
_cell_formula_units_Z 16
_cell_length_a 10.922935
_cell_length_b 18.055338
_cell_length_c 9.406215
_cell_angle_alpha 149.121357
_cell_angle_beta 59.045118
_cell_angle_gamma 121.486125
_cell_volume 802.571734
_symmetry_space_group_name_H-M "P -1"
_symmetry_group_IT_number 2
_symmetry_cell_setting 'triclinic'
loop_
_space_group_symop_operation_xyz
x,y,z
-x,-y,-z
loop_
_atom_site_type_symbol
_atom_site_label
_atom_site_fract_x
_atom_site_fract_y
_atom_site_fract_z
Si Si1 0.218794 0.707868 0.701489
Si Si2 0.905945 0.620534 0.303127
Si Si3 0.496537 0.853210 0.669518
Si Si4 0.371103 0.420718 0.779997
Si Si5 0.316744 0.410659 0.120342
Si Si6 0.765259 0.019491 0.674779
Si Si7 0.076764 0.253266 0.188073
Si Si8 0.989924 0.938665 0.637425
O O1 0.328235 0.781208 0.630165
O O2 0.257695 0.551195 0.447309
O O3 0.052436 0.697918 0.744670
O O4 0.254802 0.820366 0.995502
O O5 0.743380 0.570866 0.259347
O O6 0.905859 0.654468 0.526238
O O7 0.963323 0.779343 0.459258
O O8 0.000000 0.500000 0.000000
O O9 0.560741 0.727609 0.508780
O O10 0.611397 0.909645 0.569982
O O11 0.500000 0.000000 0.000000
O O12 0.508466 0.554504 0.914684
O O13 0.292562 0.410480 0.964313
O O14 0.222045 0.280333 0.049992
O O15 0.871612 0.041370 0.515517
O O16 0.852952 0.957628 0.650195
O O17 0.021660 0.078680 0.953662
#
# Coordination Sequence:
#
# PCOD9003303 Si02
#       8
#     2   2   2   2   2   2   2   2
#     4   9  19  31  57  91 119 149 199 250 293 354
#     4  12  26  40  61  85 128 167 199 243 298 369
#     4   9  16  32  56  90 112 147 192 254 299 337
#     4  10  21  39  61  89 119 158 202 251 298 355
#     4  10  21  37  63  89 120 152 203 257 301 344
#     4   9  17  32  62  88 113 147 202 259 295 345
#     4  11  23  38  59  89 124 163 196 245 303 366
#     4  10  21  37  59  88 117 157 202 249 302 351
#
# _framework density 19.935912999999999
#
# number of rings (size 3 to 8) (size 9 to 14) (size 15 to 20)
#    0.000    2.000    1.250    2.250    5.250    0.500 
#    0.000    0.000    0.000    1.500    0.000    0.000 
#    0.000    0.000    0.000    0.000    0.000    0.000 
#
# Total GULP energy -89232.655306 kJ/mol
# GULP energy per Si atom -5577.040957 kJ/mol
# Density = 1.989054 g / cm^3
# Si number density = 19.935913 Si / 1000 Ang^3
#
#
#
# Elastic Constant Matrix: (Units=GPa)
#
#
# Indices 1 2 3 4 5 6 
#
# 1 43.1182 8.6695 12.8461 -3.2054 9.6612 14.1175
# 2 8.6695 70.9597 6.4497 1.3243 5.0578 21.3874
# 3 12.8461 6.4497 80.0767 -1.0646 -8.8337 -1.2433
# 4 -3.2054 1.3243 -1.0646 30.6563 -0.3929 -3.2750
# 5 9.6612 5.0578 -8.8337 -0.3929 30.7988 2.9682
# 6 14.1175 21.3874 -1.2433 -3.2750 2.9682 24.7165
#
#
#
# Elastic Compliance Matrix: (Units=1/GPa)
#
#
# Indices 1 2 3 4 5 6 
#
# 1 0.034418 0.003882 -0.007428 0.000684 -0.011442 -0.021926
# 2 0.003882 0.020136 -0.002974 -0.002720 -0.003511 -0.019729
# 3 -0.007428 -0.002974 0.014740 0.000681 0.006392 0.006880
# 4 0.000684 -0.002720 0.000681 0.033520 0.000237 0.006410
# 5 -0.011442 -0.003511 0.006392 0.000237 0.037954 0.005369
# 6 -0.021926 -0.019729 0.006880 0.006410 0.005369 0.070605
#
#
# Mechanical properties :
#
#
# Convention : Reuss Voigt Hill
#
# Bulk Modulus (GPa) = 17.77666 27.78725 22.78195
# Shear Modulus (GPa) = 20.56208 28.31359 24.43784
#
# Velocity S-wave (km/s) = 3.21504 3.77268 3.50497
# Velocity P-wave (km/s) = 4.76637 5.73987 5.27562
#
# Compressibility (1/GPa) = 0.05625355
#
# Stress axis : x y z
#
# Youngs Moduli (GPa) = 29.05436 49.66205 67.84191
#
# Poissons Ratio (x) = -0.19277 0.50391
# Poissons Ratio (y) = -0.11278 0.20178
# Poissons Ratio (z) = 0.21581 0.14771
#
# Static dielectric constant tensor:
#      x y z
#    x 1.688070 0.039790 -0.002610 
#    y 0.039790 1.744490 0.004910 
#    z -0.002610 0.004910 1.747170 
# 
# From -- ./inp_files/278577.got.cif
#   From: 2010.05.17/outbox.cif.g08.bks.cpg/sg2_140_cif.got.tgz:278577.got - 2010.06.03 11:33:40.
