data_PCOD9003916
_publ_section_title
;
Structure prediction by ZEFSAII (Michael W. Deem and Ramdas Pophale) SiO2 
 PCOD9003916
Probable space group: P -1
;
_chemical_formula_sum "Si O2"
_cell_formula_units_Z 14
_cell_length_a 9.625042
_cell_length_b 5.351034
_cell_length_c 12.295416
_cell_angle_alpha 73.998100
_cell_angle_beta 78.937295
_cell_angle_gamma 86.228370
_cell_volume 597.357738
_symmetry_space_group_name_H-M "P -1"
_symmetry_group_IT_number 2
_symmetry_cell_setting 'triclinic'
loop_
_space_group_symop_operation_xyz
x,y,z
-x,-y,-z
loop_
_atom_site_type_symbol
_atom_site_label
_atom_site_fract_x
_atom_site_fract_y
_atom_site_fract_z
Si Si1 0.438460 0.404594 0.905902
Si Si2 0.846454 0.515676 0.581414
Si Si3 0.073133 0.031079 0.366993
Si Si4 0.075247 0.025831 0.824952
Si Si5 0.606534 0.040786 0.197381
Si Si6 0.587403 0.762586 0.460348
Si Si7 0.882851 0.696597 0.030907
O O1 0.458008 0.673237 0.802961
O O2 0.275860 0.357008 0.964925
O O3 0.467779 0.138185 0.863532
O O4 0.500000 0.500000 0.000000
O O5 0.862879 0.681907 0.669167
O O6 0.731415 0.675793 0.510253
O O7 0.000000 0.500000 0.500000
O O8 0.816437 0.209253 0.636595
O O9 0.960099 0.007063 0.290404
O O10 0.000000 0.000000 0.500000
O O11 0.225515 0.901415 0.856791
O O12 0.103425 0.306355 0.838886
O O13 0.936045 0.943168 0.923255
O O14 0.615129 0.862445 0.323162
O O15 0.500000 0.500000 0.500000
O O16 0.500000 0.000000 0.500000
O O17 0.000000 0.500000 0.000000
#
# Coordination Sequence:
#
# PCOD9003916 Si02
#       7
#     2   2   2   2   2   2   2
#     4  11  24  44  68  98 135 173 225 286 346 415
#     4  10  22  42  65  95 135 172 223 279 339 394
#     4  10  21  37  63 100 134 170 218 277 340 400
#     4  10  22  39  69 100 132 179 225 284 343 416
#     4  11  23  44  72  93 130 190 227 268 355 414
#     4  12  26  47  69  99 143 185 238 285 333 429
#     4  10  21  42  65 100 132 170 231 284 341 405
#
# _framework density 23.436543
#
# number of rings (size 3 to 8) (size 9 to 14) (size 15 to 20)
#    0.000    1.429    1.429    3.857    2.000    3.429 
#    7.714    0.000    0.000    0.000    0.000    0.000 
#    0.000    0.000    0.000    0.000    0.000    0.000 
#
# Total GULP energy -77940.553351 kJ/mol
# GULP energy per Si atom -5567.182382 kJ/mol
# Density = 2.338320 g / cm^3
# Si number density = 23.436543 Si / 1000 Ang^3
#
#
#
# Elastic Constant Matrix: (Units=GPa)
#
#
# Indices 1 2 3 4 5 6 
#
# 1 77.5773 41.0184 30.5249 12.1632 17.3224 19.7548
# 2 41.0184 156.6698 28.0309 21.6690 11.0076 4.2818
# 3 30.5249 28.0309 89.3310 26.9052 26.2363 24.2959
# 4 12.1632 21.6690 26.9052 43.6775 11.3758 4.6860
# 5 17.3224 11.0076 26.2363 11.3758 38.8315 4.4836
# 6 19.7548 4.2818 24.2959 4.6860 4.4836 36.4640
#
#
#
# Elastic Compliance Matrix: (Units=1/GPa)
#
#
# Indices 1 2 3 4 5 6 
#
# 1 0.018879 -0.004086 -0.001318 -0.000137 -0.005387 -0.008190
# 2 -0.004086 0.007891 -0.001208 -0.002507 0.000870 0.002307
# 3 -0.001318 -0.001208 0.019786 -0.007787 -0.008976 -0.010223
# 4 -0.000137 -0.002507 -0.007787 0.029489 -0.002850 0.002118
# 5 -0.005387 0.000870 -0.008976 -0.002850 0.034237 0.004954
# 6 -0.008190 0.002307 -0.010223 0.002118 0.004954 0.037521
#
#
# Mechanical properties :
#
#
# Convention : Reuss Voigt Hill
#
# Bulk Modulus (GPa) = 30.00050 58.08073 44.04062
# Shear Modulus (GPa) = 29.04660 38.72820 33.88740
#
# Velocity S-wave (km/s) = 3.52429 4.06947 3.80665
# Velocity P-wave (km/s) = 5.42120 6.84958 6.17681
#
# Compressibility (1/GPa) = 0.03333277
#
# Stress axis : x y z
#
# Youngs Moduli (GPa) = 52.96800 126.72226 50.54143
#
# Poissons Ratio (x) = 0.51776 0.06662
# Poissons Ratio (y) = 0.21642 0.06104
# Poissons Ratio (z) = 0.06982 0.15306
#
# Static dielectric constant tensor:
#      x y z
#    x 1.842710 -0.015770 0.085900 
#    y -0.015770 2.136140 -0.045680 
#    z 0.085900 -0.045680 1.968900 
# 
# From -- ./inp_files/372980.got.cif
#   From: 2010.05.17/outbox.cif.g08.bks.cpg/sg2_187_cif.got.tgz:372980.got - 2010.06.03 11:33:40.
