data_PCOD9003000
_publ_section_title
;
Structure prediction by ZEFSAII (Michael W. Deem and Ramdas Pophale) SiO2 
 PCOD9003000
Probable space group: P -1
;
_chemical_formula_sum "Si O2"
_cell_formula_units_Z 16
_cell_length_a 7.294099
_cell_length_b 20.232227
_cell_length_c 9.657960
_cell_angle_alpha 146.084778
_cell_angle_beta 91.584909
_cell_angle_gamma 93.835459
_cell_volume 784.572649
_symmetry_space_group_name_H-M "P -1"
_symmetry_group_IT_number 2
_symmetry_cell_setting 'triclinic'
loop_
_space_group_symop_operation_xyz
x,y,z
-x,-y,-z
loop_
_atom_site_type_symbol
_atom_site_label
_atom_site_fract_x
_atom_site_fract_y
_atom_site_fract_z
Si Si1 0.263442 0.427949 0.509679
Si Si2 0.730884 0.654310 0.217447
Si Si3 0.627623 0.227566 0.583703
Si Si4 0.396792 0.033992 0.917929
Si Si5 0.150085 0.535103 0.943581
Si Si6 0.293082 0.761737 0.722483
Si Si7 0.885617 0.802713 0.734649
Si Si8 0.697140 0.512845 0.693482
O O1 0.120045 0.485714 0.703145
O O2 0.240914 0.295226 0.341404
O O3 0.470780 0.500949 0.665130
O O4 0.227664 0.430767 0.351842
O O5 0.565159 0.727635 0.310456
O O6 0.692790 0.538861 0.119753
O O7 0.867438 0.747326 0.481543
O O8 0.773910 0.594447 0.968299
O O9 0.636942 0.090699 0.381653
O O10 0.651658 0.246275 0.451545
O O11 0.786809 0.324688 0.819655
O O12 0.543797 0.140777 0.039871
O O13 0.209149 0.079961 0.043094
O O14 0.500000 0.000000 0.000000
O O15 0.000000 0.500000 0.000000
O O16 0.276154 0.626579 0.541746
O O17 0.096209 0.808806 0.799203
#
# Coordination Sequence:
#
# PCOD9003000 Si02
#       8
#     2   2   2   2   2   2   2   2
#     4  10  22  37  60  89 122 159 200 241 315 365
#     4  11  20  34  57  85 117 154 192 249 303 346
#     4  11  19  35  58  85 120 154 198 251 290 354
#     4  10  21  37  56  87 121 156 205 254 293 350
#     4  11  21  36  57  91 124 152 193 253 306 357
#     4  11  21  37  59  85 123 160 194 251 310 348
#     4  11  22  38  60  88 120 156 203 253 297 364
#     4  11  21  37  61  87 125 159 197 249 304 377
#
# _framework density 20.393267000000002
#
# number of rings (size 3 to 8) (size 9 to 14) (size 15 to 20)
#    0.000    1.250    6.250    2.625    0.000    2.500 
#    2.250    0.000    0.000    3.000    0.000    1.750 
#    0.000    0.000    0.000    0.000    0.000    0.000 
#
# Total GULP energy -89217.232034 kJ/mol
# GULP energy per Si atom -5576.077002 kJ/mol
# Density = 2.034685 g / cm^3
# Si number density = 20.393267 Si / 1000 Ang^3
#
#
#
# Elastic Constant Matrix: (Units=GPa)
#
#
# Indices 1 2 3 4 5 6 
#
# 1 88.6553 13.7436 41.6386 10.7596 -16.3569 -6.8337
# 2 13.7436 64.6916 50.6567 -9.3100 -15.6995 -1.2665
# 3 41.6386 50.6567 120.0396 18.8103 -13.6061 -3.7309
# 4 10.7596 -9.3100 18.8103 44.6628 -2.3987 -6.6604
# 5 -16.3569 -15.6995 -13.6061 -2.3987 34.6880 4.5973
# 6 -6.8337 -1.2665 -3.7309 -6.6604 4.5973 21.2377
#
#
#
# Elastic Compliance Matrix: (Units=1/GPa)
#
#
# Indices 1 2 3 4 5 6 
#
# 1 0.014685 0.002562 -0.005458 -0.000001 0.005584 0.002710
# 2 0.002562 0.030677 -0.014645 0.012768 0.009976 0.001926
# 3 -0.005458 -0.014645 0.017532 -0.009560 -0.002726 -0.001958
# 4 -0.000001 0.012768 -0.009560 0.030430 0.003078 0.007959
# 5 0.005584 0.009976 -0.002726 0.003078 0.035765 -0.004864
# 6 0.002710 0.001926 -0.001958 0.007959 -0.004864 0.051278
#
#
# Mechanical properties :
#
#
# Convention : Reuss Voigt Hill
#
# Bulk Modulus (GPa) = 35.95384 53.94047 44.94715
# Shear Modulus (GPa) = 22.24996 31.27422 26.76209
#
# Velocity S-wave (km/s) = 3.30668 3.92031 3.62650
# Velocity P-wave (km/s) = 5.67868 6.85561 6.29471
#
# Compressibility (1/GPa) = 0.02781344
#
# Stress axis : x y z
#
# Youngs Moduli (GPa) = 68.09637 32.59721 57.03863
#
# Poissons Ratio (x) = -0.08351 0.31129
# Poissons Ratio (y) = -0.17445 0.83532
# Poissons Ratio (z) = 0.37164 0.47738
#
# Static dielectric constant tensor:
#      x y z
#    x 1.916690 -0.021280 0.007350 
#    y -0.021280 1.711920 0.041970 
#    z 0.007350 0.041970 1.785220 
# 
# From -- ./inp_files/213559.got.cif
#   From: 2010.05.17/outbox.cif.g08.bks.cpg/sg2_107_cif.got.tgz:213559.got - 2010.06.03 11:33:40.
