data_PCOD9003937
_publ_section_title
;
Structure prediction by ZEFSAII (Michael W. Deem and Ramdas Pophale) SiO2 
 PCOD9003937
Probable space group: P -1
;
_chemical_formula_sum "Si O2"
_cell_formula_units_Z 16
_cell_length_a 5.185493
_cell_length_b 20.008059
_cell_length_c 8.782805
_cell_angle_alpha 90.151827
_cell_angle_beta 118.878633
_cell_angle_gamma 63.960168
_cell_volume 691.066582
_symmetry_space_group_name_H-M "P -1"
_symmetry_group_IT_number 2
_symmetry_cell_setting 'triclinic'
loop_
_space_group_symop_operation_xyz
x,y,z
-x,-y,-z
loop_
_atom_site_type_symbol
_atom_site_label
_atom_site_fract_x
_atom_site_fract_y
_atom_site_fract_z
Si Si1 0.809784 0.146022 0.951745
Si Si2 0.814953 0.955031 0.205472
Si Si3 0.221621 0.563333 0.036498
Si Si4 0.632705 0.591292 0.344768
Si Si5 0.190016 0.459071 0.298043
Si Si6 0.147324 0.807069 0.490656
Si Si7 0.286498 0.271147 0.604906
Si Si8 0.566447 0.116824 0.197944
O O1 0.704473 0.119168 0.070785
O O2 0.163101 0.146309 0.078958
O O3 0.497406 0.227900 0.815314
O O4 0.878330 0.088490 0.827960
O O5 0.861307 0.884600 0.323115
O O6 0.765936 0.025858 0.294359
O O7 0.500000 0.000000 0.000000
O O8 0.312094 0.623854 0.138184
O O9 0.214096 0.515424 0.181763
O O10 0.500000 0.500000 0.000000
O O11 0.889335 0.594739 0.835240
O O12 0.537671 0.582828 0.491231
O O13 0.821388 0.640221 0.409187
O O14 0.878478 0.512726 0.323329
O O15 0.433661 0.758838 0.448162
O O16 0.322073 0.835150 0.663514
O O17 0.983115 0.756755 0.500940
#
# Coordination Sequence:
#
# PCOD9003937 Si02
#       8
#     2   2   2   2   2   2   2   2
#     4  10  21  39  61  87 124 157 209 249 312 385
#     4   9  19  37  64  89 116 161 207 257 314 368
#     4   9  18  36  60  92 119 149 192 265 311 364
#     4  10  21  37  63  86 120 168 207 253 324 365
#     4   9  19  38  62  92 122 146 214 265 304 372
#     4  11  24  41  59  90 129 156 212 258 306 376
#     4  11  24  43  60  86 125 175 201 248 310 386
#     4  11  21  39  63  91 119 159 205 268 314 352
#
# _framework density 23.152619999999999
#
# number of rings (size 3 to 8) (size 9 to 14) (size 15 to 20)
#    0.000    2.000    0.000    4.125    1.750    3.000 
#    4.500    7.500    0.000    0.000    0.000    0.000 
#    0.000    0.000    0.000    0.000    0.000    0.000 
#
# Total GULP energy -89189.034887 kJ/mol
# GULP energy per Si atom -5574.314680 kJ/mol
# Density = 2.309992 g / cm^3
# Si number density = 23.152620 Si / 1000 Ang^3
#
#
#
# Elastic Constant Matrix: (Units=GPa)
#
#
# Indices 1 2 3 4 5 6 
#
# 1 102.1616 11.9822 25.0198 5.4152 14.3920 13.2207
# 2 11.9822 67.0833 27.6003 15.6051 13.8836 23.3991
# 3 25.0198 27.6003 104.6589 30.8114 13.7579 9.8264
# 4 5.4152 15.6051 30.8114 21.2015 12.8318 12.6450
# 5 14.3920 13.8836 13.7579 12.8318 31.0170 8.1153
# 6 13.2207 23.3991 9.8264 12.6450 8.1153 22.9077
#
#
#
# Elastic Compliance Matrix: (Units=1/GPa)
#
#
# Indices 1 2 3 4 5 6 
#
# 1 0.013224 0.003173 -0.006861 0.018138 -0.008070 -0.015083
# 2 0.003173 0.026677 -0.008132 0.014419 -0.007707 -0.030821
# 3 -0.006861 -0.008132 0.023633 -0.047026 0.009310 0.024788
# 4 0.018138 0.014419 -0.047026 0.180709 -0.045582 -0.088627
# 5 -0.008070 -0.007707 0.009310 -0.045582 0.049979 0.015993
# 6 -0.015083 -0.030821 0.024788 -0.088627 0.015993 0.116464
#
#
# Mechanical properties :
#
#
# Convention : Reuss Voigt Hill
#
# Bulk Modulus (GPa) = 25.06614 44.78983 34.92799
# Shear Modulus (GPa) = 11.17011 28.97868 20.07439
#
# Velocity S-wave (km/s) = 2.19887 3.54169 2.94776
# Velocity P-wave (km/s) = 4.15893 6.00934 5.16763
#
# Compressibility (1/GPa) = 0.03989446
#
# Stress axis : x y z
#
# Youngs Moduli (GPa) = 75.62094 37.48486 42.31438
#
# Poissons Ratio (x) = -0.11893 0.29031
# Poissons Ratio (y) = -0.23992 0.34409
# Poissons Ratio (z) = 0.51881 0.30481
#
# Static dielectric constant tensor:
#      x y z
#    x 1.916200 0.015230 0.108650 
#    y 0.015230 1.956590 -0.047880 
#    z 0.108650 -0.047880 1.988500 
# 
# From -- ./inp_files/141429.got.cif
#   From: 2010.05.17/outbox.cif.g08.bks.cpg/sg2_71_cif.got.tgz:141429.got - 2010.06.03 11:33:40.
