data_PCOD9003879
_publ_section_title
;
Structure prediction by ZEFSAII (Michael W. Deem and Ramdas Pophale) SiO2 
 PCOD9003879
Probable space group: P -1
;
_chemical_formula_sum "Si O2"
_cell_formula_units_Z 14
_cell_length_a 13.125750
_cell_length_b 20.220307
_cell_length_c 12.036353
_cell_angle_alpha 148.683284
_cell_angle_beta 148.712681
_cell_angle_gamma 21.872689
_cell_volume 586.268143
_symmetry_space_group_name_H-M "P -1"
_symmetry_group_IT_number 2
_symmetry_cell_setting 'triclinic'
loop_
_space_group_symop_operation_xyz
x,y,z
-x,-y,-z
loop_
_atom_site_type_symbol
_atom_site_label
_atom_site_fract_x
_atom_site_fract_y
_atom_site_fract_z
Si Si1 0.463176 0.855699 0.206741
Si Si2 0.252078 0.394454 0.674407
Si Si3 0.455668 0.586780 0.463694
Si Si4 0.352323 0.015605 0.608911
Si Si5 0.878723 0.200136 0.287611
Si Si6 0.479217 0.871055 0.877570
Si Si7 0.019482 0.721396 0.058574
O O1 0.699633 0.694515 0.285200
O O2 0.544646 0.939864 0.331973
O O3 0.372659 0.783680 0.937661
O O4 0.159595 0.025019 0.228864
O O5 0.000000 0.500000 0.500000
O O6 0.219487 0.557938 0.917448
O O7 0.502715 0.192576 0.556601
O O8 0.500000 0.500000 0.500000
O O9 0.748278 0.393239 0.399296
O O10 0.476666 0.726199 0.696137
O O11 0.205797 0.657078 0.249776
O O12 0.017154 0.150061 0.466574
O O13 0.425069 0.069635 0.857445
O O14 0.739891 0.763286 0.877225
O O15 0.151424 0.067658 0.825792
#
# Coordination Sequence:
#
# PCOD9003879 Si02
#       7
#     2   2   2   2   2   2   2
#     4  10  22  40  65  94 134 163 215 280 323 383
#     4  11  21  41  70  93 130 173 219 268 328 388
#     4  12  25  42  70  98 133 174 225 273 330 398
#     4  11  23  41  67  99 127 170 218 276 330 385
#     4  10  21  37  62  95 128 164 209 269 327 379
#     4  11  26  43  70  94 137 178 219 270 338 391
#     4  11  25  47  65  98 135 179 221 272 326 399
#
# _framework density 23.879857999999999
#
# number of rings (size 3 to 8) (size 9 to 14) (size 15 to 20)
#    0.000    1.143    2.857    3.857    4.000    1.143 
#    0.000    0.000    0.000   15.429    0.000    0.000 
#    0.000    0.000    0.000    0.000    0.000    0.000 
#
# Total GULP energy -77981.055903 kJ/mol
# GULP energy per Si atom -5570.075422 kJ/mol
# Density = 2.382551 g / cm^3
# Si number density = 23.879858 Si / 1000 Ang^3
#
#
#
# Elastic Constant Matrix: (Units=GPa)
#
#
# Indices 1 2 3 4 5 6 
#
# 1 24.1415 10.9355 28.5615 -3.8276 6.7866 7.8626
# 2 10.9355 219.5275 80.1017 5.0888 -2.1345 13.3658
# 3 28.5615 80.1017 184.3603 -2.9163 -12.2057 11.4410
# 4 -3.8276 5.0888 -2.9163 57.9136 13.0437 -3.2214
# 5 6.7866 -2.1345 -12.2057 13.0437 33.9267 0.2397
# 6 7.8626 13.3658 11.4410 -3.2214 0.2397 18.7692
#
#
#
# Elastic Compliance Matrix: (Units=1/GPa)
#
#
# Indices 1 2 3 4 5 6 
#
# 1 0.067342 0.001598 -0.011019 0.007060 -0.019900 -0.021165
# 2 0.001598 0.005601 -0.002534 -0.000547 -0.000646 -0.003199
# 3 -0.011019 -0.002534 0.008525 -0.001286 0.005600 0.000932
# 4 0.007060 -0.000547 -0.001286 0.019978 -0.009603 0.001767
# 5 -0.019900 -0.000646 0.005600 -0.009603 0.039099 0.003236
# 6 -0.021165 -0.003199 0.000932 0.001767 0.003236 0.064117
#
#
# Mechanical properties :
#
#
# Convention : Reuss Voigt Hill
#
# Bulk Modulus (GPa) = 17.37406 74.13632 45.75519
# Shear Modulus (GPa) = 20.18083 42.68395 31.43239
#
# Velocity S-wave (km/s) = 2.91021 4.23241 3.63198
# Velocity P-wave (km/s) = 4.31090 7.41602 6.06552
#
# Compressibility (1/GPa) = 0.05755709
#
# Stress axis : x y z
#
# Youngs Moduli (GPa) = 14.84949 178.52409 117.30346
#
# Poissons Ratio (x) = -0.28522 1.29260
# Poissons Ratio (y) = -0.02372 0.29727
# Poissons Ratio (z) = 0.16363 0.45241
#
# Static dielectric constant tensor:
#      x y z
#    x 2.014740 -0.065810 -0.124920 
#    y -0.065810 1.951750 0.048410 
#    z -0.124920 0.048410 1.990060 
# 
# From -- ./inp_files/457776.got.cif
#   From: 2010.05.17/outbox.cif.g08.bks.cpg/sg2_229_cif.got.tgz:457776.got - 2010.06.03 11:33:40.
