data_PCOD9003732
_publ_section_title
;
Structure prediction by ZEFSAII (Michael W. Deem and Ramdas Pophale) SiO2 
 PCOD9003732
Probable space group: P -1
;
_chemical_formula_sum "Si O2"
_cell_formula_units_Z 14
_cell_length_a 8.651237
_cell_length_b 13.851658
_cell_length_c 26.913732
_cell_angle_alpha 157.685958
_cell_angle_beta 33.902246
_cell_angle_gamma 140.587793
_cell_volume 682.851536
_symmetry_space_group_name_H-M "P -1"
_symmetry_group_IT_number 2
_symmetry_cell_setting 'triclinic'
loop_
_space_group_symop_operation_xyz
x,y,z
-x,-y,-z
loop_
_atom_site_type_symbol
_atom_site_label
_atom_site_fract_x
_atom_site_fract_y
_atom_site_fract_z
Si Si1 0.948912 0.010657 0.850977
Si Si2 0.417155 0.655080 0.837565
Si Si3 0.814342 0.224015 0.537558
Si Si4 0.746649 0.355505 0.341379
Si Si5 0.842230 0.225758 0.416167
Si Si6 0.824347 0.816721 0.423778
Si Si7 0.160971 0.737034 0.837787
O O1 0.694991 0.827925 0.850381
O O2 0.195435 0.903591 0.767677
O O3 0.025017 0.954981 0.747194
O O4 0.828250 0.278670 0.027438
O O5 0.524174 0.371778 0.681447
O O6 0.328147 0.733757 0.843022
O O7 0.891185 0.165180 0.432104
O O8 0.008725 0.433740 0.613938
O O9 0.820848 0.971277 0.447293
O O10 0.500000 0.500000 0.500000
O O11 0.492996 0.770395 0.502047
O O12 0.693112 0.289662 0.267161
O O13 0.000000 0.500000 0.500000
O O14 0.977119 0.546010 0.254728
O O15 0.000000 0.000000 0.500000
O O16 0.000000 0.000000 0.000000
#
# Coordination Sequence:
#
# PCOD9003732 Si02
#       7
#     2   2   2   2   2   2   2
#     4  10  21  37  61  98 133 173 224 293 330 394
#     4  10  21  39  64  95 136 169 230 273 351 401
#     4  11  24  41  68  97 137 183 225 283 349 412
#     4  11  22  36  63 103 135 174 235 288 334 399
#     4  12  22  41  69 103 130 181 243 277 329 417
#     4  12  26  44  69 103 145 181 224 291 360 406
#     4  12  23  40  67  98 130 184 232 277 334 417
#
# _framework density 20.50226
#
# number of rings (size 3 to 8) (size 9 to 14) (size 15 to 20)
#    0.000    0.857    7.143    1.286    2.000    0.000 
#    0.000    0.714    0.000    1.714    0.000    0.000 
#    0.000    0.000    0.000    0.000    0.000    0.000 
#
# Total GULP energy -77945.262670 kJ/mol
# GULP energy per Si atom -5567.518762 kJ/mol
# Density = 2.045560 g / cm^3
# Si number density = 20.502260 Si / 1000 Ang^3
#
#
#
# Elastic Constant Matrix: (Units=GPa)
#
#
# Indices 1 2 3 4 5 6 
#
# 1 85.0231 36.1114 32.1179 -4.8148 0.5688 -6.1423
# 2 36.1114 103.5383 67.5330 -2.1139 0.5495 -31.6691
# 3 32.1179 67.5330 143.2545 -5.3487 -0.8173 -32.2732
# 4 -4.8148 -2.1139 -5.3487 46.8546 -10.8354 8.2868
# 5 0.5688 0.5495 -0.8173 -10.8354 23.5154 -1.1171
# 6 -6.1423 -31.6691 -32.2732 8.2868 -1.1171 49.7285
#
#
#
# Elastic Compliance Matrix: (Units=1/GPa)
#
#
# Indices 1 2 3 4 5 6 
#
# 1 0.014233 -0.004740 -0.001449 0.001596 0.000335 -0.002460
# 2 -0.004740 0.016954 -0.005434 -0.001798 -0.000968 0.006963
# 3 -0.001449 -0.005434 0.010607 0.000460 0.000894 0.003188
# 4 0.001596 -0.001798 0.000460 0.024888 0.011272 -0.004544
# 5 0.000335 -0.000968 0.000894 0.011272 0.047727 -0.000801
# 6 -0.002460 0.006963 0.003188 -0.004544 -0.000801 0.027048
#
#
# Mechanical properties :
#
#
# Convention : Reuss Voigt Hill
#
# Bulk Modulus (GPa) = 53.91373 67.03783 60.47578
# Shear Modulus (GPa) = 29.25940 37.08994 33.17467
#
# Velocity S-wave (km/s) = 3.78184 4.25793 4.02692
# Velocity P-wave (km/s) = 6.73968 7.54599 7.15420
#
# Compressibility (1/GPa) = 0.01854815
#
# Stress axis : x y z
#
# Youngs Moduli (GPa) = 70.26099 58.98379 94.27337
#
# Poissons Ratio (x) = 0.27961 0.13659
# Poissons Ratio (y) = 0.33307 0.51224
# Poissons Ratio (z) = 0.10180 0.32049
#
# Static dielectric constant tensor:
#      x y z
#    x 1.891960 0.042790 0.066860 
#    y 0.042790 1.747090 0.020520 
#    z 0.066860 0.020520 1.825570 
# 
# From -- ./inp_files/607642.got.cif
#   From: 2010.05.17/outbox.cif.g08.bks.cpg/sg2_304_cif.got.tgz:607642.got - 2010.06.03 11:33:40.
