data_PCOD9003455
_publ_section_title
;
Structure prediction by ZEFSAII (Michael W. Deem and Ramdas Pophale) SiO2 
 PCOD9003455
Probable space group: P -1
;
_chemical_formula_sum "Si O2"
_cell_formula_units_Z 15
_cell_length_a 12.198487
_cell_length_b 8.083896
_cell_length_c 8.831729
_cell_angle_alpha 59.082700
_cell_angle_beta 64.849130
_cell_angle_gamma 62.987758
_cell_volume 644.388125
_symmetry_space_group_name_H-M "P -1"
_symmetry_group_IT_number 2
_symmetry_cell_setting 'triclinic'
loop_
_space_group_symop_operation_xyz
x,y,z
-x,-y,-z
loop_
_atom_site_type_symbol
_atom_site_label
_atom_site_fract_x
_atom_site_fract_y
_atom_site_fract_z
Si Si1 0.177379 0.226003 0.037263
Si Si2 0.367121 0.816961 0.253379
Si Si3 0.952130 0.236504 0.371244
Si Si4 0.737540 0.436968 0.777133
Si Si5 0.705783 0.207100 0.373903
Si Si6 0.851268 0.019675 0.093134
Si Si7 0.381665 0.407920 0.936270
Si Si8 0.000000 0.500000 0.500000
O O1 0.039520 0.275141 0.167447
O O2 0.263779 0.018952 0.161597
O O3 0.249875 0.382269 0.965532
O O4 0.169689 0.170920 0.892125
O O5 0.318468 0.631287 0.309254
O O6 0.374708 0.840431 0.418313
O O7 0.501549 0.769782 0.112731
O O8 0.969166 0.363141 0.445485
O O9 0.811962 0.276190 0.370577
O O10 0.000000 0.000000 0.500000
O O11 0.856681 0.518978 0.647431
O O12 0.785269 0.228062 0.945437
O O13 0.630183 0.579636 0.881898
O O14 0.791627 0.039076 0.286558
O O15 0.617000 0.383223 0.240105
O O16 0.000000 0.000000 0.000000
#
# Coordination Sequence:
#
# PCOD9003455 Si02
#       8
#     2   2   2   2   2   2   2   1
#     4  11  22  40  64  91 120 169 214 259 321 385
#     4  11  22  43  64  84 124 175 214 253 317 385
#     4  12  22  41  66  96 132 163 210 267 327 384
#     4  10  22  38  62  90 119 166 206 257 317 384
#     4  11  23  39  63  92 123 169 207 263 330 371
#     4  10  21  37  60  88 127 160 196 258 336 381
#     4  11  24  41  59  92 128 162 213 267 311 384
#     4  12  22  38  66 100 126 154 220 266 314 380
#
# _framework density 23.277896999999999
#
# number of rings (size 3 to 8) (size 9 to 14) (size 15 to 20)
#    0.000    1.067    5.333    2.000    0.000    1.600 
#    0.000    0.667    0.000    0.000    0.000    0.000 
#    0.000    0.000    0.000    0.000    0.000    0.000 
#
# Total GULP energy -83608.871340 kJ/mol
# GULP energy per Si atom -5573.924756 kJ/mol
# Density = 2.322492 g / cm^3
# Si number density = 23.277897 Si / 1000 Ang^3
#
#
#
# Elastic Constant Matrix: (Units=GPa)
#
#
# Indices 1 2 3 4 5 6 
#
# 1 44.2471 0.8305 11.6250 6.6981 5.2007 12.8883
# 2 0.8305 51.9053 45.0254 28.3401 19.5819 5.6207
# 3 11.6250 45.0254 123.4662 55.4608 6.8778 3.0590
# 4 6.6981 28.3401 55.4608 46.8983 9.4088 4.0954
# 5 5.2007 19.5819 6.8778 9.4088 35.4395 19.7657
# 6 12.8883 5.6207 3.0590 4.0954 19.7657 40.7439
#
#
#
# Elastic Compliance Matrix: (Units=1/GPa)
#
#
# Indices 1 2 3 4 5 6 
#
# 1 0.026017 0.004281 -0.002806 -0.002169 -0.000525 -0.008137
# 2 0.004281 0.040445 -0.009729 -0.009707 -0.021380 0.005144
# 3 -0.002806 -0.009729 0.019907 -0.018666 0.007435 -0.000995
# 4 -0.002169 -0.009707 -0.018666 0.050402 -0.004335 0.000464
# 5 -0.000525 -0.021380 0.007435 -0.004335 0.052296 -0.022377
# 6 -0.008137 0.005144 -0.000995 0.000464 -0.022377 0.037292
#
#
# Mechanical properties :
#
#
# Convention : Reuss Voigt Hill
#
# Bulk Modulus (GPa) = 14.31383 37.17561 25.74472
# Shear Modulus (GPa) = 18.78617 35.42552 27.10584
#
# Velocity S-wave (km/s) = 2.84393 3.90532 3.41610
# Velocity P-wave (km/s) = 4.11659 6.02830 5.16172
#
# Compressibility (1/GPa) = 0.06986252
#
# Stress axis : x y z
#
# Youngs Moduli (GPa) = 38.43581 24.72472 50.23428
#
# Poissons Ratio (x) = -0.10584 0.14094
# Poissons Ratio (y) = -0.16454 0.48871
# Poissons Ratio (z) = 0.10784 0.24054
#
# Static dielectric constant tensor:
#      x y z
#    x 1.861570 -0.004820 0.010280 
#    y -0.004820 1.913080 -0.009750 
#    z 0.010280 -0.009750 1.943230 
# 
# From -- ./inp_files/168483.got.cif
#   From: 2010.05.17/outbox.cif.g08.bks.cpg/sg2_85_cif.got.tgz:168483.got - 2010.06.03 11:33:40.
