data_PCOD9003451
_publ_section_title
;
Structure prediction by ZEFSAII (Michael W. Deem and Ramdas Pophale) SiO2 
 PCOD9003451
Probable space group: P -1
;
_chemical_formula_sum "Si O2"
_cell_formula_units_Z 14
_cell_length_a 6.965510
_cell_length_b 12.109304
_cell_length_c 10.697720
_cell_angle_alpha 124.587015
_cell_angle_beta 80.363087
_cell_angle_gamma 129.979176
_cell_volume 540.670082
_symmetry_space_group_name_H-M "P -1"
_symmetry_group_IT_number 2
_symmetry_cell_setting 'triclinic'
loop_
_space_group_symop_operation_xyz
x,y,z
-x,-y,-z
loop_
_atom_site_type_symbol
_atom_site_label
_atom_site_fract_x
_atom_site_fract_y
_atom_site_fract_z
Si Si1 0.611714 0.377650 0.793799
Si Si2 0.091901 0.790326 0.082879
Si Si3 0.492060 0.726439 0.992127
Si Si4 0.932986 0.252027 0.390151
Si Si5 0.417606 0.657222 0.504266
Si Si6 0.165240 0.117028 0.184962
Si Si7 0.990918 0.687730 0.295575
O O1 0.486562 0.328624 0.638356
O O2 0.827200 0.593892 0.934879
O O3 0.788005 0.325793 0.736209
O O4 0.441720 0.277790 0.873338
O O5 0.325139 0.787973 0.041862
O O6 0.058501 0.807222 0.244822
O O7 0.145257 0.952009 0.111945
O O8 0.714535 0.814088 0.920620
O O9 0.276811 0.513941 0.838431
O O10 0.163309 0.445729 0.422787
O O11 0.921851 0.105088 0.227854
O O12 0.998411 0.253282 0.528421
O O13 0.683171 0.235251 0.404986
O O14 0.620162 0.728994 0.639387
#
# Coordination Sequence:
#
# PCOD9003451 Si02
#       7
#     2   2   2   2   2   2   2
#     4   8  17  37  62  80 117 164 198 231 298 357
#     4   9  19  34  60  87 121 159 192 238 309 347
#     4   9  17  34  60  85 117 162 195 235 295 360
#     4  10  21  37  60  88 123 150 201 242 300 345
#     4  10  21  39  65  86 114 160 203 245 284 356
#     4  12  22  35  65  94 116 150 202 251 292 349
#     4   8  15  34  59  81 112 164 197 226 287 369
#
# _framework density 25.893795000000001
#
# number of rings (size 3 to 8) (size 9 to 14) (size 15 to 20)
#    0.000    2.571    1.429    2.571    2.000    0.571 
#    0.000    7.857    0.000    0.000    0.000    0.000 
#    0.000    0.000    0.000    0.000    0.000    0.000 
#
# Total GULP energy -78472.233928 kJ/mol
# GULP energy per Si atom -5605.159566 kJ/mol
# Density = 2.583486 g / cm^3
# Si number density = 25.893795 Si / 1000 Ang^3
#
#
#
# Elastic Constant Matrix: (Units=GPa)
#
#
# Indices 1 2 3 4 5 6 
#
# 1 106.8912 36.6513 57.0312 -10.8643 -23.3010 -18.7475
# 2 36.6513 131.9646 54.3431 -42.6824 -13.5829 -2.4686
# 3 57.0312 54.3431 156.8936 -54.6201 -13.9248 -8.3494
# 4 -10.8643 -42.6824 -54.6201 49.2420 -0.9885 0.2208
# 5 -23.3010 -13.5829 -13.9248 -0.9885 44.9901 -7.0156
# 6 -18.7475 -2.4686 -8.3494 0.2208 -7.0156 22.8189
#
#
#
# Elastic Compliance Matrix: (Units=1/GPa)
#
#
# Indices 1 2 3 4 5 6 
#
# 1 0.017070 -0.002868 -0.005218 -0.004402 0.008519 0.014466
# 2 -0.002868 0.011669 0.000877 0.010506 0.002524 -0.000099
# 3 -0.005218 0.000877 0.013187 0.014274 0.002137 0.001152
# 4 -0.004402 0.010506 0.014274 0.044396 0.006981 0.004459
# 5 0.008519 0.002524 0.002137 0.006981 0.030945 0.017500
# 6 0.014466 -0.000099 0.001152 0.004459 0.017500 0.061456
#
#
# Mechanical properties :
#
#
# Convention : Reuss Voigt Hill
#
# Bulk Modulus (GPa) = 36.35399 76.86674 56.61037
# Shear Modulus (GPa) = 24.71450 39.92511 32.31980
#
# Velocity S-wave (km/s) = 3.09278 3.93094 3.53677
# Velocity P-wave (km/s) = 5.17917 7.09597 6.21195
#
# Compressibility (1/GPa) = 0.02750730
#
# Stress axis : x y z
#
# Youngs Moduli (GPa) = 58.58387 85.69516 75.83325
#
# Poissons Ratio (x) = 0.24581 0.39568
# Poissons Ratio (y) = 0.16804 -0.06651
# Poissons Ratio (z) = 0.30568 -0.07516
#
# Static dielectric constant tensor:
#      x y z
#    x 2.028920 0.034100 0.014260 
#    y 0.034100 1.985350 0.019320 
#    z 0.014260 0.019320 2.019400 
# 
# From -- ./inp_files/280560.got.cif
#   From: 2010.05.17/outbox.cif.g08.bks.cpg/sg2_141_cif.got.tgz:280560.got - 2010.06.03 11:33:40.
