data_PCOD9003493
_publ_section_title
;
Structure prediction by ZEFSAII (Michael W. Deem and Ramdas Pophale) SiO2 
 PCOD9003493
Probable space group: P -1
;
_chemical_formula_sum "Si O2"
_cell_formula_units_Z 14
_cell_length_a 7.646532
_cell_length_b 6.397770
_cell_length_c 25.160663
_cell_angle_alpha 130.041634
_cell_angle_beta 140.693576
_cell_angle_gamma 70.276234
_cell_volume 563.379048
_symmetry_space_group_name_H-M "P -1"
_symmetry_group_IT_number 2
_symmetry_cell_setting 'triclinic'
loop_
_space_group_symop_operation_xyz
x,y,z
-x,-y,-z
loop_
_atom_site_type_symbol
_atom_site_label
_atom_site_fract_x
_atom_site_fract_y
_atom_site_fract_z
Si Si1 0.306574 0.005947 0.736461
Si Si2 0.453127 0.193582 0.613335
Si Si3 0.265121 0.239561 0.157731
Si Si4 0.899050 0.397584 0.900456
Si Si5 0.969354 0.410447 0.693033
Si Si6 0.793321 0.998459 0.097256
Si Si7 0.932994 0.370312 0.550674
O O1 0.489088 0.914673 0.811327
O O2 0.043344 0.705916 0.614661
O O3 0.578683 0.145408 0.782802
O O4 0.161125 0.252836 0.745219
O O5 0.602710 0.444674 0.731501
O O6 0.138589 0.238840 0.542433
O O7 0.644512 0.271440 0.618073
O O8 0.390516 0.867751 0.567176
O O9 0.140773 0.320146 0.088503
O O10 0.020349 0.075696 0.114580
O O11 0.149896 0.290199 0.915667
O O12 0.000000 0.500000 0.000000
O O13 0.094742 0.746025 0.792322
O O14 0.984509 0.366198 0.626305
O O15 0.500000 0.000000 0.000000
#
# Coordination Sequence:
#
# PCOD9003493 Si02
#       7
#     2   2   2   2   2   2   2
#     4  10  21  37  60  91 119 160 207 247 307 368
#     4   9  20  40  61  90 124 165 213 251 308 371
#     4   9  21  41  60  85 127 163 203 261 307 365
#     4  11  23  41  65  89 121 165 208 255 315 372
#     4  11  22  39  63  93 129 163 207 257 308 371
#     4  10  23  39  60  93 123 160 211 255 311 375
#     4  10  21  40  63  87 129 169 205 260 306 361
#
# _framework density 24.850054
#
# number of rings (size 3 to 8) (size 9 to 14) (size 15 to 20)
#    0.000    2.000    0.000    3.857    0.000    6.857 
#    0.000   17.143    0.000    0.000    0.000    0.000 
#    0.000    0.000    0.000    0.000    0.000    0.000 
#
# Total GULP energy -78113.189808 kJ/mol
# GULP energy per Si atom -5579.513558 kJ/mol
# Density = 2.479349 g / cm^3
# Si number density = 24.850054 Si / 1000 Ang^3
#
#
#
# Elastic Constant Matrix: (Units=GPa)
#
#
# Indices 1 2 3 4 5 6 
#
# 1 123.6825 37.3613 32.8976 -3.9803 9.9279 -3.7748
# 2 37.3613 127.2665 15.0137 5.2448 -18.1305 -13.4372
# 3 32.8976 15.0137 85.9659 20.6311 -5.1969 -6.7153
# 4 -3.9803 5.2448 20.6311 37.7433 5.0297 -8.0460
# 5 9.9279 -18.1305 -5.1969 5.0297 46.1510 5.9134
# 6 -3.7748 -13.4372 -6.7153 -8.0460 5.9134 36.4504
#
#
#
# Elastic Compliance Matrix: (Units=1/GPa)
#
#
# Indices 1 2 3 4 5 6 
#
# 1 0.011120 -0.003499 -0.005162 0.005347 -0.005047 0.000910
# 2 -0.003499 0.009789 0.000610 -0.002230 0.004639 0.002114
# 3 -0.005162 0.000610 0.016163 -0.010093 0.004303 -0.000258
# 4 0.005347 -0.002230 -0.010093 0.035428 -0.007918 0.006977
# 5 -0.005047 0.004639 0.004303 -0.007918 0.026444 -0.004058
# 6 0.000910 0.002114 -0.000258 0.006977 -0.004058 0.030459
#
#
# Mechanical properties :
#
#
# Convention : Reuss Voigt Hill
#
# Bulk Modulus (GPa) = 47.68366 56.38445 52.03405
# Shear Modulus (GPa) = 32.78829 40.84508 36.81668
#
# Velocity S-wave (km/s) = 3.63636 4.05861 3.85327
# Velocity P-wave (km/s) = 6.07133 6.68597 6.38605
#
# Compressibility (1/GPa) = 0.02097155
#
# Stress axis : x y z
#
# Youngs Moduli (GPa) = 89.92790 102.15892 61.86835
#
# Poissons Ratio (x) = 0.35744 0.31934
# Poissons Ratio (y) = 0.31465 -0.03775
# Poissons Ratio (z) = 0.46417 -0.06234
#
# Static dielectric constant tensor:
#      x y z
#    x 1.925750 -0.012830 0.044590 
#    y -0.012830 2.164000 0.012740 
#    z 0.044590 0.012740 2.066420 
# 
# From -- ./inp_files/622260.got.cif
#   From: 2010.05.17/outbox.cif.g08.bks.cpg/sg2_312_cif.got.tgz:622260.got - 2010.06.03 11:33:40.
