data_PCOD9003198
_publ_section_title
;
Structure prediction by ZEFSAII (Michael W. Deem and Ramdas Pophale) SiO2 
 PCOD9003198
Probable space group: P -1
;
_chemical_formula_sum "Si O2"
_cell_formula_units_Z 16
_cell_length_a 18.250344
_cell_length_b 12.285313
_cell_length_c 12.451914
_cell_angle_alpha 143.284997
_cell_angle_beta 41.825686
_cell_angle_gamma 152.271171
_cell_volume 770.205634
_symmetry_space_group_name_H-M "P -1"
_symmetry_group_IT_number 2
_symmetry_cell_setting 'triclinic'
loop_
_space_group_symop_operation_xyz
x,y,z
-x,-y,-z
loop_
_atom_site_type_symbol
_atom_site_label
_atom_site_fract_x
_atom_site_fract_y
_atom_site_fract_z
Si Si1 0.740449 0.341429 0.742729
Si Si2 0.311853 0.766847 0.035756
Si Si3 0.310522 0.928787 0.610515
Si Si4 0.045981 0.174466 0.808294
Si Si5 0.404573 0.565502 0.187214
Si Si6 0.876536 0.634902 0.532453
Si Si7 0.945203 0.270636 0.800788
Si Si8 0.048507 0.861906 0.878680
O O1 0.703196 0.279156 0.857467
O O2 0.666509 0.095194 0.556828
O O3 0.677013 0.448124 0.839757
O O4 0.930454 0.582231 0.726437
O O5 0.215394 0.834494 0.158046
O O6 0.217585 0.481131 0.858751
O O7 0.500000 0.000000 0.000000
O O8 0.189638 0.630146 0.551465
O O9 0.223914 0.017173 0.781523
O O10 0.464683 0.135337 0.677282
O O11 0.948493 0.109780 0.755672
O O12 0.027667 0.933587 0.646271
O O13 0.973301 0.170211 0.994139
O O14 0.270056 0.406569 0.302315
O O15 0.500000 0.500000 0.000000
O O16 0.931890 0.638743 0.356153
O O17 0.000000 0.500000 0.000000
O O18 0.000000 0.000000 0.000000
#
# Coordination Sequence:
#
# PCOD9003198 Si02
#       8
#     2   2   2   2   2   2   2   2
#     4  10  21  37  58  89 124 162 205 249 315 379
#     4  10  23  41  63  90 122 161 206 265 316 361
#     4  11  22  38  61  92 123 162 207 255 311 369
#     4  10  22  39  62  90 121 164 211 247 305 376
#     4  11  24  40  62  95 128 162 207 261 313 367
#     4  11  21  39  64  90 123 162 209 257 301 372
#     4  10  22  41  64  89 120 167 214 253 308 376
#     4  11  21  37  61  91 126 164 201 253 310 374
#
# _framework density 20.773672000000001
#
# number of rings (size 3 to 8) (size 9 to 14) (size 15 to 20)
#    0.000    1.500    0.000    7.500    0.000    8.000 
#    0.000    0.625    0.000    1.500    0.000    0.000 
#    0.000    0.000    0.000    0.000    0.000    0.000 
#
# Total GULP energy -89078.144518 kJ/mol
# GULP energy per Si atom -5567.384032 kJ/mol
# Density = 2.072639 g / cm^3
# Si number density = 20.773672 Si / 1000 Ang^3
#
#
#
# Elastic Constant Matrix: (Units=GPa)
#
#
# Indices 1 2 3 4 5 6 
#
# 1 116.6685 60.3620 40.0524 -15.6882 20.4407 9.6919
# 2 60.3620 99.5318 44.1513 5.8666 0.4867 9.3429
# 3 40.0524 44.1513 121.3412 -3.5664 7.7778 8.3659
# 4 -15.6882 5.8666 -3.5664 43.4412 4.7028 2.1528
# 5 20.4407 0.4867 7.7778 4.7028 33.5095 -3.2363
# 6 9.6919 9.3429 8.3659 2.1528 -3.2363 28.3447
#
#
#
# Elastic Compliance Matrix: (Units=1/GPa)
#
#
# Indices 1 2 3 4 5 6 
#
# 1 0.018346 -0.010896 -0.000673 0.009645 -0.012680 -0.004663
# 2 -0.010896 0.018839 -0.004043 -0.007736 0.008422 0.000259
# 3 -0.000673 -0.004043 0.010252 0.001484 -0.002296 -0.001838
# 4 0.009645 -0.007736 0.001484 0.029049 -0.010638 -0.004607
# 5 -0.012680 0.008422 -0.002296 -0.010638 0.040218 0.007637
# 6 -0.004663 0.000259 -0.001838 -0.004607 0.007637 0.038554
#
#
# Mechanical properties :
#
#
# Convention : Reuss Voigt Hill
#
# Bulk Modulus (GPa) = 61.68264 69.63030 65.65647
# Shear Modulus (GPa) = 26.05687 33.92415 29.99051
#
# Velocity S-wave (km/s) = 3.54548 4.04547 3.80370
# Velocity P-wave (km/s) = 6.82039 7.44395 7.13898
#
# Compressibility (1/GPa) = 0.01621202
#
# Stress axis : x y z
#
# Youngs Moduli (GPa) = 54.50798 53.08078 97.54103
#
# Poissons Ratio (x) = 0.57838 0.06566
# Poissons Ratio (y) = 0.59393 0.39438
# Poissons Ratio (z) = 0.03669 0.21462
#
# Static dielectric constant tensor:
#      x y z
#    x 1.799060 -0.012610 -0.041030 
#    y -0.012610 1.820400 0.076700 
#    z -0.041030 0.076700 1.851160 
# 
# From -- ./inp_files/464901.got.cif
#   From: 2010.05.17/outbox.cif.g08.bks.cpg/sg2_233_cif.got.tgz:464901.got - 2010.06.03 11:33:40.
