data_PCOD9003008
_publ_section_title
;
Structure prediction by ZEFSAII (Michael W. Deem and Ramdas Pophale) SiO2 
 PCOD9003008
Probable space group: P -1
;
_chemical_formula_sum "Si O2"
_cell_formula_units_Z 16
_cell_length_a 8.290728
_cell_length_b 13.679873
_cell_length_c 18.065739
_cell_angle_alpha 156.927086
_cell_angle_beta 113.134896
_cell_angle_gamma 77.855039
_cell_volume 670.391945
_symmetry_space_group_name_H-M "P -1"
_symmetry_group_IT_number 2
_symmetry_cell_setting 'triclinic'
loop_
_space_group_symop_operation_xyz
x,y,z
-x,-y,-z
loop_
_atom_site_type_symbol
_atom_site_label
_atom_site_fract_x
_atom_site_fract_y
_atom_site_fract_z
Si Si1 0.433366 0.979986 0.559769
Si Si2 0.173339 0.974332 0.302213
Si Si3 0.075077 0.443169 0.138358
Si Si4 0.781005 0.708348 0.315152
Si Si5 0.809056 0.364649 0.450946
Si Si6 0.874790 0.964821 0.880181
Si Si7 0.772881 0.463739 0.351159
Si Si8 0.539992 0.170067 0.974058
O O1 0.294171 0.665654 0.334693
O O2 0.500000 0.000000 0.500000
O O3 0.636037 0.083716 0.710144
O O4 0.302163 0.147987 0.659476
O O5 0.154648 0.088643 0.459745
O O6 0.217738 0.230729 0.432583
O O7 0.991198 0.705481 0.056428
O O8 0.940784 0.603735 0.245639
O O9 0.024454 0.182309 0.001308
O O10 0.598879 0.439347 0.123450
O O11 0.801215 0.314777 0.325728
O O12 0.015477 0.457746 0.592470
O O13 0.768952 0.633478 0.626565
O O14 0.658888 0.078349 0.255000
O O15 0.703481 0.059391 0.917305
O O16 0.000000 0.000000 0.000000
O O17 0.584406 0.280290 0.143429
#
# Coordination Sequence:
#
# PCOD9003008 Si02
#       8
#     2   2   2   2   2   2   2   2
#     4  10  23  44  69 100 128 168 221 272 327 389
#     4  10  22  42  67  95 129 169 220 264 326 390
#     4  11  23  44  69  93 135 173 210 274 326 383
#     4   9  22  43  63  97 132 164 221 269 323 388
#     4  11  21  37  60  88 122 167 210 252 316 384
#     4  11  22  41  61  94 130 166 214 260 320 383
#     4  10  21  37  56  90 122 160 213 254 312 382
#     4  10  21  38  60  85 125 164 203 267 308 374
#
# _framework density 23.866636
#
# number of rings (size 3 to 8) (size 9 to 14) (size 15 to 20)
#    0.000    1.750    2.500    1.125    0.000    6.500 
#    4.500    3.750    0.000    0.000    0.000    0.000 
#    0.000    0.000    0.000    0.000    0.000    0.000 
#
# Total GULP energy -89258.307443 kJ/mol
# GULP energy per Si atom -5578.644215 kJ/mol
# Density = 2.381231 g / cm^3
# Si number density = 23.866636 Si / 1000 Ang^3
#
#
#
# Elastic Constant Matrix: (Units=GPa)
#
#
# Indices 1 2 3 4 5 6 
#
# 1 27.5513 2.2004 17.4356 1.6184 -2.8157 -1.7880
# 2 2.2004 44.4242 4.0466 15.7771 -12.9124 -21.3021
# 3 17.4356 4.0466 107.3804 4.6011 2.9800 -0.9327
# 4 1.6184 15.7771 4.6011 21.2329 -4.1185 0.7881
# 5 -2.8157 -12.9124 2.9800 -4.1185 26.1931 4.4232
# 6 -1.7880 -21.3021 -0.9327 0.7881 4.4232 21.3128
#
#
#
# Elastic Compliance Matrix: (Units=1/GPa)
#
#
# Indices 1 2 3 4 5 6 
#
# 1 0.041629 0.006425 -0.006857 -0.005596 0.006098 0.008556
# 2 0.006425 0.110811 -0.001432 -0.081887 0.024156 0.109247
# 3 -0.006857 -0.001432 0.010597 -0.001194 -0.002677 -0.000943
# 4 -0.005596 -0.081887 -0.001194 0.109966 -0.009272 -0.084510
# 5 0.006098 0.024156 -0.002677 -0.009272 0.047035 0.015120
# 6 0.008556 0.109247 -0.000943 -0.084510 0.015120 0.156775
#
#
# Mechanical properties :
#
#
# Convention : Reuss Voigt Hill
#
# Bulk Modulus (GPa) = 6.27705 25.19122 15.73414
# Shear Modulus (GPa) = 9.36953 24.12599 16.74776
#
# Velocity S-wave (km/s) = 1.98351 3.18286 2.65188
# Velocity P-wave (km/s) = 2.80740 4.90769 3.99793
#
# Compressibility (1/GPa) = 0.15931057
#
# Stress axis : x y z
#
# Youngs Moduli (GPa) = 24.02166 9.02437 94.36418
#
# Poissons Ratio (x) = -0.05798 0.64702
# Poissons Ratio (y) = -0.15434 0.13512
# Poissons Ratio (z) = 0.16471 0.01292
#
# Static dielectric constant tensor:
#      x y z
#    x 2.007690 0.079460 -0.086060 
#    y 0.079460 1.965460 -0.043930 
#    z -0.086060 -0.043930 1.959400 
# 
# From -- ./inp_files/217624.got.cif
#   From: 2010.05.17/outbox.cif.g08.bks.cpg/sg2_109_cif.got.tgz:217624.got - 2010.06.03 11:33:40.
