data_PCOD9003616
_publ_section_title
;
Structure prediction by ZEFSAII (Michael W. Deem and Ramdas Pophale) SiO2 
 PCOD9003616
Probable space group: P -1
;
_chemical_formula_sum "Si O2"
_cell_formula_units_Z 16
_cell_length_a 17.622202
_cell_length_b 25.472588
_cell_length_c 14.524174
_cell_angle_alpha 22.094853
_cell_angle_beta 144.646351
_cell_angle_gamma 159.308888
_cell_volume 799.588790
_symmetry_space_group_name_H-M "P -1"
_symmetry_group_IT_number 2
_symmetry_cell_setting 'triclinic'
loop_
_space_group_symop_operation_xyz
x,y,z
-x,-y,-z
loop_
_atom_site_type_symbol
_atom_site_label
_atom_site_fract_x
_atom_site_fract_y
_atom_site_fract_z
Si Si1 0.313492 0.937993 0.371761
Si Si2 0.349835 0.215162 0.397683
Si Si3 0.689096 0.968313 0.980066
Si Si4 0.147422 0.199434 0.072992
Si Si5 0.499690 0.369547 0.488385
Si Si6 0.462145 0.908724 0.253301
Si Si7 0.200673 0.111544 0.080406
Si Si8 0.823755 0.417222 0.673953
O O1 0.388661 0.092525 0.104208
O O2 0.092777 0.653878 0.579735
O O3 0.500000 0.000000 0.500000
O O4 0.238882 0.986025 0.295358
O O5 0.148808 0.122348 0.297662
O O6 0.321140 0.170989 0.551405
O O7 0.410644 0.126554 0.547343
O O8 0.592431 0.512548 0.148190
O O9 0.639716 0.080084 0.788144
O O10 0.956071 0.151478 0.951519
O O11 0.568276 0.753044 0.280930
O O12 0.122914 0.069250 0.176916
O O13 0.731131 0.489718 0.490265
O O14 0.567943 0.591560 0.192902
O O15 0.254129 0.691112 0.329779
O O16 0.662661 0.175020 0.969136
O O17 0.000000 0.000000 0.000000
#
# Coordination Sequence:
#
# PCOD9003616 Si02
#       8
#     2   2   2   2   2   2   2   2
#     4  12  26  41  58  88 123 157 206 247 284 354
#     4   9  19  38  60  88 120 155 193 241 306 361
#     4  11  22  38  59  93 117 150 203 252 291 345
#     4  10  21  37  61  89 117 156 200 243 295 358
#     4   9  19  38  65  86 116 153 197 246 297 355
#     4   9  19  36  64  86 116 155 191 247 305 346
#     4  11  20  42  63  77 113 172 197 233 298 353
#     4   9  18  40  61  85 119 158 195 237 304 358
#
# _framework density 20.010286000000001
#
# number of rings (size 3 to 8) (size 9 to 14) (size 15 to 20)
#    0.000    2.000    2.500    2.250    1.750    3.000 
#    6.750    2.500    0.000    0.000    0.000    0.000 
#    0.000    0.000    0.000    0.000    0.000    0.000 
#
# Total GULP energy -89180.061263 kJ/mol
# GULP energy per Si atom -5573.753829 kJ/mol
# Density = 1.996474 g / cm^3
# Si number density = 20.010286 Si / 1000 Ang^3
#
#
#
# Elastic Constant Matrix: (Units=GPa)
#
#
# Indices 1 2 3 4 5 6 
#
# 1 59.5539 7.0029 18.5684 5.6611 -0.7019 3.5806
# 2 7.0029 70.5025 38.6992 25.6488 -8.1688 -0.7439
# 3 18.5684 38.6992 49.3312 12.3884 1.6301 -6.6617
# 4 5.6611 25.6488 12.3884 38.4203 -2.2978 0.9765
# 5 -0.7019 -8.1688 1.6301 -2.2978 38.6117 4.7507
# 6 3.5806 -0.7439 -6.6617 0.9765 4.7507 15.9489
#
#
#
# Elastic Compliance Matrix: (Units=1/GPa)
#
#
# Indices 1 2 3 4 5 6 
#
# 1 0.021594 0.007384 -0.014937 -0.002766 0.003863 -0.011724
# 2 0.007384 0.036053 -0.029663 -0.014632 0.009918 -0.014425
# 3 -0.014937 -0.029663 0.052275 0.003749 -0.011867 0.027110
# 4 -0.002766 -0.014632 0.003749 0.034930 -0.001191 -0.000279
# 5 0.003863 0.009918 -0.011867 -0.001191 0.030257 -0.014301
# 6 -0.011724 -0.014425 0.027110 -0.000279 -0.014301 0.080260
#
#
# Mechanical properties :
#
#
# Convention : Reuss Voigt Hill
#
# Bulk Modulus (GPa) = 28.17708 34.21429 31.19568
# Shear Modulus (GPa) = 14.63565 26.27066 20.45315
#
# Velocity S-wave (km/s) = 2.70739 3.62727 3.20055
# Velocity P-wave (km/s) = 4.88724 5.88882 5.41125
#
# Compressibility (1/GPa) = 0.03548984
#
# Stress axis : x y z
#
# Youngs Moduli (GPa) = 46.30958 27.73706 19.12946
#
# Poissons Ratio (x) = -0.20482 0.28574
# Poissons Ratio (y) = -0.34197 0.56745
# Poissons Ratio (z) = 0.69173 0.82278
#
# Static dielectric constant tensor:
#      x y z
#    x 1.743460 -0.019710 -0.032330 
#    y -0.019710 1.704170 0.000420 
#    z -0.032330 0.000420 1.778080 
# 
# From -- ./inp_files/539377.got.cif
#   From: 2010.05.17/outbox.cif.g08.bks.cpg/sg2_270_cif.got.tgz:539377.got - 2010.06.03 11:33:40.
