data_PCOD9003972
_publ_section_title
;
Structure prediction by ZEFSAII (Michael W. Deem and Ramdas Pophale) SiO2 
 PCOD9003972
Probable space group: P -1
;
_chemical_formula_sum "Si O2"
_cell_formula_units_Z 14
_cell_length_a 20.206473
_cell_length_b 7.462319
_cell_length_c 8.028551
_cell_angle_alpha 142.648639
_cell_angle_beta 59.112318
_cell_angle_gamma 116.923121
_cell_volume 627.978899
_symmetry_space_group_name_H-M "P -1"
_symmetry_group_IT_number 2
_symmetry_cell_setting 'triclinic'
loop_
_space_group_symop_operation_xyz
x,y,z
-x,-y,-z
loop_
_atom_site_type_symbol
_atom_site_label
_atom_site_fract_x
_atom_site_fract_y
_atom_site_fract_z
Si Si1 0.071128 0.347818 0.102720
Si Si2 0.410640 0.892730 0.079378
Si Si3 0.823328 0.384900 0.214986
Si Si4 0.653118 0.495583 0.428467
Si Si5 0.899891 0.293123 0.354880
Si Si6 0.091454 0.984182 0.389565
Si Si7 0.557002 0.256692 0.697325
O O1 0.081368 0.428130 0.343389
O O2 0.102628 0.666863 0.227241
O O3 0.979356 0.298129 0.146644
O O4 0.105111 0.033258 0.797824
O O5 0.405581 0.822031 0.231312
O O6 0.357589 0.157067 0.303305
O O7 0.386431 0.635909 0.787432
O O8 0.500000 0.000000 0.000000
O O9 0.741139 0.418824 0.266300
O O10 0.825502 0.345664 0.382253
O O11 0.875256 0.697108 0.349716
O O12 0.860203 0.088408 0.889221
O O13 0.613465 0.366478 0.554779
O O14 0.000000 0.000000 0.500000
O O15 0.500000 0.000000 0.500000
O O16 0.500000 0.500000 0.000000
#
# Coordination Sequence:
#
# PCOD9003972 Si02
#       7
#     2   2   2   2   2   2   2
#     4  10  21  37  63  91 119 161 231 282 328 407
#     4  12  23  44  78 105 143 184 240 289 341 430
#     4  12  26  44  65  95 140 181 221 296 367 399
#     4  12  26  47  67 105 152 186 232 297 358 425
#     4  10  21  38  62  91 124 165 214 285 343 400
#     4  12  24  42  68  93 127 180 237 287 343 424
#     4  12  23  42  76 109 136 184 234 283 348 421
#
# _framework density 22.293742000000002
#
# number of rings (size 3 to 8) (size 9 to 14) (size 15 to 20)
#    0.000    0.571    4.286    4.286    4.000    0.000 
#    7.714    0.000    0.000    0.000    0.000    0.000 
#    0.000    0.000    0.000    0.000    0.000    0.000 
#
# Total GULP energy -78142.253352 kJ/mol
# GULP energy per Si atom -5581.589525 kJ/mol
# Density = 2.224300 g / cm^3
# Si number density = 22.293742 Si / 1000 Ang^3
#
#
#
# Elastic Constant Matrix: (Units=GPa)
#
#
# Indices 1 2 3 4 5 6 
#
# 1 93.2909 18.4203 14.5885 -5.9804 -3.1854 -2.6552
# 2 18.4203 89.2661 17.2269 8.9105 -1.7980 -25.7759
# 3 14.5885 17.2269 134.8645 17.8285 -2.3517 3.5095
# 4 -5.9804 8.9105 17.8285 35.3771 -7.3415 -1.3216
# 5 -3.1854 -1.7980 -2.3517 -7.3415 33.1579 -0.3182
# 6 -2.6552 -25.7759 3.5095 -1.3216 -0.3182 37.5033
#
#
#
# Elastic Compliance Matrix: (Units=1/GPa)
#
#
# Indices 1 2 3 4 5 6 
#
# 1 0.011739 -0.002713 -0.001360 0.003675 0.001691 -0.000762
# 2 -0.002713 0.015377 -0.001520 -0.003207 -0.000145 0.010405
# 3 -0.001360 -0.001520 0.008363 -0.004260 -0.000583 -0.002079
# 4 0.003675 -0.003207 -0.004260 0.033337 0.007255 -0.000309
# 5 0.001691 -0.000145 -0.000583 0.007255 0.031884 0.000601
# 6 -0.000762 0.010405 -0.002079 -0.000309 0.000601 0.033950
#
#
# Mechanical properties :
#
#
# Convention : Reuss Voigt Hill
#
# Bulk Modulus (GPa) = 41.16267 46.43254 43.79761
# Shear Modulus (GPa) = 32.48136 39.02006 35.75071
#
# Velocity S-wave (km/s) = 3.82117 4.18816 4.00887
# Velocity P-wave (km/s) = 6.16217 6.65285 6.41220
#
# Compressibility (1/GPa) = 0.02429386
#
# Stress axis : x y z
#
# Youngs Moduli (GPa) = 85.18530 65.03128 119.57088
#
# Poissons Ratio (x) = 0.17642 0.16260
# Poissons Ratio (y) = 0.23110 0.18176
# Poissons Ratio (z) = 0.11584 0.09885
#
# Static dielectric constant tensor:
#      x y z
#    x 1.847820 -0.100530 0.040200 
#    y -0.100530 1.977330 -0.149740 
#    z 0.040200 -0.149740 1.905820 
# 
# From -- ./inp_files/329706.got.cif
#   From: 2010.05.17/outbox.cif.g08.bks.cpg/sg2_165_cif.got.tgz:329706.got - 2010.06.03 11:33:40.
