data_PCOD9003962
_publ_section_title
;
Structure prediction by ZEFSAII (Michael W. Deem and Ramdas Pophale) SiO2 
 PCOD9003962
Probable space group: P -1
;
_chemical_formula_sum "Si O2"
_cell_formula_units_Z 16
_cell_length_a 17.909940
_cell_length_b 8.636538
_cell_length_c 11.328836
_cell_angle_alpha 96.025284
_cell_angle_beta 58.829974
_cell_angle_gamma 46.791614
_cell_volume 739.209488
_symmetry_space_group_name_H-M "P -1"
_symmetry_group_IT_number 2
_symmetry_cell_setting 'triclinic'
loop_
_space_group_symop_operation_xyz
x,y,z
-x,-y,-z
loop_
_atom_site_type_symbol
_atom_site_label
_atom_site_fract_x
_atom_site_fract_y
_atom_site_fract_z
Si Si1 0.585815 0.362181 0.292719
Si Si2 0.224111 0.521665 0.560447
Si Si3 0.507105 0.396963 0.852799
Si Si4 0.799299 0.318698 0.156579
Si Si5 0.156133 0.748135 0.137154
Si Si6 0.129651 0.483878 0.279131
Si Si7 0.469233 0.794507 0.858242
Si Si8 0.842815 0.684808 0.506946
O O1 0.500000 0.500000 0.500000
O O2 0.466043 0.634701 0.315530
O O3 0.752092 0.213346 0.159271
O O4 0.614986 0.154404 0.186679
O O5 0.284287 0.484510 0.639186
O O6 0.357098 0.387987 0.343946
O O7 0.218938 0.343530 0.540969
O O8 0.026696 0.885637 0.719300
O O9 0.505999 0.584934 0.894495
O O10 0.677554 0.037610 0.719779
O O11 0.315595 0.612775 0.039171
O O12 0.774579 0.436693 0.058401
O O13 0.000000 0.000000 0.000000
O O14 0.110452 0.686958 0.263840
O O15 0.092172 0.519350 0.451214
O O16 0.994438 0.570458 0.337746
O O17 0.328796 0.125043 0.057647
#
# Coordination Sequence:
#
# PCOD9003962 Si02
#       8
#     2   2   2   2   2   2   2   2
#     4   9  17  35  59  90 121 154 191 234 294 355
#     4  11  21  38  64  91 121 160 195 238 299 354
#     4   9  20  38  61  89 117 156 191 246 288 353
#     4   9  18  34  60  90 122 156 188 239 290 355
#     4  10  21  39  62  90 124 152 200 240 296 355
#     4  11  25  43  60  85 118 157 204 257 291 349
#     4  10  21  37  63  90 118 158 192 242 296 350
#     4  11  25  43  61  84 118 156 208 252 295 346
#
# _framework density 21.644742000000001
#
# number of rings (size 3 to 8) (size 9 to 14) (size 15 to 20)
#    0.750    1.250    1.250    2.250    1.750    3.000 
#    2.250    2.500    0.000    0.000    0.000    0.000 
#    0.000    0.000    0.000    0.000    0.000    0.000 
#
# Total GULP energy -89147.546296 kJ/mol
# GULP energy per Si atom -5571.721643 kJ/mol
# Density = 2.159548 g / cm^3
# Si number density = 21.644742 Si / 1000 Ang^3
#
#
#
# Elastic Constant Matrix: (Units=GPa)
#
#
# Indices 1 2 3 4 5 6 
#
# 1 72.6223 6.9615 13.0082 -0.5543 -11.2542 2.9286
# 2 6.9615 44.4467 12.2360 -1.3249 -4.8855 5.0294
# 3 13.0082 12.2360 79.6466 0.3998 -14.4347 7.5936
# 4 -0.5543 -1.3249 0.3998 26.7296 6.7345 -3.5061
# 5 -11.2542 -4.8855 -14.4347 6.7345 35.6535 -0.7741
# 6 2.9286 5.0294 7.5936 -3.5061 -0.7741 20.6784
#
#
#
# Elastic Compliance Matrix: (Units=1/GPa)
#
#
# Indices 1 2 3 4 5 6 
#
# 1 0.014822 -0.001386 -0.001339 -0.000941 0.004097 -0.001277
# 2 -0.001386 0.024178 -0.002759 0.000202 0.001621 -0.004576
# 3 -0.001339 -0.002759 0.014653 -0.002383 0.005479 -0.004719
# 4 -0.000941 0.000202 -0.002383 0.040628 -0.008745 0.007520
# 5 0.004097 0.001621 0.005479 -0.008745 0.033363 -0.003220
# 6 -0.001277 -0.004576 -0.004719 0.007520 -0.003220 0.052541
#
#
# Mechanical properties :
#
#
# Convention : Reuss Voigt Hill
#
# Bulk Modulus (GPa) = 23.42795 29.01412 26.22103
# Shear Modulus (GPa) = 24.34510 27.57961 25.96236
#
# Velocity S-wave (km/s) = 3.35738 3.57346 3.46710
# Velocity P-wave (km/s) = 5.08691 5.51905 5.30738
#
# Compressibility (1/GPa) = 0.04268406
#
# Stress axis : x y z
#
# Youngs Moduli (GPa) = 67.46864 41.36076 68.24560
#
# Poissons Ratio (x) = 0.05733 0.09138
# Poissons Ratio (y) = 0.09352 0.18829
# Poissons Ratio (z) = 0.09034 0.11411
#
# Static dielectric constant tensor:
#      x y z
#    x 1.874250 -0.069820 0.041510 
#    y -0.069820 1.880950 -0.075560 
#    z 0.041510 -0.075560 1.882240 
# 
# From -- ./inp_files/462224.got.cif
#   From: 2010.05.17/outbox.cif.g08.bks.cpg/sg2_232_cif.got.tgz:462224.got - 2010.06.03 11:33:40.
