data_PCOD9003974
_publ_section_title
;
Structure prediction by ZEFSAII (Michael W. Deem and Ramdas Pophale) SiO2 
 PCOD9003974
Probable space group: P -1
;
_chemical_formula_sum "Si O2"
_cell_formula_units_Z 14
_cell_length_a 7.668439
_cell_length_b 8.698272
_cell_length_c 12.636194
_cell_angle_alpha 73.668747
_cell_angle_beta 44.636153
_cell_angle_gamma 90.687404
_cell_volume 539.455711
_symmetry_space_group_name_H-M "P -1"
_symmetry_group_IT_number 2
_symmetry_cell_setting 'triclinic'
loop_
_space_group_symop_operation_xyz
x,y,z
-x,-y,-z
loop_
_atom_site_type_symbol
_atom_site_label
_atom_site_fract_x
_atom_site_fract_y
_atom_site_fract_z
Si Si1 0.712505 0.762109 0.360193
Si Si2 0.813882 0.220949 0.510528
Si Si3 0.173231 0.044386 0.022865
Si Si4 0.432966 0.804299 0.877916
Si Si5 0.793977 0.856717 0.527512
Si Si6 0.985904 0.320725 0.090110
Si Si7 0.038914 0.515247 0.229322
O O1 0.477973 0.768855 0.384313
O O2 0.636676 0.748546 0.519244
O O3 0.832804 0.619029 0.297103
O O4 0.961394 0.933205 0.218842
O O5 0.923743 0.171013 0.582650
O O6 0.001217 0.413648 0.373337
O O7 0.797218 0.049988 0.483347
O O8 0.218352 0.239965 0.988968
O O9 0.404425 0.964179 0.923390
O O10 0.000000 0.000000 0.000000
O O11 0.686468 0.802730 0.704743
O O12 0.252221 0.795117 0.852869
O O13 0.303713 0.644818 0.041413
O O14 0.959677 0.354281 0.216732
O O15 0.000000 0.500000 0.000000
#
# Coordination Sequence:
#
# PCOD9003974 Si02
#       7
#     2   2   2   2   2   2   2
#     4  11  22  40  65  90 124 166 203 252 312 366
#     4  11  23  39  62  92 125 161 209 252 303 370
#     4   9  17  33  61  88 119 162 205 252 307 364
#     4   9  19  36  58  87 122 161 204 252 308 363
#     4  11  24  40  63  91 126 166 202 250 311 370
#     4   9  16  29  54  89 117 148 200 252 298 354
#     4  10  21  37  63  91 120 162 210 255 304 363
#
# _framework density 25.952081
#
# number of rings (size 3 to 8) (size 9 to 14) (size 15 to 20)
#    0.000    2.000    0.000    5.143    0.000    1.143 
#    0.000    1.429    0.000   48.000    0.000    0.000 
#    0.000    0.000    0.000    0.000    0.000    0.000 
#
# Total GULP energy -78014.926952 kJ/mol
# GULP energy per Si atom -5572.494782 kJ/mol
# Density = 2.589301 g / cm^3
# Si number density = 25.952081 Si / 1000 Ang^3
#
#
#
# Elastic Constant Matrix: (Units=GPa)
#
#
# Indices 1 2 3 4 5 6 
#
# 1 59.8480 25.4284 10.2337 5.4150 -3.9866 -12.0544
# 2 25.4284 161.5555 47.8387 8.8097 -1.1300 -24.6689
# 3 10.2337 47.8387 124.3731 -12.2718 -8.7059 -15.7208
# 4 5.4150 8.8097 -12.2718 36.5165 -3.1422 10.9160
# 5 -3.9866 -1.1300 -8.7059 -3.1422 22.8683 4.0329
# 6 -12.0544 -24.6689 -15.7208 10.9160 4.0329 37.1228
#
#
#
# Elastic Compliance Matrix: (Units=1/GPa)
#
#
# Indices 1 2 3 4 5 6 
#
# 1 0.019211 -0.001726 -0.000480 -0.004259 0.001441 0.005984
# 2 -0.001726 0.008426 -0.003060 -0.004646 -0.002639 0.005396
# 3 -0.000480 -0.003060 0.010023 0.004445 0.004139 0.000298
# 4 -0.004259 -0.004646 0.004445 0.035476 0.008045 -0.013894
# 5 0.001441 -0.002639 0.004139 0.008045 0.047781 -0.007090
# 6 0.005984 0.005396 0.000298 -0.013894 -0.007090 0.037448
#
#
# Mechanical properties :
#
#
# Convention : Reuss Voigt Hill
#
# Bulk Modulus (GPa) = 36.86156 56.97538 46.91847
# Shear Modulus (GPa) = 28.09937 36.78657 32.44297
#
# Velocity S-wave (km/s) = 3.29407 3.76903 3.53953
# Velocity P-wave (km/s) = 5.35746 6.39863 5.90106
#
# Compressibility (1/GPa) = 0.02712853
#
# Stress axis : x y z
#
# Youngs Moduli (GPa) = 52.05415 118.67446 99.77161
#
# Poissons Ratio (x) = 0.20478 0.04789
# Poissons Ratio (y) = 0.08982 0.30532
# Poissons Ratio (z) = 0.02498 0.36317
#
# Static dielectric constant tensor:
#      x y z
#    x 2.097460 0.026430 -0.058900 
#    y 0.026430 2.071220 -0.010410 
#    z -0.058900 -0.010410 2.383640 
# 
# From -- ./inp_files/494573.got.cif
#   From: 2010.05.17/outbox.cif.g08.bks.cpg/sg2_248_cif.got.tgz:494573.got - 2010.06.03 11:33:40.
