data_PCOD9003424
_publ_section_title
;
Structure prediction by ZEFSAII (Michael W. Deem and Ramdas Pophale) SiO2 
 PCOD9003424
Probable space group: P -1
;
_chemical_formula_sum "Si O2"
_cell_formula_units_Z 16
_cell_length_a 5.405231
_cell_length_b 25.986014
_cell_length_c 18.116369
_cell_angle_alpha 20.410627
_cell_angle_beta 55.450797
_cell_angle_gamma 57.967196
_cell_volume 730.917103
_symmetry_space_group_name_H-M "P -1"
_symmetry_group_IT_number 2
_symmetry_cell_setting 'triclinic'
loop_
_space_group_symop_operation_xyz
x,y,z
-x,-y,-z
loop_
_atom_site_type_symbol
_atom_site_label
_atom_site_fract_x
_atom_site_fract_y
_atom_site_fract_z
Si Si1 0.626298 0.211875 0.485209
Si Si2 0.266039 0.619131 0.304514
Si Si3 0.057361 0.689400 0.560751
Si Si4 0.204111 0.166104 0.278438
Si Si5 0.224901 0.679876 0.066979
Si Si6 0.166962 0.593386 0.511884
Si Si7 0.813371 0.411565 0.058064
Si Si8 0.876992 0.950667 0.707512
O O1 0.280572 0.252219 0.474558
O O2 0.829682 0.333247 0.241528
O O3 0.739731 0.217841 0.541788
O O4 0.678624 0.050639 0.659017
O O5 0.270056 0.708850 0.107693
O O6 0.203207 0.687169 0.304392
O O7 0.570897 0.526973 0.377006
O O8 0.000000 0.500000 0.500000
O O9 0.193825 0.672069 0.479566
O O10 0.019900 0.531893 0.820286
O O11 0.248747 0.075905 0.317205
O O12 0.897034 0.263972 0.195121
O O13 0.480095 0.278275 0.085041
O O14 0.167996 0.054136 0.502604
O O15 0.131742 0.509673 0.299557
O O16 0.969155 0.793349 0.933764
O O17 0.500000 0.500000 0.000000
#
# Coordination Sequence:
#
# PCOD9003424 Si02
#       8
#     2   2   2   2   2   2   2   2
#     4  10  24  38  57  84 122 171 204 254 297 361
#     4   9  20  37  61  92 119 148 190 257 323 368
#     4  11  22  38  61  85 122 162 204 251 315 367
#     4  10  21  37  60  86 121 165 206 252 303 353
#     4  11  20  35  63  90 119 156 198 258 308 367
#     4  10  22  38  60  95 120 148 199 256 321 374
#     4   9  19  38  56  85 122 157 207 252 310 361
#     4  10  22  39  55  86 124 163 216 246 288 360
#
# _framework density 21.890305000000001
#
# number of rings (size 3 to 8) (size 9 to 14) (size 15 to 20)
#    0.000    2.000    0.000    3.000    7.000    0.000 
#   15.750    0.000    0.000    1.500    0.000    0.000 
#    0.000    0.000    0.000    0.000    0.000    0.000 
#
# Total GULP energy -89173.254507 kJ/mol
# GULP energy per Si atom -5573.328407 kJ/mol
# Density = 2.184048 g / cm^3
# Si number density = 21.890305 Si / 1000 Ang^3
#
#
#
# Elastic Constant Matrix: (Units=GPa)
#
#
# Indices 1 2 3 4 5 6 
#
# 1 77.0457 37.9788 7.7856 0.0622 10.1013 15.9245
# 2 37.9788 117.2854 15.2605 -9.4876 8.9487 29.3576
# 3 7.7856 15.2605 33.2953 3.1278 7.7169 -1.3000
# 4 0.0622 -9.4876 3.1278 30.6857 -0.9582 0.9844
# 5 10.1013 8.9487 7.7169 -0.9582 27.2182 13.4283
# 6 15.9245 29.3576 -1.3000 0.9844 13.4283 36.1861
#
#
#
# Elastic Compliance Matrix: (Units=1/GPa)
#
#
# Indices 1 2 3 4 5 6 
#
# 1 0.016139 -0.004355 -0.001027 -0.001295 -0.003122 -0.002412
# 2 -0.004355 0.013906 -0.007533 0.005612 0.005150 -0.011700
# 3 -0.001027 -0.007533 0.038426 -0.007154 -0.015061 0.013727
# 4 -0.001295 0.005612 -0.007154 0.035459 0.005484 -0.007240
# 5 -0.003122 0.005150 -0.015061 0.005484 0.051894 -0.022752
# 6 -0.002412 -0.011700 0.013727 -0.007240 -0.022752 0.047321
#
#
# Mechanical properties :
#
#
# Convention : Reuss Voigt Hill
#
# Bulk Modulus (GPa) = 23.45145 38.85291 31.15218
# Shear Modulus (GPa) = 20.56020 29.92477 25.24248
#
# Velocity S-wave (km/s) = 3.06802 3.70135 3.39947
# Velocity P-wave (km/s) = 4.82564 6.00451 5.44706
#
# Compressibility (1/GPa) = 0.04264129
#
# Stress axis : x y z
#
# Youngs Moduli (GPa) = 61.96247 71.90964 26.02425
#
# Poissons Ratio (x) = 0.31318 0.02671
# Poissons Ratio (y) = 0.26986 0.19604
# Poissons Ratio (z) = 0.06361 0.54170
#
# Static dielectric constant tensor:
#      x y z
#    x 1.901700 0.004010 -0.040020 
#    y 0.004010 1.825710 0.021260 
#    z -0.040020 0.021260 1.839440 
# 
# From -- ./inp_files/367920.got.cif
#   From: 2010.05.17/outbox.cif.g08.bks.cpg/sg2_184_cif.got.tgz:367920.got - 2010.06.03 11:33:40.
