data_PCOD9003774
_publ_section_title
;
Structure prediction by ZEFSAII (Michael W. Deem and Ramdas Pophale) SiO2 
 PCOD9003774
Probable space group: P -1
;
_chemical_formula_sum "Si O2"
_cell_formula_units_Z 12
_cell_length_a 8.681895
_cell_length_b 11.895418
_cell_length_c 19.625482
_cell_angle_alpha 157.221350
_cell_angle_beta 32.960703
_cell_angle_gamma 142.660893
_cell_volume 424.721124
_symmetry_space_group_name_H-M "P -1"
_symmetry_group_IT_number 2
_symmetry_cell_setting 'triclinic'
loop_
_space_group_symop_operation_xyz
x,y,z
-x,-y,-z
loop_
_atom_site_type_symbol
_atom_site_label
_atom_site_fract_x
_atom_site_fract_y
_atom_site_fract_z
Si Si1 0.468055 0.223443 0.237355
Si Si2 0.228692 0.294276 0.226039
Si Si3 0.271829 0.375765 0.861864
Si Si4 0.190001 0.839511 0.244782
Si Si5 0.358396 0.926995 0.374661
Si Si6 0.939730 0.336164 0.227395
O O1 0.274603 0.334164 0.311395
O O2 0.670919 0.393221 0.312952
O O3 0.266325 0.018346 0.247803
O O4 0.683702 0.029621 0.007471
O O5 0.480467 0.502116 0.212615
O O6 0.955994 0.344497 0.308573
O O7 0.360507 0.063411 0.677811
O O8 0.262776 0.520425 0.021137
O O9 0.000000 0.500000 0.000000
O O10 0.380975 0.961855 0.305114
O O11 0.863017 0.860996 0.396043
O O12 0.175620 0.603520 0.268694
O O13 0.000000 0.000000 0.000000
#
# Coordination Sequence:
#
# PCOD9003774 Si02
#       6
#     2   2   2   2   2   2
#     4   9  17  34  57  82 120 154 198 246 304 363
#     4   8  17  34  53  87 118 148 201 257 291 359
#     4  10  21  37  62  89 118 165 208 247 314 359
#     4  10  22  40  60  91 124 163 199 252 313 367
#     4  10  22  41  61  88 128 155 207 258 298 377
#     4   9  18  34  61  85 116 158 202 250 305 356
#
# _framework density 28.253834000000001
#
# number of rings (size 3 to 8) (size 9 to 14) (size 15 to 20)
#    0.000    2.667    0.000    1.500    2.333    1.333 
#    9.000    3.333    0.000    0.000    0.000    0.000 
#    0.000    0.000    0.000    0.000    0.000    0.000 
#
# Total GULP energy -67030.231769 kJ/mol
# GULP energy per Si atom -5585.852647 kJ/mol
# Density = 2.818953 g / cm^3
# Si number density = 28.253834 Si / 1000 Ang^3
#
#
#
# Elastic Constant Matrix: (Units=GPa)
#
#
# Indices 1 2 3 4 5 6 
#
# 1 308.6259 55.0812 43.1856 -26.0438 -11.3988 -29.4824
# 2 55.0812 79.3641 25.1425 6.8219 14.6247 -23.6664
# 3 43.1856 25.1425 94.8994 -3.1562 9.5018 -10.1498
# 4 -26.0438 6.8219 -3.1562 37.0379 -7.9124 2.5769
# 5 -11.3988 14.6247 9.5018 -7.9124 44.0652 -8.0827
# 6 -29.4824 -23.6664 -10.1498 2.5769 -8.0827 43.2207
#
#
#
# Elastic Compliance Matrix: (Units=1/GPa)
#
#
# Indices 1 2 3 4 5 6 
#
# 1 0.004703 -0.003517 -0.001280 0.004546 0.003735 0.001409
# 2 -0.003517 0.020008 -0.002496 -0.008408 -0.007216 0.007122
# 3 -0.001280 -0.002496 0.012010 0.000135 -0.002033 0.000192
# 4 0.004546 -0.008408 0.000135 0.033950 0.009726 -0.001677
# 5 0.003735 -0.007216 -0.002033 0.009726 0.028775 0.002920
# 6 0.001409 0.007122 0.000192 -0.001677 0.002920 0.028689
#
#
# Mechanical properties :
#
#
# Convention : Reuss Voigt Hill
#
# Bulk Modulus (GPa) = 45.17865 81.07869 63.12867
# Shear Modulus (GPa) = 33.31078 48.83010 41.07044
#
# Velocity S-wave (km/s) = 3.43736 4.16175 3.81678
# Velocity P-wave (km/s) = 5.63728 7.20086 6.46650
#
# Compressibility (1/GPa) = 0.02213435
#
# Stress axis : x y z
#
# Youngs Moduli (GPa) = 212.62015 49.97937 83.26399
#
# Poissons Ratio (x) = 0.17579 0.10662
# Poissons Ratio (y) = 0.74786 0.20781
# Poissons Ratio (z) = 0.27225 0.12474
#
# Static dielectric constant tensor:
#      x y z
#    x 2.280850 0.093030 0.017740 
#    y 0.093030 2.245760 0.052690 
#    z 0.017740 0.052690 2.185980 
# 
# From -- ./inp_files/153935.got.cif
#   From: 2010.05.17/outbox.cif.g08.bks.cpg/sg2_77_cif.got.tgz:153935.got - 2010.06.03 11:33:40.
