data_PCOD9003308
_publ_section_title
;
Structure prediction by ZEFSAII (Michael W. Deem and Ramdas Pophale) SiO2 
 PCOD9003308
Probable space group: P -1
;
_chemical_formula_sum "Si O2"
_cell_formula_units_Z 14
_cell_length_a 14.259338
_cell_length_b 22.778369
_cell_length_c 10.434937
_cell_angle_alpha 153.208799
_cell_angle_beta 27.682654
_cell_angle_gamma 158.605500
_cell_volume 525.911646
_symmetry_space_group_name_H-M "P -1"
_symmetry_group_IT_number 2
_symmetry_cell_setting 'triclinic'
loop_
_space_group_symop_operation_xyz
x,y,z
-x,-y,-z
loop_
_atom_site_type_symbol
_atom_site_label
_atom_site_fract_x
_atom_site_fract_y
_atom_site_fract_z
Si Si1 0.638975 0.685654 0.630242
Si Si2 0.899047 0.409171 0.241811
Si Si3 0.847783 0.801738 0.147498
Si Si4 0.830537 0.053511 0.354803
Si Si5 0.368999 0.143407 0.254012
Si Si6 0.660666 0.465535 0.872112
Si Si7 0.704973 0.232188 0.656814
O O1 0.500000 0.500000 0.500000
O O2 0.618415 0.715672 0.564464
O O3 0.958798 0.816690 0.535600
O O4 0.467860 0.735816 0.991541
O O5 0.677921 0.238304 0.092987
O O6 0.759303 0.395819 0.517221
O O7 0.176783 0.463469 0.055203
O O8 0.011620 0.583421 0.371647
O O9 0.755622 0.883848 0.507294
O O10 0.660916 0.702087 0.055113
O O11 0.756534 0.636193 0.014854
O O12 0.168796 0.962237 0.065184
O O13 0.788776 0.146839 0.478225
O O14 0.507911 0.881618 0.425866
O O15 0.000000 0.000000 0.000000
#
# Coordination Sequence:
#
# PCOD9003308 Si02
#       7
#     2   2   2   2   2   2   2
#     4  11  24  39  60  94 128 169 205 251 316 378
#     4  10  21  37  59  88 118 157 197 260 305 367
#     4   9  20  40  61  86 117 161 203 255 301 366
#     4   9  21  41  61  87 119 163 214 253 302 371
#     4  10  22  38  58  88 125 155 202 254 309 367
#     4   9  20  38  61  87 113 156 212 246 307 365
#     4  10  22  41  62  89 126 162 210 258 307 372
#
# _framework density 26.620442000000001
#
# number of rings (size 3 to 8) (size 9 to 14) (size 15 to 20)
#    0.000    2.286    0.000    0.857    4.000    6.286 
#    5.143    0.000    0.000    0.000    0.000    0.000 
#    0.000    0.000    0.000    0.000    0.000    0.000 
#
# Total GULP energy -78172.973571 kJ/mol
# GULP energy per Si atom -5583.783827 kJ/mol
# Density = 2.655985 g / cm^3
# Si number density = 26.620442 Si / 1000 Ang^3
#
#
#
# Elastic Constant Matrix: (Units=GPa)
#
#
# Indices 1 2 3 4 5 6 
#
# 1 132.7903 71.6760 30.9459 -1.4801 -27.1263 41.8906
# 2 71.6760 184.1136 24.9668 5.0234 -5.0224 61.2749
# 3 30.9459 24.9668 116.7493 -22.4076 -26.1161 7.3040
# 4 -1.4801 5.0234 -22.4076 31.3398 -7.2004 -1.7987
# 5 -27.1263 -5.0224 -26.1161 -7.2004 33.6519 -6.1617
# 6 41.8906 61.2749 7.3040 -1.7987 -6.1617 65.7539
#
#
#
# Elastic Compliance Matrix: (Units=1/GPa)
#
#
# Indices 1 2 3 4 5 6 
#
# 1 0.012633 -0.003608 0.000703 0.003841 0.010337 -0.003690
# 2 -0.003608 0.009622 -0.003282 -0.005981 -0.006596 -0.007086
# 3 0.000703 -0.003282 0.015393 0.015362 0.015824 0.002803
# 4 0.003841 -0.005981 0.015362 0.050267 0.025836 0.005217
# 5 0.010337 -0.006596 0.015824 0.025836 0.055552 0.003716
# 6 -0.003690 -0.007086 0.002803 0.005217 0.003716 0.024342
#
#
# Mechanical properties :
#
#
# Convention : Reuss Voigt Hill
#
# Bulk Modulus (GPa) = 39.56323 76.53674 58.04999
# Shear Modulus (GPa) = 26.51007 46.55341 36.53174
#
# Velocity S-wave (km/s) = 3.15914 4.18638 3.70850
# Velocity P-wave (km/s) = 5.31047 7.22366 6.33965
#
# Compressibility (1/GPa) = 0.02527599
#
# Stress axis : x y z
#
# Youngs Moduli (GPa) = 79.15931 103.92328 64.96324
#
# Poissons Ratio (x) = 0.37496 -0.04569
# Poissons Ratio (y) = 0.28561 0.21319
# Poissons Ratio (z) = -0.05568 0.34104
#
# Static dielectric constant tensor:
#      x y z
#    x 2.098910 0.043610 0.018190 
#    y 0.043610 2.115460 0.027780 
#    z 0.018190 0.027780 2.198360 
# 
# From -- ./inp_files/458097.got.cif
#   From: 2010.05.17/outbox.cif.g08.bks.cpg/sg2_230_cif.got.tgz:458097.got - 2010.06.03 11:33:40.
