data_PCOD9003953
_publ_section_title
;
Structure prediction by ZEFSAII (Michael W. Deem and Ramdas Pophale) SiO2 
 PCOD9003953
Probable space group: P -1
;
_chemical_formula_sum "Si O2"
_cell_formula_units_Z 12
_cell_length_a 11.113623
_cell_length_b 13.693145
_cell_length_c 8.497384
_cell_angle_alpha 51.916602
_cell_angle_beta 45.872831
_cell_angle_gamma 30.469200
_cell_volume 470.175117
_symmetry_space_group_name_H-M "P -1"
_symmetry_group_IT_number 2
_symmetry_cell_setting 'triclinic'
loop_
_space_group_symop_operation_xyz
x,y,z
-x,-y,-z
loop_
_atom_site_type_symbol
_atom_site_label
_atom_site_fract_x
_atom_site_fract_y
_atom_site_fract_z
Si Si1 0.921918 0.794346 0.495278
Si Si2 0.403339 0.660200 0.314030
Si Si3 0.304361 0.283796 0.051422
Si Si4 0.540994 0.192920 0.624922
Si Si5 0.365949 0.700189 0.852914
Si Si6 0.788074 0.971560 0.124144
O O1 0.183862 0.726736 0.338980
O O2 0.717872 0.989900 0.587560
O O3 0.922245 0.660720 0.709802
O O4 0.172829 0.152503 0.651355
O O5 0.500000 0.500000 0.500000
O O6 0.481605 0.323508 0.408633
O O7 0.302191 0.821688 0.367037
O O8 0.314434 0.265466 0.871463
O O9 0.565211 0.075796 0.097645
O O10 0.351808 0.404009 0.919316
O O11 0.308339 0.848435 0.875915
O O12 0.500000 0.500000 0.000000
O O13 0.073797 0.830847 0.933333
#
# Coordination Sequence:
#
# PCOD9003953 Si02
#       6
#     2   2   2   2   2   2
#     4  11  21  41  62  85 122 159 199 250 302 359
#     4  10  23  36  59  90 119 153 201 246 301 360
#     4  10  22  38  64  87 120 159 200 250 301 355
#     4   9  22  37  60  90 114 154 206 246 296 358
#     4  10  21  37  63  88 124 162 201 250 304 359
#     4  10  22  36  60  92 120 161 206 243 303 366
#
# _framework density 25.522403000000001
#
# number of rings (size 3 to 8) (size 9 to 14) (size 15 to 20)
#    1.000    1.000    0.000    4.500    7.000    0.667 
#    0.000    0.000    3.667    3.000    0.000    0.000 
#    0.000    0.000    0.000    0.000    0.000    0.000 
#
# Total GULP energy -66978.305803 kJ/mol
# GULP energy per Si atom -5581.525484 kJ/mol
# Density = 2.546431 g / cm^3
# Si number density = 25.522403 Si / 1000 Ang^3
#
#
#
# Elastic Constant Matrix: (Units=GPa)
#
#
# Indices 1 2 3 4 5 6 
#
# 1 59.0627 28.1594 37.9369 -16.7271 9.5457 -21.5596
# 2 28.1594 82.9309 48.3824 -20.6887 4.4594 -9.5930
# 3 37.9369 48.3824 215.0428 -34.2753 16.7892 -1.2096
# 4 -16.7271 -20.6887 -34.2753 25.6127 -1.0595 -2.8541
# 5 9.5457 4.4594 16.7892 -1.0595 41.6437 -10.2750
# 6 -21.5596 -9.5930 -1.2096 -2.8541 -10.2750 21.1710
#
#
#
# Elastic Compliance Matrix: (Units=1/GPa)
#
#
# Indices 1 2 3 4 5 6 
#
# 1 0.047889 0.000118 -0.003208 0.033464 0.004849 0.055503
# 2 0.000118 0.017497 -0.002005 0.012779 0.001835 0.010547
# 3 -0.003208 -0.002005 0.006562 0.004454 -0.002694 -0.004507
# 4 0.033464 0.012779 0.004454 0.083332 0.004495 0.053538
# 5 0.004849 0.001835 -0.002694 0.004495 0.028902 0.020249
# 6 0.055503 0.010547 -0.004507 0.053538 0.020249 0.125322
#
#
# Mechanical properties :
#
#
# Convention : Reuss Voigt Hill
#
# Bulk Modulus (GPa) = 16.19176 65.11043 40.65110
# Shear Modulus (GPa) = 14.69385 33.85599 24.27492
#
# Velocity S-wave (km/s) = 2.40203 3.64609 3.08737
# Velocity P-wave (km/s) = 3.74845 6.57965 5.35456
#
# Compressibility (1/GPa) = 0.06175979
#
# Stress axis : x y z
#
# Youngs Moduli (GPa) = 20.88175 57.15270 152.39291
#
# Poissons Ratio (x) = -0.00676 0.48881
# Poissons Ratio (y) = -0.00247 0.30549
# Poissons Ratio (z) = 0.06698 0.11457
#
# Static dielectric constant tensor:
#      x y z
#    x 2.011130 0.003520 0.003660 
#    y 0.003520 2.000830 -0.050440 
#    z 0.003660 -0.050440 2.133170 
# 
# From -- ./inp_files/72066.got.cif
#   From: 2010.05.17/outbox.cif.g08.bks.cpg/sg2_37_cif.got.tgz:72066.got - 2010.06.03 11:33:40.
