data_PCOD9003908
_publ_section_title
;
Structure prediction by ZEFSAII (Michael W. Deem and Ramdas Pophale) SiO2 
 PCOD9003908
Probable space group: P -1
;
_chemical_formula_sum "Si O2"
_cell_formula_units_Z 16
_cell_length_a 17.146350
_cell_length_b 10.686334
_cell_length_c 5.224247
_cell_angle_alpha 108.849751
_cell_angle_beta 58.388622
_cell_angle_gamma 118.256752
_cell_volume 714.476394
_symmetry_space_group_name_H-M "P -1"
_symmetry_group_IT_number 2
_symmetry_cell_setting 'triclinic'
loop_
_space_group_symop_operation_xyz
x,y,z
-x,-y,-z
loop_
_atom_site_type_symbol
_atom_site_label
_atom_site_fract_x
_atom_site_fract_y
_atom_site_fract_z
Si Si1 0.884825 0.452886 0.117478
Si Si2 0.065586 0.900548 0.282447
Si Si3 0.018088 0.165526 0.120168
Si Si4 0.256972 0.877363 0.818116
Si Si5 0.825935 0.565915 0.792363
Si Si6 0.379047 0.450442 0.952099
Si Si7 0.587612 0.687367 0.712739
Si Si8 0.386639 0.988035 0.157762
O O1 0.817174 0.287318 0.173623
O O2 0.849524 0.539573 0.446131
O O3 0.868645 0.489479 0.877677
O O4 0.000000 0.500000 0.000000
O O5 0.056213 0.827569 0.526605
O O6 0.180758 0.960744 0.046717
O O7 0.000000 0.000000 0.500000
O O8 0.008967 0.795115 0.083528
O O9 0.124451 0.267007 0.103456
O O10 0.000000 0.000000 0.000000
O O11 0.322102 0.925770 0.482462
O O12 0.329710 0.900499 0.950161
O O13 0.709496 0.510542 0.973538
O O14 0.474416 0.593865 0.921341
O O15 0.399931 0.358093 0.627700
O O16 0.353530 0.362849 0.204238
O O17 0.610207 0.852994 0.789203
O O18 0.500000 0.000000 0.000000
#
# Coordination Sequence:
#
# PCOD9003908 Si02
#       8
#     2   2   2   2   2   2   2   2
#     4  12  27  45  68 102 147 189 244 290 341 440
#     4  10  22  41  65  97 137 180 221 284 359 426
#     4  10  21  37  62  97 134 176 217 286 342 417
#     4  12  26  46  71 105 140 195 238 295 367 421
#     4  12  24  42  69  98 137 190 239 281 355 429
#     4  10  23  43  69 103 130 187 224 294 358 420
#     4  10  23  44  69  98 144 166 234 302 354 411
#     4  12  28  48  73 107 142 191 247 303 361 428
#
# _framework density 22.394023000000001
#
# number of rings (size 3 to 8) (size 9 to 14) (size 15 to 20)
#    0.000    1.000    0.000    6.000    3.500    6.000 
#    0.000    0.000    0.000    0.000    0.000    0.000 
#    0.000    0.000    0.000    0.000    0.000    0.000 
#
# Total GULP energy -89384.260867 kJ/mol
# GULP energy per Si atom -5586.516304 kJ/mol
# Density = 2.234305 g / cm^3
# Si number density = 22.394023 Si / 1000 Ang^3
#
#
#
# Elastic Constant Matrix: (Units=GPa)
#
#
# Indices 1 2 3 4 5 6 
#
# 1 120.2636 32.1954 42.2135 -5.6839 -1.4375 19.5638
# 2 32.1954 105.8962 24.4437 -10.9467 7.8549 6.3655
# 3 42.2135 24.4437 109.8393 -20.0346 20.2301 10.0986
# 4 -5.6839 -10.9467 -20.0346 25.0483 3.4506 7.4919
# 5 -1.4375 7.8549 20.2301 3.4506 52.4844 -1.7876
# 6 19.5638 6.3655 10.0986 7.4919 -1.7876 29.4149
#
#
#
# Elastic Compliance Matrix: (Units=1/GPa)
#
#
# Indices 1 2 3 4 5 6 
#
# 1 0.011129 -0.002356 -0.003571 0.000052 0.001841 -0.005568
# 2 -0.002356 0.010996 0.000027 0.005274 -0.002145 -0.002295
# 3 -0.003571 0.000027 0.014984 0.014196 -0.007043 -0.006819
# 4 0.000052 0.005274 0.014196 0.061844 -0.011091 -0.022475
# 5 0.001841 -0.002145 -0.007043 -0.011091 0.023069 0.005885
# 6 -0.005568 -0.002295 -0.006819 -0.022475 0.005885 0.046619
#
#
# Mechanical properties :
#
#
# Convention : Reuss Voigt Hill
#
# Bulk Modulus (GPa) = 39.51165 59.30044 49.40604
# Shear Modulus (GPa) = 26.47220 37.19928 31.83574
#
# Velocity S-wave (km/s) = 3.44191 4.08011 3.77453
# Velocity P-wave (km/s) = 5.78600 6.98100 6.41140
#
# Compressibility (1/GPa) = 0.02530899
#
# Stress axis : x y z
#
# Youngs Moduli (GPa) = 89.85343 90.94513 66.73803
#
# Poissons Ratio (x) = 0.21426 0.23830
# Poissons Ratio (y) = 0.21169 -0.00178
# Poissons Ratio (z) = 0.32083 -0.00242
#
# Static dielectric constant tensor:
#      x y z
#    x 5.189610 -3.758130 0.502560 
#    y -3.758130 5.994090 -0.549250 
#    z 0.502560 -0.549250 1.939820 
# 
# From -- ./inp_files/109811.got.cif
#   From: 2010.05.17/outbox.cif.g08.bks.cpg/sg2_55_cif.got.tgz:109811.got - 2010.06.03 11:33:40.
