data_PCOD9003353
_publ_section_title
;
Structure prediction by ZEFSAII (Michael W. Deem and Ramdas Pophale) SiO2 
 PCOD9003353
Probable space group: P -1
;
_chemical_formula_sum "Si O2"
_cell_formula_units_Z 16
_cell_length_a 11.687308
_cell_length_b 18.454915
_cell_length_c 10.771917
_cell_angle_alpha 142.981599
_cell_angle_beta 141.884457
_cell_angle_gamma 52.590710
_cell_volume 862.093779
_symmetry_space_group_name_H-M "P -1"
_symmetry_group_IT_number 2
_symmetry_cell_setting 'triclinic'
loop_
_space_group_symop_operation_xyz
x,y,z
-x,-y,-z
loop_
_atom_site_type_symbol
_atom_site_label
_atom_site_fract_x
_atom_site_fract_y
_atom_site_fract_z
Si Si1 0.913453 0.988357 0.730871
Si Si2 0.353891 0.280830 0.513538
Si Si3 0.200778 0.763507 0.927177
Si Si4 0.579692 0.867629 0.393727
Si Si5 0.280720 0.947128 0.604823
Si Si6 0.931821 0.553742 0.385746
Si Si7 0.240910 0.684260 0.143215
Si Si8 0.726805 0.942972 0.988723
O O1 0.784816 0.879233 0.528029
O O2 0.813056 0.011775 0.545436
O O3 0.130378 0.982066 0.876988
O O4 0.889150 0.106602 0.958932
O O5 0.402909 0.179085 0.515929
O O6 0.246861 0.376859 0.629801
O O7 0.540901 0.339545 0.696072
O O8 0.241816 0.198756 0.204362
O O9 0.079338 0.658654 0.612202
O O10 0.409209 0.783157 0.079574
O O11 0.211718 0.720732 0.022925
O O12 0.500000 0.000000 0.500000
O O13 0.220524 0.804979 0.369639
O O14 0.227802 0.019191 0.780045
O O15 0.506728 0.960125 0.806529
O O16 0.000000 0.500000 0.500000
O O17 0.880779 0.437273 0.099641
#
# Coordination Sequence:
#
# PCOD9003353 Si02
#       8
#     2   2   2   2   2   2   2   2
#     4  10  17  31  47  68  99 132 154 190 245 294
#     4  10  18  30  45  74 100 123 157 197 238 297
#     4   8  15  28  42  66  96 120 156 194 235 284
#     4   9  18  31  46  67 104 130 152 195 244 294
#     4   9  19  32  46  73 102 122 159 204 238 281
#     4  10  17  28  45  68  98 125 158 195 244 288
#     4   8  16  28  46  63  96 125 152 195 241 280
#     4  10  18  30  49  70 102 125 158 198 242 292
#
# _framework density 18.559467000000001
#
# number of rings (size 3 to 8) (size 9 to 14) (size 15 to 20)
#    0.000    2.750    1.250    3.000    0.000    0.500 
#    2.250    0.000    0.000    0.000    0.000    1.750 
#    0.000    0.125    0.000    0.000    0.000    0.000 
#
# Total GULP energy -89075.929734 kJ/mol
# GULP energy per Si atom -5567.245608 kJ/mol
# Density = 1.851722 g / cm^3
# Si number density = 18.559467 Si / 1000 Ang^3
#
#
#
# Elastic Constant Matrix: (Units=GPa)
#
#
# Indices 1 2 3 4 5 6 
#
# 1 58.4217 -2.8472 40.6236 2.3399 16.7320 -3.8334
# 2 -2.8472 33.0461 10.4980 1.2500 -4.6663 2.0270
# 3 40.6236 10.4980 139.8562 9.6303 16.3519 0.0950
# 4 2.3399 1.2500 9.6303 16.6002 -0.0162 3.1091
# 5 16.7320 -4.6663 16.3519 -0.0162 30.9475 -1.8356
# 6 -3.8334 2.0270 0.0950 3.1091 -1.8356 10.1995
#
#
#
# Elastic Compliance Matrix: (Units=1/GPa)
#
#
# Indices 1 2 3 4 5 6 
#
# 1 0.024763 0.002369 -0.006182 -0.001531 -0.009310 0.007685
# 2 0.002369 0.032704 -0.003788 0.000285 0.005373 -0.004694
# 3 -0.006182 -0.003788 0.009822 -0.004401 -0.002466 -0.000765
# 4 -0.001531 0.000285 -0.004401 0.066849 0.002009 -0.020607
# 5 -0.009310 0.005373 -0.002466 0.002009 0.039577 0.001966
# 6 0.007685 -0.004694 -0.000765 -0.020607 0.001966 0.108508
#
#
# Mechanical properties :
#
#
# Convention : Reuss Voigt Hill
#
# Bulk Modulus (GPa) = 19.19820 36.43032 27.81426
# Shear Modulus (GPa) = 15.88379 23.75274 19.81827
#
# Velocity S-wave (km/s) = 2.92864 3.58134 3.27130
# Velocity P-wave (km/s) = 4.66931 6.06406 5.41181
#
# Compressibility (1/GPa) = 0.05208822
#
# Stress axis : x y z
#
# Youngs Moduli (GPa) = 40.38295 30.57724 101.81144
#
# Poissons Ratio (x) = -0.07245 0.62940
# Poissons Ratio (y) = -0.09568 0.38564
# Poissons Ratio (z) = 0.24965 0.11582
#
# Static dielectric constant tensor:
#      x y z
#    x 1.649080 -0.016650 0.045440 
#    y -0.016650 1.685300 -0.041480 
#    z 0.045440 -0.041480 1.712330 
# 
# From -- ./inp_files/248339.got.cif
#   From: 2010.05.17/outbox.cif.g08.bks.cpg/sg2_125_cif.got.tgz:248339.got - 2010.06.03 11:33:40.
