data_PCOD9003039
_publ_section_title
;
Structure prediction by ZEFSAII (Michael W. Deem and Ramdas Pophale) SiO2 
 PCOD9003039
Probable space group: P -1
;
_chemical_formula_sum "Si O2"
_cell_formula_units_Z 14
_cell_length_a 8.235788
_cell_length_b 15.460480
_cell_length_c 19.276475
_cell_angle_alpha 18.675660
_cell_angle_beta 81.605392
_cell_angle_gamma 72.054701
_cell_volume 656.380573
_symmetry_space_group_name_H-M "P -1"
_symmetry_group_IT_number 2
_symmetry_cell_setting 'triclinic'
loop_
_space_group_symop_operation_xyz
x,y,z
-x,-y,-z
loop_
_atom_site_type_symbol
_atom_site_label
_atom_site_fract_x
_atom_site_fract_y
_atom_site_fract_z
Si Si1 0.764033 0.520947 0.605187
Si Si2 0.304435 0.838707 0.629680
Si Si3 0.064624 0.538766 0.890987
Si Si4 0.324728 0.444089 0.563237
Si Si5 0.786644 0.861764 0.088613
Si Si6 0.923922 0.834050 0.955198
Si Si7 0.354688 0.278605 0.391913
O O1 0.703126 0.684702 0.409763
O O2 0.645237 0.735273 0.514869
O O3 0.992294 0.363862 0.724688
O O4 0.734634 0.221354 0.830835
O O5 0.236381 0.604772 0.834361
O O6 0.474684 0.696300 0.670998
O O7 0.365906 0.974003 0.587310
O O8 0.119200 0.149291 0.370122
O O9 0.118000 0.254917 0.049454
O O10 0.000000 0.500000 0.000000
O O11 0.500000 0.500000 0.500000
O O12 0.340813 0.230972 0.788555
O O13 0.137503 0.800856 0.315494
O O14 0.805116 0.797960 0.053270
O O15 0.148496 0.590111 0.145703
#
# Coordination Sequence:
#
# PCOD9003039 Si02
#       7
#     2   2   2   2   2   2   2
#     4   9  19  35  57  80 106 143 182 224 268 319
#     4   9  20  38  58  81 111 144 181 227 272 319
#     4  10  21  37  57  84 114 143 178 222 275 328
#     4  11  23  35  54  85 114 143 180 223 275 329
#     4   9  19  38  56  77 109 143 183 224 267 322
#     4   9  21  38  55  79 111 147 182 223 272 321
#     4   9  18  38  60  79 107 145 187 227 268 315
#
# _framework density 21.329090000000001
#
# number of rings (size 3 to 8) (size 9 to 14) (size 15 to 20)
#    0.000    2.571    0.000    1.286    0.000   10.286 
#    0.000   10.714    0.000    0.000    0.000    0.000 
#    0.000    0.000    0.000    0.000    0.000    0.000 
#
# Total GULP energy -78225.311779 kJ/mol
# GULP energy per Si atom -5587.522270 kJ/mol
# Density = 2.128054 g / cm^3
# Si number density = 21.329090 Si / 1000 Ang^3
#
#
#
# Elastic Constant Matrix: (Units=GPa)
#
#
# Indices 1 2 3 4 5 6 
#
# 1 77.2452 45.9267 8.8904 9.7646 -20.5601 -15.2664
# 2 45.9267 184.6216 33.5624 23.3268 -16.4992 5.4961
# 3 8.8904 33.5624 38.7498 16.1918 -9.5125 -5.9081
# 4 9.7646 23.3268 16.1918 29.6815 -9.4420 4.1085
# 5 -20.5601 -16.4992 -9.5125 -9.4420 24.3841 5.8282
# 6 -15.2664 5.4961 -5.9081 4.1085 5.8282 30.0664
#
#
#
# Elastic Compliance Matrix: (Units=1/GPa)
#
#
# Indices 1 2 3 4 5 6 
#
# 1 0.021323 -0.005088 0.005845 -0.003647 0.012794 0.010924
# 2 -0.005088 0.008047 -0.006460 -0.000510 -0.000322 -0.005192
# 3 0.005845 -0.006460 0.041887 -0.019739 0.005925 0.013928
# 4 -0.003647 -0.000510 -0.019739 0.052224 0.012745 -0.015244
# 5 0.012794 -0.000322 0.005925 0.012745 0.060186 -0.005689
# 6 0.010924 -0.005192 0.013928 -0.015244 -0.005689 0.045678
#
#
# Mechanical properties :
#
#
# Convention : Reuss Voigt Hill
#
# Bulk Modulus (GPa) = 16.70812 53.04174 34.87493
# Shear Modulus (GPa) = 19.17900 30.97555 25.07727
#
# Velocity S-wave (km/s) = 3.00191 3.81500 3.43261
# Velocity P-wave (km/s) = 4.45710 6.65792 5.66541
#
# Compressibility (1/GPa) = 0.05985113
#
# Stress axis : x y z
#
# Youngs Moduli (GPa) = 46.89667 124.27435 23.87392
#
# Poissons Ratio (x) = 0.63232 -0.13954
# Poissons Ratio (y) = 0.23861 0.15422
# Poissons Ratio (z) = -0.27410 0.80276
#
# Static dielectric constant tensor:
#      x y z
#    x 1.789810 0.009700 0.033060 
#    y 0.009700 1.763230 0.006500 
#    z 0.033060 0.006500 1.777760 
# 
# From -- ./inp_files/27044.got.cif
#   From: 2010.05.17/outbox.cif.g08.bks.cpg/sg2_14_cif.got.tgz:27044.got - 2010.06.03 11:33:40.
