data_PCOD9003881
_publ_section_title
;
Structure prediction by ZEFSAII (Michael W. Deem and Ramdas Pophale) SiO2 
 PCOD9003881
Probable space group: P -1
;
_chemical_formula_sum "Si O2"
_cell_formula_units_Z 16
_cell_length_a 20.241930
_cell_length_b 5.704319
_cell_length_c 8.403152
_cell_angle_alpha 55.941605
_cell_angle_beta 63.928516
_cell_angle_gamma 81.389408
_cell_volume 715.966776
_symmetry_space_group_name_H-M "P -1"
_symmetry_group_IT_number 2
_symmetry_cell_setting 'triclinic'
loop_
_space_group_symop_operation_xyz
x,y,z
-x,-y,-z
loop_
_atom_site_type_symbol
_atom_site_label
_atom_site_fract_x
_atom_site_fract_y
_atom_site_fract_z
Si Si1 0.778190 0.967381 0.170252
Si Si2 0.513838 0.670767 0.589008
Si Si3 0.708268 0.169621 0.849937
Si Si4 0.179025 0.627900 0.583919
Si Si5 0.034068 0.388286 0.664043
Si Si6 0.571154 0.838194 0.969906
Si Si7 0.656944 0.768098 0.596151
Si Si8 0.075609 0.791454 0.910268
O O1 0.862662 0.095569 0.065997
O O2 0.780029 0.627253 0.293329
O O3 0.721787 0.991975 0.367616
O O4 0.747305 0.096674 0.997404
O O5 0.500000 0.500000 0.500000
O O6 0.598343 0.661696 0.559831
O O7 0.500000 0.000000 0.500000
O O8 0.458139 0.489865 0.840123
O O9 0.762459 0.141643 0.652339
O O10 0.690845 0.495604 0.735297
O O11 0.632506 0.963033 0.984255
O O12 0.119630 0.509446 0.555511
O O13 0.126885 0.713126 0.744411
O O14 0.000000 0.500000 0.500000
O O15 0.033298 0.047501 0.794688
O O16 0.983097 0.439408 0.851956
O O17 0.608675 0.885935 0.740449
O O18 0.500000 0.000000 0.000000
#
# Coordination Sequence:
#
# PCOD9003881 Si02
#       8
#     2   2   2   2   2   2   2   2
#     4  10  23  41  62  92 129 173 223 272 341 404
#     4  12  27  45  73 103 137 182 234 293 365 429
#     4  11  24  43  67  94 130 176 225 281 345 415
#     4  10  22  40  63  94 130 169 219 275 328 406
#     4  10  21  37  62  95 128 169 214 266 327 398
#     4  12  25  45  68  97 136 176 231 294 355 421
#     4  11  25  43  67  94 133 172 226 287 345 418
#     4  10  21  39  61  90 133 168 215 270 327 396
#
# _framework density 22.347404999999998
#
# number of rings (size 3 to 8) (size 9 to 14) (size 15 to 20)
#    0.000    1.250    1.250    3.750    3.500    2.500 
#    0.000    0.000    0.000    0.000    0.000    0.000 
#    0.000    0.000    0.000    0.000    0.000    0.000 
#
# Total GULP energy -89457.550288 kJ/mol
# GULP energy per Si atom -5591.096893 kJ/mol
# Density = 2.229654 g / cm^3
# Si number density = 22.347405 Si / 1000 Ang^3
#
#
#
# Elastic Constant Matrix: (Units=GPa)
#
#
# Indices 1 2 3 4 5 6 
#
# 1 153.6848 25.9391 61.1751 -9.7108 22.3929 -9.5878
# 2 25.9391 79.6879 36.5328 14.6830 13.0520 -16.6137
# 3 61.1751 36.5328 124.4535 3.7770 -0.8036 -21.3846
# 4 -9.7108 14.6830 3.7770 41.0855 -1.5490 -11.0880
# 5 22.3929 13.0520 -0.8036 -1.5490 53.0111 -0.3586
# 6 -9.5878 -16.6137 -21.3846 -11.0880 -0.3586 26.6389
#
#
#
# Elastic Compliance Matrix: (Units=1/GPa)
#
#
# Indices 1 2 3 4 5 6 
#
# 1 0.009069 -0.000842 -0.004240 0.002823 -0.003602 0.000462
# 2 -0.000842 0.017115 -0.003543 -0.004646 -0.004010 0.005539
# 3 -0.004240 -0.003543 0.012279 0.001023 0.002924 0.006586
# 4 0.002823 -0.004646 0.001023 0.029656 0.000910 0.011296
# 5 -0.003602 -0.004010 0.002924 0.000910 0.021439 -0.000783
# 6 0.000462 0.005539 0.006586 0.011296 -0.000783 0.051138
#
#
# Mechanical properties :
#
#
# Convention : Reuss Voigt Hill
#
# Bulk Modulus (GPa) = 47.14342 67.23556 57.18949
# Shear Modulus (GPa) = 30.29987 39.75905 35.02946
#
# Velocity S-wave (km/s) = 3.68619 4.22256 3.96346
# Velocity P-wave (km/s) = 6.26569 7.34337 6.82583
#
# Compressibility (1/GPa) = 0.02121187
#
# Stress axis : x y z
#
# Youngs Moduli (GPa) = 110.26793 58.42771 81.43901
#
# Poissons Ratio (x) = 0.04919 0.34532
# Poissons Ratio (y) = 0.09284 0.28857
# Poissons Ratio (z) = 0.46756 0.20703
#
# Static dielectric constant tensor:
#      x y z
#    x 1.820690 0.029470 -0.024460 
#    y 0.029470 1.901270 0.038240 
#    z -0.024460 0.038240 1.832730 
# 
# From -- ./inp_files/122758.got.cif
#   From: 2010.05.17/outbox.cif.g08.bks.cpg/sg2_62_cif.got.tgz:122758.got - 2010.06.03 11:33:40.
