data_PCOD9003395
_publ_section_title
;
Structure prediction by ZEFSAII (Michael W. Deem and Ramdas Pophale) SiO2 
 PCOD9003395
Probable space group: P -1
;
_chemical_formula_sum "Si O2"
_cell_formula_units_Z 14
_cell_length_a 10.474422
_cell_length_b 18.061278
_cell_length_c 14.793161
_cell_angle_alpha 156.836996
_cell_angle_beta 33.511290
_cell_angle_gamma 147.256994
_cell_volume 570.843459
_symmetry_space_group_name_H-M "P -1"
_symmetry_group_IT_number 2
_symmetry_cell_setting 'triclinic'
loop_
_space_group_symop_operation_xyz
x,y,z
-x,-y,-z
loop_
_atom_site_type_symbol
_atom_site_label
_atom_site_fract_x
_atom_site_fract_y
_atom_site_fract_z
Si Si1 0.115862 0.800422 0.007079
Si Si2 0.173799 0.424626 0.220249
Si Si3 0.797424 0.177784 0.303569
Si Si4 0.613800 0.877775 0.913121
Si Si5 0.366707 0.615714 0.905486
Si Si6 0.072846 0.236432 0.738106
Si Si7 0.399254 0.119360 0.765033
O O1 0.372351 0.832645 0.943123
O O2 0.911492 0.745457 0.143124
O O3 0.044925 0.623629 0.777353
O O4 0.161717 0.009057 0.159259
O O5 0.312785 0.656304 0.411369
O O6 0.054674 0.317945 0.265338
O O7 0.321741 0.284951 0.944497
O O8 0.644303 0.042334 0.160114
O O9 0.806044 0.042675 0.232717
O O10 0.574296 0.684315 0.781735
O O11 0.426214 0.746434 0.108987
O O12 0.142742 0.676278 0.064555
O O13 0.297140 0.384911 0.715425
O O14 0.000000 0.000000 0.500000
O O15 0.500000 0.000000 0.500000
#
# Coordination Sequence:
#
# PCOD9003395 Si02
#       7
#     2   2   2   2   2   2   2
#     4   9  18  33  60  87 110 148 196 246 286 349
#     4  10  21  38  61  87 117 157 200 244 298 350
#     4   9  20  40  62  83 117 159 199 244 297 351
#     4   8  16  37  60  84 113 147 196 249 289 342
#     4   9  21  39  55  81 117 154 190 240 293 354
#     4  10  21  37  60  81 115 154 193 239 300 350
#     4  11  24  36  57  87 124 156 197 242 291 360
#
# _framework density 24.525113999999999
#
# number of rings (size 3 to 8) (size 9 to 14) (size 15 to 20)
#    0.000    2.571    0.000    0.429    4.000    4.000 
#    0.000    0.714    0.000    0.000    0.000    0.000 
#    0.000    0.000    0.000    0.000    0.000    0.000 
#
# Total GULP energy -78065.541801 kJ/mol
# GULP energy per Si atom -5576.110129 kJ/mol
# Density = 2.446929 g / cm^3
# Si number density = 24.525114 Si / 1000 Ang^3
#
#
#
# Elastic Constant Matrix: (Units=GPa)
#
#
# Indices 1 2 3 4 5 6 
#
# 1 100.6214 27.5728 18.8924 5.2604 11.1859 -28.9816
# 2 27.5728 129.2842 29.0067 34.4430 3.0339 -37.5754
# 3 18.8924 29.0067 95.7678 26.5977 -12.3452 -18.0768
# 4 5.2604 34.4430 26.5977 35.6219 -4.0145 -6.7054
# 5 11.1859 3.0339 -12.3452 -4.0145 21.0762 -3.2465
# 6 -28.9816 -37.5754 -18.0768 -6.7054 -3.2465 28.8894
#
#
#
# Elastic Compliance Matrix: (Units=1/GPa)
#
#
# Indices 1 2 3 4 5 6 
#
# 1 0.015023 0.002283 -0.001072 -0.001306 -0.006665 0.016318
# 2 0.002283 0.017267 0.002523 -0.014814 -0.001542 0.022716
# 3 -0.001072 0.002523 0.016271 -0.011358 0.009234 0.010789
# 4 -0.001306 -0.014814 -0.011358 0.048360 0.002898 -0.016135
# 5 -0.006665 -0.001542 0.009234 0.002898 0.057823 0.004257
# 6 0.016318 0.022716 0.010789 -0.016135 0.004257 0.084016
#
#
# Mechanical properties :
#
#
# Convention : Reuss Voigt Hill
#
# Bulk Modulus (GPa) = 17.84735 52.95748 35.40241
# Shear Modulus (GPa) = 20.00270 33.79760 26.90015
#
# Velocity S-wave (km/s) = 2.85897 3.71628 3.31545
# Velocity P-wave (km/s) = 4.26512 6.32885 5.39655
#
# Compressibility (1/GPa) = 0.05603073
#
# Stress axis : x y z
#
# Youngs Moduli (GPa) = 66.56463 57.91352 61.46063
#
# Poissons Ratio (x) = -0.13225 0.06586
# Poissons Ratio (y) = -0.15200 -0.15507
# Poissons Ratio (z) = 0.07133 -0.14612
#
# Static dielectric constant tensor:
#      x y z
#    x 2.004520 0.058580 -0.053530 
#    y 0.058580 2.070460 -0.043310 
#    z -0.053530 -0.043310 2.000110 
# 
# From -- ./inp_files/363008.got.cif
#   From: 2010.05.17/outbox.cif.g08.bks.cpg/sg2_182_cif.got.tgz:363008.got - 2010.06.03 11:33:40.
