data_PCOD9003257
_publ_section_title
;
Structure prediction by ZEFSAII (Michael W. Deem and Ramdas Pophale) SiO2 
 PCOD9003257
Probable space group: P -1
;
_chemical_formula_sum "Si O2"
_cell_formula_units_Z 16
_cell_length_a 21.063345
_cell_length_b 12.133648
_cell_length_c 8.004859
_cell_angle_alpha 110.783661
_cell_angle_beta 71.034893
_cell_angle_gamma 158.091226
_cell_volume 713.638527
_symmetry_space_group_name_H-M "P -1"
_symmetry_group_IT_number 2
_symmetry_cell_setting 'triclinic'
loop_
_space_group_symop_operation_xyz
x,y,z
-x,-y,-z
loop_
_atom_site_type_symbol
_atom_site_label
_atom_site_fract_x
_atom_site_fract_y
_atom_site_fract_z
Si Si1 0.194852 0.347627 0.559063
Si Si2 0.761121 0.999468 0.969254
Si Si3 0.734851 0.280170 0.436333
Si Si4 0.740000 0.705934 0.807577
Si Si5 0.286043 0.779945 0.212607
Si Si6 0.096782 0.250928 0.938599
Si Si7 0.005837 0.528829 0.263071
Si Si8 0.470057 0.152749 0.936484
O O1 0.223408 0.518429 0.536413
O O2 0.294444 0.407713 0.403756
O O3 0.214317 0.387388 0.763502
O O4 0.000000 0.000000 0.500000
O O5 0.677160 0.737042 0.892692
O O6 0.618819 0.864728 0.978584
O O7 0.911838 0.264604 0.848918
O O8 0.856544 0.195701 0.161322
O O9 0.643394 0.124204 0.609952
O O10 0.902968 0.467500 0.411438
O O11 0.625969 0.060647 0.253523
O O12 0.659672 0.487707 0.895404
O O13 0.938776 0.047545 0.857351
O O14 0.161646 0.694822 0.273634
O O15 0.179787 0.491574 0.098800
O O16 0.423758 0.014140 0.072999
O O17 0.000000 0.000000 0.000000
#
# Coordination Sequence:
#
# PCOD9003257 Si02
#       8
#     2   2   2   2   2   2   2   2
#     4  10  21  37  59  85 118 151 199 249 290 347
#     4   9  17  33  63  90 119 155 199 240 301 350
#     4  11  21  38  60  90 121 155 203 243 299 350
#     4  11  21  39  62  86 123 164 195 240 308 349
#     4  11  20  38  62  88 121 154 202 249 293 352
#     4  11  22  40  60  91 117 153 204 254 290 348
#     4   9  17  32  61  93 115 151 198 257 290 344
#     4  10  23  39  61  89 125 160 193 245 295 367
#
# _framework density 22.420316
#
# number of rings (size 3 to 8) (size 9 to 14) (size 15 to 20)
#    0.000    1.750    2.500    4.500    0.000    0.500 
#    2.250    1.250    0.000    4.500    0.000    0.000 
#    0.000    0.000    0.000    0.000    0.000    0.000 
#
# Total GULP energy -89256.202721 kJ/mol
# GULP energy per Si atom -5578.512670 kJ/mol
# Density = 2.236929 g / cm^3
# Si number density = 22.420316 Si / 1000 Ang^3
#
#
#
# Elastic Constant Matrix: (Units=GPa)
#
#
# Indices 1 2 3 4 5 6 
#
# 1 75.8296 34.9946 34.3195 9.4906 -7.9377 -24.9753
# 2 34.9946 103.5732 40.2329 -3.6283 -1.4145 -22.8946
# 3 34.3195 40.2329 120.3710 -15.0230 9.2190 -22.1559
# 4 9.4906 -3.6283 -15.0230 29.3296 -13.7066 -0.7992
# 5 -7.9377 -1.4145 9.2190 -13.7066 26.9917 0.1000
# 6 -24.9753 -22.8946 -22.1559 -0.7992 0.1000 45.1731
#
#
#
# Elastic Compliance Matrix: (Units=1/GPa)
#
#
# Indices 1 2 3 4 5 6 
#
# 1 0.020693 -0.003885 -0.004516 -0.007655 0.003510 0.007113
# 2 -0.003885 0.012693 -0.002369 0.002425 0.001552 0.003163
# 3 -0.004516 -0.002369 0.011733 0.006139 -0.002350 0.002171
# 4 -0.007655 0.002425 0.006139 0.049910 0.021121 0.000844
# 5 0.003510 0.001552 -0.002350 0.021121 0.049683 0.001838
# 6 0.007113 0.003163 0.002171 0.000844 0.001838 0.028748
#
#
# Mechanical properties :
#
#
# Convention : Reuss Voigt Hill
#
# Bulk Modulus (GPa) = 42.41178 57.65198 50.03188
# Shear Modulus (GPa) = 24.64750 32.98068 28.81409
#
# Velocity S-wave (km/s) = 3.31922 3.83955 3.58883
# Velocity P-wave (km/s) = 5.80064 6.73989 6.28783
#
# Compressibility (1/GPa) = 0.02357836
#
# Stress axis : x y z
#
# Youngs Moduli (GPa) = 48.32589 78.78285 85.23114
#
# Poissons Ratio (x) = 0.30608 0.38493
# Poissons Ratio (y) = 0.18775 0.20190
# Poissons Ratio (z) = 0.21825 0.18663
#
# Static dielectric constant tensor:
#      x y z
#    x 1.865860 0.056080 -0.026810 
#    y 0.056080 1.832890 -0.039860 
#    z -0.026810 -0.039860 1.886850 
# 
# From -- ./inp_files/243630.got.cif
#   From: 2010.05.17/outbox.cif.g08.bks.cpg/sg2_122_cif.got.tgz:243630.got - 2010.06.03 11:33:40.
