data_PCOD9003418
_publ_section_title
;
Structure prediction by ZEFSAII (Michael W. Deem and Ramdas Pophale) SiO2 
 PCOD9003418
Probable space group: P -1
;
_chemical_formula_sum "Si O2"
_cell_formula_units_Z 16
_cell_length_a 6.814230
_cell_length_b 8.096252
_cell_length_c 18.249036
_cell_angle_alpha 55.281976
_cell_angle_beta 54.761725
_cell_angle_gamma 72.107621
_cell_volume 675.566221
_symmetry_space_group_name_H-M "P -1"
_symmetry_group_IT_number 2
_symmetry_cell_setting 'triclinic'
loop_
_space_group_symop_operation_xyz
x,y,z
-x,-y,-z
loop_
_atom_site_type_symbol
_atom_site_label
_atom_site_fract_x
_atom_site_fract_y
_atom_site_fract_z
Si Si1 0.361433 0.987851 0.635846
Si Si2 0.571801 0.970208 0.801752
Si Si3 0.756866 0.414453 0.860204
Si Si4 0.705414 0.282285 0.410536
Si Si5 0.218850 0.244752 0.741624
Si Si6 0.122638 0.670984 0.980674
Si Si7 0.813564 0.828144 0.655300
Si Si8 0.690043 0.852130 0.964532
O O1 0.461127 0.174550 0.517973
O O2 0.249105 0.092648 0.704849
O O3 0.229677 0.820619 0.655724
O O4 0.594172 0.865229 0.640142
O O5 0.760734 0.989454 0.689948
O O6 0.711179 0.916334 0.859111
O O7 0.398692 0.160896 0.786536
O O8 0.374988 0.785884 0.879855
O O9 0.856258 0.418414 0.920381
O O10 0.780240 0.616208 0.758207
O O11 0.940544 0.264030 0.819187
O O12 0.477403 0.351144 0.943420
O O13 0.700746 0.522418 0.351013
O O14 0.928103 0.198407 0.430976
O O15 0.000000 0.500000 0.000000
O O16 0.922588 0.838241 0.968213
O O17 0.500000 0.000000 0.000000
#
# Coordination Sequence:
#
# PCOD9003418 Si02
#       8
#     2   2   2   2   2   2   2   2
#     4  10  22  41  64  89 117 152 192 239 301 361
#     4  10  22  37  54  86 117 153 202 238 283 346
#     4  10  22  37  54  86 117 153 202 238 283 346
#     4  10  22  41  64  89 117 152 192 239 301 361
#     4  10  21  39  62  86 122 154 192 249 291 344
#     4  11  22  37  58  82 119 161 197 241 288 334
#     4  10  21  37  60  86 118 150 192 247 289 344
#     4  11  22  35  54  76 114 159 193 238 287 332
#
# _framework density 23.683835999999999
#
# number of rings (size 3 to 8) (size 9 to 14) (size 15 to 20)
#    0.000    1.750    0.000    3.750    0.000   14.000 
#    0.000    3.750    0.000   13.500    0.000    0.000 
#    0.000    0.000    0.000    0.000    0.000    0.000 
#
# Total GULP energy -89293.748549 kJ/mol
# GULP energy per Si atom -5580.859284 kJ/mol
# Density = 2.362993 g / cm^3
# Si number density = 23.683836 Si / 1000 Ang^3
#
#
#
# Elastic Constant Matrix: (Units=GPa)
#
#
# Indices 1 2 3 4 5 6 
#
# 1 81.5065 19.2783 19.3623 -5.1898 -4.8131 -5.0940
# 2 19.2783 101.2852 15.0152 -15.5056 0.0032 -9.7438
# 3 19.3623 15.0152 64.8723 -8.8757 2.4537 2.1498
# 4 -5.1898 -15.5056 -8.8757 44.5153 -4.1489 4.0484
# 5 -4.8131 0.0032 2.4537 -4.1489 23.2470 1.1215
# 6 -5.0940 -9.7438 2.1498 4.0484 1.1215 41.0964
#
#
#
# Elastic Compliance Matrix: (Units=1/GPa)
#
#
# Indices 1 2 3 4 5 6 
#
# 1 0.013932 -0.001894 -0.003837 0.000383 0.003293 0.001351
# 2 -0.001894 0.011176 -0.001670 0.003163 0.000242 0.002184
# 3 -0.003837 -0.001670 0.017423 0.002427 -0.002105 -0.001965
# 4 0.000383 0.003163 0.002427 0.024667 0.004316 -0.001877
# 5 0.003293 0.000242 -0.002105 0.004316 0.044742 -0.001071
# 6 0.001351 0.002184 -0.001965 -0.001877 -0.001071 0.025335
#
#
# Mechanical properties :
#
#
# Convention : Reuss Voigt Hill
#
# Bulk Modulus (GPa) = 36.06379 39.44172 37.75276
# Shear Modulus (GPa) = 30.99422 34.70562 32.84992
#
# Velocity S-wave (km/s) = 3.62147 3.83217 3.72831
# Velocity P-wave (km/s) = 5.72250 6.02248 5.87441
#
# Compressibility (1/GPa) = 0.02772864
#
# Stress axis : x y z
#
# Youngs Moduli (GPa) = 71.77863 89.48110 57.39412
#
# Poissons Ratio (x) = 0.16951 0.22020
# Poissons Ratio (y) = 0.13598 0.09585
# Poissons Ratio (z) = 0.27538 0.14944
#
# Static dielectric constant tensor:
#      x y z
#    x 2.032490 0.030730 0.004750 
#    y 0.030730 2.044610 -0.015160 
#    z 0.004750 -0.015160 1.981300 
# 
# From -- ./inp_files/358465.got.cif
#   From: 2010.05.17/outbox.cif.g08.bks.cpg/sg2_180_cif.got.tgz:358465.got - 2010.06.03 11:33:40.
