data_PCOD9003650
_publ_section_title
;
Structure prediction by ZEFSAII (Michael W. Deem and Ramdas Pophale) SiO2 
 PCOD9003650
Probable space group: P -1
;
_chemical_formula_sum "Si O2"
_cell_formula_units_Z 16
_cell_length_a 11.784539
_cell_length_b 15.046630
_cell_length_c 12.246933
_cell_angle_alpha 121.811430
_cell_angle_beta 50.207733
_cell_angle_gamma 150.357866
_cell_volume 822.825869
_symmetry_space_group_name_H-M "P -1"
_symmetry_group_IT_number 2
_symmetry_cell_setting 'triclinic'
loop_
_space_group_symop_operation_xyz
x,y,z
-x,-y,-z
loop_
_atom_site_type_symbol
_atom_site_label
_atom_site_fract_x
_atom_site_fract_y
_atom_site_fract_z
Si Si1 0.806229 0.547799 0.320807
Si Si2 0.568790 0.595662 0.353341
Si Si3 0.554117 0.193945 0.153574
Si Si4 0.133524 0.139370 0.160053
Si Si5 0.599241 0.511597 0.059373
Si Si6 0.608261 0.112331 0.839000
Si Si7 0.972588 0.992187 0.642413
Si Si8 0.911913 0.111984 0.069831
O O1 0.714613 0.579821 0.307083
O O2 0.647674 0.490280 0.487594
O O3 0.724062 0.385336 0.222917
O O4 0.105045 0.728779 0.277901
O O5 0.498910 0.524373 0.228562
O O6 0.769265 0.803484 0.353373
O O7 0.275818 0.081719 0.232962
O O8 0.502284 0.066146 0.181180
O O9 0.641206 0.195579 0.986196
O O10 0.436941 0.314675 0.058531
O O11 0.076397 0.126923 0.315187
O O12 0.999120 0.141085 0.159458
O O13 0.037074 0.968273 0.075935
O O14 0.500000 0.500000 0.000000
O O15 0.903809 0.696222 0.978816
O O16 0.384451 0.033603 0.854234
O O17 0.000000 0.000000 0.500000
#
# Coordination Sequence:
#
# PCOD9003650 Si02
#       8
#     2   2   2   2   2   2   2   2
#     4  11  24  38  58  91 124 168 200 254 313 364
#     4  11  22  38  62  93 126 154 214 258 303 368
#     4  11  22  37  56  91 124 164 200 255 311 371
#     4  10  21  37  62  90 119 157 201 253 312 349
#     4  10  21  37  61  91 120 153 200 257 302 355
#     4  11  23  38  58  87 130 162 205 250 309 370
#     4  12  21  39  64  93 125 158 204 260 312 359
#     4  10  21  39  60  90 119 157 205 255 299 367
#
# _framework density 19.445184000000001
#
# number of rings (size 3 to 8) (size 9 to 14) (size 15 to 20)
#    0.000    1.250    5.000    1.125    3.500    1.000 
#    0.000    0.000    0.000    7.500    0.000    0.000 
#    0.000    0.000    0.000    0.000    0.000    0.000 
#
# Total GULP energy -89182.127389 kJ/mol
# GULP energy per Si atom -5573.882962 kJ/mol
# Density = 1.940093 g / cm^3
# Si number density = 19.445184 Si / 1000 Ang^3
#
#
#
# Elastic Constant Matrix: (Units=GPa)
#
#
# Indices 1 2 3 4 5 6 
#
# 1 79.1929 45.6498 43.8791 -16.0114 10.4433 2.6844
# 2 45.6498 99.1763 49.5775 -29.6304 -3.1501 4.6182
# 3 43.8791 49.5775 75.4875 -18.3724 20.6675 -1.8314
# 4 -16.0114 -29.6304 -18.3724 30.0383 0.4653 -1.1919
# 5 10.4433 -3.1501 20.6675 0.4653 33.6969 -5.8071
# 6 2.6844 4.6182 -1.8314 -1.1919 -5.8071 25.3132
#
#
#
# Elastic Compliance Matrix: (Units=1/GPa)
#
#
# Indices 1 2 3 4 5 6 
#
# 1 0.020498 -0.005391 -0.007447 0.001004 -0.002700 -0.002301
# 2 -0.005391 0.022214 -0.011452 0.011819 0.010371 -0.001374
# 3 -0.007447 -0.011452 0.030893 0.003952 -0.017546 0.001275
# 4 0.001004 0.011819 0.003952 0.047928 -0.002336 -0.000256
# 5 -0.002700 0.010371 -0.017546 -0.002336 0.043481 0.006990
# 6 -0.002301 -0.001374 0.001275 -0.000256 0.006990 0.041684
#
#
# Mechanical properties :
#
#
# Convention : Reuss Voigt Hill
#
# Bulk Modulus (GPa) = 39.95791 59.11884 49.53837
# Shear Modulus (GPa) = 18.96682 25.45969 22.21326
#
# Velocity S-wave (km/s) = 3.12653 3.62236 3.38354
# Velocity P-wave (km/s) = 5.79889 6.92561 6.38715
#
# Compressibility (1/GPa) = 0.02502633
#
# Stress axis : x y z
#
# Youngs Moduli (GPa) = 48.78496 45.01745 32.36938
#
# Poissons Ratio (x) = 0.24270 0.24104
# Poissons Ratio (y) = 0.26301 0.37068
# Poissons Ratio (z) = 0.36328 0.51552
#
# Static dielectric constant tensor:
#      x y z
#    x 1.728780 -0.008880 0.084230 
#    y -0.008880 1.774200 0.028330 
#    z 0.084230 0.028330 1.792780 
# 
# From -- ./inp_files/433082.got.cif
#   From: 2010.05.17/outbox.cif.g08.bks.cpg/sg2_217_cif.got.tgz:433082.got - 2010.06.03 11:33:40.
