data_PCOD9003738
_publ_section_title
;
Structure prediction by ZEFSAII (Michael W. Deem and Ramdas Pophale) SiO2 
 PCOD9003738
Probable space group: P -1
;
_chemical_formula_sum "Si O2"
_cell_formula_units_Z 16
_cell_length_a 5.375437
_cell_length_b 18.072269
_cell_length_c 13.679486
_cell_angle_alpha 32.510688
_cell_angle_beta 77.644124
_cell_angle_gamma 75.467141
_cell_volume 691.373121
_symmetry_space_group_name_H-M "P -1"
_symmetry_group_IT_number 2
_symmetry_cell_setting 'triclinic'
loop_
_space_group_symop_operation_xyz
x,y,z
-x,-y,-z
loop_
_atom_site_type_symbol
_atom_site_label
_atom_site_fract_x
_atom_site_fract_y
_atom_site_fract_z
Si Si1 0.054738 0.203804 0.689398
Si Si2 0.532546 0.087294 0.671132
Si Si3 0.189060 0.058998 0.026698
Si Si4 0.845025 0.247573 0.972884
Si Si5 0.281369 0.510019 0.426684
Si Si6 0.736146 0.943900 0.612499
Si Si7 0.723239 0.673360 0.003024
Si Si8 0.321349 0.628910 0.592449
O O1 0.242687 0.157056 0.635322
O O2 0.882055 0.341387 0.512213
O O3 0.859081 0.088846 0.847332
O O4 0.197812 0.177287 0.812267
O O5 0.680880 0.223326 0.518982
O O6 0.637327 0.004443 0.659338
O O7 0.571454 0.979817 0.878983
O O8 0.965378 0.104938 0.073337
O O9 0.751522 0.339928 0.785303
O O10 0.579262 0.261938 0.037230
O O11 0.079990 0.300854 0.953636
O O12 0.500000 0.500000 0.500000
O O13 0.401098 0.410067 0.439893
O O14 0.000000 0.500000 0.500000
O O15 0.803529 0.775450 0.798553
O O16 0.500000 0.000000 0.500000
O O17 0.000000 0.000000 0.500000
O O18 0.726561 0.506083 0.189978
#
# Coordination Sequence:
#
# PCOD9003738 Si02
#       8
#     2   2   2   2   2   2   2   2
#     4  10  22  39  64  98 148 191 241 277 344 415
#     4  11  24  44  70  99 146 181 242 298 357 420
#     4  10  21  37  62 101 139 198 239 281 335 410
#     4  11  22  37  67  93 141 189 234 278 342 393
#     4  11  23  38  57  96 144 193 245 279 316 403
#     4  12  28  51  82 107 131 177 240 307 381 443
#     4  11  24  46  70 104 139 181 231 295 359 428
#     4  10  25  40  67 101 143 199 230 291 356 413
#
# _framework density 23.142351000000001
#
# number of rings (size 3 to 8) (size 9 to 14) (size 15 to 20)
#    0.000    1.250    1.250    4.125   10.500    0.000 
#    0.000    1.250    0.000    0.000    0.000    0.000 
#    0.000    0.000    0.000    0.000    0.000    0.000 
#
# Total GULP energy -89219.853923 kJ/mol
# GULP energy per Si atom -5576.240870 kJ/mol
# Density = 2.308968 g / cm^3
# Si number density = 23.142351 Si / 1000 Ang^3
#
#
#
# Elastic Constant Matrix: (Units=GPa)
#
#
# Indices 1 2 3 4 5 6 
#
# 1 126.1886 12.0678 25.0787 2.3115 12.4682 -10.7205
# 2 12.0678 64.2913 9.7424 -10.5219 8.2626 2.0754
# 3 25.0787 9.7424 148.2248 -19.3315 7.6994 5.9864
# 4 2.3115 -10.5219 -19.3315 32.6782 -3.3744 -0.1519
# 5 12.4682 8.2626 7.6994 -3.3744 44.4363 -1.2220
# 6 -10.7205 2.0754 5.9864 -0.1519 -1.2220 40.0740
#
#
#
# Elastic Compliance Matrix: (Units=1/GPa)
#
#
# Indices 1 2 3 4 5 6 
#
# 1 0.008885 -0.001623 -0.001707 -0.002355 -0.002002 0.002646
# 2 -0.001623 0.017082 0.000032 0.005384 -0.002355 -0.001375
# 3 -0.001707 0.000032 0.007732 0.004640 -0.000559 -0.001613
# 4 -0.002355 0.005384 0.004640 0.035395 0.001504 -0.001422
# 5 -0.002002 -0.002355 -0.000559 0.001504 0.023726 0.000399
# 6 0.002646 -0.001375 -0.001613 -0.001422 0.000399 0.025981
#
#
# Mechanical properties :
#
#
# Convention : Reuss Voigt Hill
#
# Bulk Modulus (GPa) = 36.89404 48.05360 42.47382
# Shear Modulus (GPa) = 37.19390 42.89210 40.04300
#
# Velocity S-wave (km/s) = 4.01331 4.30979 4.16419
# Velocity P-wave (km/s) = 6.11984 6.75093 6.44312
#
# Compressibility (1/GPa) = 0.02710465
#
# Stress axis : x y z
#
# Youngs Moduli (GPa) = 112.55331 58.54029 129.32464
#
# Poissons Ratio (x) = 0.09499 0.22070
# Poissons Ratio (y) = 0.18264 -0.00412
# Poissons Ratio (z) = 0.19208 -0.00187
#
# Static dielectric constant tensor:
#      x y z
#    x 1.884760 0.054400 -0.044390 
#    y 0.054400 2.044370 -0.088310 
#    z -0.044390 -0.088310 2.016420 
# 
# From -- ./inp_files/368835.got.cif
#   From: 2010.05.17/outbox.cif.g08.bks.cpg/sg2_185_cif.got.tgz:368835.got - 2010.06.03 11:33:40.
