data_PCOD9003570
_publ_section_title
;
Structure prediction by ZEFSAII (Michael W. Deem and Ramdas Pophale) SiO2 
 PCOD9003570
Probable space group: P -1
;
_chemical_formula_sum "Si O2"
_cell_formula_units_Z 16
_cell_length_a 11.550367
_cell_length_b 13.219081
_cell_length_c 11.811927
_cell_angle_alpha 33.333794
_cell_angle_beta 142.074452
_cell_angle_gamma 137.006653
_cell_volume 594.981837
_symmetry_space_group_name_H-M "P -1"
_symmetry_group_IT_number 2
_symmetry_cell_setting 'triclinic'
loop_
_space_group_symop_operation_xyz
x,y,z
-x,-y,-z
loop_
_atom_site_type_symbol
_atom_site_label
_atom_site_fract_x
_atom_site_fract_y
_atom_site_fract_z
Si Si1 0.676904 0.054411 0.964357
Si Si2 0.286936 0.877796 0.322605
Si Si3 0.708612 0.527557 0.191456
Si Si4 0.957842 0.763742 0.807019
Si Si5 0.746251 0.023756 0.550736
Si Si6 0.646766 0.642663 0.262840
Si Si7 0.044168 0.561102 0.729881
Si Si8 0.596652 0.658008 0.516454
O O1 0.780077 0.107207 0.871857
O O2 0.509761 0.169913 0.730148
O O3 0.823655 0.123027 0.116126
O O4 0.609869 0.830378 0.116178
O O5 0.269630 0.660714 0.548991
O O6 0.516125 0.968875 0.413434
O O7 0.203573 0.964851 0.287133
O O8 0.708966 0.681551 0.144286
O O9 0.869430 0.550484 0.198494
O O10 0.500000 0.500000 0.000000
O O11 0.841468 0.879051 0.691077
O O12 0.826020 0.732954 0.622567
O O13 0.957047 0.558743 0.047188
O O14 0.821646 0.231016 0.362784
O O15 0.467347 0.466234 0.302280
O O16 0.830645 0.583956 0.515443
O O17 0.500000 0.500000 0.500000
#
# Coordination Sequence:
#
# PCOD9003570 Si02
#       8
#     2   2   2   2   2   2   2   2
#     4  12  26  45  73 103 140 178 233 290 351 420
#     4  10  21  38  61  99 154 183 234 268 334 414
#     4  11  22  37  64 103 145 196 232 272 336 414
#     4  12  24  45  73 102 140 183 226 285 354 410
#     4  10  21  37  61 104 141 193 221 272 331 412
#     4  12  25  46  67 103 142 186 232 291 341 417
#     4  11  23  39  67 104 146 187 233 271 341 417
#     4  12  29  53  76 100 134 178 239 303 357 412
#
# _framework density 26.891579
#
# number of rings (size 3 to 8) (size 9 to 14) (size 15 to 20)
#    0.000    0.750    5.000    1.875    8.750    2.500 
#    0.000    0.625    0.000    0.000    0.000    0.000 
#    0.000    0.000    0.000    0.000    0.000    0.000 
#
# Total GULP energy -89775.405045 kJ/mol
# GULP energy per Si atom -5610.962815 kJ/mol
# Density = 2.683037 g / cm^3
# Si number density = 26.891579 Si / 1000 Ang^3
#
#
#
# Elastic Constant Matrix: (Units=GPa)
#
#
# Indices 1 2 3 4 5 6 
#
# 1 76.5349 30.1037 24.1471 -13.8782 1.2944 -17.0378
# 2 30.1037 131.5096 63.1507 7.1266 9.2411 -2.3214
# 3 24.1471 63.1507 135.0269 -5.5869 14.4685 -3.7313
# 4 -13.8782 7.1266 -5.5869 47.8656 -3.7348 -5.8159
# 5 1.2944 9.2411 14.4685 -3.7348 37.1878 -5.9437
# 6 -17.0378 -2.3214 -3.7313 -5.8159 -5.9437 52.8150
#
#
#
# Elastic Compliance Matrix: (Units=1/GPa)
#
#
# Indices 1 2 3 4 5 6 
#
# 1 0.017505 -0.003873 -0.001139 0.006488 0.002469 0.006389
# 2 -0.003873 0.010889 -0.004436 -0.003576 -0.001467 -0.001643
# 3 -0.001139 -0.004436 0.010019 0.001294 -0.002627 -0.000008
# 4 0.006488 -0.003576 0.001294 0.024342 0.003418 0.005092
# 5 0.002469 -0.001467 -0.002627 0.003418 0.029207 0.004210
# 6 0.006389 -0.001643 -0.000008 0.005092 0.004210 0.021957
#
#
# Mechanical properties :
#
#
# Convention : Reuss Voigt Hill
#
# Bulk Modulus (GPa) = 51.23479 64.20827 57.72153
# Shear Modulus (GPa) = 35.88851 42.61834 39.25343
#
# Velocity S-wave (km/s) = 3.65713 3.98530 3.82474
# Velocity P-wave (km/s) = 6.07672 6.71605 6.40437
#
# Compressibility (1/GPa) = 0.01951799
#
# Stress axis : x y z
#
# Youngs Moduli (GPa) = 57.12509 91.83983 99.80857
#
# Poissons Ratio (x) = 0.35565 0.11367
# Poissons Ratio (y) = 0.22122 0.44276
# Poissons Ratio (z) = 0.06506 0.40741
#
# Static dielectric constant tensor:
#      x y z
#    x 2.188720 -0.041120 -0.066880 
#    y -0.041120 2.110220 0.026270 
#    z -0.066880 0.026270 2.030780 
# 
# From -- ./inp_files/534169.got.cif
#   From: 2010.05.17/outbox.cif.g08.bks.cpg/sg2_268_cif.got.tgz:534169.got - 2010.06.03 11:33:40.
