data_PCOD9003111
_publ_section_title
;
Structure prediction by ZEFSAII (Michael W. Deem and Ramdas Pophale) SiO2 
 PCOD9003111
Probable space group: P -1
;
_chemical_formula_sum "Si O2"
_cell_formula_units_Z 16
_cell_length_a 7.787051
_cell_length_b 15.134739
_cell_length_c 6.379649
_cell_angle_alpha 62.912006
_cell_angle_beta 62.094829
_cell_angle_gamma 78.758552
_cell_volume 591.405920
_symmetry_space_group_name_H-M "P -1"
_symmetry_group_IT_number 2
_symmetry_cell_setting 'triclinic'
loop_
_space_group_symop_operation_xyz
x,y,z
-x,-y,-z
loop_
_atom_site_type_symbol
_atom_site_label
_atom_site_fract_x
_atom_site_fract_y
_atom_site_fract_z
Si Si1 0.695630 0.067584 0.057708
Si Si2 0.973287 0.226972 0.547578
Si Si3 0.705142 0.300412 0.326147
Si Si4 0.484746 0.351108 0.049063
Si Si5 0.931123 0.982265 0.326132
Si Si6 0.780919 0.505357 0.211107
Si Si7 0.200939 0.333668 0.617561
Si Si8 0.583392 0.810542 0.100402
O O1 0.746125 0.044206 0.293307
O O2 0.481359 0.083382 0.072249
O O3 0.796754 0.172654 0.827879
O O4 0.859615 0.996551 0.937596
O O5 0.118188 0.135231 0.547495
O O6 0.037092 0.317688 0.555795
O O7 0.915744 0.259906 0.313894
O O8 0.695837 0.339417 0.050323
O O9 0.566619 0.212820 0.594658
O O10 0.695760 0.393564 0.393274
O O11 0.378599 0.442475 0.903319
O O12 0.382020 0.342567 0.344548
O O13 0.442264 0.263244 0.005047
O O14 0.000000 0.000000 0.500000
O O15 0.797933 0.571127 0.338654
O O16 0.000000 0.500000 0.000000
O O17 0.226205 0.233131 0.848291
#
# Coordination Sequence:
#
# PCOD9003111 Si02
#       8
#     2   2   2   2   2   2   2   2
#     4   8  18  35  56  86 107 140 189 227 277 329
#     4   9  19  37  56  85 111 148 180 232 288 323
#     4  10  21  37  58  82 111 148 197 234 269 335
#     4  10  22  37  57  82 111 155 193 232 278 328
#     4   9  18  34  59  87 111 139 181 235 276 334
#     4  11  24  39  56  83 114 154 189 234 289 323
#     4  10  22  40  54  81 123 145 189 237 273 342
#     4   9  20  37  59  82 111 154 187 231 280 329
#
# _framework density 27.054174
#
# number of rings (size 3 to 8) (size 9 to 14) (size 15 to 20)
#    0.750    1.750    0.000    1.125    1.750    9.500 
#    4.500    0.625    0.000    1.500    0.000    0.000 
#    0.000    0.000    0.000    0.000    0.000    0.000 
#
# Total GULP energy -89091.010020 kJ/mol
# GULP energy per Si atom -5568.188126 kJ/mol
# Density = 2.699260 g / cm^3
# Si number density = 27.054174 Si / 1000 Ang^3
#
#
#
# Elastic Constant Matrix: (Units=GPa)
#
#
# Indices 1 2 3 4 5 6 
#
# 1 71.1472 -6.7074 21.9490 -6.6553 34.6815 -12.4505
# 2 -6.7074 66.8018 20.1378 5.9642 7.7163 -10.7406
# 3 21.9490 20.1378 57.9286 8.2499 11.1370 -10.9574
# 4 -6.6553 5.9642 8.2499 42.8055 -11.2703 15.0846
# 5 34.6815 7.7163 11.1370 -11.2703 48.6845 -3.0275
# 6 -12.4505 -10.7406 -10.9574 15.0846 -3.0275 43.7463
#
#
#
# Elastic Compliance Matrix: (Units=1/GPa)
#
#
# Indices 1 2 3 4 5 6 
#
# 1 0.028265 0.009185 -0.008019 -0.003475 -0.020057 0.008101
# 2 0.009185 0.020569 -0.006880 -0.004941 -0.008936 0.007026
# 3 -0.008019 -0.006880 0.024474 -0.006575 -0.000043 0.004423
# 4 -0.003475 -0.004941 -0.006575 0.032869 0.011477 -0.014389
# 5 -0.020057 -0.008936 -0.000043 0.011477 0.038339 -0.009218
# 6 0.008101 0.007026 0.004423 -0.014389 -0.009218 0.032321
#
#
# Mechanical properties :
#
#
# Convention : Reuss Voigt Hill
#
# Bulk Modulus (GPa) = 16.16034 29.62627 22.89331
# Shear Modulus (GPa) = 23.93590 37.74712 30.84151
#
# Velocity S-wave (km/s) = 2.97768 3.73935 3.38004
# Velocity P-wave (km/s) = 4.22000 5.44225 4.86963
#
# Compressibility (1/GPa) = 0.06187989
#
# Stress axis : x y z
#
# Youngs Moduli (GPa) = 35.37952 48.61697 40.85989
#
# Poissons Ratio (x) = -0.44655 0.32766
# Poissons Ratio (y) = -0.32496 0.28111
# Poissons Ratio (z) = 0.28371 0.33448
#
# Static dielectric constant tensor:
#      x y z
#    x 3.606770 -0.412720 0.179910 
#    y -0.412720 2.253260 -0.057290 
#    z 0.179910 -0.057290 2.227330 
# 
# From -- ./inp_files/43601.got.cif
#   From: 2010.05.17/outbox.cif.g08.bks.cpg/sg2_22_cif.got.tgz:43601.got - 2010.06.03 11:33:40.
