data_PCOD9003705
_publ_section_title
;
Structure prediction by ZEFSAII (Michael W. Deem and Ramdas Pophale) SiO2 
 PCOD9003705
Probable space group: P -1
;
_chemical_formula_sum "Si O2"
_cell_formula_units_Z 14
_cell_length_a 26.835445
_cell_length_b 5.913069
_cell_length_c 4.904144
_cell_angle_alpha 78.848446
_cell_angle_beta 95.643024
_cell_angle_gamma 49.737662
_cell_volume 556.094986
_symmetry_space_group_name_H-M "P -1"
_symmetry_group_IT_number 2
_symmetry_cell_setting 'triclinic'
loop_
_space_group_symop_operation_xyz
x,y,z
-x,-y,-z
loop_
_atom_site_type_symbol
_atom_site_label
_atom_site_fract_x
_atom_site_fract_y
_atom_site_fract_z
Si Si1 0.346277 0.799043 0.295600
Si Si2 0.419393 0.744847 0.866024
Si Si3 0.687193 0.544761 0.300585
Si Si4 0.884483 0.643331 0.583229
Si Si5 0.023064 0.651223 0.811313
Si Si6 0.130783 0.793704 0.361811
Si Si7 0.760169 0.494843 0.871890
O O1 0.396297 0.781019 0.533774
O O2 0.327901 0.634094 0.496243
O O3 0.276738 0.159526 0.124044
O O4 0.386224 0.653915 0.066320
O O5 0.382540 0.094402 0.866750
O O6 0.500000 0.500000 0.000000
O O7 0.731882 0.553850 0.536119
O O8 0.728962 0.399375 0.075666
O O9 0.941399 0.507429 0.416467
O O10 0.840236 0.558476 0.482791
O O11 0.856384 0.988965 0.553620
O O12 0.918929 0.441172 0.929776
O O13 0.949483 0.001251 0.664151
O O14 0.000000 0.500000 0.000000
O O15 0.159182 0.750555 0.078941
#
# Coordination Sequence:
#
# PCOD9003705 Si02
#       7
#     2   2   2   2   2   2   2
#     4  10  21  40  60  86 125 165 197 257 310 362
#     4  10  21  37  61  95 122 157 207 251 304 375
#     4  10  22  41  61  85 127 164 203 257 312 364
#     4  11  25  41  66  91 127 162 209 268 332 386
#     4  10  22  43  64  91 127 163 206 267 334 388
#     4  11  24  43  64  96 122 169 214 267 319 395
#     4  10  24  39  60  88 121 160 214 256 307 379
#
# _framework density 25.175557000000001
#
# number of rings (size 3 to 8) (size 9 to 14) (size 15 to 20)
#    0.000    1.714    0.000    3.857    2.000    8.000 
#    0.000    0.000    0.000    0.000    0.000    0.000 
#    0.000    0.000    0.000    0.000    0.000    0.000 
#
# Total GULP energy -78109.678305 kJ/mol
# GULP energy per Si atom -5579.262736 kJ/mol
# Density = 2.511826 g / cm^3
# Si number density = 25.175557 Si / 1000 Ang^3
#
#
#
# Elastic Constant Matrix: (Units=GPa)
#
#
# Indices 1 2 3 4 5 6 
#
# 1 113.2234 72.4229 30.9674 -3.2599 -28.9992 6.9529
# 2 72.4229 119.5429 34.2538 4.0159 -10.6437 -2.3274
# 3 30.9674 34.2538 122.7846 16.0822 -11.1249 -15.3380
# 4 -3.2599 4.0159 16.0822 34.2315 -4.4433 -10.2625
# 5 -28.9992 -10.6437 -11.1249 -4.4433 55.3403 -2.6165
# 6 6.9529 -2.3274 -15.3380 -10.2625 -2.6165 58.0992
#
#
#
# Elastic Compliance Matrix: (Units=1/GPa)
#
#
# Indices 1 2 3 4 5 6 
#
# 1 0.017611 -0.009666 -0.001863 0.004041 0.007227 -0.001947
# 2 -0.009666 0.014489 -0.001476 -0.002016 -0.002696 0.000870
# 3 -0.001863 -0.001476 0.009848 -0.003939 0.000502 0.002091
# 4 0.004041 -0.002016 -0.003939 0.033530 0.003842 0.004491
# 5 0.007227 -0.002696 0.000502 0.003842 0.021787 0.000820
# 6 -0.001947 0.000870 0.002091 0.004491 0.000820 0.018862
#
#
# Mechanical properties :
#
#
# Convention : Reuss Voigt Hill
#
# Bulk Modulus (GPa) = 62.73666 70.09322 66.41494
# Shear Modulus (GPa) = 33.90989 44.06132 38.98560
#
# Velocity S-wave (km/s) = 3.67405 4.18803 3.93943
# Velocity P-wave (km/s) = 6.55530 7.16159 6.86514
#
# Compressibility (1/GPa) = 0.01593964
#
# Stress axis : x y z
#
# Youngs Moduli (GPa) = 56.78137 69.01993 101.53864
#
# Poissons Ratio (x) = 0.66714 0.18915
# Poissons Ratio (y) = 0.54884 0.14983
# Poissons Ratio (z) = 0.10578 0.10185
#
# Static dielectric constant tensor:
#      x y z
#    x 2.088010 0.040530 0.080210 
#    y 0.040530 2.063130 -0.032700 
#    z 0.080210 -0.032700 2.036810 
# 
# From -- ./inp_files/125772.got.cif
#   From: 2010.05.17/outbox.cif.g08.bks.cpg/sg2_63_cif.got.tgz:125772.got - 2010.06.03 11:33:40.
