data_PCOD9003499
_publ_section_title
;
Structure prediction by ZEFSAII (Michael W. Deem and Ramdas Pophale) SiO2 
 PCOD9003499
Probable space group: P -1
;
_chemical_formula_sum "Si O2"
_cell_formula_units_Z 16
_cell_length_a 13.073363
_cell_length_b 30.057575
_cell_length_c 5.751084
_cell_angle_alpha 76.762904
_cell_angle_beta 93.485831
_cell_angle_gamma 26.147824
_cell_volume 759.954597
_symmetry_space_group_name_H-M "P -1"
_symmetry_group_IT_number 2
_symmetry_cell_setting 'triclinic'
loop_
_space_group_symop_operation_xyz
x,y,z
-x,-y,-z
loop_
_atom_site_type_symbol
_atom_site_label
_atom_site_fract_x
_atom_site_fract_y
_atom_site_fract_z
Si Si1 0.078245 0.606653 0.926816
Si Si2 0.570682 0.299630 0.887813
Si Si3 0.081387 0.015545 0.386037
Si Si4 0.666395 0.628294 0.728775
Si Si5 0.570204 0.396850 0.588550
Si Si6 0.088543 0.662435 0.469040
Si Si7 0.420101 0.173845 0.018586
Si Si8 0.427031 0.232734 0.563471
O O1 0.825034 0.719812 0.944981
O O2 0.910141 0.641358 0.695372
O O3 0.133992 0.631839 0.781650
O O4 0.378758 0.464122 0.252842
O O5 0.359241 0.379436 0.533829
O O6 0.671083 0.309686 0.841077
O O7 0.457491 0.343593 0.086827
O O8 0.819509 0.156127 0.084751
O O9 0.260692 0.969479 0.661480
O O10 0.325607 0.902727 0.357203
O O11 0.000000 0.000000 0.500000
O O12 0.512435 0.742281 0.545345
O O13 0.000000 0.500000 0.000000
O O14 0.327131 0.527695 0.545358
O O15 0.826398 0.323942 0.630674
O O16 0.747910 0.790631 0.218278
O O17 0.445153 0.213552 0.859376
#
# Coordination Sequence:
#
# PCOD9003499 Si02
#       8
#     2   2   2   2   2   2   2   2
#     4   9  18  34  60  92 119 157 206 265 314 381
#     4  12  28  42  63  96 132 170 213 262 316 377
#     4  11  22  41  61  89 126 171 216 256 306 372
#     4  12  27  43  63  94 134 171 206 263 322 380
#     4  10  21  37  60  91 125 162 209 264 325 379
#     4   9  19  38  64  90 120 162 209 263 326 382
#     4   9  20  35  61  90 118 158 216 263 307 373
#     4  10  21  37  64  86 125 168 214 253 311 378
#
# _framework density 21.053887
#
# number of rings (size 3 to 8) (size 9 to 14) (size 15 to 20)
#    0.000    1.750    1.250    2.250   10.500    1.000 
#    0.000    0.625    0.000    6.750    0.000    0.000 
#    0.000    0.000    0.000    0.000    0.000    0.000 
#
# Total GULP energy -89118.176113 kJ/mol
# GULP energy per Si atom -5569.886007 kJ/mol
# Density = 2.100597 g / cm^3
# Si number density = 21.053887 Si / 1000 Ang^3
#
#
#
# Elastic Constant Matrix: (Units=GPa)
#
#
# Indices 1 2 3 4 5 6 
#
# 1 111.3733 30.4061 60.5613 1.4153 -35.4520 -25.3180
# 2 30.4061 57.6063 27.4858 10.2206 -15.1153 -13.9994
# 3 60.5613 27.4858 123.7257 8.6544 -14.1159 -19.2504
# 4 1.4153 10.2206 8.6544 33.9872 -9.8824 -6.4577
# 5 -35.4520 -15.1153 -14.1159 -9.8824 42.4590 6.1934
# 6 -25.3180 -13.9994 -19.2504 -6.4577 6.1934 28.7283
#
#
#
# Elastic Compliance Matrix: (Units=1/GPa)
#
#
# Indices 1 2 3 4 5 6 
#
# 1 0.019930 -0.002560 -0.006480 0.007636 0.013789 0.010718
# 2 -0.002560 0.022795 -0.002247 -0.004093 0.003449 0.005683
# 3 -0.006480 -0.002247 0.011767 -0.002737 -0.003101 0.001133
# 4 0.007636 -0.004093 -0.002737 0.035893 0.011112 0.008573
# 5 0.013789 0.003449 -0.003101 0.011112 0.036931 0.006291
# 6 0.010718 0.005683 0.001133 0.008573 0.006291 0.048354
#
#
# Mechanical properties :
#
#
# Convention : Reuss Voigt Hill
#
# Bulk Modulus (GPa) = 31.32944 58.84574 45.08759
# Shear Modulus (GPa) = 23.93687 32.65172 28.29429
#
# Velocity S-wave (km/s) = 3.37550 3.94237 3.66990
# Velocity P-wave (km/s) = 5.48680 6.98096 6.27848
#
# Compressibility (1/GPa) = 0.03191886
#
# Stress axis : x y z
#
# Youngs Moduli (GPa) = 50.17526 43.87008 84.98110
#
# Poissons Ratio (x) = 0.11229 0.55068
# Poissons Ratio (y) = 0.12843 0.19095
# Poissons Ratio (z) = 0.32514 0.09857
#
# Static dielectric constant tensor:
#      x y z
#    x 1.823590 0.038450 0.054330 
#    y 0.038450 1.776470 0.057610 
#    z 0.054330 0.057610 1.887760 
# 
# From -- ./inp_files/83533.got.cif
#   From: 2010.05.17/outbox.cif.g08.bks.cpg/sg2_42_cif.got.tgz:83533.got - 2010.06.03 11:33:40.
