data_PCOD9003926
_publ_section_title
;
Structure prediction by ZEFSAII (Michael W. Deem and Ramdas Pophale) SiO2 
 PCOD9003926
Probable space group: P -1
;
_chemical_formula_sum "Si O2"
_cell_formula_units_Z 15
_cell_length_a 15.110370
_cell_length_b 9.015694
_cell_length_c 8.824353
_cell_angle_alpha 114.667967
_cell_angle_beta 75.029006
_cell_angle_gamma 53.760593
_cell_volume 638.533674
_symmetry_space_group_name_H-M "P -1"
_symmetry_group_IT_number 2
_symmetry_cell_setting 'triclinic'
loop_
_space_group_symop_operation_xyz
x,y,z
-x,-y,-z
loop_
_atom_site_type_symbol
_atom_site_label
_atom_site_fract_x
_atom_site_fract_y
_atom_site_fract_z
Si Si1 0.427701 0.273030 0.313108
Si Si2 0.982050 0.218876 0.620546
Si Si3 0.315846 0.267232 0.832558
Si Si4 0.858836 0.551174 0.524243
Si Si5 0.374080 0.855693 0.085521
Si Si6 0.500000 0.500000 0.500000
Si Si7 0.482977 0.358135 0.740133
Si Si8 0.122941 0.315345 0.735228
O O1 0.281537 0.370959 0.407592
O O2 0.397340 0.484817 0.502299
O O3 0.562248 0.987712 0.218367
O O4 0.495817 0.234882 0.105368
O O5 0.960802 0.323941 0.507817
O O6 0.114034 0.138918 0.608298
O O7 0.829553 0.473129 0.892808
O O8 0.000000 0.000000 0.500000
O O9 0.391124 0.321364 0.750858
O O10 0.263689 0.215170 0.702628
O O11 0.925390 0.510478 0.316472
O O12 0.777455 0.829428 0.742839
O O13 0.418693 0.795475 0.215892
O O14 0.371598 0.673261 0.951883
O O15 0.569220 0.302944 0.532317
O O16 0.000000 0.500000 0.000000
#
# Coordination Sequence:
#
# PCOD9003926 Si02
#       8
#     2   2   2   2   2   1   2   2
#     4  11  22  40  67 109 135 170 212 282 366 400
#     4  11  26  47  71  96 127 182 244 282 323 397
#     4  11  22  44  71  98 141 170 219 289 347 410
#     4  12  22  42  74  96 134 176 226 284 338 409
#     4  10  21  37  63 103 139 168 215 275 337 415
#     4  10  24  36  54  98 152 176 204 250 336 452
#     4  10  21  38  61 100 142 173 215 262 344 411
#     4  10  26  46  64  95 134 185 227 273 332 400
#
# _framework density 23.491320000000002
#
# number of rings (size 3 to 8) (size 9 to 14) (size 15 to 20)
#    0.000    1.333    2.667    2.400    3.733    2.133 
#    0.000    2.667    0.000    0.000    0.000    0.000 
#    0.000    0.000    0.000    0.000    0.000    0.000 
#
# Total GULP energy -83641.829723 kJ/mol
# GULP energy per Si atom -5576.121982 kJ/mol
# Density = 2.343785 g / cm^3
# Si number density = 23.491320 Si / 1000 Ang^3
#
#
#
# Elastic Constant Matrix: (Units=GPa)
#
#
# Indices 1 2 3 4 5 6 
#
# 1 231.7324 79.5565 45.8798 16.0842 13.4146 22.2314
# 2 79.5565 136.1242 28.9961 -21.2038 6.4994 30.0293
# 3 45.8798 28.9961 66.1247 -12.0543 -0.8863 16.8375
# 4 16.0842 -21.2038 -12.0543 30.7965 16.7544 -3.0540
# 5 13.4146 6.4994 -0.8863 16.7544 45.8771 -1.8058
# 6 22.2314 30.0293 16.8375 -3.0540 -1.8058 42.1143
#
#
#
# Elastic Compliance Matrix: (Units=1/GPa)
#
#
# Indices 1 2 3 4 5 6 
#
# 1 0.007792 -0.005585 -0.005303 -0.011264 0.002575 0.001283
# 2 -0.005585 0.014765 0.002339 0.017015 -0.006925 -0.007578
# 3 -0.005303 0.002339 0.022102 0.014483 -0.003911 -0.006822
# 4 -0.011264 0.017015 0.014483 0.067985 -0.023983 -0.008074
# 5 0.002575 -0.006925 -0.003911 -0.023983 0.030895 0.004728
# 6 0.001283 -0.007578 -0.006822 -0.008074 0.004728 0.030816
#
#
# Mechanical properties :
#
#
# Convention : Reuss Voigt Hill
#
# Bulk Modulus (GPa) = 36.28356 82.53846 59.41101
# Shear Modulus (GPa) = 24.92030 42.39417 33.65724
#
# Velocity S-wave (km/s) = 3.26057 4.25275 3.78928
# Velocity P-wave (km/s) = 5.44556 7.70237 6.67011
#
# Compressibility (1/GPa) = 0.02756069
#
# Stress axis : x y z
#
# Youngs Moduli (GPa) = 128.32888 67.72851 45.24551
#
# Poissons Ratio (x) = 0.37827 0.23995
# Poissons Ratio (y) = 0.71673 -0.10584
# Poissons Ratio (z) = 0.68055 -0.15843
#
# Static dielectric constant tensor:
#      x y z
#    x 1.895280 -0.046450 0.020660 
#    y -0.046450 1.872530 0.005450 
#    z 0.020660 0.005450 2.004740 
# 
# From -- ./inp_files/299188.got.cif
#   From: 2010.05.17/outbox.cif.g08.bks.cpg/sg2_150_cif.got.tgz:299188.got - 2010.06.03 11:33:40.
