data_PCOD9003996
_publ_section_title
;
Structure prediction by ZEFSAII (Michael W. Deem and Ramdas Pophale) SiO2 
 PCOD9003996
Probable space group: P -1
;
_chemical_formula_sum "Si O2"
_cell_formula_units_Z 12
_cell_length_a 15.046727
_cell_length_b 8.713019
_cell_length_c 9.509565
_cell_angle_alpha 134.909017
_cell_angle_beta 69.395791
_cell_angle_gamma 138.168639
_cell_volume 547.413165
_symmetry_space_group_name_H-M "P -1"
_symmetry_group_IT_number 2
_symmetry_cell_setting 'triclinic'
loop_
_space_group_symop_operation_xyz
x,y,z
-x,-y,-z
loop_
_atom_site_type_symbol
_atom_site_label
_atom_site_fract_x
_atom_site_fract_y
_atom_site_fract_z
Si Si1 0.033141 0.355690 0.984863
Si Si2 0.209811 0.267129 0.109383
Si Si3 0.524140 0.370938 0.611799
Si Si4 0.842876 0.872335 0.279675
Si Si5 0.195204 0.725228 0.390682
Si Si6 0.556136 0.309896 0.242544
O O1 0.174012 0.657068 0.191098
O O2 0.055844 0.161544 0.774017
O O3 0.000000 0.500000 0.000000
O O4 0.904842 0.094896 0.997426
O O5 0.361160 0.488435 0.242725
O O6 0.156146 0.420792 0.272983
O O7 0.214579 0.251905 0.928868
O O8 0.550069 0.283387 0.396872
O O9 0.533908 0.637098 0.727971
O O10 0.361543 0.049935 0.543555
O O11 0.716052 0.630566 0.306747
O O12 0.891256 0.205058 0.479087
O O13 0.500000 0.000000 0.000000
#
# Coordination Sequence:
#
# PCOD9003996 Si02
#       6
#     2   2   2   2   2   2
#     4  11  26  42  65  91 131 167 210 265 316 369
#     4  11  24  41  66  95 128 167 207 264 316 368
#     4  10  23  39  66  96 129 163 207 259 318 366
#     4  10  23  42  65  93 126 169 213 255 315 375
#     4  10  22  44  66  91 130 168 210 258 311 381
#     4  10  21  37  63  92 132 164 205 256 313 372
#
# _framework density 21.921284
#
# number of rings (size 3 to 8) (size 9 to 14) (size 15 to 20)
#    0.000    1.667    0.000    4.500    9.333    7.333 
#    0.000    0.000    0.000    0.000    0.000    0.000 
#    0.000    0.000    0.000    0.000    0.000    0.000 
#
# Total GULP energy -67037.098074 kJ/mol
# GULP energy per Si atom -5586.424839 kJ/mol
# Density = 2.187139 g / cm^3
# Si number density = 21.921284 Si / 1000 Ang^3
#
#
#
# Elastic Constant Matrix: (Units=GPa)
#
#
# Indices 1 2 3 4 5 6 
#
# 1 113.2434 20.9270 27.3682 1.8971 -7.0579 -20.2199
# 2 20.9270 47.1289 1.3506 3.8639 -5.0686 -10.9969
# 3 27.3682 1.3506 74.9634 6.4588 -33.4609 -13.6261
# 4 1.8971 3.8639 6.4588 30.2363 4.2356 -4.3390
# 5 -7.0579 -5.0686 -33.4609 4.2356 37.0710 2.6714
# 6 -20.2199 -10.9969 -13.6261 -4.3390 2.6714 31.1128
#
#
#
# Elastic Compliance Matrix: (Units=1/GPa)
#
#
# Indices 1 2 3 4 5 6 
#
# 1 0.011376 -0.004483 -0.005083 0.002044 -0.003570 0.004174
# 2 -0.004483 0.026243 0.007086 -0.004707 0.009090 0.008029
# 3 -0.005083 0.007086 0.029540 -0.009480 0.027136 0.008486
# 4 0.002044 -0.004707 -0.009480 0.037702 -0.013257 0.001909
# 5 -0.003570 0.009090 0.027136 -0.013257 0.053087 0.006370
# 6 0.004174 0.008029 0.008486 0.001909 0.006370 0.041127
#
#
# Mechanical properties :
#
#
# Convention : Reuss Voigt Hill
#
# Bulk Modulus (GPa) = 16.07755 37.18081 26.62918
# Shear Modulus (GPa) = 22.24508 32.06334 27.15421
#
# Velocity S-wave (km/s) = 3.18900 3.82862 3.52336
# Velocity P-wave (km/s) = 4.57272 6.04502 5.35967
#
# Compressibility (1/GPa) = 0.06219853
#
# Stress axis : x y z
#
# Youngs Moduli (GPa) = 87.90380 38.10541 33.85263
#
# Poissons Ratio (x) = 0.17084 0.17208
# Poissons Ratio (y) = 0.39410 -0.23989
# Poissons Ratio (z) = 0.44684 -0.27003
#
# Static dielectric constant tensor:
#      x y z
#    x 1.819340 0.021170 -0.037390 
#    y 0.021170 1.829060 0.013620 
#    z -0.037390 0.013620 1.797820 
# 
# From -- ./inp_files/165880.got.cif
#   From: 2010.05.17/outbox.cif.g08.bks.cpg/sg2_83_cif.got.tgz:165880.got - 2010.06.03 11:33:40.
