data_PCOD9003249
_publ_section_title
;
Structure prediction by ZEFSAII (Michael W. Deem and Ramdas Pophale) SiO2 
 PCOD9003249
Probable space group: P -1
;
_chemical_formula_sum "Si O2"
_cell_formula_units_Z 16
_cell_length_a 9.661422
_cell_length_b 11.983760
_cell_length_c 7.918047
_cell_angle_alpha 88.978883
_cell_angle_beta 75.670635
_cell_angle_gamma 126.848631
_cell_volume 694.251567
_symmetry_space_group_name_H-M "P -1"
_symmetry_group_IT_number 2
_symmetry_cell_setting 'triclinic'
loop_
_space_group_symop_operation_xyz
x,y,z
-x,-y,-z
loop_
_atom_site_type_symbol
_atom_site_label
_atom_site_fract_x
_atom_site_fract_y
_atom_site_fract_z
Si Si1 0.762864 0.329036 0.924469
Si Si2 0.123199 0.171100 0.484552
Si Si3 0.601786 0.807225 0.802764
Si Si4 0.942478 0.356669 0.236122
Si Si5 0.269619 0.147729 0.773123
Si Si6 0.945654 0.815240 0.937404
Si Si7 0.847311 0.139643 0.783715
Si Si8 0.553781 0.156339 0.495994
O O1 0.739028 0.200732 0.838338
O O2 0.905608 0.476511 0.780961
O O3 0.574135 0.297470 0.026607
O O4 0.851932 0.342619 0.080602
O O5 0.266656 0.231491 0.287352
O O6 0.241713 0.212349 0.617058
O O7 0.976432 0.193287 0.578449
O O8 0.000000 0.000000 0.500000
O O9 0.526008 0.820376 0.646731
O O10 0.718613 0.968815 0.831346
O O11 0.771571 0.272311 0.416109
O O12 0.040867 0.285374 0.183076
O O13 0.450582 0.164441 0.683673
O O14 0.234648 0.205164 0.948035
O O15 0.097949 0.978211 0.825627
O O16 0.024057 0.809316 0.093331
O O17 0.500000 0.000000 0.500000
#
# Coordination Sequence:
#
# PCOD9003249 Si02
#       8
#     2   2   2   2   2   2   2   2
#     4   9  17  28  43  64  90 118 145 180 214 259
#     4   8  15  27  43  66  90 111 140 182 221 255
#     4   9  17  28  45  68  88 112 149 180 217 259
#     4   9  17  29  43  62  91 119 145 176 220 256
#     4   9  16  26  43  68  88 110 144 182 217 256
#     4   9  16  27  44  67  90 111 143 181 220 256
#     4   9  16  28  45  67  90 112 145 184 218 251
#     4  10  17  28  45  66  88 114 144 182 218 258
#
# _framework density 23.046403000000002
#
# number of rings (size 3 to 8) (size 9 to 14) (size 15 to 20)
#    0.000    3.000    1.250    0.375    0.000    0.000 
#    0.000    1.250    0.000    8.250    0.000   14.000 
#    0.000    0.000    0.000    0.000    0.000    0.000 
#
# Total GULP energy -89319.555023 kJ/mol
# GULP energy per Si atom -5582.472189 kJ/mol
# Density = 2.299395 g / cm^3
# Si number density = 23.046403 Si / 1000 Ang^3
#
#
#
# Elastic Constant Matrix: (Units=GPa)
#
#
# Indices 1 2 3 4 5 6 
#
# 1 104.4746 14.4100 43.8764 -6.1476 -34.9997 -0.9869
# 2 14.4100 34.4083 29.7157 -11.8929 -24.2239 2.9772
# 3 43.8764 29.7157 148.2979 -4.0888 -45.7835 4.4000
# 4 -6.1476 -11.8929 -4.0888 26.9218 11.1069 -5.3099
# 5 -34.9997 -24.2239 -45.7835 11.1069 56.3030 0.0899
# 6 -0.9869 2.9772 4.4000 -5.3099 0.0899 13.3213
#
#
#
# Elastic Compliance Matrix: (Units=1/GPa)
#
#
# Indices 1 2 3 4 5 6 
#
# 1 0.012468 0.001145 -0.001925 0.000661 0.006546 0.001522
# 2 0.001145 0.048457 -0.005016 0.014142 0.014697 -0.003550
# 3 -0.001925 -0.005016 0.010078 -0.004281 0.005692 -0.004095
# 4 0.000661 0.014142 -0.004281 0.049209 -0.006722 0.017962
# 5 0.006546 0.014697 0.005692 -0.006722 0.034120 -0.007589
# 6 0.001522 -0.003550 -0.004095 0.017962 -0.007589 0.084537
#
#
# Mechanical properties :
#
#
# Convention : Reuss Voigt Hill
#
# Bulk Modulus (GPa) = 16.83118 51.46500 34.14809
# Shear Modulus (GPa) = 18.50038 32.58782 25.54410
#
# Velocity S-wave (km/s) = 2.83635 3.76441 3.33284
# Velocity P-wave (km/s) = 4.24800 6.42448 5.44607
#
# Compressibility (1/GPa) = 0.05941353
#
# Stress axis : x y z
#
# Youngs Moduli (GPa) = 80.20499 20.63664 99.22199
#
# Poissons Ratio (x) = -0.02363 0.19096
# Poissons Ratio (y) = -0.09186 0.49769
# Poissons Ratio (z) = 0.15436 0.10351
#
# Static dielectric constant tensor:
#      x y z
#    x 1.943850 0.006810 0.049630 
#    y 0.006810 1.786210 0.022440 
#    z 0.049630 0.022440 1.931110 
# 
# From -- ./inp_files/251927.got.cif
#   From: 2010.05.17/outbox.cif.g08.bks.cpg/sg2_126_cif.got.tgz:251927.got - 2010.06.03 11:33:40.
