data_PCOD9003576
_publ_section_title
;
Structure prediction by ZEFSAII (Michael W. Deem and Ramdas Pophale) SiO2 
 PCOD9003576
Probable space group: P -1
;
_chemical_formula_sum "Si O2"
_cell_formula_units_Z 12
_cell_length_a 13.122583
_cell_length_b 10.943972
_cell_length_c 5.059498
_cell_angle_alpha 80.783080
_cell_angle_beta 103.531164
_cell_angle_gamma 53.121226
_cell_volume 521.173437
_symmetry_space_group_name_H-M "P -1"
_symmetry_group_IT_number 2
_symmetry_cell_setting 'triclinic'
loop_
_space_group_symop_operation_xyz
x,y,z
-x,-y,-z
loop_
_atom_site_type_symbol
_atom_site_label
_atom_site_fract_x
_atom_site_fract_y
_atom_site_fract_z
Si Si1 0.047172 0.621293 0.252374
Si Si2 0.557506 0.257725 0.468004
Si Si3 0.331097 0.953411 0.894124
Si Si4 0.717914 0.375219 0.690136
Si Si5 0.863938 0.716713 0.617674
Si Si6 0.901473 0.065541 0.174201
O O1 0.155296 0.647314 0.346708
O O2 0.977528 0.648345 0.480422
O O3 0.134992 0.431080 0.278727
O O4 0.925816 0.732296 0.915315
O O5 0.570996 0.194415 0.205281
O O6 0.664626 0.290913 0.547294
O O7 0.410336 0.434274 0.393322
O O8 0.597504 0.118953 0.751635
O O9 0.187044 0.989688 0.833424
O O10 0.278774 0.118311 0.655878
O O11 0.787524 0.264476 0.033817
O O12 0.000000 0.000000 0.500000
O O13 0.000000 0.000000 0.000000
#
# Coordination Sequence:
#
# PCOD9003576 Si02
#       6
#     2   2   2   2   2   2
#     4  10  21  37  61  84 112 149 183 233 287 329
#     4  10  24  37  58  81 113 156 186 227 276 327
#     4  11  21  38  55  81 116 147 186 233 276 328
#     4  10  22  40  57  83 116 148 191 227 275 341
#     4  10  21  38  59  86 113 144 187 234 283 334
#     4  11  21  32  54  82 106 138 177 227 280 322
#
# _framework density 23.024963
#
# number of rings (size 3 to 8) (size 9 to 14) (size 15 to 20)
#    0.000    1.667    0.000    5.000    0.000   11.333 
#    0.000    1.667    0.000    0.000    0.000    0.000 
#    0.000    0.000    0.000    0.000    0.000    0.000 
#
# Total GULP energy -67048.624005 kJ/mol
# GULP energy per Si atom -5587.385334 kJ/mol
# Density = 2.297256 g / cm^3
# Si number density = 23.024963 Si / 1000 Ang^3
#
#
#
# Elastic Constant Matrix: (Units=GPa)
#
#
# Indices 1 2 3 4 5 6 
#
# 1 21.9973 -4.7437 10.4841 1.5343 -4.3451 7.1757
# 2 -4.7437 51.9547 20.0308 -8.5580 -9.6776 4.9335
# 3 10.4841 20.0308 118.6037 -3.4511 -10.2834 -5.6779
# 4 1.5343 -8.5580 -3.4511 59.3306 -5.6960 -10.2046
# 5 -4.3451 -9.6776 -10.2834 -5.6960 20.9633 -0.9750
# 6 7.1757 4.9335 -5.6779 -10.2046 -0.9750 14.5554
#
#
#
# Elastic Compliance Matrix: (Units=1/GPa)
#
#
# Indices 1 2 3 4 5 6 
#
# 1 0.074215 0.017108 -0.010946 -0.007577 0.013477 -0.051065
# 2 0.017108 0.027399 -0.005867 0.001255 0.012808 -0.018271
# 3 -0.010946 -0.005867 0.011293 0.002647 0.001922 0.013775
# 4 -0.007577 0.001255 0.002647 0.021483 0.007069 0.019878
# 5 0.013477 0.012808 0.001922 0.007069 0.059211 -0.001313
# 6 -0.051065 -0.018271 0.013775 0.019878 -0.001313 0.119292
#
#
# Mechanical properties :
#
#
# Convention : Reuss Voigt Hill
#
# Bulk Modulus (GPa) = 8.81095 27.12201 17.96648
# Shear Modulus (GPa) = 14.28012 30.08884 22.18448
#
# Velocity S-wave (km/s) = 2.49309 3.61888 3.10739
# Velocity P-wave (km/s) = 3.48171 5.40987 4.54912
#
# Compressibility (1/GPa) = 0.11349520
#
# Stress axis : x y z
#
# Youngs Moduli (GPa) = 13.47441 36.49751 88.54952
#
# Poissons Ratio (x) = -0.62438 0.96928
# Poissons Ratio (y) = -0.23051 0.51955
# Poissons Ratio (z) = 0.14749 0.21414
#
# Static dielectric constant tensor:
#      x y z
#    x 1.841250 0.050980 -0.019030 
#    y 0.050980 1.940050 -0.070140 
#    z -0.019030 -0.070140 1.871000 
# 
# From -- ./inp_files/54565.got.cif
#   From: 2010.05.17/outbox.cif.g08.bks.cpg/sg2_28_cif.got.tgz:54565.got - 2010.06.03 11:33:40.
