data_PCOD9003736
_publ_section_title
;
Structure prediction by ZEFSAII (Michael W. Deem and Ramdas Pophale) SiO2 
 PCOD9003736
Probable space group: P -1
;
_chemical_formula_sum "Si O2"
_cell_formula_units_Z 16
_cell_length_a 11.584677
_cell_length_b 16.867315
_cell_length_c 9.956815
_cell_angle_alpha 133.524613
_cell_angle_beta 83.149006
_cell_angle_gamma 134.947125
_cell_volume 697.436847
_symmetry_space_group_name_H-M "P -1"
_symmetry_group_IT_number 2
_symmetry_cell_setting 'triclinic'
loop_
_space_group_symop_operation_xyz
x,y,z
-x,-y,-z
loop_
_atom_site_type_symbol
_atom_site_label
_atom_site_fract_x
_atom_site_fract_y
_atom_site_fract_z
Si Si1 0.682590 0.210862 0.080995
Si Si2 0.758421 0.025430 0.086610
Si Si3 0.558628 0.927392 0.472613
Si Si4 0.534624 0.773626 0.546490
Si Si5 0.750266 0.755342 0.324721
Si Si6 0.929769 0.154308 0.484501
Si Si7 0.101421 0.413869 0.341689
Si Si8 0.151920 0.554155 0.938753
O O1 0.783302 0.390611 0.369879
O O2 0.747299 0.292297 0.015569
O O3 0.847960 0.245073 0.130957
O O4 0.406065 0.000253 0.895480
O O5 0.767930 0.980122 0.181225
O O6 0.026948 0.261911 0.280496
O O7 0.646563 0.873439 0.796506
O O8 0.533923 0.884308 0.584405
O O9 0.500000 0.000000 0.500000
O O10 0.796391 0.077818 0.551161
O O11 0.366207 0.689955 0.157311
O O12 0.666448 0.792164 0.462180
O O13 0.268340 0.522311 0.322352
O O14 0.857379 0.749908 0.399815
O O15 0.500000 0.500000 0.000000
O O16 0.000000 0.000000 0.500000
O O17 0.013849 0.342633 0.647222
O O18 0.000000 0.500000 0.000000
#
# Coordination Sequence:
#
# PCOD9003736 Si02
#       8
#     2   2   2   2   2   2   2   2
#     4  10  21  37  62 100 147 197 242 294 378 455
#     4  11  24  42  72 104 152 193 249 306 386 457
#     4  12  25  42  69 108 149 190 249 310 380 456
#     4  11  27  47  72 111 145 201 259 313 379 455
#     4  12  29  55  84 112 151 203 260 326 385 458
#     4  12  26  46  75 107 147 198 248 313 384 453
#     4  10  22  40  65  97 150 196 242 302 374 458
#     4  12  23  38  65 104 147 188 246 305 373 451
#
# _framework density 22.941143
#
# number of rings (size 3 to 8) (size 9 to 14) (size 15 to 20)
#    0.000    0.750    5.000    1.875    3.500    2.500 
#    0.000    0.625    0.000    0.000    0.000    0.000 
#    0.000    0.000    0.000    0.000    0.000    0.000 
#
# Total GULP energy -89113.553571 kJ/mol
# GULP energy per Si atom -5569.597098 kJ/mol
# Density = 2.288893 g / cm^3
# Si number density = 22.941143 Si / 1000 Ang^3
#
#
#
# Elastic Constant Matrix: (Units=GPa)
#
#
# Indices 1 2 3 4 5 6 
#
# 1 98.1003 43.8592 20.6206 -6.4768 12.0251 21.3065
# 2 43.8592 174.5413 27.1989 1.6823 7.9178 25.4360
# 3 20.6206 27.1989 100.9172 -11.5539 16.4181 -0.2847
# 4 -6.4768 1.6823 -11.5539 39.2278 -0.5882 3.7351
# 5 12.0251 7.9178 16.4181 -0.5882 30.9173 -0.6989
# 6 21.3065 25.4360 -0.2847 3.7351 -0.6989 31.3216
#
#
#
# Elastic Compliance Matrix: (Units=1/GPa)
#
#
# Indices 1 2 3 4 5 6 
#
# 1 0.013829 -0.001888 -0.001327 0.002699 -0.004327 -0.008305
# 2 -0.001888 0.007117 -0.001560 -0.000659 -0.000373 -0.004439
# 3 -0.001327 -0.001560 0.011814 0.003078 -0.005259 0.001793
# 4 0.002699 -0.000659 0.003078 0.027276 -0.002100 -0.004572
# 5 -0.004327 -0.000373 -0.005259 -0.002100 0.036972 0.004274
# 6 -0.008305 -0.004439 0.001793 -0.004572 0.004274 0.041838
#
#
# Mechanical properties :
#
#
# Convention : Reuss Voigt Hill
#
# Bulk Modulus (GPa) = 43.08509 61.87960 52.48235
# Shear Modulus (GPa) = 32.02416 39.08534 35.55475
#
# Velocity S-wave (km/s) = 3.74026 4.13210 3.94105
# Velocity P-wave (km/s) = 6.12162 7.05673 6.60574
#
# Compressibility (1/GPa) = 0.02320988
#
# Stress axis : x y z
#
# Youngs Moduli (GPa) = 72.31250 140.51023 84.64775
#
# Poissons Ratio (x) = 0.26523 0.11237
# Poissons Ratio (y) = 0.13650 0.13203
# Poissons Ratio (z) = 0.09599 0.21916
#
# Static dielectric constant tensor:
#      x y z
#    x 1.921200 -0.019970 0.019620 
#    y -0.019970 2.066070 0.034770 
#    z 0.019620 0.034770 1.991970 
# 
# From -- ./inp_files/279866.got.cif
#   From: 2010.05.17/outbox.cif.g08.bks.cpg/sg2_140_cif.got.tgz:279866.got - 2010.06.03 11:33:40.
