data_PCOD9003114
_publ_section_title
;
Structure prediction by ZEFSAII (Michael W. Deem and Ramdas Pophale) SiO2 
 PCOD9003114
Probable space group: P -1
;
_chemical_formula_sum "Si O2"
_cell_formula_units_Z 16
_cell_length_a 7.303524
_cell_length_b 13.957391
_cell_length_c 19.697227
_cell_angle_alpha 20.843545
_cell_angle_beta 85.588095
_cell_angle_gamma 78.488872
_cell_volume 664.605492
_symmetry_space_group_name_H-M "P -1"
_symmetry_group_IT_number 2
_symmetry_cell_setting 'triclinic'
loop_
_space_group_symop_operation_xyz
x,y,z
-x,-y,-z
loop_
_atom_site_type_symbol
_atom_site_label
_atom_site_fract_x
_atom_site_fract_y
_atom_site_fract_z
Si Si1 0.216651 0.681102 0.452364
Si Si2 0.481097 0.220893 0.151060
Si Si3 0.016748 0.288794 0.336682
Si Si4 0.330798 0.342452 0.539375
Si Si5 0.424282 0.146750 0.476520
Si Si6 0.835690 0.703909 0.169869
Si Si7 0.931170 0.653110 0.972601
Si Si8 0.251172 0.709683 0.165465
O O1 0.217093 0.504521 0.500976
O O2 0.442083 0.672619 0.454846
O O3 0.164480 0.512897 0.626669
O O4 0.083463 0.018152 0.236999
O O5 0.295775 0.324627 0.037438
O O6 0.653526 0.983987 0.260186
O O7 0.464621 0.033415 0.342222
O O8 0.500000 0.500000 0.000000
O O9 0.193212 0.184967 0.455297
O O10 0.828018 0.522015 0.223958
O O11 0.000000 0.000000 0.500000
O O12 0.055373 0.457906 0.158836
O O13 0.243971 0.536260 0.348561
O O14 0.406916 0.477204 0.267094
O O15 0.500000 0.000000 0.500000
O O16 0.032057 0.780135 0.095984
O O17 0.699801 0.015565 0.995533
O O18 0.000000 0.500000 0.000000
#
# Coordination Sequence:
#
# PCOD9003114 Si02
#       8
#     2   2   2   2   2   2   2   2
#     4  10  21  37  58  83 113 151 192 238 292 342
#     4  10  21  38  58  81 114 150 185 232 286 339
#     4  11  22  37  59  86 116 149 192 241 286 342
#     4   9  20  38  56  81 114 147 191 241 283 342
#     4  10  21  38  58  81 114 150 185 232 286 339
#     4  10  21  37  58  83 113 151 192 238 292 342
#     4  11  22  37  59  86 116 149 192 241 286 342
#     4   9  20  38  56  81 114 147 191 241 283 342
#
# _framework density 24.074434
#
# number of rings (size 3 to 8) (size 9 to 14) (size 15 to 20)
#    0.000    2.000    0.000    3.000    0.000    6.000 
#    0.000    2.500    0.000    0.000    0.000    0.000 
#    0.000    0.000    0.000    0.000    0.000    0.000 
#
# Total GULP energy -89272.850188 kJ/mol
# GULP energy per Si atom -5579.553137 kJ/mol
# Density = 2.401964 g / cm^3
# Si number density = 24.074434 Si / 1000 Ang^3
#
#
#
# Elastic Constant Matrix: (Units=GPa)
#
#
# Indices 1 2 3 4 5 6 
#
# 1 78.0268 -0.7642 5.3778 -9.0681 -1.7668 11.1460
# 2 -0.7642 198.9577 60.6980 -49.5889 -11.5046 -4.4010
# 3 5.3778 60.6980 123.7766 -49.0882 -13.9107 -2.5791
# 4 -9.0681 -49.5889 -49.0882 64.8939 15.9365 -1.7317
# 5 -1.7668 -11.5046 -13.9107 15.9365 19.8467 4.0201
# 6 11.1460 -4.4010 -2.5791 -1.7317 4.0201 24.0203
#
#
#
# Elastic Compliance Matrix: (Units=1/GPa)
#
#
# Indices 1 2 3 4 5 6 
#
# 1 0.013990 0.000451 -0.000145 0.001676 0.001383 -0.006535
# 2 0.000451 0.006522 -0.001700 0.003997 -0.000830 0.001230
# 3 -0.000145 -0.001700 0.012081 0.007590 0.001087 0.001418
# 4 0.001676 0.003997 0.007590 0.028590 -0.016297 0.005558
# 5 0.001383 -0.000830 0.001087 -0.016297 0.066507 -0.012983
# 6 -0.006535 0.001230 0.001418 0.005558 -0.012983 0.047615
#
#
# Mechanical properties :
#
#
# Convention : Reuss Voigt Hill
#
# Bulk Modulus (GPa) = 33.55187 59.04270 46.29728
# Shear Modulus (GPa) = 26.59167 44.11549 35.35358
#
# Velocity S-wave (km/s) = 3.32710 4.28537 3.83627
# Velocity P-wave (km/s) = 5.35970 7.00458 6.23661
#
# Compressibility (1/GPa) = 0.02980460
#
# Stress axis : x y z
#
# Youngs Moduli (GPa) = 71.47869 153.32211 82.77534
#
# Poissons Ratio (x) = -0.06917 0.01202
# Poissons Ratio (y) = -0.03225 0.14074
# Poissons Ratio (z) = 0.01038 0.26069
#
# Static dielectric constant tensor:
#      x y z
#    x 2.061890 0.014240 0.054270 
#    y 0.014240 1.856820 -0.071210 
#    z 0.054270 -0.071210 1.925070 
# 
# From -- ./inp_files/515064.got.cif
#   From: 2010.05.17/outbox.cif.g08.bks.cpg/sg2_258_cif.got.tgz:515064.got - 2010.06.03 11:33:40.
