data_PCOD9003415
_publ_section_title
;
Structure prediction by ZEFSAII (Michael W. Deem and Ramdas Pophale) SiO2 
 PCOD9003415
Probable space group: P -1
;
_chemical_formula_sum "Si O2"
_cell_formula_units_Z 10
_cell_length_a 6.995578
_cell_length_b 13.809030
_cell_length_c 11.414846
_cell_angle_alpha 141.233557
_cell_angle_beta 48.518687
_cell_angle_gamma 137.626507
_cell_volume 455.490080
_symmetry_space_group_name_H-M "P -1"
_symmetry_group_IT_number 2
_symmetry_cell_setting 'triclinic'
loop_
_space_group_symop_operation_xyz
x,y,z
-x,-y,-z
loop_
_atom_site_type_symbol
_atom_site_label
_atom_site_fract_x
_atom_site_fract_y
_atom_site_fract_z
Si Si1 0.327352 0.586109 0.719265
Si Si2 0.087117 0.103551 0.183091
Si Si3 0.622986 0.536194 0.176600
Si Si4 0.194649 0.652240 0.427710
Si Si5 0.695891 0.771083 0.168268
O O1 0.500000 0.500000 0.500000
O O2 0.568960 0.785032 0.830461
O O3 0.230134 0.495602 0.801078
O O4 0.045354 0.529413 0.702554
O O5 0.955096 0.238802 0.360577
O O6 0.932881 0.960869 0.212501
O O7 0.000000 0.000000 0.000000
O O8 0.398843 0.603839 0.378861
O O9 0.800188 0.679080 0.139313
O O10 0.434269 0.358157 0.012165
O O11 0.416730 0.765051 0.340432
#
# Coordination Sequence:
#
# PCOD9003415 Si02
#       5
#     2   2   2   2   2
#     4  10  21  37  60  86 117 148 194 236 285 338
#     4  11  20  36  59  89 119 146 188 248 283 328
#     4   9  19  39  61  81 118 150 196 228 285 346
#     4   9  21  38  65  79 112 162 193 218 297 344
#     4   9  19  39  61  83 114 155 192 233 282 343
#
# _framework density 21.954374000000001
#
# number of rings (size 3 to 8) (size 9 to 14) (size 15 to 20)
#    1.200    1.200    2.000    0.600    0.000    4.000 
#    0.000    5.000    8.800    0.000    0.000    0.000 
#    0.000    0.000    0.000    0.000    0.000    0.000 
#
# Total GULP energy -55757.875768 kJ/mol
# GULP energy per Si atom -5575.787577 kJ/mol
# Density = 2.190440 g / cm^3
# Si number density = 21.954374 Si / 1000 Ang^3
#
#
#
# Elastic Constant Matrix: (Units=GPa)
#
#
# Indices 1 2 3 4 5 6 
#
# 1 42.4144 15.5544 13.4471 1.2342 2.2537 -4.0784
# 2 15.5544 125.3981 13.1182 13.3930 12.6499 -4.1528
# 3 13.4471 13.1182 87.4083 2.0057 3.4441 -0.5669
# 4 1.2342 13.3930 2.0057 28.0683 -0.7325 5.3730
# 5 2.2537 12.6499 3.4441 -0.7325 26.7403 -4.3901
# 6 -4.0784 -4.1528 -0.5669 5.3730 -4.3901 27.7819
#
#
#
# Elastic Compliance Matrix: (Units=1/GPa)
#
#
# Indices 1 2 3 4 5 6 
#
# 1 0.026039 -0.002729 -0.003573 -0.000236 0.000109 0.003405
# 2 -0.002729 0.009327 -0.000708 -0.004622 -0.004014 0.001239
# 3 -0.003573 -0.000708 0.012140 -0.000307 -0.001016 -0.000484
# 4 -0.000236 -0.004622 -0.000307 0.039457 0.002006 -0.008046
# 5 0.000109 -0.004014 -0.001016 0.002006 0.040356 0.005385
# 6 0.003405 0.001239 -0.000484 -0.008046 0.005385 0.039077
#
#
# Mechanical properties :
#
#
# Convention : Reuss Voigt Hill
#
# Bulk Modulus (GPa) = 29.86290 37.71778 33.79034
# Shear Modulus (GPa) = 26.09898 30.72484 28.41191
#
# Velocity S-wave (km/s) = 3.45161 3.74503 3.60131
# Velocity P-wave (km/s) = 5.43292 5.99314 5.71989
#
# Compressibility (1/GPa) = 0.03348637
#
# Stress axis : x y z
#
# Youngs Moduli (GPa) = 38.40397 107.21885 82.36982
#
# Poissons Ratio (x) = 0.29261 0.29432
# Poissons Ratio (y) = 0.10481 0.05829
# Poissons Ratio (z) = 0.13722 0.07587
#
# Static dielectric constant tensor:
#      x y z
#    x 1.788000 -0.011910 -0.030730 
#    y -0.011910 1.822440 -0.048470 
#    z -0.030730 -0.048470 1.827360 
# 
# From -- ./inp_files/108106.got.cif
#   From: 2010.05.17/outbox.cif.g08.bks.cpg/sg2_55_cif.got.tgz:108106.got - 2010.06.03 11:33:40.
