data_PCOD9003902
_publ_section_title
;
Structure prediction by ZEFSAII (Michael W. Deem and Ramdas Pophale) SiO2 
 PCOD9003902
Probable space group: P -1
;
_chemical_formula_sum "Si O2"
_cell_formula_units_Z 16
_cell_length_a 8.823553
_cell_length_b 11.660118
_cell_length_c 8.820301
_cell_angle_alpha 83.592838
_cell_angle_beta 98.395367
_cell_angle_gamma 127.505536
_cell_volume 711.874743
_symmetry_space_group_name_H-M "P -1"
_symmetry_group_IT_number 2
_symmetry_cell_setting 'triclinic'
loop_
_space_group_symop_operation_xyz
x,y,z
-x,-y,-z
loop_
_atom_site_type_symbol
_atom_site_label
_atom_site_fract_x
_atom_site_fract_y
_atom_site_fract_z
Si Si1 0.102824 0.675573 0.856217
Si Si2 0.740944 0.476593 0.010877
Si Si3 0.361019 0.883754 0.121463
Si Si4 0.348433 0.020517 0.398317
Si Si5 0.012207 0.222679 0.450607
Si Si6 0.436356 0.322376 0.411117
Si Si7 0.466868 0.283098 0.755051
Si Si8 0.236413 0.371838 0.730580
O O1 0.232512 0.621742 0.862489
O O2 0.090662 0.752822 0.701306
O O3 0.181590 0.765556 0.010127
O O4 0.891289 0.535870 0.886511
O O5 0.787339 0.604783 0.103391
O O6 0.546705 0.378745 0.905205
O O7 0.311806 0.948655 0.238620
O O8 0.472158 0.821372 0.210347
O O9 0.500000 0.000000 0.000000
O O10 0.154087 0.935253 0.483570
O O11 0.500000 0.000000 0.500000
O O12 0.425893 0.185941 0.372724
O O13 0.215146 0.266835 0.406060
O O14 0.075326 0.329485 0.589351
O O15 0.530450 0.356000 0.588109
O O16 0.570211 0.470482 0.314934
O O17 0.253743 0.240421 0.733793
#
# Coordination Sequence:
#
# PCOD9003902 Si02
#       8
#     2   2   2   2   2   2   2   2
#     4  10  22  39  61  90 134 170 212 276 327 382
#     4  10  21  37  62  97 129 169 218 269 329 389
#     4  11  24  42  64  92 130 172 222 268 326 388
#     4  12  25  44  70  97 129 178 227 268 328 397
#     4  11  24  44  66  98 136 173 219 274 331 390
#     4  11  24  43  69 100 135 172 221 275 330 389
#     4  10  21  40  64  90 131 165 212 272 323 380
#     4  11  23  40  70  98 131 177 222 267 336 393
#
# _framework density 22.475864000000001
#
# number of rings (size 3 to 8) (size 9 to 14) (size 15 to 20)
#    0.000    1.250    1.250    5.250    5.250    0.500 
#    0.000    0.625    0.000    0.000    0.000    0.000 
#    0.000    0.000    0.000    0.000    0.000    0.000 
#
# Total GULP energy -89219.662013 kJ/mol
# GULP energy per Si atom -5576.228876 kJ/mol
# Density = 2.242471 g / cm^3
# Si number density = 22.475864 Si / 1000 Ang^3
#
#
#
# Elastic Constant Matrix: (Units=GPa)
#
#
# Indices 1 2 3 4 5 6 
#
# 1 73.4786 28.6408 33.6240 -5.5040 8.1684 -4.0475
# 2 28.6408 72.3022 3.7676 -6.8783 -1.4775 -4.5707
# 3 33.6240 3.7676 65.7600 -2.8945 5.1493 -15.6352
# 4 -5.5040 -6.8783 -2.8945 46.1763 -3.5337 -13.5540
# 5 8.1684 -1.4775 5.1493 -3.5337 30.6320 -1.2477
# 6 -4.0475 -4.5707 -15.6352 -13.5540 -1.2477 38.6722
#
#
#
# Elastic Compliance Matrix: (Units=1/GPa)
#
#
# Indices 1 2 3 4 5 6 
#
# 1 0.022601 -0.008763 -0.011625 -0.000822 -0.004745 -0.003811
# 2 -0.008763 0.017719 0.004378 0.003337 0.003012 0.004214
# 3 -0.011625 0.004378 0.023445 0.003713 0.000209 0.010088
# 4 -0.000822 0.003337 0.003713 0.025740 0.003171 0.010933
# 5 -0.004745 0.003012 0.000209 0.003171 0.034475 0.002167
# 6 -0.003811 0.004214 0.010088 0.010933 0.002167 0.033938
#
#
# Mechanical properties :
#
#
# Convention : Reuss Voigt Hill
#
# Bulk Modulus (GPa) = 31.49937 38.17839 34.83888
# Shear Modulus (GPa) = 24.93526 32.79668 28.86597
#
# Velocity S-wave (km/s) = 3.33441 3.82409 3.58761
# Velocity P-wave (km/s) = 5.37304 6.04330 5.71800
#
# Compressibility (1/GPa) = 0.03174667
#
# Stress axis : x y z
#
# Youngs Moduli (GPa) = 44.24658 56.43551 42.65220
#
# Poissons Ratio (x) = 0.49455 0.49582
# Poissons Ratio (y) = 0.38774 -0.18675
# Poissons Ratio (z) = 0.51435 -0.24710
#
# Static dielectric constant tensor:
#      x y z
#    x 1.946530 0.063320 0.030720 
#    y 0.063320 1.948510 0.061440 
#    z 0.030720 0.061440 1.859660 
# 
# From -- ./inp_files/186830.got.cif
#   From: 2010.05.17/outbox.cif.g08.bks.cpg/sg2_94_cif.got.tgz:186830.got - 2010.06.03 11:33:40.
