data_PCOD9003203
_publ_section_title
;
Structure prediction by ZEFSAII (Michael W. Deem and Ramdas Pophale) SiO2 
 PCOD9003203
Probable space group: P -1
;
_chemical_formula_sum "Si O2"
_cell_formula_units_Z 16
_cell_length_a 16.422056
_cell_length_b 10.026242
_cell_length_c 9.574009
_cell_angle_alpha 42.283625
_cell_angle_beta 118.709357
_cell_angle_gamma 132.163746
_cell_volume 785.721242
_symmetry_space_group_name_H-M "P -1"
_symmetry_group_IT_number 2
_symmetry_cell_setting 'triclinic'
loop_
_space_group_symop_operation_xyz
x,y,z
-x,-y,-z
loop_
_atom_site_type_symbol
_atom_site_label
_atom_site_fract_x
_atom_site_fract_y
_atom_site_fract_z
Si Si1 0.455968 0.302706 0.001921
Si Si2 0.883724 0.174820 0.535221
Si Si3 0.874881 0.925794 0.975712
Si Si4 0.144113 0.475162 0.571128
Si Si5 0.750325 0.013569 0.277480
Si Si6 0.224912 0.842666 0.132943
Si Si7 0.589776 0.512871 0.458212
Si Si8 0.465288 0.998352 0.812920
O O1 0.536455 0.211753 0.104677
O O2 0.337699 0.065928 0.111907
O O3 0.500000 0.500000 0.000000
O O4 0.437748 0.415819 0.764265
O O5 0.848339 0.340408 0.451198
O O6 0.015293 0.310297 0.552997
O O7 0.846035 0.121050 0.386624
O O8 0.834322 0.946212 0.772911
O O9 0.817071 0.682807 0.200987
O O10 0.868773 0.115208 0.918908
O O11 0.000000 0.000000 0.000000
O O12 0.204278 0.613203 0.372845
O O13 0.705780 0.739408 0.424325
O O14 0.649923 0.019585 0.261701
O O15 0.772506 0.140078 0.046492
O O16 0.500000 0.500000 0.500000
O O17 0.560916 0.249235 0.636738
O O18 0.500000 0.000000 0.000000
#
# Coordination Sequence:
#
# PCOD9003203 Si02
#       8
#     2   2   2   2   2   2   2   2
#     4  11  24  40  61  92 124 159 206 259 300 360
#     4   9  19  38  60  86 119 154 203 250 304 366
#     4   9  19  39  61  80 112 160 197 243 307 360
#     4   9  19  38  61  83 118 159 195 254 308 362
#     4  10  21  38  60  93 122 160 206 254 305 363
#     4  10  21  37  58  90 122 152 203 257 304 356
#     4   9  19  37  60  82 119 163 200 252 298 355
#     4  11  20  42  65  84 122 169 203 241 312 367
#
# _framework density 20.363454999999998
#
# number of rings (size 3 to 8) (size 9 to 14) (size 15 to 20)
#    0.000    2.250    3.750    0.750    0.000    8.000 
#    2.250    2.500    0.000    0.000    0.000    0.000 
#    0.000    0.000    0.000    0.000    0.000    0.000 
#
# Total GULP energy -89241.326576 kJ/mol
# GULP energy per Si atom -5577.582911 kJ/mol
# Density = 2.031711 g / cm^3
# Si number density = 20.363455 Si / 1000 Ang^3
#
#
#
# Elastic Constant Matrix: (Units=GPa)
#
#
# Indices 1 2 3 4 5 6 
#
# 1 65.0757 16.6479 10.7158 -1.1283 -3.0052 -12.3045
# 2 16.6479 111.0691 55.9974 13.8014 -2.7656 -17.0001
# 3 10.7158 55.9974 150.5020 -21.8264 -17.1170 -0.7035
# 4 -1.1283 13.8014 -21.8264 24.9615 -5.5540 4.6798
# 5 -3.0052 -2.7656 -17.1170 -5.5540 31.3224 -4.4002
# 6 -12.3045 -17.0001 -0.7035 4.6798 -4.4002 21.1851
#
#
#
# Elastic Compliance Matrix: (Units=1/GPa)
#
#
# Indices 1 2 3 4 5 6 
#
# 1 0.017750 -0.000134 -0.001141 -0.001670 0.002319 0.011014
# 2 -0.000134 0.023407 -0.014037 -0.031388 -0.007876 0.023537
# 3 -0.001141 -0.014037 0.017173 0.028008 0.010854 -0.015289
# 4 -0.001670 -0.031388 0.028008 0.094777 0.023377 -0.041308
# 5 0.002319 -0.007876 0.010854 0.023377 0.041363 -0.001186
# 6 0.011014 0.023537 -0.015289 -0.041308 -0.001186 0.080859
#
#
# Mechanical properties :
#
#
# Convention : Reuss Voigt Hill
#
# Bulk Modulus (GPa) = 36.09399 54.81878 45.45639
# Shear Modulus (GPa) = 15.86349 31.71284 23.78817
#
# Velocity S-wave (km/s) = 2.79412 3.95060 3.42157
# Velocity P-wave (km/s) = 5.30781 6.91290 6.16283
#
# Compressibility (1/GPa) = 0.02770544
#
# Stress axis : x y z
#
# Youngs Moduli (GPa) = 56.33943 42.72160 58.22958
#
# Poissons Ratio (x) = 0.00573 0.06643
# Poissons Ratio (y) = 0.00756 0.81739
# Poissons Ratio (z) = 0.06427 0.59970
#
# Static dielectric constant tensor:
#      x y z
#    x 1.780270 0.006650 -0.006330 
#    y 0.006650 1.739370 -0.040390 
#    z -0.006330 -0.040390 1.760340 
# 
# From -- ./inp_files/313927.got.cif
#   From: 2010.05.17/outbox.cif.g08.bks.cpg/sg2_157_cif.got.tgz:313927.got - 2010.06.03 11:33:40.
