data_PCOD9003786
_publ_section_title
;
Structure prediction by ZEFSAII (Michael W. Deem and Ramdas Pophale) SiO2 
 PCOD9003786
Probable space group: P -1
;
_chemical_formula_sum "Si O2"
_cell_formula_units_Z 14
_cell_length_a 20.622516
_cell_length_b 11.519066
_cell_length_c 8.468871
_cell_angle_alpha 64.136385
_cell_angle_beta 41.181327
_cell_angle_gamma 31.544097
_cell_volume 556.638894
_symmetry_space_group_name_H-M "P -1"
_symmetry_group_IT_number 2
_symmetry_cell_setting 'triclinic'
loop_
_space_group_symop_operation_xyz
x,y,z
-x,-y,-z
loop_
_atom_site_type_symbol
_atom_site_label
_atom_site_fract_x
_atom_site_fract_y
_atom_site_fract_z
Si Si1 0.592377 0.228440 0.018577
Si Si2 0.719729 0.842781 0.508521
Si Si3 0.760849 0.288900 0.198881
Si Si4 0.839052 0.725342 0.012790
Si Si5 0.237255 0.723838 0.168983
Si Si6 0.194396 0.016751 0.544050
Si Si7 0.714494 0.618199 0.151140
O O1 0.644463 0.275879 0.024554
O O2 0.667412 0.004106 0.069044
O O3 0.742822 0.097249 0.676369
O O4 0.366003 0.486929 0.197574
O O5 0.711395 0.955055 0.596571
O O6 0.929138 0.512382 0.344981
O O7 0.477090 0.094602 0.764747
O O8 0.810932 0.797737 0.203255
O O9 0.657685 0.532519 0.330860
O O10 0.701096 0.210637 0.395916
O O11 0.757618 0.316643 0.000978
O O12 0.000000 0.000000 0.000000
O O13 0.770540 0.654392 0.164758
O O14 0.000000 0.000000 0.500000
O O15 0.944305 0.331794 0.822443
#
# Coordination Sequence:
#
# PCOD9003786 Si02
#       7
#     2   2   2   2   2   2   2
#     4  11  25  42  63  93 131 166 201 257 318 372
#     4  10  21  39  63  89 119 165 212 254 307 364
#     4  10  21  40  66  92 124 162 209 262 306 367
#     4  10  23  41  60  90 127 161 207 256 307 372
#     4  11  24  42  64  95 127 163 209 256 316 373
#     4  10  22  40  61  91 123 160 209 255 308 368
#     4  10  21  37  62  90 118 158 207 253 303 363
#
# _framework density 25.150956999999998
#
# number of rings (size 3 to 8) (size 9 to 14) (size 15 to 20)
#    0.000    1.714    0.000    3.857    0.000   11.429 
#    0.000    3.571    0.000    0.000    0.000    0.000 
#    0.000    0.000    0.000    0.000    0.000    0.000 
#
# Total GULP energy -78112.361100 kJ/mol
# GULP energy per Si atom -5579.454364 kJ/mol
# Density = 2.509371 g / cm^3
# Si number density = 25.150957 Si / 1000 Ang^3
#
#
#
# Elastic Constant Matrix: (Units=GPa)
#
#
# Indices 1 2 3 4 5 6 
#
# 1 121.4089 47.7670 11.1139 6.8391 -10.3653 -16.4436
# 2 47.7670 135.8116 28.4088 33.5439 -1.8867 -5.1828
# 3 11.1139 28.4088 67.7601 38.3504 -9.2170 -9.4346
# 4 6.8391 33.5439 38.3504 45.8827 -9.2066 -5.0489
# 5 -10.3653 -1.8867 -9.2170 -9.2066 20.8825 14.1098
# 6 -16.4436 -5.1828 -9.4346 -5.0489 14.1098 29.6004
#
#
#
# Elastic Compliance Matrix: (Units=1/GPa)
#
#
# Indices 1 2 3 4 5 6 
#
# 1 0.010570 -0.004153 -0.000852 0.003266 0.003343 0.003837
# 2 -0.004153 0.010815 0.000399 -0.008581 -0.005176 0.000718
# 3 -0.000852 0.000399 0.028874 -0.024096 -0.002116 0.005699
# 4 0.003266 -0.008581 -0.024096 0.050393 0.017109 -0.006929
# 5 0.003343 -0.005176 -0.002116 0.017109 0.078960 -0.034444
# 6 0.003837 0.000718 0.005699 -0.006929 -0.034444 0.053094
#
#
# Mechanical properties :
#
#
# Convention : Reuss Voigt Hill
#
# Bulk Modulus (GPa) = 24.36195 55.50668 39.93432
# Shear Modulus (GPa) = 19.56194 35.11917 27.34055
#
# Velocity S-wave (km/s) = 2.79190 3.74081 3.30063
# Velocity P-wave (km/s) = 4.48333 6.38557 5.51706
#
# Compressibility (1/GPa) = 0.04104762
#
# Stress axis : x y z
#
# Youngs Moduli (GPa) = 94.61071 92.46222 34.63373
#
# Poissons Ratio (x) = 0.38400 0.02950
# Poissons Ratio (y) = 0.39292 -0.01383
# Poissons Ratio (z) = 0.08059 -0.03693
#
# Static dielectric constant tensor:
#      x y z
#    x 1.978920 0.004450 -0.099720 
#    y 0.004450 2.072280 0.007960 
#    z -0.099720 0.007960 2.088150 
# 
# From -- ./inp_files/259313.got.cif
#   From: 2010.05.17/outbox.cif.g08.bks.cpg/sg2_130_cif.got.tgz:259313.got - 2010.06.03 11:33:40.
