data_PCOD9003549
_publ_section_title
;
Structure prediction by ZEFSAII (Michael W. Deem and Ramdas Pophale) SiO2 
 PCOD9003549
Probable space group: P -1
;
_chemical_formula_sum "Si O2"
_cell_formula_units_Z 15
_cell_length_a 5.229896
_cell_length_b 14.856711
_cell_length_c 8.044218
_cell_angle_alpha 65.010544
_cell_angle_beta 80.362512
_cell_angle_gamma 92.081879
_cell_volume 554.498651
_symmetry_space_group_name_H-M "P -1"
_symmetry_group_IT_number 2
_symmetry_cell_setting 'triclinic'
loop_
_space_group_symop_operation_xyz
x,y,z
-x,-y,-z
loop_
_atom_site_type_symbol
_atom_site_label
_atom_site_fract_x
_atom_site_fract_y
_atom_site_fract_z
Si Si1 0.843470 0.574193 0.855920
Si Si2 0.348427 0.810661 0.906980
Si Si3 0.435403 0.154392 0.791132
Si Si4 0.906156 0.921067 0.714735
Si Si5 0.224243 0.684778 0.542702
Si Si6 0.945744 0.677246 0.229380
Si Si7 0.000000 0.000000 0.000000
Si Si8 0.543480 0.519132 0.235739
O O1 0.758734 0.514852 0.741156
O O2 0.989476 0.678990 0.702751
O O3 0.616380 0.580914 0.007549
O O4 0.000000 0.500000 0.000000
O O5 0.641140 0.842064 0.782429
O O6 0.153121 0.864533 0.776285
O O7 0.369769 0.848353 0.070394
O O8 0.173023 0.702905 0.045713
O O9 0.591828 0.213154 0.578823
O O10 0.216382 0.226780 0.814026
O O11 0.263182 0.054966 0.836087
O O12 0.857282 0.976325 0.851402
O O13 0.000000 0.000000 0.500000
O O14 0.365790 0.590927 0.661272
O O15 0.100898 0.663482 0.391361
O O16 0.709935 0.589136 0.293009
#
# Coordination Sequence:
#
# PCOD9003549 Si02
#       8
#     2   2   2   2   2   2   1   2
#     4   9  20  39  56  85 127 171 221 269 332 398
#     4  10  21  43  64  96 139 167 221 286 334 412
#     4  10  22  39  66  92 132 171 223 275 338 406
#     4  11  23  44  71 100 134 178 230 286 346 415
#     4  10  21  37  60  95 128 165 227 276 326 413
#     4  11  21  39  64  95 130 174 217 276 333 402
#     4  10  22  46  70  94 136 184 218 286 354 394
#     4  10  21  38  63  87 130 176 216 275 337 395
#
# _framework density 27.051466000000001
#
# number of rings (size 3 to 8) (size 9 to 14) (size 15 to 20)
#    0.000    1.867    2.667    1.600    0.000    8.533 
#    2.400    4.000    0.000    0.000    0.000    0.000 
#    0.000    0.000    0.000    0.000    0.000    0.000 
#
# Total GULP energy -83548.775550 kJ/mol
# GULP energy per Si atom -5569.918370 kJ/mol
# Density = 2.698990 g / cm^3
# Si number density = 27.051466 Si / 1000 Ang^3
#
#
#
# Elastic Constant Matrix: (Units=GPa)
#
#
# Indices 1 2 3 4 5 6 
#
# 1 135.8396 34.8611 61.0173 -18.0077 -7.5211 36.0547
# 2 34.8611 64.6777 29.8343 -6.3739 -0.0332 20.2640
# 3 61.0173 29.8343 205.6396 -25.6296 -22.7486 24.7705
# 4 -18.0077 -6.3739 -25.6296 40.1360 15.1150 -6.6063
# 5 -7.5211 -0.0332 -22.7486 15.1150 63.3909 -6.6962
# 6 36.0547 20.2640 24.7705 -6.6063 -6.6962 43.6047
#
#
#
# Elastic Compliance Matrix: (Units=1/GPa)
#
#
# Indices 1 2 3 4 5 6 
#
# 1 0.010881 -0.002780 -0.001817 0.002463 -0.000625 -0.006395
# 2 -0.002780 0.019588 -0.001379 0.000569 -0.001603 -0.006180
# 3 -0.001817 -0.001379 0.006127 0.002234 0.001366 -0.000789
# 4 0.002463 0.000569 0.002234 0.029804 -0.006010 0.000023
# 5 -0.000625 -0.001603 0.001366 -0.006010 0.017868 0.002319
# 6 -0.006395 -0.006180 -0.000789 0.000023 0.002319 0.031901
#
#
# Mechanical properties :
#
#
# Convention : Reuss Voigt Hill
#
# Bulk Modulus (GPa) = 40.58011 73.06472 56.82242
# Shear Modulus (GPa) = 36.67433 48.12258 42.39845
#
# Velocity S-wave (km/s) = 3.68601 4.22231 3.96324
# Velocity P-wave (km/s) = 5.75753 7.13012 6.48027
#
# Compressibility (1/GPa) = 0.02464262
#
# Stress axis : x y z
#
# Youngs Moduli (GPa) = 91.90624 51.05285 163.22223
#
# Poissons Ratio (x) = 0.14195 0.29657
# Poissons Ratio (y) = 0.25554 0.22503
# Poissons Ratio (z) = 0.16699 0.07039
#
# Static dielectric constant tensor:
#      x y z
#    x 2.382890 -0.157920 -0.095780 
#    y -0.157920 2.367920 0.032400 
#    z -0.095780 0.032400 2.113590 
# 
# From -- ./inp_files/137251.got.cif
#   From: 2010.05.17/outbox.cif.g08.bks.cpg/sg2_69_cif.got.tgz:137251.got - 2010.06.03 11:33:40.
