data_PCOD9003706
_publ_section_title
;
Structure prediction by ZEFSAII (Michael W. Deem and Ramdas Pophale) SiO2 
 PCOD9003706
Probable space group: P -1
;
_chemical_formula_sum "Si O2"
_cell_formula_units_Z 16
_cell_length_a 11.064690
_cell_length_b 8.816275
_cell_length_c 10.518751
_cell_angle_alpha 80.849655
_cell_angle_beta 115.775735
_cell_angle_gamma 128.319208
_cell_volume 716.006385
_symmetry_space_group_name_H-M "P -1"
_symmetry_group_IT_number 2
_symmetry_cell_setting 'triclinic'
loop_
_space_group_symop_operation_xyz
x,y,z
-x,-y,-z
loop_
_atom_site_type_symbol
_atom_site_label
_atom_site_fract_x
_atom_site_fract_y
_atom_site_fract_z
Si Si1 0.185262 0.093499 0.347623
Si Si2 0.689529 0.043261 0.362565
Si Si3 0.919071 0.810388 0.076828
Si Si4 0.385386 0.250936 0.154145
Si Si5 0.241785 0.558094 0.663852
Si Si6 0.955838 0.696615 0.635334
Si Si7 0.382671 0.906633 0.084229
Si Si8 0.924569 0.480957 0.134763
O O1 0.303251 0.192106 0.264624
O O2 0.143723 0.226510 0.372920
O O3 0.271069 0.041438 0.493749
O O4 0.003841 0.898616 0.240394
O O5 0.706471 0.233571 0.385752
O O6 0.841363 0.126894 0.316586
O O7 0.500801 0.896659 0.238164
O O8 0.974755 0.681043 0.075084
O O9 0.717851 0.698008 0.983401
O O10 0.000000 0.000000 0.000000
O O11 0.586659 0.417250 0.241482
O O12 0.358789 0.062909 0.104662
O O13 0.115125 0.403209 0.521117
O O14 0.162621 0.529472 0.770094
O O15 0.940405 0.548260 0.750476
O O16 0.212129 0.698391 0.993453
O O17 0.500000 0.000000 0.000000
#
# Coordination Sequence:
#
# PCOD9003706 Si02
#       8
#     2   2   2   2   2   2   2   2
#     4  11  23  40  60  90 132 177 201 266 320 373
#     4  10  21  38  64  94 130 165 214 259 319 368
#     4  10  23  42  62  90 128 168 210 263 320 376
#     4  10  23  42  60  90 136 165 210 262 323 377
#     4  10  21  37  61  95 123 166 213 263 313 378
#     4  11  21  37  64  94 129 166 219 259 311 383
#     4  11  20  41  67  96 127 166 209 269 312 381
#     4  11  21  40  68  93 122 169 216 267 316 371
#
# _framework density 22.346170999999998
#
# number of rings (size 3 to 8) (size 9 to 14) (size 15 to 20)
#    0.000    1.500    3.750    4.125    0.000    4.000 
#    0.000   13.750    0.000    0.000    0.000    0.000 
#    0.000    0.000    0.000    0.000    0.000    0.000 
#
# Total GULP energy -89469.112666 kJ/mol
# GULP energy per Si atom -5591.819542 kJ/mol
# Density = 2.229531 g / cm^3
# Si number density = 22.346171 Si / 1000 Ang^3
#
#
#
# Elastic Constant Matrix: (Units=GPa)
#
#
# Indices 1 2 3 4 5 6 
#
# 1 81.6059 2.4135 41.5422 4.8058 -10.2543 -14.0179
# 2 2.4135 56.0450 44.5323 3.2122 -6.4602 -11.2927
# 3 41.5422 44.5323 167.9847 -6.5351 18.6497 -18.8110
# 4 4.8058 3.2122 -6.5351 35.6422 -4.3208 -2.4874
# 5 -10.2543 -6.4602 18.6497 -4.3208 31.6687 4.8085
# 6 -14.0179 -11.2927 -18.8110 -2.4874 4.8085 18.0336
#
#
#
# Elastic Compliance Matrix: (Units=1/GPa)
#
#
# Indices 1 2 3 4 5 6 
#
# 1 0.018412 0.007687 -0.006756 -0.002593 0.009771 0.009115
# 2 0.007687 0.029073 -0.009982 -0.003293 0.012326 0.010028
# 3 -0.006756 -0.009982 0.012226 0.002962 -0.011747 0.004791
# 4 -0.002593 -0.003293 0.002962 0.029493 0.000313 0.002997
# 5 0.009771 0.012326 -0.011747 0.000313 0.045590 -0.009053
# 6 0.009115 0.010028 0.004791 0.002997 -0.009053 0.076642
#
#
# Mechanical properties :
#
#
# Convention : Reuss Voigt Hill
#
# Bulk Modulus (GPa) = 24.03311 53.62352 38.82832
# Shear Modulus (GPa) = 20.54162 31.54541 26.04352
#
# Velocity S-wave (km/s) = 3.03520 3.76130 3.41758
# Velocity P-wave (km/s) = 4.80224 6.55072 5.74341
#
# Compressibility (1/GPa) = 0.04160926
#
# Stress axis : x y z
#
# Youngs Moduli (GPa) = 54.31219 34.39592 81.79476
#
# Poissons Ratio (x) = -0.26439 0.55259
# Poissons Ratio (y) = -0.41749 0.81646
# Poissons Ratio (z) = 0.36693 0.34333
#
# Static dielectric constant tensor:
#      x y z
#    x 1.835480 0.048720 0.018410 
#    y 0.048720 1.886240 -0.010650 
#    z 0.018410 -0.010650 1.837040 
# 
# From -- ./inp_files/271278.got.cif
#   From: 2010.05.17/outbox.cif.g08.bks.cpg/sg2_136_cif.got.tgz:271278.got - 2010.06.03 11:33:40.
