data_PCOD9003307
_publ_section_title
;
Structure prediction by ZEFSAII (Michael W. Deem and Ramdas Pophale) SiO2 
 PCOD9003307
Probable space group: P -1
;
_chemical_formula_sum "Si O2"
_cell_formula_units_Z 14
_cell_length_a 9.486758
_cell_length_b 8.800622
_cell_length_c 13.872883
_cell_angle_alpha 44.661900
_cell_angle_beta 85.076350
_cell_angle_gamma 112.968144
_cell_volume 620.299459
_symmetry_space_group_name_H-M "P -1"
_symmetry_group_IT_number 2
_symmetry_cell_setting 'triclinic'
loop_
_space_group_symop_operation_xyz
x,y,z
-x,-y,-z
loop_
_atom_site_type_symbol
_atom_site_label
_atom_site_fract_x
_atom_site_fract_y
_atom_site_fract_z
Si Si1 0.299177 0.540588 0.245350
Si Si2 0.279260 0.962397 0.958647
Si Si3 0.285564 0.063949 0.519125
Si Si4 0.907257 0.176210 0.157218
Si Si5 0.928748 0.046614 0.859221
Si Si6 0.790018 0.284624 0.645138
Si Si7 0.688010 0.324071 0.438357
O O1 0.232024 0.664339 0.121508
O O2 0.249187 0.239517 0.376044
O O3 0.233438 0.550568 0.350280
O O4 0.519483 0.785083 0.127218
O O5 0.141029 0.984601 0.013892
O O6 0.262039 0.984121 0.836704
O O7 0.504099 0.267165 0.442157
O O8 0.165312 0.952639 0.674147
O O9 0.256763 0.811765 0.577575
O O10 0.052932 0.155605 0.108993
O O11 0.000000 0.500000 0.000000
O O12 0.782098 0.052586 0.807034
O O13 0.134599 0.350233 0.706148
O O14 0.657967 0.183801 0.607599
O O15 0.000000 0.500000 0.500000
#
# Coordination Sequence:
#
# PCOD9003307 Si02
#       7
#     2   2   2   2   2   2   2
#     4  10  21  39  63  90 115 154 199 240 287 345
#     4  10  22  40  62  87 121 155 193 239 293 348
#     4  11  23  38  60  88 120 153 196 243 288 346
#     4  12  25  39  59  89 119 153 196 244 293 346
#     4  10  21  39  60  82 117 158 193 238 294 349
#     4   9  18  35  58  85 114 149 193 236 286 341
#     4  10  21  37  59  88 118 154 195 240 292 344
#
# _framework density 22.569745000000001
#
# number of rings (size 3 to 8) (size 9 to 14) (size 15 to 20)
#    0.000    1.714    0.000    4.714    0.000    5.143 
#    0.000    7.857    0.000    9.429    0.000    0.000 
#    0.000    0.000    0.000    0.000    0.000    0.000 
#
# Total GULP energy -78218.425773 kJ/mol
# GULP energy per Si atom -5587.030412 kJ/mol
# Density = 2.251838 g / cm^3
# Si number density = 22.569745 Si / 1000 Ang^3
#
#
#
# Elastic Constant Matrix: (Units=GPa)
#
#
# Indices 1 2 3 4 5 6 
#
# 1 91.7170 16.5670 19.1623 -12.8470 8.7619 -27.2838
# 2 16.5670 42.2362 5.9733 -3.8268 10.2704 -18.2923
# 3 19.1623 5.9733 74.0034 0.6268 8.4432 -16.8307
# 4 -12.8470 -3.8268 0.6268 27.8563 -0.8469 8.0714
# 5 8.7619 10.2704 8.4432 -0.8469 41.1685 2.2305
# 6 -27.2838 -18.2923 -16.8307 8.0714 2.2305 42.5645
#
#
#
# Elastic Compliance Matrix: (Units=1/GPa)
#
#
# Indices 1 2 3 4 5 6 
#
# 1 0.014569 -0.001161 -0.001694 0.004342 -0.002780 0.007492
# 2 -0.001161 0.032269 0.002032 -0.000629 -0.009020 0.014519
# 3 -0.001694 0.002032 0.015792 -0.002941 -0.003813 0.006789
# 4 0.004342 -0.000629 -0.002941 0.039717 0.000991 -0.006233
# 5 -0.002780 -0.009020 -0.003813 0.000991 0.028414 -0.008843
# 6 0.007492 0.014519 0.006789 -0.006233 -0.008843 0.038866
#
#
# Mechanical properties :
#
#
# Convention : Reuss Voigt Hill
#
# Bulk Modulus (GPa) = 16.39764 32.37352 24.38558
# Shear Modulus (GPa) = 26.09599 33.40146 29.74873
#
# Velocity S-wave (km/s) = 3.40404 3.85115 3.63448
# Velocity P-wave (km/s) = 4.76771 5.84380 5.33297
#
# Compressibility (1/GPa) = 0.06098438
#
# Stress axis : x y z
#
# Youngs Moduli (GPa) = 68.63660 30.98980 63.32471
#
# Poissons Ratio (x) = 0.03597 0.10730
# Poissons Ratio (y) = 0.07967 -0.12870
# Poissons Ratio (z) = 0.11630 -0.06298
#
# Static dielectric constant tensor:
#      x y z
#    x 1.892650 0.028250 0.066260 
#    y 0.028250 1.820010 0.042590 
#    z 0.066260 0.042590 1.895570 
# 
# From -- ./inp_files/223852.got.cif
#   From: 2010.05.17/outbox.cif.g08.bks.cpg/sg2_112_cif.got.tgz:223852.got - 2010.06.03 11:33:40.
