data_PCOD9003186
_publ_section_title
;
Structure prediction by ZEFSAII (Michael W. Deem and Ramdas Pophale) SiO2 
 PCOD9003186
Probable space group: P -1
;
_chemical_formula_sum "Si O2"
_cell_formula_units_Z 14
_cell_length_a 14.586781
_cell_length_b 14.037160
_cell_length_c 8.081754
_cell_angle_alpha 56.617603
_cell_angle_beta 80.145971
_cell_angle_gamma 32.463451
_cell_volume 561.113755
_symmetry_space_group_name_H-M "P -1"
_symmetry_group_IT_number 2
_symmetry_cell_setting 'triclinic'
loop_
_space_group_symop_operation_xyz
x,y,z
-x,-y,-z
loop_
_atom_site_type_symbol
_atom_site_label
_atom_site_fract_x
_atom_site_fract_y
_atom_site_fract_z
Si Si1 0.652358 0.471626 0.382700
Si Si2 0.413845 0.782427 0.826328
Si Si3 0.869034 0.631179 0.158766
Si Si4 0.945910 0.932522 0.522861
Si Si5 0.821144 0.029885 0.816158
Si Si6 0.992292 0.686891 0.330918
Si Si7 0.361246 0.056981 0.393970
O O1 0.753225 0.239531 0.639035
O O2 0.426161 0.751086 0.287193
O O3 0.867571 0.312013 0.437068
O O4 0.573001 0.554710 0.135493
O O5 0.289212 0.821941 0.729759
O O6 0.231021 0.051644 0.739299
O O7 0.480581 0.804285 0.651199
O O8 0.934245 0.666492 0.217246
O O9 0.826639 0.578136 0.356599
O O10 0.101274 0.342693 0.265021
O O11 0.674828 0.873218 0.854502
O O12 0.927424 0.882966 0.745652
O O13 0.000000 0.000000 0.500000
O O14 0.998187 0.800451 0.123993
O O15 0.500000 0.000000 0.500000
#
# Coordination Sequence:
#
# PCOD9003186 Si02
#       7
#     2   2   2   2   2   2   2
#     4   9  20  38  58  84 123 161 201 260 314 361
#     4  10  21  37  58  88 125 161 209 260 306 380
#     4   9  19  37  58  82 121 159 201 262 310 366
#     4  10  21  38  61  88 123 167 210 255 311 368
#     4   9  18  36  59  85 119 157 206 253 298 373
#     4   9  18  36  58  82 120 164 200 253 312 357
#     4  10  21  37  61  90 118 158 210 259 314 373
#
# _framework density 24.950379000000002
#
# number of rings (size 3 to 8) (size 9 to 14) (size 15 to 20)
#    0.000    2.571    0.000    0.857    0.000    6.857 
#    0.000   31.429    0.000    0.000    0.000    0.000 
#    0.000    0.000    0.000    0.000    0.000    0.000 
#
# Total GULP energy -78027.792743 kJ/mol
# GULP energy per Si atom -5573.413767 kJ/mol
# Density = 2.489359 g / cm^3
# Si number density = 24.950379 Si / 1000 Ang^3
#
#
#
# Elastic Constant Matrix: (Units=GPa)
#
#
# Indices 1 2 3 4 5 6 
#
# 1 85.7952 0.0209 55.7263 8.3062 0.5639 2.1375
# 2 0.0209 97.1806 28.9575 2.6098 -14.3473 -25.6017
# 3 55.7263 28.9575 185.8505 54.6457 -18.3494 -1.6937
# 4 8.3062 2.6098 54.6457 25.6825 3.6610 2.0835
# 5 0.5639 -14.3473 -18.3494 3.6610 24.4480 0.4893
# 6 2.1375 -25.6017 -1.6937 2.0835 0.4893 40.0880
#
#
#
# Elastic Compliance Matrix: (Units=1/GPa)
#
#
# Indices 1 2 3 4 5 6 
#
# 1 0.020983 0.001049 -0.019741 0.038258 -0.020353 -0.003023
# 2 0.001049 0.014135 -0.002220 0.001353 0.006227 0.008731
# 3 -0.019741 -0.002220 0.043591 -0.093121 0.045699 0.005758
# 4 0.038258 0.001353 -0.093121 0.240962 -0.105737 -0.016343
# 5 -0.020353 0.006227 0.045699 -0.105737 0.094933 0.011329
# 6 -0.003023 0.008731 0.005758 -0.016343 0.011329 0.031636
#
#
# Mechanical properties :
#
#
# Convention : Reuss Voigt Hill
#
# Bulk Modulus (GPa) = 27.11204 59.80396 43.45800
# Shear Modulus (GPa) = 9.99284 36.98514 23.48899
#
# Velocity S-wave (km/s) = 2.00344 3.85430 3.07160
# Velocity P-wave (km/s) = 4.03010 6.62033 5.48044
#
# Compressibility (1/GPa) = 0.03688398
#
# Stress axis : x y z
#
# Youngs Moduli (GPa) = 47.65779 70.74862 22.94074
#
# Poissons Ratio (x) = -0.07423 0.45287
# Poissons Ratio (y) = -0.05001 0.05093
# Poissons Ratio (z) = 0.94081 0.15708
#
# Static dielectric constant tensor:
#      x y z
#    x 2.007230 -0.027220 -0.041420 
#    y -0.027220 2.022420 0.000330 
#    z -0.041420 0.000330 2.087680 
# 
# From -- ./inp_files/314638.got.cif
#   From: 2010.05.17/outbox.cif.g08.bks.cpg/sg2_158_cif.got.tgz:314638.got - 2010.06.03 11:33:40.
