data_PCOD9003977
_publ_section_title
;
Structure prediction by ZEFSAII (Michael W. Deem and Ramdas Pophale) SiO2 
 PCOD9003977
Probable space group: P -1
;
_chemical_formula_sum "Si O2"
_cell_formula_units_Z 16
_cell_length_a 24.430241
_cell_length_b 10.901633
_cell_length_c 24.204788
_cell_angle_alpha 32.932065
_cell_angle_beta 168.277461
_cell_angle_gamma 146.109328
_cell_volume 710.023509
_symmetry_space_group_name_H-M "P -1"
_symmetry_group_IT_number 2
_symmetry_cell_setting 'triclinic'
loop_
_space_group_symop_operation_xyz
x,y,z
-x,-y,-z
loop_
_atom_site_type_symbol
_atom_site_label
_atom_site_fract_x
_atom_site_fract_y
_atom_site_fract_z
Si Si1 0.081229 0.684834 0.746135
Si Si2 0.771248 0.221219 0.875266
Si Si3 0.741782 0.660696 0.617997
Si Si4 0.495180 0.735374 0.939262
Si Si5 0.938854 0.842236 0.051993
Si Si6 0.617955 0.641944 0.222946
Si Si7 0.409983 0.867066 0.585332
Si Si8 0.998628 0.032993 0.331500
O O1 0.010908 0.427083 0.797691
O O2 0.872339 0.744041 0.469928
O O3 0.076758 0.859560 0.725509
O O4 0.364386 0.683270 0.995334
O O5 0.803846 0.404422 0.788945
O O6 0.573439 0.325604 0.685729
O O7 0.585867 0.012836 0.748125
O O8 0.061373 0.196534 0.197961
O O9 0.840249 0.763614 0.619010
O O10 0.571499 0.707891 0.089357
O O11 0.500000 0.500000 0.000000
O O12 0.726915 0.921701 0.076269
O O13 0.204706 0.836247 0.612402
O O14 0.136296 0.940065 0.259559
O O15 0.625317 0.846882 0.756216
O O16 0.000000 0.000000 0.000000
O O17 0.656406 0.375188 0.361468
#
# Coordination Sequence:
#
# PCOD9003977 Si02
#       8
#     2   2   2   2   2   2   2   2
#     4  10  23  43  66  99 130 172 221 259 331 386
#     4  10  21  41  61  93 128 176 215 251 323 390
#     4  10  23  39  62  93 131 167 215 264 315 388
#     4  12  28  47  68 101 127 172 221 272 343 386
#     4  10  21  38  59  96 131 166 212 261 315 378
#     4  10  23  43  67  93 132 170 220 271 313 397
#     4  10  21  37  63  91 121 176 209 257 326 374
#     4  12  26  44  69 100 132 171 215 283 330 379
#
# _framework density 22.534465000000001
#
# number of rings (size 3 to 8) (size 9 to 14) (size 15 to 20)
#    0.000    1.500    0.000    3.750    5.250    3.000 
#    2.250    0.000    0.000    0.000    0.000    0.000 
#    0.000    0.000    0.000    0.000    0.000    0.000 
#
# Total GULP energy -89438.136883 kJ/mol
# GULP energy per Si atom -5589.883555 kJ/mol
# Density = 2.248318 g / cm^3
# Si number density = 22.534465 Si / 1000 Ang^3
#
#
#
# Elastic Constant Matrix: (Units=GPa)
#
#
# Indices 1 2 3 4 5 6 
#
# 1 57.5463 24.4619 2.3310 -17.8505 -1.8367 6.6619
# 2 24.4619 75.1608 6.4696 10.2335 -0.0043 -11.0889
# 3 2.3310 6.4696 103.5368 6.3116 -4.5777 -4.2330
# 4 -17.8505 10.2335 6.3116 32.1265 -2.9128 -3.2098
# 5 -1.8367 -0.0043 -4.5777 -2.9128 23.0837 2.3305
# 6 6.6619 -11.0889 -4.2330 -3.2098 2.3305 48.1734
#
#
#
# Elastic Compliance Matrix: (Units=1/GPa)
#
#
# Indices 1 2 3 4 5 6 
#
# 1 0.031000 -0.013895 -0.001169 0.021750 0.005624 -0.006411
# 2 -0.013895 0.020607 -0.000033 -0.014004 -0.003471 0.005897
# 3 -0.001169 -0.000033 0.009930 -0.002375 0.001496 0.000796
# 4 0.021750 -0.014004 -0.002375 0.048482 0.007737 -0.003584
# 5 0.005624 -0.003471 0.001496 0.007737 0.045356 -0.003124
# 6 -0.006411 0.005897 0.000796 -0.003584 -0.003124 0.022985
#
#
# Mechanical properties :
#
#
# Convention : Reuss Voigt Hill
#
# Bulk Modulus (GPa) = 31.90734 33.64096 32.77415
# Shear Modulus (GPa) = 22.83090 34.20883 28.51986
#
# Velocity S-wave (km/s) = 3.18646 3.90046 3.56140
# Velocity P-wave (km/s) = 5.26575 5.93683 5.61133
#
# Compressibility (1/GPa) = 0.03134075
#
# Stress axis : x y z
#
# Youngs Moduli (GPa) = 32.25849 48.52825 100.70232
#
# Poissons Ratio (x) = 0.67432 0.11772
# Poissons Ratio (y) = 0.44824 0.00337
# Poissons Ratio (z) = 0.03771 0.00163
#
# Static dielectric constant tensor:
#      x y z
#    x 1.835740 -0.004430 0.002890 
#    y -0.004430 1.853420 -0.002170 
#    z 0.002890 -0.002170 1.786350 
# 
# From -- ./inp_files/621250.got.cif
#   From: 2010.05.17/outbox.cif.g08.bks.cpg/sg2_311_cif.got.tgz:621250.got - 2010.06.03 11:33:40.
