data_PCOD9003450
_publ_section_title
;
Structure prediction by ZEFSAII (Michael W. Deem and Ramdas Pophale) SiO2 
 PCOD9003450
Probable space group: P -1
;
_chemical_formula_sum "Si O2"
_cell_formula_units_Z 16
_cell_length_a 20.965542
_cell_length_b 5.341258
_cell_length_c 21.658215
_cell_angle_alpha 96.300040
_cell_angle_beta 159.226313
_cell_angle_gamma 74.040573
_cell_volume 745.865219
_symmetry_space_group_name_H-M "P -1"
_symmetry_group_IT_number 2
_symmetry_cell_setting 'triclinic'
loop_
_space_group_symop_operation_xyz
x,y,z
-x,-y,-z
loop_
_atom_site_type_symbol
_atom_site_label
_atom_site_fract_x
_atom_site_fract_y
_atom_site_fract_z
Si Si1 0.076295 0.211296 0.202019
Si Si2 0.701194 0.719655 0.699612
Si Si3 0.467531 0.629527 0.586654
Si Si4 0.356536 0.648439 0.934188
Si Si5 0.962663 0.793371 0.507655
Si Si6 0.297751 0.250576 0.085886
Si Si7 0.487056 0.094492 0.119617
Si Si8 0.239720 0.947879 0.131839
O O1 0.163025 0.377556 0.241515
O O2 0.253630 0.910773 0.382850
O O3 0.910715 0.445545 0.104834
O O4 0.935711 0.141740 0.026966
O O5 0.611993 0.551460 0.653934
O O6 0.500000 0.000000 0.500000
O O7 0.802106 0.818919 0.847421
O O8 0.563086 0.713799 0.733862
O O9 0.524144 0.308416 0.650012
O O10 0.125895 0.740741 0.707321
O O11 0.500000 0.500000 0.000000
O O12 0.395302 0.909002 0.997601
O O13 0.413453 0.405837 0.030933
O O14 0.732155 0.933515 0.328105
O O15 0.000000 0.500000 0.500000
O O16 0.000000 0.000000 0.500000
O O17 0.418796 0.129516 0.129632
O O18 0.231890 0.045632 0.056910
#
# Coordination Sequence:
#
# PCOD9003450 Si02
#       8
#     2   2   2   2   2   2   2   2
#     4  10  21  38  62  88 124 164 222 267 333 403
#     4   9  19  35  59  90 119 162 212 280 335 385
#     4   9  21  40  61  85 128 161 221 272 333 393
#     4  12  24  44  76 106 139 178 226 282 344 404
#     4  12  23  43  73 108 137 177 221 279 346 398
#     4  10  25  42  59  88 132 175 211 268 334 400
#     4  12  26  45  72 102 149 178 230 284 337 421
#     4  10  21  37  60  88 122 165 219 272 331 390
#
# _framework density 21.451595000000001
#
# number of rings (size 3 to 8) (size 9 to 14) (size 15 to 20)
#    0.000    1.500    2.500    1.500    3.500   11.500 
#    0.000    0.000    0.000    0.000    0.000    0.000 
#    0.000    0.000    0.000    0.000    0.000    0.000 
#
# Total GULP energy -89293.883135 kJ/mol
# GULP energy per Si atom -5580.867696 kJ/mol
# Density = 2.140277 g / cm^3
# Si number density = 21.451595 Si / 1000 Ang^3
#
#
#
# Elastic Constant Matrix: (Units=GPa)
#
#
# Indices 1 2 3 4 5 6 
#
# 1 124.9212 31.7171 30.2343 -6.5254 13.5845 -9.5185
# 2 31.7171 77.9594 27.1694 -5.8025 9.0075 5.3028
# 3 30.2343 27.1694 145.1975 -19.3735 7.4101 -4.3386
# 4 -6.5254 -5.8025 -19.3735 42.2754 1.0971 -6.3229
# 5 13.5845 9.0075 7.4101 1.0971 28.7791 -7.1689
# 6 -9.5185 5.3028 -4.3386 -6.3229 -7.1689 31.0466
#
#
#
# Elastic Compliance Matrix: (Units=1/GPa)
#
#
# Indices 1 2 3 4 5 6 
#
# 1 0.009682 -0.003422 -0.001011 0.001083 -0.002520 0.003050
# 2 -0.003422 0.015781 -0.002185 -0.000004 -0.004000 -0.004975
# 3 -0.001011 -0.002185 0.008060 0.003517 -0.000608 0.001765
# 4 0.001083 -0.000004 0.003517 0.026351 -0.000932 0.005976
# 5 -0.002520 -0.004000 -0.000608 -0.000932 0.039566 0.008772
# 6 0.003050 -0.004975 0.001765 0.005976 0.008772 0.037484
#
#
# Mechanical properties :
#
#
# Convention : Reuss Voigt Hill
#
# Bulk Modulus (GPa) = 49.29774 58.47997 53.88886
# Shear Modulus (GPa) = 31.86266 37.68402 34.77334
#
# Velocity S-wave (km/s) = 3.85818 4.19585 4.03055
# Velocity P-wave (km/s) = 6.54814 7.12699 6.84369
#
# Compressibility (1/GPa) = 0.02028490
#
# Stress axis : x y z
#
# Youngs Moduli (GPa) = 103.28743 63.36576 124.07230
#
# Poissons Ratio (x) = 0.21685 0.12549
# Poissons Ratio (y) = 0.35346 0.27115
# Poissons Ratio (z) = 0.10447 0.13848
#
# Static dielectric constant tensor:
#      x y z
#    x 1.756300 0.051150 0.019920 
#    y 0.051150 1.857210 -0.008270 
#    z 0.019920 -0.008270 1.829730 
# 
# From -- ./inp_files/116723.got.cif
#   From: 2010.05.17/outbox.cif.g08.bks.cpg/sg2_59_cif.got.tgz:116723.got - 2010.06.03 11:33:40.
