data_PCOD9003317
_publ_section_title
;
Structure prediction by ZEFSAII (Michael W. Deem and Ramdas Pophale) SiO2 
 PCOD9003317
Probable space group: P -1
;
_chemical_formula_sum "Si O2"
_cell_formula_units_Z 16
_cell_length_a 13.737847
_cell_length_b 14.192953
_cell_length_c 8.466077
_cell_angle_alpha 124.296795
_cell_angle_beta 94.553277
_cell_angle_gamma 41.839758
_cell_volume 715.347151
_symmetry_space_group_name_H-M "P -1"
_symmetry_group_IT_number 2
_symmetry_cell_setting 'triclinic'
loop_
_space_group_symop_operation_xyz
x,y,z
-x,-y,-z
loop_
_atom_site_type_symbol
_atom_site_label
_atom_site_fract_x
_atom_site_fract_y
_atom_site_fract_z
Si Si1 0.984081 0.759444 0.905703
Si Si2 0.334270 0.326250 0.705575
Si Si3 0.637512 0.970429 0.179261
Si Si4 0.430162 0.213507 0.086588
Si Si5 0.579505 0.295451 0.793180
Si Si6 0.795859 0.917471 0.693032
Si Si7 0.936927 0.955244 0.346536
Si Si8 0.888133 0.429103 0.809942
O O1 0.989059 0.880239 0.100426
O O2 0.833281 0.838181 0.066079
O O3 0.910548 0.831348 0.785537
O O4 0.179174 0.503430 0.719629
O O5 0.518361 0.084678 0.431519
O O6 0.417735 0.364841 0.810436
O O7 0.222375 0.386991 0.899689
O O8 0.658002 0.824649 0.969590
O O9 0.504541 0.168379 0.225133
O O10 0.613213 0.031002 0.829202
O O11 0.270655 0.450614 0.220291
O O12 0.711257 0.112351 0.776239
O O13 0.716285 0.164366 0.537219
O O14 0.500000 0.500000 0.000000
O O15 0.932613 0.711780 0.400325
O O16 0.036655 0.751943 0.254983
O O17 0.000000 0.000000 0.500000
#
# Coordination Sequence:
#
# PCOD9003317 Si02
#       8
#     2   2   2   2   2   2   2   2
#     4  10  21  40  62  89 122 160 203 252 296 365
#     4  11  21  38  62  89 124 160 202 249 305 357
#     4  10  22  39  61  90 121 163 208 251 305 356
#     4  10  21  40  62  86 125 163 203 256 304 356
#     4  11  21  39  63  89 121 162 198 248 310 364
#     4  10  22  40  61  88 124 160 205 246 303 362
#     4  10  21  39  63  90 122 156 201 252 307 359
#     4  10  21  37  59  88 122 160 198 248 303 357
#
# _framework density 22.366762000000001
#
# number of rings (size 3 to 8) (size 9 to 14) (size 15 to 20)
#    0.000    1.750    2.500    2.250    0.000    1.500 
#    0.000   14.375    0.000    0.000    0.000    0.000 
#    0.000    0.000    0.000    0.000    0.000    0.000 
#
# Total GULP energy -89230.119137 kJ/mol
# GULP energy per Si atom -5576.882446 kJ/mol
# Density = 2.231585 g / cm^3
# Si number density = 22.366762 Si / 1000 Ang^3
#
#
#
# Elastic Constant Matrix: (Units=GPa)
#
#
# Indices 1 2 3 4 5 6 
#
# 1 55.9950 18.8050 29.6328 -1.7556 -0.1143 -20.1621
# 2 18.8050 116.7677 10.2551 16.6933 -1.3846 -15.6032
# 3 29.6328 10.2551 126.7141 11.6994 -30.1327 -1.2472
# 4 -1.7556 16.6933 11.6994 29.2958 -4.3319 -8.0067
# 5 -0.1143 -1.3846 -30.1327 -4.3319 35.3020 1.6969
# 6 -20.1621 -15.6032 -1.2472 -8.0067 1.6969 23.4676
#
#
#
# Elastic Compliance Matrix: (Units=1/GPa)
#
#
# Indices 1 2 3 4 5 6 
#
# 1 0.040418 -0.002884 -0.013097 0.018407 -0.010786 0.039172
# 2 -0.002884 0.010093 0.000362 -0.005423 -0.000086 0.002408
# 3 -0.013097 0.000362 0.014429 -0.008857 0.011880 -0.014126
# 4 0.018407 -0.005423 -0.008857 0.049277 -0.003050 0.028771
# 5 -0.010786 -0.000086 0.011880 -0.003050 0.038657 -0.012528
# 6 0.039172 0.002408 -0.014126 0.028771 -0.012528 0.087838
#
#
# Mechanical properties :
#
#
# Convention : Reuss Voigt Hill
#
# Bulk Modulus (GPa) = 29.67323 46.31806 37.99564
# Shear Modulus (GPa) = 17.65621 33.66534 25.66077
#
# Velocity S-wave (km/s) = 2.81267 3.88384 3.39082
# Velocity P-wave (km/s) = 4.88299 6.39262 5.68811
#
# Compressibility (1/GPa) = 0.03370041
#
# Stress axis : x y z
#
# Youngs Moduli (GPa) = 24.74141 99.08132 69.30309
#
# Poissons Ratio (x) = 0.28574 0.90770
# Poissons Ratio (y) = 0.07135 -0.02505
# Poissons Ratio (z) = 0.32405 -0.03582
#
# Static dielectric constant tensor:
#      x y z
#    x 1.826530 0.008400 -0.017400 
#    y 0.008400 1.880470 -0.047090 
#    z -0.017400 -0.047090 1.908840 
# 
# From -- ./inp_files/313913.got.cif
#   From: 2010.05.17/outbox.cif.g08.bks.cpg/sg2_157_cif.got.tgz:313913.got - 2010.06.03 11:33:40.
