data_PCOD9003275
_publ_section_title
;
Structure prediction by ZEFSAII (Michael W. Deem and Ramdas Pophale) SiO2 
 PCOD9003275
Probable space group: P -1
;
_chemical_formula_sum "Si O2"
_cell_formula_units_Z 14
_cell_length_a 8.154774
_cell_length_b 15.434373
_cell_length_c 17.793448
_cell_angle_alpha 23.722671
_cell_angle_beta 137.239710
_cell_angle_gamma 134.475596
_cell_volume 608.388784
_symmetry_space_group_name_H-M "P -1"
_symmetry_group_IT_number 2
_symmetry_cell_setting 'triclinic'
loop_
_space_group_symop_operation_xyz
x,y,z
-x,-y,-z
loop_
_atom_site_type_symbol
_atom_site_label
_atom_site_fract_x
_atom_site_fract_y
_atom_site_fract_z
Si Si1 0.775504 0.632042 0.832005
Si Si2 0.241612 0.068233 0.958730
Si Si3 0.424193 0.544346 0.240547
Si Si4 0.059616 0.336688 0.815032
Si Si5 0.815375 0.263093 0.568969
Si Si6 0.588197 0.034126 0.417042
Si Si7 0.861454 0.501983 0.123164
O O1 0.578133 0.503873 0.812755
O O2 0.797201 0.869362 0.615820
O O3 0.760035 0.634819 0.914556
O O4 0.000000 0.500000 0.000000
O O5 0.494082 0.204897 0.913406
O O6 0.196642 0.163838 0.950739
O O7 0.032038 0.162743 0.763347
O O8 0.200945 0.809519 0.147434
O O9 0.635624 0.396844 0.453253
O O10 0.150460 0.484671 0.223482
O O11 0.069486 0.558495 0.594545
O O12 0.164072 0.394555 0.886216
O O13 0.634663 0.071176 0.624214
O O14 0.710559 0.268897 0.253385
O O15 0.500000 0.000000 0.500000
#
# Coordination Sequence:
#
# PCOD9003275 Si02
#       7
#     2   2   2   2   2   2   2
#     4   9  22  41  60  91 128 160 199 249 312 372
#     4  10  22  41  61  83 122 165 204 248 306 355
#     4   9  20  41  61  88 124 159 202 251 299 378
#     4  10  21  37  59  87 116 157 209 244 296 365
#     4  10  21  41  60  84 124 159 200 251 305 363
#     4  11  23  39  64  95 125 155 208 259 306 368
#     4  11  23  39  64  91 125 159 203 258 314 351
#
# _framework density 23.011603000000001
#
# number of rings (size 3 to 8) (size 9 to 14) (size 15 to 20)
#    0.000    2.000    1.429    1.714    2.000   10.857 
#    0.000   10.000    0.000    0.000    0.000    0.000 
#    0.000    0.000    0.000    0.000    0.000    0.000 
#
# Total GULP energy -78100.061435 kJ/mol
# GULP energy per Si atom -5578.575817 kJ/mol
# Density = 2.295923 g / cm^3
# Si number density = 23.011603 Si / 1000 Ang^3
#
#
#
# Elastic Constant Matrix: (Units=GPa)
#
#
# Indices 1 2 3 4 5 6 
#
# 1 72.7281 40.2752 26.7852 2.0469 -11.2370 4.4345
# 2 40.2752 150.6129 53.3395 -30.6020 -18.7949 -2.3183
# 3 26.7852 53.3395 98.5599 -9.6578 -20.7773 -0.6249
# 4 2.0469 -30.6020 -9.6578 48.8737 7.2998 -7.5518
# 5 -11.2370 -18.7949 -20.7773 7.2998 24.7221 -1.0234
# 6 4.4345 -2.3183 -0.6249 -7.5518 -1.0234 41.4138
#
#
#
# Elastic Compliance Matrix: (Units=1/GPa)
#
#
# Indices 1 2 3 4 5 6 
#
# 1 0.018094 -0.004697 -0.001978 -0.005223 0.004406 -0.003074
# 2 -0.004697 0.010632 -0.003603 0.006314 0.001148 0.002223
# 3 -0.001978 -0.003603 0.014403 -0.000566 0.008648 0.000338
# 4 -0.005223 0.006314 -0.000566 0.026208 -0.005559 0.005546
# 5 0.004406 0.001148 0.008648 -0.005559 0.052235 0.000000
# 6 -0.003074 0.002223 0.000338 0.005546 0.000000 0.025617
#
#
# Mechanical properties :
#
#
# Convention : Reuss Voigt Hill
#
# Bulk Modulus (GPa) = 44.29742 62.52230 53.40986
# Shear Modulus (GPa) = 28.52773 36.43532 32.48152
#
# Velocity S-wave (km/s) = 3.52477 3.98344 3.76111
# Velocity P-wave (km/s) = 5.98809 6.95600 6.49011
#
# Compressibility (1/GPa) = 0.02257468
#
# Stress axis : x y z
#
# Youngs Moduli (GPa) = 55.26547 94.05863 69.42961
#
# Poissons Ratio (x) = 0.44177 0.13733
# Poissons Ratio (y) = 0.25957 0.25012
# Poissons Ratio (z) = 0.10932 0.33885
#
# Static dielectric constant tensor:
#      x y z
#    x 2.034740 0.025170 0.051490 
#    y 0.025170 1.961870 0.010970 
#    z 0.051490 0.010970 1.931830 
# 
# From -- ./inp_files/308743.got.cif
#   From: 2010.05.17/outbox.cif.g08.bks.cpg/sg2_155_cif.got.tgz:308743.got - 2010.06.03 11:33:40.
