data_PCOD9003462
_publ_section_title
;
Structure prediction by ZEFSAII (Michael W. Deem and Ramdas Pophale) SiO2 
 PCOD9003462
Probable space group: P -1
;
_chemical_formula_sum "Si O2"
_cell_formula_units_Z 16
_cell_length_a 21.347030
_cell_length_b 16.433151
_cell_length_c 9.589246
_cell_angle_alpha 154.342440
_cell_angle_beta 148.372050
_cell_angle_gamma 30.694762
_cell_volume 697.730699
_symmetry_space_group_name_H-M "P -1"
_symmetry_group_IT_number 2
_symmetry_cell_setting 'triclinic'
loop_
_space_group_symop_operation_xyz
x,y,z
-x,-y,-z
loop_
_atom_site_type_symbol
_atom_site_label
_atom_site_fract_x
_atom_site_fract_y
_atom_site_fract_z
Si Si1 0.591767 0.395963 0.291840
Si Si2 0.545633 0.145805 0.574605
Si Si3 0.115400 0.282390 0.567968
Si Si4 0.718395 0.709662 0.345429
Si Si5 0.148656 0.458638 0.396811
Si Si6 0.658356 0.307256 0.577801
Si Si7 0.783990 0.146604 0.839966
Si Si8 0.286083 0.337378 0.201150
O O1 0.651479 0.253615 0.320612
O O2 0.482835 0.601178 0.472441
O O3 0.693242 0.462974 0.506280
O O4 0.526629 0.299610 0.907070
O O5 0.656966 0.171903 0.729892
O O6 0.418610 0.201195 0.323822
O O7 0.603201 0.917350 0.394861
O O8 0.152228 0.314976 0.532927
O O9 0.993825 0.463771 0.686032
O O10 0.103629 0.066281 0.225199
O O11 0.245332 0.248341 0.851093
O O12 0.750579 0.708580 0.567074
O O13 0.694352 0.506262 0.953878
O O14 0.171075 0.383637 0.166289
O O15 0.185691 0.655561 0.773793
O O16 0.753660 0.143254 0.612361
#
# Coordination Sequence:
#
# PCOD9003462 Si02
#       8
#     2   2   2   2   2   2   2   2
#     4  11  21  37  60  88 127 158 195 246 305 374
#     4  11  22  39  63  95 123 154 197 254 318 350
#     4  11  24  41  62  90 124 163 207 246 289 359
#     4  10  23  40  63  93 120 156 200 260 299 355
#     4  11  23  42  65  87 121 169 205 239 300 359
#     4  10  21  37  60  89 121 158 196 244 315 355
#     4  10  21  39  65  90 118 158 204 254 297 360
#     4  12  23  39  63  90 129 157 198 254 303 363
#
# _framework density 22.931483
#
# number of rings (size 3 to 8) (size 9 to 14) (size 15 to 20)
#    0.000    1.250    3.750    3.000    0.000    7.000 
#    0.000    0.000    0.000    1.500    0.000    0.000 
#    0.000    0.000    0.000    0.000    0.000    0.000 
#
# Total GULP energy -89481.508395 kJ/mol
# GULP energy per Si atom -5592.594275 kJ/mol
# Density = 2.287929 g / cm^3
# Si number density = 22.931483 Si / 1000 Ang^3
#
#
#
# Elastic Constant Matrix: (Units=GPa)
#
#
# Indices 1 2 3 4 5 6 
#
# 1 115.7025 20.6830 8.9120 -0.5152 -6.4669 17.7758
# 2 20.6830 48.7197 9.4099 -0.5326 -8.8746 15.9024
# 3 8.9120 9.4099 49.8075 -2.8459 -0.7964 14.1994
# 4 -0.5152 -0.5326 -2.8459 19.0345 6.2736 -3.5616
# 5 -6.4669 -8.8746 -0.7964 6.2736 29.0245 -3.7349
# 6 17.7758 15.9024 14.1994 -3.5616 -3.7349 37.2542
#
#
#
# Elastic Compliance Matrix: (Units=1/GPa)
#
#
# Indices 1 2 3 4 5 6 
#
# 1 0.009731 -0.002813 -0.000299 -0.000825 0.001053 -0.003302
# 2 -0.002813 0.026187 -0.002058 -0.003578 0.006978 -0.008694
# 3 -0.000299 -0.002058 0.022799 0.002441 -0.001575 -0.007593
# 4 -0.000825 -0.003578 0.002441 0.058072 -0.013090 0.005230
# 5 0.001053 0.006978 -0.001575 -0.013090 0.039587 -0.000164
# 6 -0.003302 -0.008694 -0.007593 0.005230 -0.000164 0.035507
#
#
# Mechanical properties :
#
#
# Convention : Reuss Voigt Hill
#
# Bulk Modulus (GPa) = 20.67104 32.47103 26.57104
# Shear Modulus (GPa) = 22.89920 28.74430 25.82175
#
# Velocity S-wave (km/s) = 3.16348 3.54430 3.35929
# Velocity P-wave (km/s) = 4.73047 5.56239 5.16321
#
# Compressibility (1/GPa) = 0.04837686
#
# Stress axis : x y z
#
# Youngs Moduli (GPa) = 102.76244 38.18676 43.86234
#
# Poissons Ratio (x) = 0.10741 0.01310
# Poissons Ratio (y) = 0.28906 0.09029
# Poissons Ratio (z) = 0.03070 0.07860
#
# Static dielectric constant tensor:
#      x y z
#    x 1.865040 -0.019210 0.023990 
#    y -0.019210 1.888160 -0.004310 
#    z 0.023990 -0.004310 1.852910 
# 
# From -- ./inp_files/216639.got.cif
#   From: 2010.05.17/outbox.cif.g08.bks.cpg/sg2_109_cif.got.tgz:216639.got - 2010.06.03 11:33:40.
