data_PCOD9003378
_publ_section_title
;
Structure prediction by ZEFSAII (Michael W. Deem and Ramdas Pophale) SiO2 
 PCOD9003378
Probable space group: P -1
;
_chemical_formula_sum "Si O2"
_cell_formula_units_Z 16
_cell_length_a 14.424399
_cell_length_b 8.602366
_cell_length_c 13.960482
_cell_angle_alpha 110.759873
_cell_angle_beta 49.000473
_cell_angle_gamma 146.527910
_cell_volume 639.046405
_symmetry_space_group_name_H-M "P -1"
_symmetry_group_IT_number 2
_symmetry_cell_setting 'triclinic'
loop_
_space_group_symop_operation_xyz
x,y,z
-x,-y,-z
loop_
_atom_site_type_symbol
_atom_site_label
_atom_site_fract_x
_atom_site_fract_y
_atom_site_fract_z
Si Si1 0.219770 0.221932 0.967465
Si Si2 0.657224 0.328306 0.926392
Si Si3 0.813585 0.407609 0.230765
Si Si4 0.857700 0.007803 0.620579
Si Si5 0.667740 0.817212 0.514733
Si Si6 0.969344 0.022534 0.744109
Si Si7 0.884986 0.351879 0.372182
Si Si8 0.674142 0.002524 0.090958
O O1 0.346665 0.544250 0.956645
O O2 0.148114 0.134244 0.109011
O O3 0.316467 0.146244 0.876399
O O4 0.000000 0.000000 0.000000
O O5 0.903493 0.527306 0.775785
O O6 0.534738 0.256676 0.898203
O O7 0.500000 0.000000 0.000000
O O8 0.657194 0.147909 0.197801
O O9 0.815226 0.602786 0.297272
O O10 0.773159 0.269300 0.327730
O O11 0.082920 0.699108 0.070092
O O12 0.647784 0.783933 0.636628
O O13 0.812874 0.926781 0.746897
O O14 0.010414 0.355457 0.590335
O O15 0.000000 0.000000 0.500000
O O16 0.500000 0.500000 0.500000
O O17 0.922623 0.023521 0.373975
O O18 0.708815 0.046666 0.492878
#
# Coordination Sequence:
#
# PCOD9003378 Si02
#       8
#     2   2   2   2   2   2   2   2
#     4  11  23  41  64  91 136 177 214 263 320 385
#     4  12  24  39  62  99 135 169 221 258 317 408
#     4   9  19  38  61  90 127 171 207 258 315 383
#     4   9  21  44  68  91 124 170 216 276 333 387
#     4  11  23  42  65  94 123 161 224 279 330 381
#     4   9  20  40  65  85 127 168 208 258 332 381
#     4  11  21  42  66  93 129 173 209 273 334 383
#     4  10  21  37  59  92 136 173 214 252 311 381
#
# _framework density 25.037303999999999
#
# number of rings (size 3 to 8) (size 9 to 14) (size 15 to 20)
#    0.000    1.750    2.500    1.500    3.500    1.000 
#    2.250    5.625    0.000    0.000    0.000    0.000 
#    0.000    0.000    0.000    0.000    0.000    0.000 
#
# Total GULP energy -89358.043231 kJ/mol
# GULP energy per Si atom -5584.877702 kJ/mol
# Density = 2.498032 g / cm^3
# Si number density = 25.037304 Si / 1000 Ang^3
#
#
#
# Elastic Constant Matrix: (Units=GPa)
#
#
# Indices 1 2 3 4 5 6 
#
# 1 95.9678 59.5336 23.6933 11.9535 18.9383 -15.9220
# 2 59.5336 123.0626 24.6337 24.3007 23.4145 9.5175
# 3 23.6933 24.6337 75.3948 16.7038 -1.9725 -6.0467
# 4 11.9535 24.3007 16.7038 39.8405 0.8711 7.9959
# 5 18.9383 23.4145 -1.9725 0.8711 44.1801 6.1679
# 6 -15.9220 9.5175 -6.0467 7.9959 6.1679 42.0716
#
#
#
# Elastic Compliance Matrix: (Units=1/GPa)
#
#
# Indices 1 2 3 4 5 6 
#
# 1 0.018849 -0.008108 -0.002280 -0.001588 -0.005208 0.009705
# 2 -0.008108 0.014304 -0.001635 -0.004491 -0.003365 -0.005193
# 3 -0.002280 -0.001635 0.016017 -0.005593 0.002316 0.002532
# 4 -0.001588 -0.004491 -0.005593 0.031982 0.003148 -0.006928
# 5 -0.005208 -0.003365 0.002316 0.003148 0.027460 -0.005501
# 6 0.009705 -0.005193 0.002532 -0.006928 -0.005501 0.031104
#
#
# Mechanical properties :
#
#
# Convention : Reuss Voigt Hill
#
# Bulk Modulus (GPa) = 39.80423 56.68294 48.24359
# Shear Modulus (GPa) = 29.04658 37.65606 33.35132
#
# Velocity S-wave (km/s) = 3.40977 3.88235 3.65371
# Velocity P-wave (km/s) = 5.60665 6.54105 6.09179
#
# Compressibility (1/GPa) = 0.02512296
#
# Stress axis : x y z
#
# Youngs Moduli (GPa) = 53.05422 69.90909 62.43310
#
# Poissons Ratio (x) = 0.56683 0.14237
# Poissons Ratio (y) = 0.43017 0.10209
# Poissons Ratio (z) = 0.12098 0.11431
#
# Static dielectric constant tensor:
#      x y z
#    x 1.809210 0.085520 -0.538780 
#    y 0.085520 2.028700 0.201540 
#    z -0.538780 0.201540 1.155190 
# 
# From -- ./inp_files/528817.got.cif
#   From: 2010.05.17/outbox.cif.g08.bks.cpg/sg2_265_cif.got.tgz:528817.got - 2010.06.03 11:33:40.
