data_PCOD9003949
_publ_section_title
;
Structure prediction by ZEFSAII (Michael W. Deem and Ramdas Pophale) SiO2 
 PCOD9003949
Probable space group: P -1
;
_chemical_formula_sum "Si O2"
_cell_formula_units_Z 16
_cell_length_a 8.404466
_cell_length_b 14.459397
_cell_length_c 14.696103
_cell_angle_alpha 117.433957
_cell_angle_beta 86.574112
_cell_angle_gamma 44.514255
_cell_volume 868.367313
_symmetry_space_group_name_H-M "P -1"
_symmetry_group_IT_number 2
_symmetry_cell_setting 'triclinic'
loop_
_space_group_symop_operation_xyz
x,y,z
-x,-y,-z
loop_
_atom_site_type_symbol
_atom_site_label
_atom_site_fract_x
_atom_site_fract_y
_atom_site_fract_z
Si Si1 0.650861 0.948207 0.567324
Si Si2 0.666503 0.926590 0.868798
Si Si3 0.851225 0.195957 0.604058
Si Si4 0.577687 0.074269 0.282746
Si Si5 0.335212 0.550024 0.671470
Si Si6 0.758142 0.283704 0.859759
Si Si7 0.599808 0.307582 0.381746
Si Si8 0.284882 0.936105 0.220776
O O1 0.574750 0.084775 0.704201
O O2 0.500000 0.000000 0.500000
O O3 0.588560 0.883559 0.605257
O O4 0.959729 0.821610 0.464106
O O5 0.571220 0.891913 0.784707
O O6 0.004345 0.733504 0.792711
O O7 0.615957 0.060129 0.872972
O O8 0.500000 0.000000 0.000000
O O9 0.536038 0.373701 0.650312
O O10 0.816521 0.247533 0.733062
O O11 0.000000 0.000000 0.500000
O O12 0.557792 0.208525 0.339318
O O13 0.924053 0.860266 0.176564
O O14 0.374931 0.478436 0.538021
O O15 0.431929 0.616559 0.678954
O O16 0.675468 0.209084 0.851642
O O17 0.500000 0.500000 0.000000
O O18 0.932951 0.145407 0.330659
#
# Coordination Sequence:
#
# PCOD9003949 Si02
#       8
#     2   2   2   2   2   2   2   2
#     4  11  20  35  62  94 119 158 203 250 314 362
#     4  10  23  42  60  85 122 165 200 255 309 355
#     4  12  22  41  66  89 125 168 206 249 305 381
#     4  10  22  40  62  89 125 156 204 263 309 353
#     4  10  21  37  63  88 117 161 204 241 305 378
#     4  11  23  40  63  91 123 169 208 247 305 378
#     4   9  18  38  62  88 116 154 199 257 307 350
#     4   9  19  41  62  83 123 163 199 254 308 363
#
# _framework density 18.425381000000002
#
# number of rings (size 3 to 8) (size 9 to 14) (size 15 to 20)
#    0.000    1.750    3.750    0.750    3.500    0.500 
#    2.250    5.625    0.000    0.000    0.000    0.000 
#    0.000    0.000    0.000    0.000    0.000    0.000 
#
# Total GULP energy -89109.073142 kJ/mol
# GULP energy per Si atom -5569.317071 kJ/mol
# Density = 1.838344 g / cm^3
# Si number density = 18.425381 Si / 1000 Ang^3
#
#
#
# Elastic Constant Matrix: (Units=GPa)
#
#
# Indices 1 2 3 4 5 6 
#
# 1 105.9229 40.8411 34.8614 -3.0926 -7.4774 26.4624
# 2 40.8411 85.3054 38.1084 -4.4009 0.2934 10.0707
# 3 34.8614 38.1084 94.3941 -2.3723 -14.2356 29.6160
# 4 -3.0926 -4.4009 -2.3723 36.5320 7.2988 2.2266
# 5 -7.4774 0.2934 -14.2356 7.2988 26.2263 -2.9300
# 6 26.4624 10.0707 29.6160 2.2266 -2.9300 21.2826
#
#
#
# Elastic Compliance Matrix: (Units=1/GPa)
#
#
# Indices 1 2 3 4 5 6 
#
# 1 0.017109 -0.007532 0.005070 0.001430 0.004604 -0.024280
# 2 -0.007532 0.018170 -0.009605 0.001428 -0.006499 0.013088
# 3 0.005070 -0.009605 0.025568 0.000888 0.011174 -0.035893
# 4 0.001430 0.001428 0.000888 0.029874 -0.008330 -0.007962
# 5 0.004604 -0.006499 0.011174 -0.008330 0.046681 -0.010900
# 6 -0.024280 0.013088 -0.035893 -0.007962 -0.010900 0.120262
#
#
# Mechanical properties :
#
#
# Convention : Reuss Voigt Hill
#
# Bulk Modulus (GPa) = 27.23732 57.02713 42.13223
# Shear Modulus (GPa) = 17.00487 28.26227 22.63357
#
# Velocity S-wave (km/s) = 3.04123 3.92072 3.50864
# Velocity P-wave (km/s) = 5.21025 7.17730 6.27138
#
# Compressibility (1/GPa) = 0.03671433
#
# Stress axis : x y z
#
# Youngs Moduli (GPa) = 58.44967 55.03554 39.11184
#
# Poissons Ratio (x) = 0.41451 -0.19830
# Poissons Ratio (y) = 0.44023 0.37565
# Poissons Ratio (z) = -0.29635 0.52859
#
# Static dielectric constant tensor:
#      x y z
#    x 1.636480 0.068130 0.117470 
#    y 0.068130 1.553800 -0.271600 
#    z 0.117470 -0.271600 1.051670 
# 
# From -- ./inp_files/208926.got.cif
#   From: 2010.05.17/outbox.cif.g08.bks.cpg/sg2_105_cif.got.tgz:208926.got - 2010.06.03 11:33:40.
