data_PCOD9003770
_publ_section_title
;
Structure prediction by ZEFSAII (Michael W. Deem and Ramdas Pophale) SiO2 
 PCOD9003770
Probable space group: P -1
;
_chemical_formula_sum "Si O2"
_cell_formula_units_Z 13
_cell_length_a 9.328474
_cell_length_b 5.286704
_cell_length_c 11.116059
_cell_angle_alpha 64.353961
_cell_angle_beta 88.813844
_cell_angle_gamma 97.168597
_cell_volume 488.625933
_symmetry_space_group_name_H-M "P -1"
_symmetry_group_IT_number 2
_symmetry_cell_setting 'triclinic'
loop_
_space_group_symop_operation_xyz
x,y,z
-x,-y,-z
loop_
_atom_site_type_symbol
_atom_site_label
_atom_site_fract_x
_atom_site_fract_y
_atom_site_fract_z
Si Si1 0.220405 0.078968 0.037820
Si Si2 0.623958 0.300504 0.531284
Si Si3 0.433515 0.710017 0.724325
Si Si4 0.924728 0.837200 0.209327
Si Si5 0.000053 0.200203 0.345210
Si Si6 0.500000 0.500000 0.000000
Si Si7 0.714307 0.472470 0.745027
O O1 0.249594 0.757950 0.114271
O O2 0.201422 0.184938 0.881663
O O3 0.357954 0.258934 0.059980
O O4 0.061659 0.049743 0.106870
O O5 0.500000 0.500000 0.500000
O O6 0.670215 0.318557 0.386117
O O7 0.732118 0.395259 0.619351
O O8 0.542529 0.992119 0.629080
O O9 0.403284 0.693293 0.869256
O O10 0.544217 0.476160 0.767336
O O11 0.968630 0.524317 0.292577
O O12 0.895766 0.009101 0.293033
O O13 0.170318 0.249618 0.293694
O O14 0.000000 0.000000 0.500000
#
# Coordination Sequence:
#
# PCOD9003770 Si02
#       7
#     2   2   2   2   2   1   2
#     4  10  23  42  67  96 134 173 224 276 344 400
#     4   9  19  40  58  87 121 179 210 256 338 404
#     4  10  21  37  62  88 134 168 215 268 336 402
#     4  10  24  47  68  96 137 182 216 277 350 400
#     4  11  24  43  70  99 128 172 237 278 327 404
#     4  12  22  38  64 104 128 166 226 282 322 394
#     4  10  21  40  67  86 127 178 216 273 344 403
#
# _framework density 26.605219000000002
#
# number of rings (size 3 to 8) (size 9 to 14) (size 15 to 20)
#    0.000    1.846    1.538    1.385    2.154    8.615 
#    8.308    0.000    0.000    0.000    0.000    0.000 
#    0.000    0.000    0.000    0.000    0.000    0.000 
#
# Total GULP energy -72412.209764 kJ/mol
# GULP energy per Si atom -5570.169982 kJ/mol
# Density = 2.654466 g / cm^3
# Si number density = 26.605219 Si / 1000 Ang^3
#
#
#
# Elastic Constant Matrix: (Units=GPa)
#
#
# Indices 1 2 3 4 5 6 
#
# 1 65.2541 27.3540 13.9419 -0.8807 -4.4158 21.4480
# 2 27.3540 97.3990 32.2979 28.6258 10.3217 23.2983
# 3 13.9419 32.2979 165.6851 6.9746 21.3624 3.0831
# 4 -0.8807 28.6258 6.9746 52.5656 16.4525 11.8566
# 5 -4.4158 10.3217 21.3624 16.4525 38.9711 -1.3815
# 6 21.4480 23.2983 3.0831 11.8566 -1.3815 38.0978
#
#
#
# Elastic Compliance Matrix: (Units=1/GPa)
#
#
# Indices 1 2 3 4 5 6 
#
# 1 0.021128 -0.004699 -0.001110 0.004821 0.001844 -0.010365
# 2 -0.004699 0.015515 -0.002166 -0.007020 -0.000650 -0.004506
# 3 -0.001110 -0.002166 0.006983 0.001256 -0.003880 0.000852
# 4 0.004821 -0.007020 0.001256 0.027652 -0.010223 -0.007499
# 5 0.001844 -0.000650 -0.003880 -0.010223 0.032627 0.004038
# 6 -0.010365 -0.004506 0.000852 -0.007499 0.004038 0.037250
#
#
# Mechanical properties :
#
#
# Convention : Reuss Voigt Hill
#
# Bulk Modulus (GPa) = 36.13087 52.83621 44.48354
# Shear Modulus (GPa) = 30.06092 42.90987 36.48540
#
# Velocity S-wave (km/s) = 3.36503 4.02037 3.70721
# Velocity P-wave (km/s) = 5.35796 6.43845 5.92289
#
# Compressibility (1/GPa) = 0.02767716
#
# Stress axis : x y z
#
# Youngs Moduli (GPa) = 47.33055 64.45388 143.21257
#
# Poissons Ratio (x) = 0.30284 0.15894
# Poissons Ratio (y) = 0.22239 0.31017
# Poissons Ratio (z) = 0.05253 0.13959
#
# Static dielectric constant tensor:
#      x y z
#    x 2.166270 -0.410000 -0.851320 
#    y -0.410000 1.804970 -1.230660 
#    z -0.851320 -1.230660 -2.738730 
# 
# From -- ./inp_files/34625.got.cif
#   From: 2010.05.17/outbox.cif.g08.bks.cpg/sg2_18_cif.got.tgz:34625.got - 2010.06.03 11:33:40.
