data_PCOD9003250
_publ_section_title
;
Structure prediction by ZEFSAII (Michael W. Deem and Ramdas Pophale) SiO2 
 PCOD9003250
Probable space group: P -1
;
_chemical_formula_sum "Si O2"
_cell_formula_units_Z 16
_cell_length_a 9.719601
_cell_length_b 7.013868
_cell_length_c 19.721022
_cell_angle_alpha 81.683758
_cell_angle_beta 53.437022
_cell_angle_gamma 45.500445
_cell_volume 677.206349
_symmetry_space_group_name_H-M "P -1"
_symmetry_group_IT_number 2
_symmetry_cell_setting 'triclinic'
loop_
_space_group_symop_operation_xyz
x,y,z
-x,-y,-z
loop_
_atom_site_type_symbol
_atom_site_label
_atom_site_fract_x
_atom_site_fract_y
_atom_site_fract_z
Si Si1 0.941338 0.954807 0.124475
Si Si2 0.576704 0.301037 0.089712
Si Si3 0.219436 0.271979 0.606702
Si Si4 0.576775 0.961425 0.637571
Si Si5 0.120687 0.999597 0.191384
Si Si6 0.751801 0.696811 0.899468
Si Si7 0.845569 0.950212 0.662636
Si Si8 0.061700 0.709594 0.415789
O O1 0.912127 0.056054 0.204753
O O2 0.067831 0.629804 0.104110
O O3 0.161685 0.902853 0.025172
O O4 0.679838 0.193912 0.141663
O O5 0.401731 0.645135 0.110408
O O6 0.389761 0.284787 0.124183
O O7 0.030016 0.267209 0.635151
O O8 0.086522 0.585349 0.604232
O O9 0.500000 0.000000 0.500000
O O10 0.300117 0.206586 0.664689
O O11 0.591463 0.054224 0.701046
O O12 0.810988 0.866365 0.529474
O O13 0.687738 0.647911 0.624553
O O14 0.092304 0.243255 0.163972
O O15 0.137311 0.002860 0.266943
O O16 0.500000 0.000000 0.000000
O O17 0.878304 0.119976 0.604671
#
# Coordination Sequence:
#
# PCOD9003250 Si02
#       8
#     2   2   2   2   2   2   2   2
#     4  10  21  37  59  85 111 143 190 236 276 335
#     4  10  21  37  59  85 110 144 191 234 278 333
#     4   9  20  37  57  84 112 143 189 236 275 334
#     4   9  19  36  58  83 110 142 191 234 272 336
#     4  11  23  39  54  83 121 149 186 234 286 331
#     4  11  19  37  61  82 111 151 186 233 280 329
#     4  11  23  36  57  84 116 152 186 232 286 336
#     4   9  19  37  58  82 111 147 186 231 281 331
#
# _framework density 23.626474999999999
#
# number of rings (size 3 to 8) (size 9 to 14) (size 15 to 20)
#    0.000    2.000    2.500    1.875    0.000    9.500 
#    0.000    2.500    0.000    0.000    0.000    0.000 
#    0.000    0.000    0.000    0.000    0.000    0.000 
#
# Total GULP energy -89405.792570 kJ/mol
# GULP energy per Si atom -5587.862036 kJ/mol
# Density = 2.357270 g / cm^3
# Si number density = 23.626475 Si / 1000 Ang^3
#
#
#
# Elastic Constant Matrix: (Units=GPa)
#
#
# Indices 1 2 3 4 5 6 
#
# 1 148.8066 90.0898 16.3988 -2.2175 28.2820 -6.9233
# 2 90.0898 126.3007 -4.5274 -9.2054 -1.4754 8.8494
# 3 16.3988 -4.5274 35.5965 2.2640 18.9282 7.4226
# 4 -2.2175 -9.2054 2.2640 27.4061 -0.5036 4.3647
# 5 28.2820 -1.4754 18.9282 -0.5036 34.8688 -8.0307
# 6 -6.9233 8.8494 7.4226 4.3647 -8.0307 50.7162
#
#
#
# Elastic Compliance Matrix: (Units=1/GPa)
#
#
# Indices 1 2 3 4 5 6 
#
# 1 0.017667 -0.013412 -0.004108 -0.003556 -0.011848 0.003783
# 2 -0.013412 0.018524 0.005063 0.005667 0.007832 -0.005052
# 3 -0.004108 0.005063 0.046059 -0.000981 -0.024220 -0.011936
# 4 -0.003556 0.005667 -0.000981 0.038908 0.003260 -0.004163
# 5 -0.011848 0.007832 -0.024220 0.003260 0.053843 0.008806
# 6 0.003783 -0.005052 -0.011936 -0.004163 0.008806 0.024615
#
#
# Mechanical properties :
#
#
# Convention : Reuss Voigt Hill
#
# Bulk Modulus (GPa) = 17.44070 57.18068 37.31069
# Shear Modulus (GPa) = 20.52185 36.51438 28.51811
#
# Velocity S-wave (km/s) = 2.95039 3.93553 3.47802
# Velocity P-wave (km/s) = 4.35939 6.70117 5.65287
#
# Compressibility (1/GPa) = 0.05733716
#
# Stress axis : x y z
#
# Youngs Moduli (GPa) = 56.60113 53.98292 21.71129
#
# Poissons Ratio (x) = 0.72402 0.08918
# Poissons Ratio (y) = 0.75914 -0.10992
# Poissons Ratio (z) = 0.23250 -0.27331
#
# Static dielectric constant tensor:
#      x y z
#    x 1.905280 -0.026970 0.060150 
#    y -0.026970 1.835420 -0.034540 
#    z 0.060150 -0.034540 2.011320 
# 
# From -- ./inp_files/104576.got.cif
#   From: 2010.05.17/outbox.cif.g08.bks.cpg/sg2_53_cif.got.tgz:104576.got - 2010.06.03 11:33:40.
