data_PCOD9003170
_publ_section_title
;
Structure prediction by ZEFSAII (Michael W. Deem and Ramdas Pophale) SiO2 
 PCOD9003170
Probable space group: P -1
;
_chemical_formula_sum "Si O2"
_cell_formula_units_Z 16
_cell_length_a 6.447792
_cell_length_b 14.906675
_cell_length_c 14.970266
_cell_angle_alpha 142.574530
_cell_angle_beta 118.689373
_cell_angle_gamma 60.230721
_cell_volume 748.946062
_symmetry_space_group_name_H-M "P -1"
_symmetry_group_IT_number 2
_symmetry_cell_setting 'triclinic'
loop_
_space_group_symop_operation_xyz
x,y,z
-x,-y,-z
loop_
_atom_site_type_symbol
_atom_site_label
_atom_site_fract_x
_atom_site_fract_y
_atom_site_fract_z
Si Si1 0.556264 0.624357 0.322930
Si Si2 0.941438 0.117926 0.001188
Si Si3 0.792850 0.713087 0.693773
Si Si4 0.929505 0.382783 0.494976
Si Si5 0.975359 0.871463 0.169806
Si Si6 0.404635 0.309364 0.011835
Si Si7 0.493455 0.324690 0.845335
Si Si8 0.305394 0.822965 0.586107
O O1 0.816294 0.581595 0.390673
O O2 0.433879 0.479544 0.172421
O O3 0.602941 0.684110 0.281231
O O4 0.389287 0.748285 0.449184
O O5 0.110104 0.233366 0.152612
O O6 0.662057 0.203623 0.007819
O O7 0.006185 0.056818 0.867312
O O8 0.000000 0.000000 0.000000
O O9 0.999340 0.701286 0.650953
O O10 0.552009 0.820515 0.691043
O O11 0.755417 0.543660 0.565502
O O12 0.831699 0.284098 0.469993
O O13 0.240041 0.781971 0.181480
O O14 0.852977 0.008343 0.316355
O O15 0.810090 0.748237 0.031043
O O16 0.363818 0.289054 0.880744
O O17 0.500000 0.500000 0.000000
#
# Coordination Sequence:
#
# PCOD9003170 Si02
#       8
#     2   2   2   2   2   2   2   2
#     4  10  22  40  65  92 116 162 210 254 307 362
#     4  11  22  38  62  88 128 167 205 247 306 362
#     4  10  21  37  58  87 120 170 206 246 300 360
#     4  10  21  39  59  86 126 159 211 253 297 359
#     4  11  25  41  61  96 127 159 203 256 311 366
#     4  10  22  41  65  91 123 156 210 257 299 367
#     4   9  22  43  66  90 120 160 207 256 310 362
#     4  11  24  38  59  93 128 158 203 254 309 367
#
# _framework density 21.363356
#
# number of rings (size 3 to 8) (size 9 to 14) (size 15 to 20)
#    0.000    1.750    1.250    1.875    1.750    9.500 
#    0.000    1.250    0.000    0.000    0.000    0.000 
#    0.000    0.000    0.000    0.000    0.000    0.000 
#
# Total GULP energy -89366.202026 kJ/mol
# GULP energy per Si atom -5585.387627 kJ/mol
# Density = 2.131473 g / cm^3
# Si number density = 21.363356 Si / 1000 Ang^3
#
#
#
# Elastic Constant Matrix: (Units=GPa)
#
#
# Indices 1 2 3 4 5 6 
#
# 1 22.3660 6.9739 5.6508 -2.4984 -10.1603 3.0165
# 2 6.9739 90.4061 20.4478 -0.4398 -22.0751 9.4277
# 3 5.6508 20.4478 61.3874 -5.7282 -23.6696 -3.9621
# 4 -2.4984 -0.4398 -5.7282 32.6792 3.9920 -10.9234
# 5 -10.1603 -22.0751 -23.6696 3.9920 28.6497 6.8782
# 6 3.0165 9.4277 -3.9621 -10.9234 6.8782 24.8743
#
#
#
# Elastic Compliance Matrix: (Units=1/GPa)
#
#
# Indices 1 2 3 4 5 6 
#
# 1 0.059690 0.004830 0.004169 -0.005554 0.033967 -0.020237
# 2 0.004830 0.017054 -0.000353 -0.006998 0.019259 -0.015504
# 3 0.004169 -0.000353 0.024351 0.001313 0.021595 -0.001888
# 4 -0.005554 -0.006998 0.001313 0.041573 -0.018532 0.026916
# 5 0.033967 0.019259 0.021595 -0.018532 0.092203 -0.041613
# 6 -0.020237 -0.015504 -0.001888 0.026916 -0.041613 0.071559
#
#
# Mechanical properties :
#
#
# Convention : Reuss Voigt Hill
#
# Bulk Modulus (GPa) = 8.44691 26.70051 17.57371
# Shear Modulus (GPa) = 15.21605 26.64643 20.93124
#
# Velocity S-wave (km/s) = 2.67170 3.53554 3.13353
# Velocity P-wave (km/s) = 3.67148 5.40297 4.61909
#
# Compressibility (1/GPa) = 0.11838648
#
# Stress axis : x y z
#
# Youngs Moduli (GPa) = 16.75311 58.63800 41.06600
#
# Poissons Ratio (x) = -0.28320 -0.17120
# Poissons Ratio (y) = -0.08091 0.01450
# Poissons Ratio (z) = -0.06984 0.02070
#
# Static dielectric constant tensor:
#      x y z
#    x 1.766280 0.020710 -0.013280 
#    y 0.020710 1.763560 0.021500 
#    z -0.013280 0.021500 1.811030 
# 
# From -- ./inp_files/77246.got.cif
#   From: 2010.05.17/outbox.cif.g08.bks.cpg/sg2_39_cif.got.tgz:77246.got - 2010.06.03 11:33:40.
