data_PCOD9003537
_publ_section_title
;
Structure prediction by ZEFSAII (Michael W. Deem and Ramdas Pophale) SiO2 
 PCOD9003537
Probable space group: P -1
;
_chemical_formula_sum "Si O2"
_cell_formula_units_Z 16
_cell_length_a 9.815882
_cell_length_b 16.602407
_cell_length_c 13.642677
_cell_angle_alpha 43.025544
_cell_angle_beta 35.521354
_cell_angle_gamma 58.506859
_cell_volume 866.489685
_symmetry_space_group_name_H-M "P -1"
_symmetry_group_IT_number 2
_symmetry_cell_setting 'triclinic'
loop_
_space_group_symop_operation_xyz
x,y,z
-x,-y,-z
loop_
_atom_site_type_symbol
_atom_site_label
_atom_site_fract_x
_atom_site_fract_y
_atom_site_fract_z
Si Si1 0.798618 0.300341 0.004110
Si Si2 0.037175 0.098975 0.587719
Si Si3 0.338038 0.249388 0.440543
Si Si4 0.266049 0.070366 0.806480
Si Si5 0.483759 0.142599 0.164665
Si Si6 0.981715 0.549466 0.575940
Si Si7 0.631358 0.236837 0.777660
Si Si8 0.184865 0.153308 0.988287
O O1 0.896014 0.437001 0.796261
O O2 0.607000 0.287849 0.214359
O O3 0.655713 0.235578 0.051382
O O4 0.004361 0.230453 0.978963
O O5 0.208901 0.140424 0.543696
O O6 0.209868 0.140065 0.357940
O O7 0.813304 0.165134 0.678092
O O8 0.948397 0.956711 0.769795
O O9 0.308416 0.196564 0.613341
O O10 0.202937 0.358953 0.403318
O O11 0.449511 0.987379 0.738016
O O12 0.287053 0.090352 0.891934
O O13 0.000000 0.000000 0.000000
O O14 0.552705 0.175538 0.983102
O O15 0.000000 0.500000 0.500000
O O16 0.224806 0.631119 0.399136
O O17 0.397656 0.231006 0.854737
#
# Coordination Sequence:
#
# PCOD9003537 Si02
#       8
#     2   2   2   2   2   2   2   2
#     4  11  22  38  62  90 114 156 203 251 295 342
#     4  10  21  38  61  90 120 160 197 237 297 360
#     4  10  21  37  60  94 116 147 205 255 285 350
#     4  12  19  35  61  90 125 156 192 241 297 354
#     4  11  21  38  65  88 120 159 202 241 291 358
#     4  11  21  40  66  82 110 158 208 247 294 345
#     4  11  24  42  58  89 125 159 196 246 298 357
#     4  12  23  37  60  90 128 157 189 243 308 354
#
# _framework density 18.465309000000001
#
# number of rings (size 3 to 8) (size 9 to 14) (size 15 to 20)
#    0.000    1.000    5.000    3.000    0.000    3.000 
#    2.250    0.000    0.000    1.500    0.000    0.000 
#    0.000    0.000    0.000    0.000    0.000    0.000 
#
# Total GULP energy -89385.963630 kJ/mol
# GULP energy per Si atom -5586.622727 kJ/mol
# Density = 1.842328 g / cm^3
# Si number density = 18.465309 Si / 1000 Ang^3
#
#
#
# Elastic Constant Matrix: (Units=GPa)
#
#
# Indices 1 2 3 4 5 6 
#
# 1 58.9227 25.2850 43.4504 -0.4798 -7.9293 10.0171
# 2 25.2850 75.0977 50.4299 -2.9065 -8.0978 1.2267
# 3 43.4504 50.4299 129.1851 -2.6982 -4.9412 -4.4974
# 4 -0.4798 -2.9065 -2.6982 38.0907 -2.2821 0.0662
# 5 -7.9293 -8.0978 -4.9412 -2.2821 13.4733 -5.7476
# 6 10.0171 1.2267 -4.4974 0.0662 -5.7476 14.8996
#
#
#
# Elastic Compliance Matrix: (Units=1/GPa)
#
#
# Indices 1 2 3 4 5 6 
#
# 1 0.028970 -0.002908 -0.009228 -0.000297 0.002959 -0.020880
# 2 -0.002908 0.019408 -0.006167 0.001528 0.008745 0.001863
# 3 -0.009228 -0.006167 0.013673 0.000403 0.000680 0.011100
# 4 -0.000297 0.001528 0.000403 0.026782 0.006536 0.002598
# 5 0.002959 0.008745 0.000680 0.006536 0.097547 0.035096
# 6 -0.020880 0.001863 0.011100 0.002598 0.035096 0.097878
#
#
# Mechanical properties :
#
#
# Convention : Reuss Voigt Hill
#
# Bulk Modulus (GPa) = 39.30216 55.72623 47.51420
# Shear Modulus (GPa) = 15.18158 22.89540 19.03849
#
# Velocity S-wave (km/s) = 2.87046 3.52506 3.21447
# Velocity P-wave (km/s) = 5.68477 6.84196 6.29003
#
# Compressibility (1/GPa) = 0.02544389
#
# Stress axis : x y z
#
# Youngs Moduli (GPa) = 34.51836 51.52496 73.13684
#
# Poissons Ratio (x) = 0.14985 0.67494
# Poissons Ratio (y) = 0.10039 0.45103
# Poissons Ratio (z) = 0.31855 0.31775
#
# Static dielectric constant tensor:
#      x y z
#    x 1.608340 0.004990 -0.002740 
#    y 0.004990 1.655530 0.018480 
#    z -0.002740 0.018480 1.643700 
# 
# From -- ./inp_files/180380.got.cif
#   From: 2010.05.17/outbox.cif.g08.bks.cpg/sg2_91_cif.got.tgz:180380.got - 2010.06.03 11:33:40.
