data_PCOD9003755
_publ_section_title
;
Structure prediction by ZEFSAII (Michael W. Deem and Ramdas Pophale) SiO2 
 PCOD9003755
Probable space group: P -1
;
_chemical_formula_sum "Si O2"
_cell_formula_units_Z 12
_cell_length_a 23.541236
_cell_length_b 20.918373
_cell_length_c 7.791854
_cell_angle_alpha 142.748425
_cell_angle_beta 36.745359
_cell_angle_gamma 168.537179
_cell_volume 454.360856
_symmetry_space_group_name_H-M "P -1"
_symmetry_group_IT_number 2
_symmetry_cell_setting 'triclinic'
loop_
_space_group_symop_operation_xyz
x,y,z
-x,-y,-z
loop_
_atom_site_type_symbol
_atom_site_label
_atom_site_fract_x
_atom_site_fract_y
_atom_site_fract_z
Si Si1 0.452724 0.522727 0.333986
Si Si2 0.311633 0.777111 0.312330
Si Si3 0.918497 0.723961 0.511424
Si Si4 0.124905 0.386001 0.094494
Si Si5 0.501842 0.365097 0.059622
Si Si6 0.192493 0.598426 0.729189
O O1 0.189171 0.323275 0.494452
O O2 0.500000 0.500000 0.000000
O O3 0.422221 0.402821 0.299657
O O4 0.748760 0.898408 0.449824
O O5 0.273627 0.612125 0.070388
O O6 0.000000 0.500000 0.500000
O O7 0.500000 0.000000 0.500000
O O8 0.481642 0.015307 0.259418
O O9 0.720331 0.563813 0.801251
O O10 0.865989 0.543723 0.277685
O O11 0.322725 0.494584 0.901936
O O12 0.116110 0.450424 0.426010
O O13 0.796653 0.012660 0.044607
O O14 0.000000 0.500000 0.000000
#
# Coordination Sequence:
#
# PCOD9003755 Si02
#       6
#     2   2   2   2   2   2
#     4  10  17  28  46  71 101 131 162 211 268 309
#     4  10  20  36  54  75 105 142 179 220 260 304
#     4  10  18  29  44  71 105 133 163 210 260 309
#     4  10  19  33  52  77 105 134 171 216 258 310
#     4  10  17  30  51  75 100 132 169 215 265 310
#     4  10  21  36  54  79 110 146 179 214 260 314
#
# _framework density 26.410726
#
# number of rings (size 3 to 8) (size 9 to 14) (size 15 to 20)
#    0.000    2.000    0.000   10.000    0.000    1.333 
#    0.000   20.833    0.000    0.000    0.000    7.000 
#    0.000    0.000    0.000    3.000    0.000    0.000 
#
# Total GULP energy -67263.232397 kJ/mol
# GULP energy per Si atom -5605.269366 kJ/mol
# Density = 2.635061 g / cm^3
# Si number density = 26.410726 Si / 1000 Ang^3
#
#
#
# Elastic Constant Matrix: (Units=GPa)
#
#
# Indices 1 2 3 4 5 6 
#
# 1 174.2458 34.1328 34.5179 13.4121 -27.4558 18.9109
# 2 34.1328 155.2723 4.4433 -3.2166 -6.4253 1.9347
# 3 34.5179 4.4433 141.6234 -14.8238 -33.4172 -3.0981
# 4 13.4121 -3.2166 -14.8238 28.6707 -5.2395 -24.3786
# 5 -27.4558 -6.4253 -33.4172 -5.2395 58.7488 0.0581
# 6 18.9109 1.9347 -3.0981 -24.3786 0.0581 38.8646
#
#
#
# Elastic Compliance Matrix: (Units=1/GPa)
#
#
# Indices 1 2 3 4 5 6 
#
# 1 0.014282 -0.003390 -0.008667 -0.039163 -0.002087 -0.032034
# 2 -0.003390 0.007304 0.002268 0.010911 0.001469 0.008309
# 3 -0.008667 0.002268 0.016106 0.040371 0.008929 0.030699
# 4 -0.039163 0.010911 0.040371 0.210478 0.024474 0.153721
# 5 -0.002087 0.001469 0.008929 0.024474 0.023452 0.016971
# 6 -0.032034 0.008309 0.030699 0.153721 0.016971 0.139750
#
#
# Mechanical properties :
#
#
# Convention : Reuss Voigt Hill
#
# Bulk Modulus (GPa) = 55.20707 68.59216 61.89961
# Shear Modulus (GPa) = 11.44190 51.79333 31.61762
#
# Velocity S-wave (km/s) = 2.08367 4.43320 3.46374
# Velocity P-wave (km/s) = 5.17084 7.22718 6.28370
#
# Compressibility (1/GPa) = 0.01811362
#
# Stress axis : x y z
#
# Youngs Moduli (GPa) = 70.01657 136.91219 62.08693
#
# Poissons Ratio (x) = 0.46415 0.53811
# Poissons Ratio (y) = 0.23736 -0.14079
# Poissons Ratio (z) = 0.60684 -0.31047
#
# Static dielectric constant tensor:
#      x y z
#    x 2.170610 -0.045480 0.085880 
#    y -0.045480 1.971960 0.006730 
#    z 0.085880 0.006730 2.141130 
# 
# From -- ./inp_files/97643.got.cif
#   From: 2010.05.17/outbox.cif.g08.bks.cpg/sg2_49_cif.got.tgz:97643.got - 2010.06.03 11:33:40.
