data_PCOD9003264
_publ_section_title
;
Structure prediction by ZEFSAII (Michael W. Deem and Ramdas Pophale) SiO2 
 PCOD9003264
Probable space group: P -1
;
_chemical_formula_sum "Si O2"
_cell_formula_units_Z 14
_cell_length_a 7.261785
_cell_length_b 16.010158
_cell_length_c 12.862651
_cell_angle_alpha 23.384940
_cell_angle_beta 89.777686
_cell_angle_gamma 81.061155
_cell_volume 548.408420
_symmetry_space_group_name_H-M "P -1"
_symmetry_group_IT_number 2
_symmetry_cell_setting 'triclinic'
loop_
_space_group_symop_operation_xyz
x,y,z
-x,-y,-z
loop_
_atom_site_type_symbol
_atom_site_label
_atom_site_fract_x
_atom_site_fract_y
_atom_site_fract_z
Si Si1 0.852425 0.741753 0.769754
Si Si2 0.812960 0.811855 0.364645
Si Si3 0.844902 0.211482 0.147271
Si Si4 0.335655 0.730440 0.278893
Si Si5 0.934417 0.337990 0.795196
Si Si6 0.222323 0.872352 0.342937
Si Si7 0.576844 0.673940 0.705731
O O1 0.948112 0.753260 0.867908
O O2 0.637770 0.742727 0.738401
O O3 0.866776 0.961544 0.463234
O O4 0.000000 0.500000 0.000000
O O5 0.689004 0.770870 0.508218
O O6 0.878241 0.593746 0.538090
O O7 0.019715 0.825497 0.388350
O O8 0.682929 0.036707 0.043719
O O9 0.806751 0.261054 0.969535
O O10 0.678198 0.403330 0.995658
O O11 0.500000 0.500000 0.500000
O O12 0.344586 0.758869 0.369244
O O13 0.135799 0.699805 0.275145
O O14 0.154925 0.145566 0.024712
O O15 0.348861 0.771580 0.560315
#
# Coordination Sequence:
#
# PCOD9003264 Si02
#       7
#     2   2   2   2   2   2   2
#     4   9  17  32  59  87 114 150 189 234 289 340
#     4  10  22  40  60  83 119 157 192 241 292 337
#     4   9  18  35  59  86 114 149 194 238 283 344
#     4  11  23  38  58  87 117 152 200 243 284 346
#     4  10  21  38  59  83 117 155 192 241 293 339
#     4  11  24  38  57  88 118 151 198 240 285 348
#     4  10  21  37  59  86 115 154 193 233 289 343
#
# _framework density 25.528417000000001
#
# number of rings (size 3 to 8) (size 9 to 14) (size 15 to 20)
#    0.000    2.000    0.000    5.143    0.000    6.857 
#    0.000    0.714    0.000   35.143    0.000    0.000 
#    0.000    0.000    0.000    0.000    0.000    0.000 
#
# Total GULP energy -78316.576617 kJ/mol
# GULP energy per Si atom -5594.041187 kJ/mol
# Density = 2.547031 g / cm^3
# Si number density = 25.528417 Si / 1000 Ang^3
#
#
#
# Elastic Constant Matrix: (Units=GPa)
#
#
# Indices 1 2 3 4 5 6 
#
# 1 73.2815 24.9096 39.0970 8.7242 1.5536 14.0543
# 2 24.9096 83.4213 30.8142 -21.2145 9.6220 22.3116
# 3 39.0970 30.8142 172.3265 -33.4912 12.2709 -1.0846
# 4 8.7242 -21.2145 -33.4912 49.6462 0.4645 5.0581
# 5 1.5536 9.6220 12.2709 0.4645 40.2237 12.3772
# 6 14.0543 22.3116 -1.0846 5.0581 12.3772 42.3915
#
#
#
# Elastic Compliance Matrix: (Units=1/GPa)
#
#
# Indices 1 2 3 4 5 6 
#
# 1 0.020506 -0.005857 -0.005762 -0.009643 0.003640 -0.003775
# 2 -0.005857 0.018777 -0.000032 0.009926 -0.001716 -0.008625
# 3 -0.005762 -0.000032 0.008645 0.006628 -0.003188 0.002288
# 4 -0.009643 0.009926 0.006628 0.031057 -0.002934 -0.004707
# 5 0.003640 -0.001716 -0.003188 -0.002934 0.028729 -0.008423
# 6 -0.003775 -0.008625 0.002288 -0.004707 -0.008423 0.032460
#
#
# Mechanical properties :
#
#
# Convention : Reuss Voigt Hill
#
# Bulk Modulus (GPa) = 40.60565 57.63011 49.11788
# Shear Modulus (GPa) = 29.12311 42.06618 35.59465
#
# Velocity S-wave (km/s) = 3.38125 4.06374 3.73810
# Velocity P-wave (km/s) = 5.58430 6.68150 6.15739
#
# Compressibility (1/GPa) = 0.02462712
#
# Stress axis : x y z
#
# Youngs Moduli (GPa) = 48.76653 53.25640 115.66880
#
# Poissons Ratio (x) = 0.31192 0.66648
# Poissons Ratio (y) = 0.28562 0.00366
# Poissons Ratio (z) = 0.28099 0.00169
#
# Static dielectric constant tensor:
#      x y z
#    x 2.086180 0.036410 0.012900 
#    y 0.036410 1.983490 0.000950 
#    z 0.012900 0.000950 2.034850 
# 
# From -- ./inp_files/225037.got.cif
#   From: 2010.05.17/outbox.cif.g08.bks.cpg/sg2_113_cif.got.tgz:225037.got - 2010.06.03 11:33:40.
