data_PCOD9003168
_publ_section_title
;
Structure prediction by ZEFSAII (Michael W. Deem and Ramdas Pophale) SiO2 
 PCOD9003168
Probable space group: P -1
;
_chemical_formula_sum "Si O2"
_cell_formula_units_Z 12
_cell_length_a 5.091893
_cell_length_b 14.104490
_cell_length_c 18.329549
_cell_angle_alpha 148.899354
_cell_angle_beta 53.729242
_cell_angle_gamma 111.750496
_cell_volume 518.162072
_symmetry_space_group_name_H-M "P -1"
_symmetry_group_IT_number 2
_symmetry_cell_setting 'triclinic'
loop_
_space_group_symop_operation_xyz
x,y,z
-x,-y,-z
loop_
_atom_site_type_symbol
_atom_site_label
_atom_site_fract_x
_atom_site_fract_y
_atom_site_fract_z
Si Si1 0.080693 0.595829 0.430210
Si Si2 0.239565 0.571751 0.155381
Si Si3 0.460548 0.790931 0.385609
Si Si4 0.372433 0.262307 0.053445
Si Si5 0.074600 0.961963 0.071742
Si Si6 0.651690 0.726198 0.716705
O O1 0.227592 0.746127 0.461072
O O2 0.104708 0.419954 0.254443
O O3 0.312939 0.473083 0.377937
O O4 0.729054 0.689730 0.594594
O O5 0.298030 0.742336 0.306060
O O6 0.367293 0.393463 0.072196
O O7 0.842854 0.639973 0.240000
O O8 0.500000 0.500000 0.000000
O O9 0.500000 0.000000 0.500000
O O10 0.717217 0.173075 0.984770
O O11 0.260723 0.089932 0.925011
O O12 0.068243 0.175738 0.234519
O O13 0.312495 0.881595 0.908538
#
# Coordination Sequence:
#
# PCOD9003168 Si02
#       6
#     2   2   2   2   2   2
#     4   9  20  38  60  86 121 160 196 243 303 359
#     4  11  23  41  65  90 120 161 207 255 308 361
#     4  11  24  43  64  90 124 160 206 257 304 360
#     4  10  21  39  59  84 121 157 195 247 300 356
#     4  10  21  37  58  87 120 154 198 244 292 358
#     4   9  19  36  59  88 121 158 197 241 298 359
#
# _framework density 23.158778999999999
#
# number of rings (size 3 to 8) (size 9 to 14) (size 15 to 20)
#    0.000    2.000    0.000    4.000    0.000    9.333 
#    0.000   11.667    0.000    0.000    0.000    0.000 
#    0.000    0.000    0.000    0.000    0.000    0.000 
#
# Total GULP energy -66926.733843 kJ/mol
# GULP energy per Si atom -5577.227820 kJ/mol
# Density = 2.310607 g / cm^3
# Si number density = 23.158779 Si / 1000 Ang^3
#
#
#
# Elastic Constant Matrix: (Units=GPa)
#
#
# Indices 1 2 3 4 5 6 
#
# 1 88.7175 11.0423 5.2387 -8.2626 -10.0871 -16.5777
# 2 11.0423 109.0253 42.0657 1.7472 7.4681 -37.9670
# 3 5.2387 42.0657 75.4177 -15.9090 3.1195 -20.8185
# 4 -8.2626 1.7472 -15.9090 52.4702 -4.5520 7.2474
# 5 -10.0871 7.4681 3.1195 -4.5520 23.2656 7.0940
# 6 -16.5777 -37.9670 -20.8185 7.2474 7.0940 26.8948
#
#
#
# Elastic Compliance Matrix: (Units=1/GPa)
#
#
# Indices 1 2 3 4 5 6 
#
# 1 0.013339 0.001892 0.001217 0.001037 0.001841 0.011069
# 2 0.001892 0.029922 -0.004375 -0.011113 -0.025542 0.049751
# 3 0.001217 -0.004375 0.019118 0.004723 -0.002367 0.008724
# 4 0.001037 -0.011113 0.004723 0.025407 0.015133 -0.022230
# 5 0.001841 -0.025542 -0.002367 0.015133 0.073630 -0.060255
# 6 0.011069 0.049751 0.008724 -0.022230 -0.060255 0.142874
#
#
# Mechanical properties :
#
#
# Convention : Reuss Voigt Hill
#
# Bulk Modulus (GPa) = 16.71007 43.31711 30.01359
# Shear Modulus (GPa) = 15.30121 34.84704 25.07413
#
# Velocity S-wave (km/s) = 2.57321 3.88326 3.29402
# Velocity P-wave (km/s) = 4.00745 6.23308 5.23980
#
# Compressibility (1/GPa) = 0.05984414
#
# Stress axis : x y z
#
# Youngs Moduli (GPa) = 74.97011 33.42048 52.30753
#
# Poissons Ratio (x) = -0.06322 -0.06363
# Poissons Ratio (y) = -0.14181 0.22885
# Poissons Ratio (z) = -0.09120 0.14622
#
# Static dielectric constant tensor:
#      x y z
#    x 2.085880 -0.020580 0.056580 
#    y -0.020580 1.965780 0.046030 
#    z 0.056580 0.046030 1.978860 
# 
# From -- ./inp_files/36163.got.cif
#   From: 2010.05.17/outbox.cif.g08.bks.cpg/sg2_19_cif.got.tgz:36163.got - 2010.06.03 11:33:40.
