data_PCOD9003309
_publ_section_title
;
Structure prediction by ZEFSAII (Michael W. Deem and Ramdas Pophale) SiO2 
 PCOD9003309
Probable space group: P -1
;
_chemical_formula_sum "Si O2"
_cell_formula_units_Z 16
_cell_length_a 6.578474
_cell_length_b 8.319382
_cell_length_c 14.095126
_cell_angle_alpha 103.295329
_cell_angle_beta 75.892009
_cell_angle_gamma 75.229267
_cell_volume 687.427973
_symmetry_space_group_name_H-M "P -1"
_symmetry_group_IT_number 2
_symmetry_cell_setting 'triclinic'
loop_
_space_group_symop_operation_xyz
x,y,z
-x,-y,-z
loop_
_atom_site_type_symbol
_atom_site_label
_atom_site_fract_x
_atom_site_fract_y
_atom_site_fract_z
Si Si1 0.568956 0.040517 0.893233
Si Si2 0.058486 0.429034 0.321687
Si Si3 0.864515 0.367591 0.992498
Si Si4 0.163168 0.833600 0.587475
Si Si5 0.459509 0.796053 0.719617
Si Si6 0.990005 0.206264 0.139529
Si Si7 0.576278 0.376125 0.860037
Si Si8 0.138545 0.772116 0.364473
O O1 0.480323 0.241555 0.905921
O O2 0.504296 0.944497 0.798950
O O3 0.836336 0.968250 0.861164
O O4 0.500000 0.000000 0.000000
O O5 0.929687 0.316762 0.378580
O O6 0.309424 0.360011 0.323430
O O7 0.060735 0.359933 0.203598
O O8 0.993594 0.638762 0.362185
O O9 0.619212 0.443251 0.079461
O O10 0.994074 0.210315 0.026007
O O11 0.801174 0.352756 0.889557
O O12 0.000000 0.500000 0.000000
O O13 0.371120 0.835766 0.628158
O O14 0.210054 0.788996 0.466071
O O15 0.988627 0.032066 0.633441
O O16 0.253958 0.765419 0.791777
O O17 0.650496 0.316815 0.738373
#
# Coordination Sequence:
#
# PCOD9003309 Si02
#       8
#     2   2   2   2   2   2   2   2
#     4  11  23  38  60  89 123 162 204 256 314 371
#     4  10  21  41  65  90 123 163 206 257 314 370
#     4  11  23  39  59  87 123 159 202 257 311 371
#     4  10  24  43  63  93 128 164 213 261 308 373
#     4  10  21  40  62  87 123 161 206 260 308 369
#     4  10  21  37  59  88 118 157 204 249 307 374
#     4  11  24  40  60  92 125 159 211 258 306 376
#     4  11  22  42  66  91 128 167 208 263 313 366
#
# _framework density 23.275167
#
# number of rings (size 3 to 8) (size 9 to 14) (size 15 to 20)
#    0.000    1.500    0.000    5.625    0.000   10.500 
#    0.000   10.625    0.000    0.000    0.000    0.000 
#    0.000    0.000    0.000    0.000    0.000    0.000 
#
# Total GULP energy -89363.978620 kJ/mol
# GULP energy per Si atom -5585.248664 kJ/mol
# Density = 2.322219 g / cm^3
# Si number density = 23.275167 Si / 1000 Ang^3
#
#
#
# Elastic Constant Matrix: (Units=GPa)
#
#
# Indices 1 2 3 4 5 6 
#
# 1 90.9999 19.5668 30.1070 -11.3249 24.6781 -7.3903
# 2 19.5668 98.0002 28.0116 -6.7661 10.5258 8.9766
# 3 30.1070 28.0116 100.1489 -5.9479 2.7523 1.2197
# 4 -11.3249 -6.7661 -5.9479 29.9198 2.9770 1.2586
# 5 24.6781 10.5258 2.7523 2.9770 28.2022 -0.5360
# 6 -7.3903 8.9766 1.2197 1.2586 -0.5360 19.6052
#
#
#
# Elastic Compliance Matrix: (Units=1/GPa)
#
#
# Indices 1 2 3 4 5 6 
#
# 1 0.018453 -0.000777 -0.004542 0.007222 -0.016049 0.006692
# 2 -0.000777 0.012348 -0.002882 0.002581 -0.004035 -0.006043
# 3 -0.004542 -0.002882 0.012043 -0.000321 0.003889 -0.001015
# 4 0.007222 0.002581 -0.000321 0.037847 -0.011269 -0.001177
# 5 -0.016049 -0.004035 0.003889 -0.011269 0.051774 -0.002306
# 6 0.006692 -0.006043 -0.001015 -0.001177 -0.002306 0.056372
#
#
# Mechanical properties :
#
#
# Convention : Reuss Voigt Hill
#
# Bulk Modulus (GPa) = 37.81788 49.39108 43.60448
# Shear Modulus (GPa) = 23.35864 29.64302 26.50083
#
# Velocity S-wave (km/s) = 3.17138 3.57261 3.37796
# Velocity P-wave (km/s) = 5.44919 6.18746 5.83002
#
# Compressibility (1/GPa) = 0.02644252
#
# Stress axis : x y z
#
# Youngs Moduli (GPa) = 54.19105 80.98343 83.03504
#
# Poissons Ratio (x) = 0.06291 0.37712
# Poissons Ratio (y) = 0.04210 0.23935
# Poissons Ratio (z) = 0.24612 0.23343
#
# Static dielectric constant tensor:
#      x y z
#    x 1.905060 0.025490 0.009330 
#    y 0.025490 1.952940 0.021970 
#    z 0.009330 0.021970 1.902800 
# 
# From -- ./inp_files/480751.got.cif
#   From: 2010.05.17/outbox.cif.g08.bks.cpg/sg2_241_cif.got.tgz:480751.got - 2010.06.03 11:33:40.
