data_PCOD9003364
_publ_section_title
;
Structure prediction by ZEFSAII (Michael W. Deem and Ramdas Pophale) SiO2 
 PCOD9003364
Probable space group: P -1
;
_chemical_formula_sum "Si O2"
_cell_formula_units_Z 16
_cell_length_a 9.227800
_cell_length_b 15.799064
_cell_length_c 10.922096
_cell_angle_alpha 59.465237
_cell_angle_beta 67.842289
_cell_angle_gamma 117.722928
_cell_volume 720.852872
_symmetry_space_group_name_H-M "P -1"
_symmetry_group_IT_number 2
_symmetry_cell_setting 'triclinic'
loop_
_space_group_symop_operation_xyz
x,y,z
-x,-y,-z
loop_
_atom_site_type_symbol
_atom_site_label
_atom_site_fract_x
_atom_site_fract_y
_atom_site_fract_z
Si Si1 0.876814 0.044976 0.003805
Si Si2 0.148985 0.015002 0.330882
Si Si3 0.378927 0.829660 0.627766
Si Si4 0.926471 0.732247 0.454118
Si Si5 0.274546 0.664218 0.015716
Si Si6 0.557331 0.598477 0.021739
Si Si7 0.978675 0.103733 0.193588
Si Si8 0.231615 0.712440 0.486585
O O1 0.963826 0.138108 0.037837
O O2 0.548046 0.860320 0.243145
O O3 0.990820 0.169736 0.766831
O O4 0.000000 0.000000 0.000000
O O5 0.460623 0.138422 0.162451
O O6 0.153517 0.094450 0.158292
O O7 0.000000 0.000000 0.500000
O O8 0.967064 0.831316 0.478399
O O9 0.213210 0.688242 0.890637
O O10 0.233231 0.749171 0.601787
O O11 0.500000 0.000000 0.500000
O O12 0.664368 0.915691 0.462986
O O13 0.621282 0.531051 0.710662
O O14 0.121567 0.741670 0.414241
O O15 0.430755 0.638225 0.989340
O O16 0.985092 0.490278 0.301008
O O17 0.500000 0.500000 0.000000
O O18 0.870987 0.754944 0.854735
#
# Coordination Sequence:
#
# PCOD9003364 Si02
#       8
#     2   2   2   2   2   2   2   2
#     4  11  23  44  67  87 123 173 222 267 313 379
#     4  11  19  35  66  92 126 162 210 258 319 382
#     4  11  22  37  60  89 133 168 203 256 327 386
#     4  11  22  41  67  89 126 173 212 262 322 376
#     4  10  21  37  59  91 132 161 203 262 316 384
#     4  10  23  36  65  99 128 161 206 264 327 378
#     4  10  22  39  59  96 125 163 215 260 311 382
#     4  10  24  40  60  94 123 166 218 262 317 379
#
# _framework density 22.195930000000001
#
# number of rings (size 3 to 8) (size 9 to 14) (size 15 to 20)
#    0.000    1.500    2.500    3.000    3.500    0.500 
#    2.250    0.625    2.750    0.000    0.000    0.000 
#    0.000    0.000    0.000    0.000    0.000    0.000 
#
# Total GULP energy -89219.145401 kJ/mol
# GULP energy per Si atom -5576.196588 kJ/mol
# Density = 2.214541 g / cm^3
# Si number density = 22.195930 Si / 1000 Ang^3
#
#
#
# Elastic Constant Matrix: (Units=GPa)
#
#
# Indices 1 2 3 4 5 6 
#
# 1 62.7919 -0.5657 41.3462 13.6388 16.1953 22.3417
# 2 -0.5657 41.7462 17.8729 -0.3318 5.3350 17.5069
# 3 41.3462 17.8729 129.7032 12.5494 28.4057 20.1704
# 4 13.6388 -0.3318 12.5494 28.2723 9.7979 2.8380
# 5 16.1953 5.3350 28.4057 9.7979 40.1673 -0.1421
# 6 22.3417 17.5069 20.1704 2.8380 -0.1421 29.7437
#
#
#
# Elastic Compliance Matrix: (Units=1/GPa)
#
#
# Indices 1 2 3 4 5 6 
#
# 1 0.036373 0.018438 -0.005683 -0.007482 -0.011390 -0.033660
# 2 0.018438 0.042452 -0.003795 0.000638 -0.010673 -0.036375
# 3 -0.005683 -0.003795 0.011409 -0.000455 -0.005166 -0.001216
# 4 -0.007482 0.000638 -0.000455 0.041402 -0.006840 0.001570
# 5 -0.011390 -0.010673 -0.005166 -0.006840 0.036296 0.019167
# 6 -0.033660 -0.036375 -0.001216 0.001570 0.019167 0.081081
#
#
# Mechanical properties :
#
#
# Convention : Reuss Voigt Hill
#
# Bulk Modulus (GPa) = 9.24602 39.06090 24.15346
# Shear Modulus (GPa) = 18.71657 31.34250 25.02954
#
# Velocity S-wave (km/s) = 2.90702 3.76185 3.36171
# Velocity P-wave (km/s) = 3.92967 6.04194 5.09644
#
# Compressibility (1/GPa) = 0.10815461
#
# Stress axis : x y z
#
# Youngs Moduli (GPa) = 27.49306 23.55591 87.65106
#
# Poissons Ratio (x) = -0.43432 0.49808
# Poissons Ratio (y) = -0.50691 0.33263
# Poissons Ratio (z) = 0.15623 0.08939
#
# Static dielectric constant tensor:
#      x y z
#    x 1.818860 -0.016800 0.002040 
#    y -0.016800 1.941220 -0.010190 
#    z 0.002040 -0.010190 1.897190 
# 
# From -- ./inp_files/401936.got.cif
#   From: 2010.05.17/outbox.cif.g08.bks.cpg/sg2_201_cif.got.tgz:401936.got - 2010.06.03 11:33:40.
