data_PCOD9003517
_publ_section_title
;
Structure prediction by ZEFSAII (Michael W. Deem and Ramdas Pophale) SiO2 
 PCOD9003517
Probable space group: P -1
;
_chemical_formula_sum "Si O2"
_cell_formula_units_Z 16
_cell_length_a 19.605787
_cell_length_b 5.887765
_cell_length_c 19.200598
_cell_angle_alpha 67.512079
_cell_angle_beta 158.037019
_cell_angle_gamma 102.559526
_cell_volume 702.892993
_symmetry_space_group_name_H-M "P -1"
_symmetry_group_IT_number 2
_symmetry_cell_setting 'triclinic'
loop_
_space_group_symop_operation_xyz
x,y,z
-x,-y,-z
loop_
_atom_site_type_symbol
_atom_site_label
_atom_site_fract_x
_atom_site_fract_y
_atom_site_fract_z
Si Si1 0.939176 0.165569 0.353110
Si Si2 0.498293 0.697620 0.043384
Si Si3 0.799085 0.056861 0.761811
Si Si4 0.324274 0.464024 0.508768
Si Si5 0.777381 0.203215 0.451790
Si Si6 0.544368 0.841924 0.473916
Si Si7 0.983831 0.579544 0.267531
Si Si8 0.571323 0.688898 0.790754
O O1 0.959452 0.446240 0.332542
O O2 0.707294 0.234037 0.118064
O O3 0.000000 0.000000 0.500000
O O4 0.094407 0.991678 0.463331
O O5 0.671775 0.496019 0.280150
O O6 0.500000 0.500000 0.000000
O O7 0.500000 0.000000 0.000000
O O8 0.792288 0.235277 0.667227
O O9 0.615725 0.204943 0.623827
O O10 0.739586 0.818273 0.704769
O O11 0.000000 0.000000 0.000000
O O12 0.400978 0.308156 0.529075
O O13 0.506384 0.452341 0.731305
O O14 0.164388 0.401657 0.409240
O O15 0.597154 0.168625 0.326645
O O16 0.940841 0.194863 0.664678
O O17 0.444183 0.146202 0.314319
O O18 0.782150 0.636527 0.029345
#
# Coordination Sequence:
#
# PCOD9003517 Si02
#       8
#     2   2   2   2   2   2   2   2
#     4  12  25  43  70  98 135 178 235 287 363 423
#     4  12  27  47  74 104 143 185 234 303 366 432
#     4  10  21  37  60  92 126 167 214 268 334 403
#     4  10  22  39  62  92 128 167 223 274 333 417
#     4  11  25  44  67  98 136 177 232 292 347 431
#     4  10  21  38  61  89 129 169 213 277 330 402
#     4  11  24  42  65  95 130 177 225 284 351 419
#     4  10  22  42  62  92 132 173 226 278 346 407
#
# _framework density 22.763066999999999
#
# number of rings (size 3 to 8) (size 9 to 14) (size 15 to 20)
#    0.000    1.250    2.500    2.625    1.750    3.500 
#    0.000    0.000    0.000    0.000    0.000    0.000 
#    0.000    0.000    0.000    0.000    0.000    0.000 
#
# Total GULP energy -89144.217931 kJ/mol
# GULP energy per Si atom -5571.513621 kJ/mol
# Density = 2.271126 g / cm^3
# Si number density = 22.763067 Si / 1000 Ang^3
#
#
#
# Elastic Constant Matrix: (Units=GPa)
#
#
# Indices 1 2 3 4 5 6 
#
# 1 141.0367 35.1888 18.3896 16.0641 11.6344 6.4865
# 2 35.1888 49.3579 41.1947 15.9743 10.5497 1.2219
# 3 18.3896 41.1947 121.8870 51.7965 -2.7100 3.3969
# 4 16.0641 15.9743 51.7965 35.0103 -0.6809 -2.1729
# 5 11.6344 10.5497 -2.7100 -0.6809 42.5304 2.3287
# 6 6.4865 1.2219 3.3969 -2.1729 2.3287 50.7411
#
#
#
# Elastic Compliance Matrix: (Units=1/GPa)
#
#
# Indices 1 2 3 4 5 6 
#
# 1 0.009429 -0.007905 0.004409 -0.007349 -0.000367 -0.001608
# 2 -0.007905 0.037774 -0.016198 0.010321 -0.008184 0.002003
# 3 0.004409 -0.016198 0.029654 -0.038669 0.004302 -0.004012
# 4 -0.007349 0.010321 -0.038669 0.084831 -0.002039 0.007006
# 5 -0.000367 -0.008184 0.004302 -0.002039 0.025957 -0.001323
# 6 -0.001608 0.002003 -0.004012 0.007006 -0.001323 0.020495
#
#
# Mechanical properties :
#
#
# Convention : Reuss Voigt Hill
#
# Bulk Modulus (GPa) = 26.68875 55.75865 41.22370
# Shear Modulus (GPa) = 19.22943 40.15693 29.69318
#
# Velocity S-wave (km/s) = 2.90964 4.20471 3.61563
# Velocity P-wave (km/s) = 4.79979 6.93694 5.96486
#
# Compressibility (1/GPa) = 0.03746897
#
# Stress axis : x y z
#
# Youngs Moduli (GPa) = 106.05368 26.47295 33.72245
#
# Poissons Ratio (x) = 0.20928 -0.14868
# Poissons Ratio (y) = 0.83839 0.54623
# Poissons Ratio (z) = -0.46759 0.42881
#
# Static dielectric constant tensor:
#      x y z
#    x 1.796620 -0.002670 -0.103150 
#    y -0.002670 2.057630 -0.046000 
#    z -0.103150 -0.046000 1.769220 
# 
# From -- ./inp_files/584275.got.cif
#   From: 2010.05.17/outbox.cif.g08.bks.cpg/sg2_293_cif.got.tgz:584275.got - 2010.06.03 11:33:40.
