data_PCOD9003396
_publ_section_title
;
Structure prediction by ZEFSAII (Michael W. Deem and Ramdas Pophale) SiO2 
 PCOD9003396
Probable space group: P -1
;
_chemical_formula_sum "Si O2"
_cell_formula_units_Z 16
_cell_length_a 8.001596
_cell_length_b 24.601124
_cell_length_c 6.140039
_cell_angle_alpha 125.896637
_cell_angle_beta 57.396099
_cell_angle_gamma 130.824397
_cell_volume 716.662117
_symmetry_space_group_name_H-M "P -1"
_symmetry_group_IT_number 2
_symmetry_cell_setting 'triclinic'
loop_
_space_group_symop_operation_xyz
x,y,z
-x,-y,-z
loop_
_atom_site_type_symbol
_atom_site_label
_atom_site_fract_x
_atom_site_fract_y
_atom_site_fract_z
Si Si1 0.235352 0.007129 0.780384
Si Si2 0.865429 0.405971 0.606404
Si Si3 0.758629 0.515429 0.114853
Si Si4 0.482017 0.941629 0.689238
Si Si5 0.397832 0.283465 0.524937
Si Si6 0.585839 0.618826 0.631077
Si Si7 0.462693 0.836649 0.814497
Si Si8 0.038089 0.304493 0.089655
O O1 0.285065 0.017685 0.515293
O O2 0.281577 0.939476 0.675241
O O3 0.433467 0.087953 0.930765
O O4 0.000000 0.000000 0.000000
O O5 0.615721 0.332972 0.642637
O O6 0.016224 0.430381 0.776023
O O7 0.988029 0.376356 0.280671
O O8 0.817860 0.477437 0.780906
O O9 0.635980 0.566312 0.301566
O O10 0.597876 0.444027 0.222151
O O11 0.451319 0.865326 0.646741
O O12 0.500000 0.000000 0.000000
O O13 0.475989 0.326765 0.339367
O O14 0.371870 0.199610 0.355685
O O15 0.184812 0.291146 0.773565
O O16 0.807959 0.674108 0.749205
O O17 0.207879 0.771435 0.901026
#
# Coordination Sequence:
#
# PCOD9003396 Si02
#       8
#     2   2   2   2   2   2   2   2
#     4  10  22  41  68 102 124 157 208 247 293 359
#     4   9  19  39  57  84 113 154 198 261 308 368
#     4   9  18  39  59  81 117 150 206 260 326 351
#     4   9  21  42  67  96 131 159 197 247 296 355
#     4  11  23  39  58  87 120 158 209 242 303 369
#     4  10  21  37  60  83 112 161 201 264 305 366
#     4  10  24  40  59  91 125 168 193 244 303 356
#     4  10  22  42  56  82 125 157 202 247 303 365
#
# _framework density 22.325723
#
# number of rings (size 3 to 8) (size 9 to 14) (size 15 to 20)
#    0.000    2.250    1.250    0.000    0.000   10.000 
#   13.500    0.000    0.000    0.000    0.000    0.000 
#    0.000    0.000    0.000    0.000    0.000    0.000 
#
# Total GULP energy -89202.151488 kJ/mol
# GULP energy per Si atom -5575.134468 kJ/mol
# Density = 2.227491 g / cm^3
# Si number density = 22.325723 Si / 1000 Ang^3
#
#
#
# Elastic Constant Matrix: (Units=GPa)
#
#
# Indices 1 2 3 4 5 6 
#
# 1 81.2979 46.8809 32.4035 -7.8233 -22.5656 -4.3390
# 2 46.8809 95.9847 37.8802 -4.9285 -7.5886 -25.3648
# 3 32.4035 37.8802 91.4392 -6.7291 -28.7395 -7.1638
# 4 -7.8233 -4.9285 -6.7291 25.3617 8.2988 -4.3449
# 5 -22.5656 -7.5886 -28.7395 8.2988 33.3096 7.7629
# 6 -4.3390 -25.3648 -7.1638 -4.3449 7.7629 50.9769
#
#
#
# Elastic Compliance Matrix: (Units=1/GPa)
#
#
# Indices 1 2 3 4 5 6 
#
# 1 0.022558 -0.012023 0.001238 -0.001165 0.015377 -0.006329
# 2 -0.012023 0.021404 -0.007683 0.004771 -0.013658 0.011033
# 3 0.001238 -0.007683 0.018365 -0.002256 0.016387 -0.003825
# 4 -0.001165 0.004771 -0.002256 0.045673 -0.014921 0.008123
# 5 0.015377 -0.013658 0.016387 -0.014921 0.058290 -0.013333
# 6 -0.006329 0.011033 -0.003825 0.008123 -0.013333 0.026753
#
#
# Mechanical properties :
#
#
# Convention : Reuss Voigt Hill
#
# Bulk Modulus (GPa) = 39.38523 55.89455 47.63989
# Shear Modulus (GPa) = 20.96925 32.03347 26.50136
#
# Velocity S-wave (km/s) = 3.06803 3.79202 3.44907
# Velocity P-wave (km/s) = 5.49817 6.65303 6.10298
#
# Compressibility (1/GPa) = 0.02539023
#
# Stress axis : x y z
#
# Youngs Moduli (GPa) = 44.32949 46.72059 54.45016
#
# Poissons Ratio (x) = 0.56173 -0.06741
# Poissons Ratio (y) = 0.53298 0.41837
# Poissons Ratio (z) = -0.05488 0.35898
#
# Static dielectric constant tensor:
#      x y z
#    x 1.866850 -0.034560 -0.020390 
#    y -0.034560 1.821640 0.007610 
#    z -0.020390 0.007610 1.901160 
# 
# From -- ./inp_files/55086.got.cif
#   From: 2010.05.17/outbox.cif.g08.bks.cpg/sg2_28_cif.got.tgz:55086.got - 2010.06.03 11:33:40.
