data_PCOD9003219
_publ_section_title
;
Structure prediction by ZEFSAII (Michael W. Deem and Ramdas Pophale) SiO2 
 PCOD9003219
Probable space group: P -1
;
_chemical_formula_sum "Si O2"
_cell_formula_units_Z 16
_cell_length_a 13.766574
_cell_length_b 15.977404
_cell_length_c 5.367886
_cell_angle_alpha 86.739729
_cell_angle_beta 104.449894
_cell_angle_gamma 45.815019
_cell_volume 773.273932
_symmetry_space_group_name_H-M "P -1"
_symmetry_group_IT_number 2
_symmetry_cell_setting 'triclinic'
loop_
_space_group_symop_operation_xyz
x,y,z
-x,-y,-z
loop_
_atom_site_type_symbol
_atom_site_label
_atom_site_fract_x
_atom_site_fract_y
_atom_site_fract_z
Si Si1 0.223089 0.918315 0.062488
Si Si2 0.393080 0.520202 0.233492
Si Si3 0.676982 0.897122 0.134243
Si Si4 0.935652 0.344706 0.006150
Si Si5 0.225114 0.073768 0.311612
Si Si6 0.962608 0.621250 0.437728
Si Si7 0.353840 0.704329 0.833760
Si Si8 0.936850 0.101681 0.652325
O O1 0.137094 0.898239 0.158299
O O2 0.281956 0.946119 0.298920
O O3 0.324675 0.807277 0.952225
O O4 0.089208 0.053098 0.825347
O O5 0.500000 0.500000 0.500000
O O6 0.496947 0.382667 0.214686
O O7 0.230093 0.585140 0.166810
O O8 0.370476 0.612338 0.023711
O O9 0.719396 0.934337 0.379667
O O10 0.785399 0.751934 0.296047
O O11 0.716951 0.903405 0.880468
O O12 0.500000 0.000000 0.000000
O O13 0.047700 0.198169 0.160837
O O14 0.960627 0.383508 0.268634
O O15 0.981691 0.369533 0.785597
O O16 0.000000 0.500000 0.500000
O O17 0.206867 0.769805 0.576570
O O18 0.000000 0.000000 0.500000
#
# Coordination Sequence:
#
# PCOD9003219 Si02
#       8
#     2   2   2   2   2   2   2   2
#     4  10  21  37  58  93 121 166 219 261 319 377
#     4  11  25  41  61  87 133 184 220 275 319 384
#     4  10  22  44  66 100 130 165 206 271 349 400
#     4  10  24  41  69  98 130 172 227 265 334 400
#     4  10  23  38  69  95 130 166 215 268 318 407
#     4  10  22  46  72 100 128 168 221 279 339 413
#     4  10  23  39  57  84 131 172 226 264 323 374
#     4   9  20  34  56  83 121 162 210 264 307 373
#
# _framework density 20.691241999999999
#
# number of rings (size 3 to 8) (size 9 to 14) (size 15 to 20)
#    0.000    2.000    0.000    1.500   14.000    1.000 
#    2.250    0.000    0.000    0.000    0.000    0.000 
#    0.000    0.000    0.000    0.000    0.000    0.000 
#
# Total GULP energy -89076.681440 kJ/mol
# GULP energy per Si atom -5567.292590 kJ/mol
# Density = 2.064415 g / cm^3
# Si number density = 20.691242 Si / 1000 Ang^3
#
#
#
# Elastic Constant Matrix: (Units=GPa)
#
#
# Indices 1 2 3 4 5 6 
#
# 1 61.1957 47.9769 32.8841 -8.7304 12.9356 -23.4361
# 2 47.9769 126.0479 49.4879 -4.9612 31.6649 -7.3423
# 3 32.8841 49.4879 125.7916 -7.5385 7.4079 -11.4513
# 4 -8.7304 -4.9612 -7.5385 41.6349 -2.2242 12.3470
# 5 12.9356 31.6649 7.4079 -2.2242 23.6549 -2.4214
# 6 -23.4361 -7.3423 -11.4513 12.3470 -2.4214 35.1328
#
#
#
# Elastic Compliance Matrix: (Units=1/GPa)
#
#
# Indices 1 2 3 4 5 6 
#
# 1 0.033539 -0.009936 -0.003001 -0.000553 -0.002170 0.019363
# 2 -0.009936 0.017036 -0.003607 -0.000002 -0.016795 -0.005400
# 3 -0.003001 -0.003607 0.010041 0.000803 0.003449 0.000472
# 4 -0.000553 -0.000002 0.000803 0.026941 0.001618 -0.009464
# 5 -0.002170 -0.016795 0.003449 0.001618 0.065023 0.000080
# 6 0.019363 -0.005400 0.000472 -0.009464 0.000080 0.043736
#
#
# Mechanical properties :
#
#
# Convention : Reuss Voigt Hill
#
# Bulk Modulus (GPa) = 36.32844 63.74812 50.03828
# Shear Modulus (GPa) = 20.95723 32.26361 26.61042
#
# Velocity S-wave (km/s) = 3.18599 3.95307 3.59007
# Velocity P-wave (km/s) = 5.57939 7.19109 6.43589
#
# Compressibility (1/GPa) = 0.02752664
#
# Stress axis : x y z
#
# Youngs Moduli (GPa) = 29.81631 58.69888 99.58714
#
# Poissons Ratio (x) = 0.58323 0.29889
# Poissons Ratio (y) = 0.29626 0.35926
# Poissons Ratio (z) = 0.08949 0.21175
#
# Static dielectric constant tensor:
#      x y z
#    x 1.763390 -0.003800 -0.047350 
#    y -0.003800 1.778430 0.053110 
#    z -0.047350 0.053110 1.705790 
# 
# From -- ./inp_files/77917.got.cif
#   From: 2010.05.17/outbox.cif.g08.bks.cpg/sg2_39_cif.got.tgz:77917.got - 2010.06.03 11:33:40.
