data_PCOD9003406
_publ_section_title
;
Structure prediction by ZEFSAII (Michael W. Deem and Ramdas Pophale) SiO2 
 PCOD9003406
Probable space group: P -1
;
_chemical_formula_sum "Si O2"
_cell_formula_units_Z 16
_cell_length_a 9.608269
_cell_length_b 17.554485
_cell_length_c 21.143295
_cell_angle_alpha 161.629728
_cell_angle_beta 46.854923
_cell_angle_gamma 121.099537
_cell_volume 670.277259
_symmetry_space_group_name_H-M "P -1"
_symmetry_group_IT_number 2
_symmetry_cell_setting 'triclinic'
loop_
_space_group_symop_operation_xyz
x,y,z
-x,-y,-z
loop_
_atom_site_type_symbol
_atom_site_label
_atom_site_fract_x
_atom_site_fract_y
_atom_site_fract_z
Si Si1 0.117977 0.452133 0.781159
Si Si2 0.631813 0.605907 0.082185
Si Si3 0.508903 0.375207 0.315799
Si Si4 0.322482 0.064424 0.199014
Si Si5 0.017487 0.054598 0.963629
Si Si6 0.447442 0.971127 0.772782
Si Si7 0.578503 0.699803 0.317665
Si Si8 0.895527 0.117351 0.332464
O O1 0.349309 0.172021 0.455694
O O2 0.199228 0.473998 0.842879
O O3 0.898407 0.436313 0.842719
O O4 0.022005 0.761739 0.020012
O O5 0.625385 0.565865 0.127824
O O6 0.505294 0.958963 0.391333
O O7 0.500000 0.500000 0.000000
O O8 0.349004 0.308294 0.351704
O O9 0.426000 0.703272 0.586255
O O10 0.562748 0.200449 0.095861
O O11 0.746307 0.245981 0.178306
O O12 0.456934 0.963414 0.143981
O O13 0.055430 0.176965 0.370841
O O14 0.173630 0.187621 0.010527
O O15 0.103409 0.820127 0.692995
O O16 0.000000 0.000000 0.000000
O O17 0.362956 0.719245 0.432115
#
# Coordination Sequence:
#
# PCOD9003406 Si02
#       8
#     2   2   2   2   2   2   2   2
#     4  11  22  42  67  91 127 164 203 250 314 373
#     4  10  24  44  69 101 125 153 202 252 307 384
#     4  10  22  42  55  83 126 160 213 267 304 359
#     4  10  21  37  60  85 120 165 211 258 305 356
#     4  11  21  37  61  87 121 167 217 257 303 361
#     4  12  22  38  64  85 119 170 204 256 319 354
#     4  10  22  45  69  91 131 165 191 254 317 367
#     4  10  22  42  60  91 131 162 212 261 303 366
#
# _framework density 23.870719000000001
#
# number of rings (size 3 to 8) (size 9 to 14) (size 15 to 20)
#    0.000    1.500    5.000    0.750    1.750    0.500 
#    2.250   10.625    0.000    0.000    0.000    0.000 
#    0.000    0.000    0.000    0.000    0.000    0.000 
#
# Total GULP energy -89424.880151 kJ/mol
# GULP energy per Si atom -5589.055009 kJ/mol
# Density = 2.381639 g / cm^3
# Si number density = 23.870719 Si / 1000 Ang^3
#
#
#
# Elastic Constant Matrix: (Units=GPa)
#
#
# Indices 1 2 3 4 5 6 
#
# 1 228.8509 60.9264 37.7759 -18.1562 13.4543 12.7199
# 2 60.9264 100.3360 34.4057 -31.9410 3.7649 11.8358
# 3 37.7759 34.4057 49.9855 -1.9270 18.9384 5.3149
# 4 -18.1562 -31.9410 -1.9270 23.8005 -2.3191 -10.4772
# 5 13.4543 3.7649 18.9384 -2.3191 40.6707 -10.9491
# 6 12.7199 11.8358 5.3149 -10.4772 -10.9491 57.5008
#
#
#
# Elastic Compliance Matrix: (Units=1/GPa)
#
#
# Indices 1 2 3 4 5 6 
#
# 1 0.005460 -0.002240 -0.002252 0.000674 -0.000657 -0.000541
# 2 -0.002240 0.032863 -0.025160 0.044710 0.013803 0.006832
# 3 -0.002252 -0.025160 0.047800 -0.038531 -0.024172 -0.010365
# 4 0.000674 0.044710 -0.038531 0.110236 0.024996 0.019055
# 5 -0.000657 0.013803 -0.024172 0.024996 0.039326 0.011581
# 6 -0.000541 0.006832 -0.010365 0.019055 0.011581 0.022740
#
#
# Mechanical properties :
#
#
# Convention : Reuss Voigt Hill
#
# Bulk Modulus (GPa) = 37.28559 71.70980 54.49769
# Shear Modulus (GPa) = 15.30598 40.79869 28.05234
#
# Velocity S-wave (km/s) = 2.53495 4.13867 3.43181
# Velocity P-wave (km/s) = 4.92155 7.27628 6.21152
#
# Compressibility (1/GPa) = 0.02682002
#
# Stress axis : x y z
#
# Youngs Moduli (GPa) = 183.15185 30.42900 20.92040
#
# Poissons Ratio (x) = 0.06817 0.04711
# Poissons Ratio (y) = 0.41029 0.52635
# Poissons Ratio (z) = 0.41241 0.76559
#
# Static dielectric constant tensor:
#      x y z
#    x 2.034670 -0.027430 -0.188040 
#    y -0.027430 1.914850 0.012670 
#    z -0.188040 0.012670 2.150780 
# 
# From -- ./inp_files/591049.got.cif
#   From: 2010.05.17/outbox.cif.g08.bks.cpg/sg2_296_cif.got.tgz:591049.got - 2010.06.03 11:33:40.
