data_PCOD9003342
_publ_section_title
;
Structure prediction by ZEFSAII (Michael W. Deem and Ramdas Pophale) SiO2 
 PCOD9003342
Probable space group: P -1
;
_chemical_formula_sum "Si O2"
_cell_formula_units_Z 12
_cell_length_a 23.288604
_cell_length_b 5.342940
_cell_length_c 23.316509
_cell_angle_alpha 129.794155
_cell_angle_beta 167.997434
_cell_angle_gamma 48.605659
_cell_volume 452.182843
_symmetry_space_group_name_H-M "P -1"
_symmetry_group_IT_number 2
_symmetry_cell_setting 'triclinic'
loop_
_space_group_symop_operation_xyz
x,y,z
-x,-y,-z
loop_
_atom_site_type_symbol
_atom_site_label
_atom_site_fract_x
_atom_site_fract_y
_atom_site_fract_z
Si Si1 0.819287 0.543690 0.164309
Si Si2 0.215026 0.928729 0.274332
Si Si3 0.345764 0.502667 0.608786
Si Si4 0.886369 0.603479 0.081959
Si Si5 0.706589 0.704519 0.806540
Si Si6 0.800255 0.316082 0.242882
O O1 0.812862 0.390007 0.198331
O O2 0.098908 0.338554 0.373026
O O3 0.864257 0.923464 0.262534
O O4 0.508843 0.585130 0.837940
O O5 0.448168 0.912726 0.548311
O O6 0.322268 0.679978 0.290088
O O7 0.074424 0.311670 0.182870
O O8 0.980571 0.773142 0.053593
O O9 0.114891 0.689057 0.361636
O O10 0.638268 0.472561 0.852674
O O11 0.713253 0.831626 0.896546
O O12 0.000000 0.500000 0.500000
O O13 0.500000 0.500000 0.000000
#
# Coordination Sequence:
#
# PCOD9003342 Si02
#       6
#     2   2   2   2   2   2
#     4  11  24  47  65 108 143 178 227 274 335 392
#     4  10  21  37  59  90 122 159 220 295 350 397
#     4  10  24  43  61  91 134 180 226 268 328 412
#     4  11  21  42  61  89 122 182 231 262 349 402
#     4  10  21  37  59  90 122 159 220 295 350 397
#     4  12  24  44  78 106 138 178 223 276 333 396
#
# _framework density 26.537939999999999
#
# number of rings (size 3 to 8) (size 9 to 14) (size 15 to 20)
#    0.000    1.333    0.000    5.500    0.000    0.000 
#   30.000    6.667    0.000    0.000    0.000    0.000 
#    0.000    0.000    0.000    0.000    0.000    0.000 
#
# Total GULP energy -66865.171547 kJ/mol
# GULP energy per Si atom -5572.097629 kJ/mol
# Density = 2.647754 g / cm^3
# Si number density = 26.537940 Si / 1000 Ang^3
#
#
#
# Elastic Constant Matrix: (Units=GPa)
#
#
# Indices 1 2 3 4 5 6 
#
# 1 149.8280 15.6708 63.0555 -2.2387 -18.6804 27.5658
# 2 15.6708 105.8818 12.0996 -1.4510 0.3117 1.4875
# 3 63.0555 12.0996 271.2317 2.8943 -26.8755 -0.0510
# 4 -2.2387 -1.4510 2.8943 31.4859 -11.4380 5.4326
# 5 -18.6804 0.3117 -26.8755 -11.4380 72.0647 -5.9575
# 6 27.5658 1.4875 -0.0510 5.4326 -5.9575 28.6102
#
#
#
# Elastic Compliance Matrix: (Units=1/GPa)
#
#
# Indices 1 2 3 4 5 6 
#
# 1 0.009627 -0.001016 -0.002087 0.002980 0.001409 -0.009498
# 2 -0.001016 0.009619 -0.000227 0.000210 -0.000326 0.000371
# 3 -0.002087 -0.000227 0.004305 -0.000537 0.001177 0.002377
# 4 0.002980 0.000210 -0.000537 0.035493 0.005504 -0.008477
# 5 0.001409 -0.000326 0.001177 0.005504 0.015628 0.000870
# 6 -0.009498 0.000371 0.002377 -0.008477 0.000870 0.045880
#
#
# Mechanical properties :
#
#
# Convention : Reuss Voigt Hill
#
# Bulk Modulus (GPa) = 59.20398 78.73260 68.96829
# Shear Modulus (GPa) = 37.63866 55.50655 46.57260
#
# Velocity S-wave (km/s) = 3.77011 4.57835 4.19375
# Velocity P-wave (km/s) = 6.42723 7.59479 7.03527
#
# Compressibility (1/GPa) = 0.01689076
#
# Stress axis : x y z
#
# Youngs Moduli (GPa) = 103.87946 103.95563 232.29395
#
# Poissons Ratio (x) = 0.10564 0.48470
# Poissons Ratio (y) = 0.10556 0.05281
# Poissons Ratio (z) = 0.21675 0.02363
#
# Static dielectric constant tensor:
#      x y z
#    x 2.165200 -0.097130 -0.019480 
#    y -0.097130 2.346260 -0.156400 
#    z -0.019480 -0.156400 2.055190 
# 
# From -- ./inp_files/125220.got.cif
#   From: 2010.05.17/outbox.cif.g08.bks.cpg/sg2_63_cif.got.tgz:125220.got - 2010.06.03 11:33:40.
