data_PCOD9003900
_publ_section_title
;
Structure prediction by ZEFSAII (Michael W. Deem and Ramdas Pophale) SiO2 
 PCOD9003900
Probable space group: P -1
;
_chemical_formula_sum "Si O2"
_cell_formula_units_Z 16
_cell_length_a 24.502992
_cell_length_b 9.917752
_cell_length_c 8.235084
_cell_angle_alpha 150.033580
_cell_angle_beta 46.628369
_cell_angle_gamma 134.099758
_cell_volume 697.959179
_symmetry_space_group_name_H-M "P -1"
_symmetry_group_IT_number 2
_symmetry_cell_setting 'triclinic'
loop_
_space_group_symop_operation_xyz
x,y,z
-x,-y,-z
loop_
_atom_site_type_symbol
_atom_site_label
_atom_site_fract_x
_atom_site_fract_y
_atom_site_fract_z
Si Si1 0.965034 0.611074 0.531724
Si Si2 0.974805 0.836601 0.213518
Si Si3 0.201876 0.375726 0.175001
Si Si4 0.298123 0.971976 0.578752
Si Si5 0.525192 0.886983 0.163125
Si Si6 0.534968 0.681011 0.461798
Si Si7 0.698691 0.919710 0.928432
Si Si8 0.198694 0.477673 0.674185
O O1 0.876348 0.612329 0.739943
O O2 0.000000 0.500000 0.500000
O O3 0.009444 0.921803 0.703249
O O4 0.973129 0.379599 0.141409
O O5 0.884333 0.661596 0.220933
O O6 0.000000 0.000000 0.500000
O O7 0.187897 0.414066 0.436135
O O8 0.273704 0.640475 0.257603
O O9 0.226294 0.093065 0.805014
O O10 0.376345 0.140369 0.507361
O O11 0.312105 0.038272 0.811921
O O12 0.615663 0.892923 0.989601
O O13 0.500000 0.000000 0.500000
O O14 0.509440 0.097074 0.277855
O O15 0.473126 0.566649 0.912329
O O16 0.500000 0.500000 0.500000
O O17 0.767401 0.192742 0.022279
O O18 0.732595 0.657936 0.557085
#
# Coordination Sequence:
#
# PCOD9003900 Si02
#       8
#     2   2   2   2   2   2   2   2
#     4  12  26  44  65  98 136 173 214 265 328 388
#     4  12  24  42  69  96 128 168 222 270 319 379
#     4  10  21  38  64  93 125 168 217 262 316 389
#     4  10  21  38  64  93 125 168 217 262 316 389
#     4  12  24  42  69  96 128 168 222 270 319 379
#     4  12  26  44  65  98 136 173 214 265 328 388
#     4  10  21  37  62  97 127 162 215 274 320 369
#     4  10  21  37  62  97 127 162 215 274 320 369
#
# _framework density 22.923976
#
# number of rings (size 3 to 8) (size 9 to 14) (size 15 to 20)
#    0.000    1.000    2.500    4.500    7.000    0.000 
#    0.000    7.500    0.000    0.000    0.000    0.000 
#    0.000    0.000    0.000    0.000    0.000    0.000 
#
# Total GULP energy -89627.457264 kJ/mol
# GULP energy per Si atom -5601.716079 kJ/mol
# Density = 2.287180 g / cm^3
# Si number density = 22.923976 Si / 1000 Ang^3
#
#
#
# Elastic Constant Matrix: (Units=GPa)
#
#
# Indices 1 2 3 4 5 6 
#
# 1 93.1139 31.4130 9.5841 -4.3525 -39.4293 2.5435
# 2 31.4130 134.7883 -1.2794 23.8483 -7.5397 13.1847
# 3 9.5841 -1.2794 60.1113 15.2931 -13.6220 -10.5739
# 4 -4.3525 23.8483 15.2931 32.0437 -1.3747 -6.3064
# 5 -39.4293 -7.5397 -13.6220 -1.3747 41.3339 6.1060
# 6 2.5435 13.1847 -10.5739 -6.3064 6.1060 23.3106
#
#
#
# Elastic Compliance Matrix: (Units=1/GPa)
#
#
# Indices 1 2 3 4 5 6 
#
# 1 0.021316 -0.004856 -0.001526 0.007408 0.019697 -0.003427
# 2 -0.004856 0.011372 0.002444 -0.011856 -0.001003 -0.007739
# 3 -0.001526 0.002444 0.021727 -0.011344 0.005150 0.004222
# 4 0.007408 -0.011856 -0.011344 0.049213 0.000754 0.013869
# 5 0.019697 -0.001003 0.005150 0.000754 0.046167 -0.011135
# 6 -0.003427 -0.007739 0.004222 0.013869 -0.011135 0.056234
#
#
# Mechanical properties :
#
#
# Convention : Reuss Voigt Hill
#
# Bulk Modulus (GPa) = 21.48711 40.82765 31.15738
# Shear Modulus (GPa) = 21.79438 35.89068 28.84253
#
# Velocity S-wave (km/s) = 3.08673 3.96111 3.55093
# Velocity P-wave (km/s) = 4.70079 6.22649 5.51664
#
# Compressibility (1/GPa) = 0.04653953
#
# Stress axis : x y z
#
# Youngs Moduli (GPa) = 46.91409 87.93176 46.02637
#
# Poissons Ratio (x) = 0.42698 0.07022
# Poissons Ratio (y) = 0.22781 -0.11249
# Poissons Ratio (z) = 0.07158 -0.21490
#
# Static dielectric constant tensor:
#      x y z
#    x 1.927530 -0.085880 0.150900 
#    y -0.085880 1.861590 -0.095040 
#    z 0.150900 -0.095040 2.001080 
# 
# From -- ./inp_files/226425.got.cif
#   From: 2010.05.17/outbox.cif.g08.bks.cpg/sg2_114_cif.got.tgz:226425.got - 2010.06.03 11:33:40.
