data_PCOD9003032
_publ_section_title
;
Structure prediction by ZEFSAII (Michael W. Deem and Ramdas Pophale) SiO2 
 PCOD9003032
Probable space group: P -1
;
_chemical_formula_sum "Si O2"
_cell_formula_units_Z 12
_cell_length_a 12.958504
_cell_length_b 14.866117
_cell_length_c 15.068876
_cell_angle_alpha 26.157890
_cell_angle_beta 150.801343
_cell_angle_gamma 154.514928
_cell_volume 519.700147
_symmetry_space_group_name_H-M "P -1"
_symmetry_group_IT_number 2
_symmetry_cell_setting 'triclinic'
loop_
_space_group_symop_operation_xyz
x,y,z
-x,-y,-z
loop_
_atom_site_type_symbol
_atom_site_label
_atom_site_fract_x
_atom_site_fract_y
_atom_site_fract_z
Si Si1 0.526725 0.015385 0.743952
Si Si2 0.667622 0.551785 0.352011
Si Si3 0.071675 0.783230 0.991353
Si Si4 0.468882 0.571218 0.010567
Si Si5 0.945311 0.714097 0.591004
Si Si6 0.133485 0.350089 0.220966
O O1 0.487205 0.826469 0.805039
O O2 0.243225 0.904578 0.662701
O O3 0.646390 0.294243 0.560941
O O4 0.701565 0.021785 0.948790
O O5 0.875420 0.728384 0.424136
O O6 0.404676 0.496837 0.245871
O O7 0.678988 0.616715 0.200201
O O8 0.113566 0.561558 0.209311
O O9 0.802047 0.651470 0.956709
O O10 0.043139 0.849635 0.810318
O O11 0.500000 0.500000 0.000000
O O12 0.821723 0.719198 0.586638
O O13 0.000000 0.500000 0.000000
#
# Coordination Sequence:
#
# PCOD9003032 Si02
#       6
#     2   2   2   2   2   2
#     4  10  21  38  57  81 116 147 183 231 275 330
#     4  10  21  37  57  83 114 146 186 232 274 325
#     4   8  18  36  55  83 116 145 185 230 270 324
#     4  10  22  40  61  82 107 145 188 234 287 331
#     4   9  18  34  55  82 116 151 183 220 272 329
#     4   9  17  33  57  83 116 151 183 224 268 322
#
# _framework density 23.090239
#
# number of rings (size 3 to 8) (size 9 to 14) (size 15 to 20)
#    0.000    2.667    0.000    1.500    0.000    5.333 
#    0.000   10.833    0.000    0.000    0.000    0.000 
#    0.000    0.000    0.000    0.000    0.000    0.000 
#
# Total GULP energy -66932.243854 kJ/mol
# GULP energy per Si atom -5577.686988 kJ/mol
# Density = 2.303768 g / cm^3
# Si number density = 23.090239 Si / 1000 Ang^3
#
#
#
# Elastic Constant Matrix: (Units=GPa)
#
#
# Indices 1 2 3 4 5 6 
#
# 1 118.6064 44.4281 35.9356 17.9417 -26.0188 -46.7304
# 2 44.4281 126.2411 25.9231 25.2251 -12.7706 -29.8541
# 3 35.9356 25.9231 87.9408 20.9076 -17.3888 -16.2846
# 4 17.9417 25.2251 20.9076 48.6413 -8.7184 -1.1134
# 5 -26.0188 -12.7706 -17.3888 -8.7184 26.3600 12.5955
# 6 -46.7304 -29.8541 -16.2846 -1.1134 12.5955 32.1812
#
#
#
# Elastic Compliance Matrix: (Units=1/GPa)
#
#
# Indices 1 2 3 4 5 6 
#
# 1 0.023053 0.001714 -0.001257 -0.007224 0.004963 0.032237
# 2 0.001714 0.011756 -0.000406 -0.006515 -0.001513 0.013557
# 3 -0.001257 -0.000406 0.014710 -0.004630 0.005297 0.003008
# 4 -0.007224 -0.006515 -0.004630 0.029200 0.005970 -0.020204
# 5 0.004963 -0.001513 0.005297 0.005970 0.053406 -0.012213
# 6 0.032237 0.013557 0.003008 -0.020204 -0.012213 0.096065
#
#
# Mechanical properties :
#
#
# Convention : Reuss Voigt Hill
#
# Bulk Modulus (GPa) = 20.15251 60.59576 40.37413
# Shear Modulus (GPa) = 20.43925 36.53659 28.48792
#
# Velocity S-wave (km/s) = 2.97844 3.98218 3.51631
# Velocity P-wave (km/s) = 4.53595 6.88793 5.83174
#
# Compressibility (1/GPa) = 0.04962162
#
# Stress axis : x y z
#
# Youngs Moduli (GPa) = 43.37924 85.06167 67.98111
#
# Poissons Ratio (x) = -0.14582 0.08546
# Poissons Ratio (y) = -0.07436 0.02758
# Poissons Ratio (z) = 0.05453 0.03451
#
# Static dielectric constant tensor:
#      x y z
#    x 1.803990 -0.013070 0.013420 
#    y -0.013070 1.908420 -0.046050 
#    z 0.013420 -0.046050 2.058370 
# 
# From -- ./inp_files/24802.got.cif
#   From: 2010.05.17/outbox.cif.g08.bks.cpg/sg2_13_cif.got.tgz:24802.got - 2010.06.03 11:33:40.
