data_PCOD9003604
_publ_section_title
;
Structure prediction by ZEFSAII (Michael W. Deem and Ramdas Pophale) SiO2 
 PCOD9003604
Probable space group: P -1
;
_chemical_formula_sum "Si O2"
_cell_formula_units_Z 16
_cell_length_a 10.999342
_cell_length_b 10.825823
_cell_length_c 9.551340
_cell_angle_alpha 70.672408
_cell_angle_beta 87.170995
_cell_angle_gamma 49.009923
_cell_volume 787.327332
_symmetry_space_group_name_H-M "P -1"
_symmetry_group_IT_number 2
_symmetry_cell_setting 'triclinic'
loop_
_space_group_symop_operation_xyz
x,y,z
-x,-y,-z
loop_
_atom_site_type_symbol
_atom_site_label
_atom_site_fract_x
_atom_site_fract_y
_atom_site_fract_z
Si Si1 0.042846 0.621245 0.985704
Si Si2 0.238237 0.780272 0.441594
Si Si3 0.382812 0.405024 0.516075
Si Si4 0.561729 0.749076 0.145630
Si Si5 0.306580 0.143446 0.111414
Si Si6 0.589025 0.294485 0.074014
Si Si7 0.102445 0.830362 0.743286
Si Si8 0.330995 0.326105 0.263179
O O1 0.107751 0.673596 0.845012
O O2 0.857436 0.807831 0.951375
O O3 0.173642 0.522000 0.139921
O O4 0.000000 0.500000 0.000000
O O5 0.282284 0.613284 0.421040
O O6 0.418129 0.718245 0.456494
O O7 0.180743 0.791748 0.599453
O O8 0.084530 0.976019 0.317098
O O9 0.346494 0.389473 0.682513
O O10 0.339233 0.334064 0.425048
O O11 0.458789 0.938426 0.154955
O O12 0.672423 0.742219 0.027828
O O13 0.442492 0.744195 0.062302
O O14 0.306537 0.198772 0.248532
O O15 0.776956 0.180202 0.153318
O O16 0.492631 0.273405 0.200585
O O17 0.500000 0.500000 0.000000
#
# Coordination Sequence:
#
# PCOD9003604 Si02
#       8
#     2   2   2   2   2   2   2   2
#     4  10  21  37  64  84 119 163 210 247 299 368
#     4  10  24  36  59  94 133 161 196 259 326 362
#     4  11  22  39  59  93 127 161 204 258 313 374
#     4  10  22  38  65  87 124 159 207 259 308 361
#     4   9  21  42  60  89 117 166 213 252 301 368
#     4  11  20  36  64  93 114 163 203 254 306 370
#     4  11  21  40  62  93 126 164 206 256 309 372
#     4  10  21  37  61  88 120 161 210 246 310 371
#
# _framework density 20.321916999999999
#
# number of rings (size 3 to 8) (size 9 to 14) (size 15 to 20)
#    0.000    1.750    2.500    1.500    5.250    1.500 
#    0.000    2.500    2.750    0.000    0.000    0.000 
#    0.000    0.000    0.000    0.000    0.000    0.000 
#
# Total GULP energy -89225.378091 kJ/mol
# GULP energy per Si atom -5576.586131 kJ/mol
# Density = 2.027566 g / cm^3
# Si number density = 20.321917 Si / 1000 Ang^3
#
#
#
# Elastic Constant Matrix: (Units=GPa)
#
#
# Indices 1 2 3 4 5 6 
#
# 1 72.7989 25.5495 35.9846 -3.0634 10.7986 -0.9386
# 2 25.5495 76.8883 31.9862 1.1677 22.3161 0.3603
# 3 35.9846 31.9862 100.4459 4.4650 22.6231 13.2802
# 4 -3.0634 1.1677 4.4650 28.8103 6.6744 3.8551
# 5 10.7986 22.3161 22.6231 6.6744 29.4577 -1.0229
# 6 -0.9386 0.3603 13.2802 3.8551 -1.0229 27.5356
#
#
#
# Elastic Compliance Matrix: (Units=1/GPa)
#
#
# Indices 1 2 3 4 5 6 
#
# 1 0.018040 -0.003668 -0.005872 0.002505 0.000217 0.003152
# 2 -0.003668 0.018357 -0.002033 0.001835 -0.011419 -0.000066
# 3 -0.005872 -0.002033 0.015731 0.000119 -0.008697 -0.008100
# 4 0.002505 0.001835 0.000119 0.038267 -0.011270 -0.005772
# 5 0.000217 -0.011419 -0.008697 -0.011270 0.052024 0.007862
# 6 0.003152 -0.000066 -0.008100 -0.005772 0.007862 0.041432
#
#
# Mechanical properties :
#
#
# Convention : Reuss Voigt Hill
#
# Bulk Modulus (GPa) = 34.50213 48.57486 41.53849
# Shear Modulus (GPa) = 23.07811 27.60159 25.33985
#
# Velocity S-wave (km/s) = 3.37356 3.68940 3.53501
# Velocity P-wave (km/s) = 5.67355 6.48872 6.09478
#
# Compressibility (1/GPa) = 0.02898372
#
# Stress axis : x y z
#
# Youngs Moduli (GPa) = 55.43245 54.47532 63.56909
#
# Poissons Ratio (x) = 0.19979 0.37327
# Poissons Ratio (y) = 0.20330 0.12922
# Poissons Ratio (z) = 0.32549 0.11073
#
# Static dielectric constant tensor:
#      x y z
#    x 1.751550 -0.009440 -0.023540 
#    y -0.009440 1.749140 -0.014970 
#    z -0.023540 -0.014970 1.719810 
# 
# From -- ./inp_files/252997.got.cif
#   From: 2010.05.17/outbox.cif.g08.bks.cpg/sg2_127_cif.got.tgz:252997.got - 2010.06.03 11:33:40.
