data_PCOD9003952
_publ_section_title
;
Structure prediction by ZEFSAII (Michael W. Deem and Ramdas Pophale) SiO2 
 PCOD9003952
Probable space group: P -1
;
_chemical_formula_sum "Si O2"
_cell_formula_units_Z 16
_cell_length_a 15.209518
_cell_length_b 11.631445
_cell_length_c 20.245695
_cell_angle_alpha 44.125264
_cell_angle_beta 27.335973
_cell_angle_gamma 30.091510
_cell_volume 804.319989
_symmetry_space_group_name_H-M "P -1"
_symmetry_group_IT_number 2
_symmetry_cell_setting 'triclinic'
loop_
_space_group_symop_operation_xyz
x,y,z
-x,-y,-z
loop_
_atom_site_type_symbol
_atom_site_label
_atom_site_fract_x
_atom_site_fract_y
_atom_site_fract_z
Si Si1 0.257570 0.416540 0.729926
Si Si2 0.389513 0.057678 0.699555
Si Si3 0.028849 0.286212 0.581732
Si Si4 0.808100 0.208717 0.639384
Si Si5 0.781179 0.485588 0.885661
Si Si6 0.354619 0.267348 0.985093
Si Si7 0.448391 0.361183 0.158119
Si Si8 0.745928 0.325264 0.490832
O O1 0.387699 0.165039 0.724193
O O2 0.460982 0.402481 0.642236
O O3 0.239605 0.526873 0.626995
O O4 0.958189 0.570224 0.895285
O O5 0.106393 0.268272 0.765436
O O6 0.437229 0.842438 0.782398
O O7 0.652312 0.944981 0.527665
O O8 0.924503 0.243760 0.607183
O O9 0.823090 0.382502 0.738719
O O10 0.000000 0.500000 0.500000
O O11 0.534763 0.281932 0.815064
O O12 0.778656 0.339272 0.540286
O O13 0.022015 0.937923 0.584666
O O14 0.653288 0.652012 0.838015
O O15 0.674299 0.636656 0.961789
O O16 0.670613 0.367152 0.001242
O O17 0.500000 0.000000 0.000000
#
# Coordination Sequence:
#
# PCOD9003952 Si02
#       8
#     2   2   2   2   2   2   2   2
#     4  10  21  39  60  92 125 160 199 258 309 368
#     4  10  21  37  63  88 124 155 203 258 304 363
#     4  10  21  38  63  87 120 158 206 257 299 365
#     4  11  21  40  63  89 121 164 206 254 314 366
#     4  10  22  39  63  89 120 165 203 249 312 365
#     4  11  22  38  63  90 129 160 203 255 309 374
#     4  10  21  40  63  87 121 162 205 253 307 366
#     4  10  22  38  64  88 122 160 206 252 312 374
#
# _framework density 19.892579000000001
#
# number of rings (size 3 to 8) (size 9 to 14) (size 15 to 20)
#    0.000    1.750    3.750    0.375    0.000    6.000 
#    0.000    2.500    0.000    0.000    0.000    0.000 
#    0.000    0.000    0.000    0.000    0.000    0.000 
#
# Total GULP energy -89237.203935 kJ/mol
# GULP energy per Si atom -5577.325246 kJ/mol
# Density = 1.984730 g / cm^3
# Si number density = 19.892579 Si / 1000 Ang^3
#
#
#
# Elastic Constant Matrix: (Units=GPa)
#
#
# Indices 1 2 3 4 5 6 
#
# 1 69.6998 10.4274 34.6160 0.3459 4.8278 -3.9313
# 2 10.4274 0.9357 3.2403 37.8414 -17.1604 21.0101
# 3 34.6160 3.2403 120.8153 27.9388 -21.0994 8.6536
# 4 0.3459 37.8414 27.9388 9.8918 12.2075 -7.0796
# 5 4.8278 -17.1604 -21.0994 12.2075 23.9739 6.2882
# 6 -3.9313 21.0101 8.6536 -7.0796 6.2882 14.9135
#
#
#
# Elastic Compliance Matrix: (Units=1/GPa)
#
#
# Indices 1 2 3 4 5 6 
#
# 1 0.015691 0.004016 -0.003789 -0.004227 -0.001259 -0.000798
# 2 0.004016 0.007163 -0.007723 0.015590 -0.012553 0.008142
# 3 -0.003789 -0.007723 0.009860 0.000149 0.003066 0.002939
# 4 -0.004227 0.015590 0.000149 0.015804 0.009223 -0.019551
# 5 -0.001259 -0.012553 0.003066 0.009223 0.028950 0.007745
# 6 -0.000798 0.008142 0.002939 -0.019551 0.007745 0.041120
#
#
# Mechanical properties :
#
#
# Convention : Reuss Voigt Hill
#
# Bulk Modulus (GPa) = 56.42958 32.00203 44.21581
# Shear Modulus (GPa) = 35.84508 19.30032 27.57270
#
# Velocity S-wave (km/s) = 4.24952 3.11823 3.72705
# Velocity P-wave (km/s) = 7.24615 5.39322 6.38723
#
# Compressibility (1/GPa) = 0.01772120
#
# Stress axis : x y z
#
# Youngs Moduli (GPa) = 63.72919 139.60304 101.41767
#
# Poissons Ratio (x) = -0.56058 0.38426
# Poissons Ratio (y) = -0.25591 0.78330
# Poissons Ratio (z) = 0.24146 1.07822
#
# Static dielectric constant tensor:
#      x y z
#    x 1.699690 -0.009270 -0.010270 
#    y -0.009270 1.708720 0.006030 
#    z -0.010270 0.006030 1.731930 
# 
# From -- ./inp_files/354556.got.cif
#   From: 2010.05.17/outbox.cif.g08.bks.cpg/sg2_178_cif.got.tgz:354556.got - 2010.06.03 11:33:40.
