data_PCOD9003969
_publ_section_title
;
Structure prediction by ZEFSAII (Michael W. Deem and Ramdas Pophale) SiO2 
 PCOD9003969
Probable space group: P -1
;
_chemical_formula_sum "Si O2"
_cell_formula_units_Z 16
_cell_length_a 11.484288
_cell_length_b 21.267656
_cell_length_c 8.123768
_cell_angle_alpha 79.883193
_cell_angle_beta 50.864018
_cell_angle_gamma 39.445474
_cell_volume 757.296593
_symmetry_space_group_name_H-M "P -1"
_symmetry_group_IT_number 2
_symmetry_cell_setting 'triclinic'
loop_
_space_group_symop_operation_xyz
x,y,z
-x,-y,-z
loop_
_atom_site_type_symbol
_atom_site_label
_atom_site_fract_x
_atom_site_fract_y
_atom_site_fract_z
Si Si1 0.667824 0.596990 0.208987
Si Si2 0.617277 0.240924 0.289937
Si Si3 0.830192 0.047221 0.383724
Si Si4 0.748857 0.324416 0.992959
Si Si5 0.190304 0.300641 0.457594
Si Si6 0.594718 0.892143 0.451084
Si Si7 0.438469 0.476791 0.886812
Si Si8 0.542140 0.211548 0.894241
O O1 0.483479 0.682224 0.495940
O O2 0.538728 0.687527 0.134202
O O3 0.630228 0.539173 0.205113
O O4 0.000000 0.500000 0.000000
O O5 0.838479 0.104692 0.225178
O O6 0.713902 0.262070 0.075180
O O7 0.353875 0.297056 0.415334
O O8 0.636494 0.061107 0.476089
O O9 0.644034 0.138543 0.669384
O O10 0.164468 0.903354 0.199839
O O11 0.709133 0.352143 0.818868
O O12 0.527274 0.460114 0.203200
O O13 0.057272 0.229767 0.852466
O O14 0.362083 0.170679 0.402006
O O15 0.860095 0.420868 0.777253
O O16 0.255287 0.291138 0.213636
O O17 0.500000 0.000000 0.500000
#
# Coordination Sequence:
#
# PCOD9003969 Si02
#       8
#     2   2   2   2   2   2   2   2
#     4  11  22  37  62  90 121 156 196 250 295 348
#     4  10  21  37  63  91 116 157 204 240 300 351
#     4   9  22  43  61  89 122 154 198 252 295 352
#     4  10  23  39  59  88 124 159 198 245 294 358
#     4  10  21  38  63  90 116 159 202 244 294 357
#     4  10  23  39  61  88 123 159 197 243 300 354
#     4  10  22  41  58  88 128 156 198 246 297 355
#     4  10  22  38  66  90 118 152 204 251 296 342
#
# _framework density 21.127784999999999
#
# number of rings (size 3 to 8) (size 9 to 14) (size 15 to 20)
#    0.000    2.000    1.250    0.750    8.750    2.500 
#    0.000    4.375    0.000    0.000    0.000    0.000 
#    0.000    0.000    0.000    0.000    0.000    0.000 
#
# Total GULP energy -89153.454738 kJ/mol
# GULP energy per Si atom -5572.090921 kJ/mol
# Density = 2.107970 g / cm^3
# Si number density = 21.127785 Si / 1000 Ang^3
#
#
#
# Elastic Constant Matrix: (Units=GPa)
#
#
# Indices 1 2 3 4 5 6 
#
# 1 125.3051 49.7003 5.6476 9.7433 -6.9786 22.6838
# 2 49.7003 106.9218 12.0300 0.1741 -6.9544 15.0452
# 3 5.6476 12.0300 47.5376 5.2251 4.7914 1.4309
# 4 9.7433 0.1741 5.2251 27.1781 -1.1767 -6.4458
# 5 -6.9786 -6.9544 4.7914 -1.1767 31.8489 4.5133
# 6 22.6838 15.0452 1.4309 -6.4458 4.5133 33.8411
#
#
#
# Elastic Compliance Matrix: (Units=1/GPa)
#
#
# Indices 1 2 3 4 5 6 
#
# 1 0.011541 -0.004208 0.000311 -0.005798 0.002384 -0.007301
# 2 -0.004208 0.012158 -0.002927 0.001508 0.002586 -0.002519
# 3 0.000311 -0.002927 0.022676 -0.004680 -0.004126 -0.000207
# 4 -0.005798 0.001508 -0.004680 0.042489 -0.000304 0.011548
# 5 0.002384 0.002586 -0.004126 -0.000304 0.034112 -0.007180
# 6 -0.007301 -0.002519 -0.000207 0.011548 -0.007180 0.038729
#
#
# Mechanical properties :
#
#
# Convention : Reuss Voigt Hill
#
# Bulk Modulus (GPa) = 30.55671 46.05783 38.30727
# Shear Modulus (GPa) = 26.84383 32.73273 29.78828
#
# Velocity S-wave (km/s) = 3.56834 3.94035 3.75895
# Velocity P-wave (km/s) = 5.60996 6.52294 6.08360
#
# Compressibility (1/GPa) = 0.03272604
#
# Stress axis : x y z
#
# Youngs Moduli (GPa) = 86.65050 82.25067 44.09870
#
# Poissons Ratio (x) = 0.34608 -0.01369
# Poissons Ratio (y) = 0.36459 0.12909
# Poissons Ratio (z) = -0.02691 0.24078
#
# Static dielectric constant tensor:
#      x y z
#    x 1.760520 0.002680 -0.004950 
#    y 0.002680 1.813280 0.007330 
#    z -0.004950 0.007330 1.822570 
# 
# From -- ./inp_files/283035.got.cif
#   From: 2010.05.17/outbox.cif.g08.bks.cpg/sg2_142_cif.got.tgz:283035.got - 2010.06.03 11:33:40.
