data_PCOD9003436
_publ_section_title
;
Structure prediction by ZEFSAII (Michael W. Deem and Ramdas Pophale) SiO2 
 PCOD9003436
Probable space group: P -1
;
_chemical_formula_sum "Si O2"
_cell_formula_units_Z 16
_cell_length_a 19.732237
_cell_length_b 17.376596
_cell_length_c 7.266349
_cell_angle_alpha 61.220652
_cell_angle_beta 126.757124
_cell_angle_gamma 160.830677
_cell_volume 621.301674
_symmetry_space_group_name_H-M "P -1"
_symmetry_group_IT_number 2
_symmetry_cell_setting 'triclinic'
loop_
_space_group_symop_operation_xyz
x,y,z
-x,-y,-z
loop_
_atom_site_type_symbol
_atom_site_label
_atom_site_fract_x
_atom_site_fract_y
_atom_site_fract_z
Si Si1 0.744997 0.362649 0.715207
Si Si2 0.569295 0.612479 0.676201
Si Si3 0.941385 0.842502 0.641628
Si Si4 0.769407 0.630654 0.002873
Si Si5 0.134114 0.943838 0.503001
Si Si6 0.287885 0.606327 0.958899
Si Si7 0.271223 0.848684 0.942879
Si Si8 0.751898 0.103192 0.508498
O O1 0.010347 0.642487 0.757996
O O2 0.482775 0.130995 0.474909
O O3 0.742271 0.403061 0.865036
O O4 0.748299 0.260216 0.853711
O O5 0.500000 0.500000 0.500000
O O6 0.331778 0.431852 0.553994
O O7 0.649053 0.601930 0.919522
O O8 0.773737 0.877686 0.651761
O O9 0.939710 0.824647 0.880620
O O10 0.106057 0.937736 0.679804
O O11 0.000000 0.000000 0.500000
O O12 0.635019 0.419455 0.928314
O O13 0.874744 0.685350 0.288139
O O14 0.269535 0.998402 0.553716
O O15 0.017530 0.360487 0.725943
O O16 0.502828 0.877696 0.932640
O O17 0.293028 0.857185 0.746233
#
# Coordination Sequence:
#
# PCOD9003436 Si02
#       8
#     2   2   2   2   2   2   2   2
#     4  10  23  42  65  96 127 169 209 264 322 397
#     4  10  21  37  60  87 120 167 212 259 319 383
#     4  11  23  38  62  88 119 172 213 258 331 376
#     4  10  23  42  60  91 128 163 219 272 318 385
#     4  11  23  42  60  90 129 164 212 273 322 383
#     4  10  22  41  63  95 128 170 208 270 325 383
#     4  10  23  41  67  94 128 168 212 258 329 393
#     4  10  23  39  65  93 130 168 211 265 327 383
#
# _framework density 25.752386000000001
#
# number of rings (size 3 to 8) (size 9 to 14) (size 15 to 20)
#    0.000    1.750    2.500    1.875    8.750    3.500 
#    0.000    5.000    0.000    0.000    0.000    0.000 
#    0.000    0.000    0.000    0.000    0.000    0.000 
#
# Total GULP energy -89183.943877 kJ/mol
# GULP energy per Si atom -5573.996492 kJ/mol
# Density = 2.569377 g / cm^3
# Si number density = 25.752386 Si / 1000 Ang^3
#
#
#
# Elastic Constant Matrix: (Units=GPa)
#
#
# Indices 1 2 3 4 5 6 
#
# 1 88.6389 48.9716 27.8258 5.3809 8.2813 14.8593
# 2 48.9716 130.0166 9.8423 32.1325 6.9435 1.8686
# 3 27.8258 9.8423 75.0699 20.6848 5.9004 11.9214
# 4 5.3809 32.1325 20.6848 39.6462 6.3665 17.0100
# 5 8.2813 6.9435 5.9004 6.3665 41.8737 3.5311
# 6 14.8593 1.8686 11.9214 17.0100 3.5311 43.0098
#
#
#
# Elastic Compliance Matrix: (Units=1/GPa)
#
#
# Indices 1 2 3 4 5 6 
#
# 1 0.020939 -0.010680 -0.008717 0.015120 -0.002587 -0.010122
# 2 -0.010680 0.015516 0.005397 -0.017690 0.000756 0.008454
# 3 -0.008717 0.005397 0.019377 -0.014688 0.000061 0.003210
# 4 0.015120 -0.017690 -0.014688 0.055288 -0.004549 -0.021876
# 5 -0.002587 0.000756 0.000061 -0.004549 0.024900 0.000599
# 6 -0.010122 0.008454 0.003210 -0.021876 0.000599 0.034093
#
#
# Mechanical properties :
#
#
# Convention : Reuss Voigt Hill
#
# Bulk Modulus (GPa) = 35.93040 51.88942 43.90991
# Shear Modulus (GPa) = 24.10914 38.71166 31.41040
#
# Velocity S-wave (km/s) = 3.06304 3.88135 3.49622
# Velocity P-wave (km/s) = 5.14706 6.34662 5.77805
#
# Compressibility (1/GPa) = 0.02783158
#
# Stress axis : x y z
#
# Youngs Moduli (GPa) = 47.75678 64.45120 51.60818
#
# Poissons Ratio (x) = 0.68836 0.44985
# Poissons Ratio (y) = 0.51006 -0.27852
# Poissons Ratio (z) = 0.41628 -0.34784
#
# Static dielectric constant tensor:
#      x y z
#    x 2.146160 -0.044460 0.181090 
#    y -0.044460 2.207420 -0.009160 
#    z 0.181090 -0.009160 2.238870 
# 
# From -- ./inp_files/337620.got.cif
#   From: 2010.05.17/outbox.cif.g08.bks.cpg/sg2_169_cif.got.tgz:337620.got - 2010.06.03 11:33:40.
