data_PCOD9003961
_publ_section_title
;
Structure prediction by ZEFSAII (Michael W. Deem and Ramdas Pophale) SiO2 
 PCOD9003961
Probable space group: P -1
;
_chemical_formula_sum "Si O2"
_cell_formula_units_Z 16
_cell_length_a 22.990310
_cell_length_b 8.757228
_cell_length_c 8.953981
_cell_angle_alpha 146.855275
_cell_angle_beta 127.412780
_cell_angle_gamma 63.973727
_cell_volume 772.665674
_symmetry_space_group_name_H-M "P -1"
_symmetry_group_IT_number 2
_symmetry_cell_setting 'triclinic'
loop_
_space_group_symop_operation_xyz
x,y,z
-x,-y,-z
loop_
_atom_site_type_symbol
_atom_site_label
_atom_site_fract_x
_atom_site_fract_y
_atom_site_fract_z
Si Si1 0.115055 0.225441 0.892263
Si Si2 0.794699 0.188093 0.478912
Si Si3 0.186292 0.821000 0.142617
Si Si4 0.346994 0.722268 0.838904
Si Si5 0.089695 0.288562 0.406693
Si Si6 0.507400 0.818532 0.215228
Si Si7 0.016134 0.737546 0.504681
Si Si8 0.331884 0.081705 0.404719
O O1 0.046450 0.306974 0.757188
O O2 0.168079 0.067281 0.740288
O O3 0.078661 0.992444 0.761566
O O4 0.159842 0.513013 0.262352
O O5 0.800912 0.198958 0.676472
O O6 0.711314 0.183332 0.289057
O O7 0.124694 0.022384 0.192559
O O8 0.260094 0.970348 0.298171
O O9 0.153957 0.518676 0.772476
O O10 0.331944 0.387558 0.578258
O O11 0.433028 0.821011 0.005921
O O12 0.335637 0.869154 0.099486
O O13 0.052226 0.460618 0.365407
O O14 0.028135 0.201210 0.366115
O O15 0.592437 0.902926 0.366824
O O16 0.500000 0.000000 0.500000
O O17 0.500000 0.500000 0.000000
#
# Coordination Sequence:
#
# PCOD9003961 Si02
#       8
#     2   2   2   2   2   2   2   2
#     4  11  25  41  63  84 118 152 202 245 304 344
#     4  12  24  41  58  90 124 157 190 248 299 351
#     4  12  24  41  58  90 124 157 190 248 299 351
#     4  10  21  37  63  90 118 156 198 239 285 348
#     4  11  25  41  63  84 118 152 202 245 304 344
#     4   8  16  34  57  88 119 148 192 241 281 332
#     4  10  24  44  62  86 110 158 200 254 294 358
#     4  10  21  37  63  90 118 156 198 239 285 348
#
# _framework density 20.707532
#
# number of rings (size 3 to 8) (size 9 to 14) (size 15 to 20)
#    0.000    1.500    2.500    1.500    5.250    6.000 
#    0.000    0.625    0.000    0.000    0.000   14.000 
#    0.000    0.000    0.000    0.000    0.000    0.000 
#
# Total GULP energy -89487.668384 kJ/mol
# GULP energy per Si atom -5592.979274 kJ/mol
# Density = 2.066040 g / cm^3
# Si number density = 20.707532 Si / 1000 Ang^3
#
#
#
# Elastic Constant Matrix: (Units=GPa)
#
#
# Indices 1 2 3 4 5 6 
#
# 1 58.0063 17.0257 9.4283 -7.0005 16.0968 -11.9122
# 2 17.0257 86.5119 6.3808 -25.0109 16.7660 -8.8633
# 3 9.4283 6.3808 61.0794 -0.7615 9.1451 -10.3249
# 4 -7.0005 -25.0109 -0.7615 33.2215 -11.2364 7.7723
# 5 16.0968 16.7660 9.1451 -11.2364 27.3911 -4.2636
# 6 -11.9122 -8.8633 -10.3249 7.7723 -4.2636 23.8491
#
#
#
# Elastic Compliance Matrix: (Units=1/GPa)
#
#
# Indices 1 2 3 4 5 6 
#
# 1 0.022708 -0.002073 0.000045 -0.002992 -0.011847 0.009448
# 2 -0.002073 0.015708 -0.000473 0.009837 -0.004101 0.000658
# 3 0.000045 -0.000473 0.018682 -0.003955 -0.006337 0.008090
# 4 -0.002992 0.009837 -0.003955 0.043978 0.013308 -0.011504
# 5 -0.011847 -0.004101 -0.006337 0.013308 0.052763 -0.005089
# 6 0.009448 0.000658 0.008090 -0.011504 -0.005089 0.053236
#
#
# Mechanical properties :
#
#
# Convention : Reuss Voigt Hill
#
# Bulk Modulus (GPa) = 19.19583 30.14084 24.66833
# Shear Modulus (GPa) = 21.79198 28.40985 25.10091
#
# Velocity S-wave (km/s) = 3.24754 3.70801 3.48539
# Velocity P-wave (km/s) = 4.83241 5.73756 5.30432
#
# Compressibility (1/GPa) = 0.05209466
#
# Stress axis : x y z
#
# Youngs Moduli (GPa) = 44.03829 63.66122 53.52832
#
# Poissons Ratio (x) = 0.13199 -0.00241
# Poissons Ratio (y) = 0.09131 0.02532
# Poissons Ratio (z) = -0.00198 0.03012
#
# Static dielectric constant tensor:
#      x y z
#    x 1.740940 -0.024230 0.021080 
#    y -0.024230 1.748390 -0.033420 
#    z 0.021080 -0.033420 1.758700 
# 
# From -- ./inp_files/343981.got.cif
#   From: 2010.05.17/outbox.cif.g08.bks.cpg/sg2_172_cif.got.tgz:343981.got - 2010.06.03 11:33:40.
