data_PCOD9003301
_publ_section_title
;
Structure prediction by ZEFSAII (Michael W. Deem and Ramdas Pophale) SiO2 
 PCOD9003301
Probable space group: P -1
;
_chemical_formula_sum "Si O2"
_cell_formula_units_Z 16
_cell_length_a 22.387069
_cell_length_b 11.677637
_cell_length_c 9.962531
_cell_angle_alpha 55.539778
_cell_angle_beta 147.799239
_cell_angle_gamma 147.218695
_cell_volume 648.767256
_symmetry_space_group_name_H-M "P -1"
_symmetry_group_IT_number 2
_symmetry_cell_setting 'triclinic'
loop_
_space_group_symop_operation_xyz
x,y,z
-x,-y,-z
loop_
_atom_site_type_symbol
_atom_site_label
_atom_site_fract_x
_atom_site_fract_y
_atom_site_fract_z
Si Si1 0.331439 0.000835 0.491782
Si Si2 0.617584 0.338087 0.480375
Si Si3 0.812217 0.429391 0.543506
Si Si4 0.244561 0.789076 0.028729
Si Si5 0.270959 0.266258 0.466734
Si Si6 0.269827 0.517096 0.925552
Si Si7 0.812818 0.858683 0.920352
Si Si8 0.170163 0.861036 0.571178
O O1 0.247911 0.047811 0.224070
O O2 0.301059 0.829394 0.467385
O O3 0.209719 0.859235 0.494506
O O4 0.550145 0.256345 0.788835
O O5 0.768611 0.487636 0.542910
O O6 0.707979 0.321497 0.770702
O O7 0.597149 0.473409 0.403753
O O8 0.414773 0.063306 0.226660
O O9 0.721846 0.395185 0.256868
O O10 0.038843 0.624188 0.816304
O O11 0.224770 0.802500 0.823757
O O12 0.273750 0.257708 0.316626
O O13 0.290475 0.127971 0.647108
O O14 0.047875 0.084803 0.202185
O O15 0.059311 0.335534 0.713964
O O16 0.268050 0.349836 0.007225
#
# Coordination Sequence:
#
# PCOD9003301 Si02
#       8
#     2   2   2   2   2   2   2   2
#     4  11  21  36  61  86 115 150 185 234 284 332
#     4  11  23  40  59  82 115 152 191 229 279 341
#     4  11  24  39  56  85 120 150 186 232 283 335
#     4  10  23  40  58  83 113 153 194 231 277 333
#     4   9  19  38  62  83 113 151 184 234 284 329
#     4  10  21  37  59  88 115 147 189 233 283 335
#     4   9  19  37  60  87 113 143 189 235 282 330
#     4   9  21  40  58  84 115 145 190 238 282 326
#
# _framework density 24.662158000000002
#
# number of rings (size 3 to 8) (size 9 to 14) (size 15 to 20)
#    0.000    2.000    0.000    3.375    0.000    6.500 
#    0.000   11.875    0.000    0.000    0.000    0.000 
#    0.000    0.000    0.000    0.000    0.000    0.000 
#
# Total GULP energy -89761.909717 kJ/mol
# GULP energy per Si atom -5610.119357 kJ/mol
# Density = 2.460603 g / cm^3
# Si number density = 24.662158 Si / 1000 Ang^3
#
#
#
# Elastic Constant Matrix: (Units=GPa)
#
#
# Indices 1 2 3 4 5 6 
#
# 1 73.0093 22.5846 -4.2769 6.6930 8.1973 1.4029
# 2 22.5846 108.4942 13.7882 -8.2136 9.6274 -15.6340
# 3 -4.2769 13.7882 75.7602 -3.8936 17.1553 5.7009
# 4 6.6930 -8.2136 -3.8936 33.3184 1.3858 0.7458
# 5 8.1973 9.6274 17.1553 1.3858 17.3385 4.6791
# 6 1.4029 -15.6340 5.7009 0.7458 4.6791 39.1554
#
#
#
# Elastic Compliance Matrix: (Units=1/GPa)
#
#
# Indices 1 2 3 4 5 6 
#
# 1 0.016273 -0.003528 0.003410 -0.003357 -0.008459 -0.001413
# 2 -0.003528 0.011653 -0.001375 0.003514 -0.005217 0.005536
# 3 0.003410 -0.001375 0.018017 0.001877 -0.018525 -0.001116
# 4 -0.003357 0.003514 0.001877 0.031958 -0.005114 0.001252
# 5 -0.008459 -0.005217 -0.018525 -0.005114 0.085802 -0.009239
# 6 -0.001413 0.005536 -0.001116 0.001252 -0.009239 0.029043
#
#
# Mechanical properties :
#
#
# Convention : Reuss Voigt Hill
#
# Bulk Modulus (GPa) = 23.27868 35.71730 29.49799
# Shear Modulus (GPa) = 23.80385 32.97365 28.38875
#
# Velocity S-wave (km/s) = 3.11013 3.66049 3.39648
# Velocity P-wave (km/s) = 4.72829 5.69031 5.23146
#
# Compressibility (1/GPa) = 0.04295776
#
# Stress axis : x y z
#
# Youngs Moduli (GPa) = 61.45324 85.81598 55.50174
#
# Poissons Ratio (x) = 0.30275 -0.18926
# Poissons Ratio (y) = 0.21680 0.07629
# Poissons Ratio (z) = -0.20955 0.11796
#
# Static dielectric constant tensor:
#      x y z
#    x 1.933980 0.015150 0.035350 
#    y 0.015150 1.949370 0.003120 
#    z 0.035350 0.003120 1.934260 
# 
# From -- ./inp_files/476645.got.cif
#   From: 2010.05.17/outbox.cif.g08.bks.cpg/sg2_239_cif.got.tgz:476645.got - 2010.06.03 11:33:40.
