data_PCOD9003392
_publ_section_title
;
Structure prediction by ZEFSAII (Michael W. Deem and Ramdas Pophale) SiO2 
 PCOD9003392
Probable space group: P -1
;
_chemical_formula_sum "Si O2"
_cell_formula_units_Z 15
_cell_length_a 18.724193
_cell_length_b 8.789544
_cell_length_c 12.641406
_cell_angle_alpha 115.280735
_cell_angle_beta 160.247606
_cell_angle_gamma 66.138996
_cell_volume 635.750198
_symmetry_space_group_name_H-M "P -1"
_symmetry_group_IT_number 2
_symmetry_cell_setting 'triclinic'
loop_
_space_group_symop_operation_xyz
x,y,z
-x,-y,-z
loop_
_atom_site_type_symbol
_atom_site_label
_atom_site_fract_x
_atom_site_fract_y
_atom_site_fract_z
Si Si1 0.108778 0.114142 0.599079
Si Si2 0.370686 0.989692 0.426618
Si Si3 0.500000 0.500000 0.500000
Si Si4 0.965266 0.823066 0.716068
Si Si5 0.569176 0.053186 0.269759
Si Si6 0.719679 0.664182 0.656667
Si Si7 0.146290 0.678565 0.365866
Si Si8 0.948439 0.563936 0.252726
O O1 0.992881 0.112032 0.325173
O O2 0.115951 0.307365 0.706436
O O3 0.344479 0.038973 0.897508
O O4 0.000000 0.000000 0.500000
O O5 0.466270 0.907417 0.642029
O O6 0.500000 0.000000 0.500000
O O7 0.348055 0.188700 0.472956
O O8 0.149927 0.894793 0.069850
O O9 0.546868 0.600548 0.480362
O O10 0.744724 0.531686 0.885616
O O11 0.968157 0.621167 0.657110
O O12 0.737766 0.901806 0.452040
O O13 0.681192 0.207017 0.413650
O O14 0.804598 0.507827 0.662275
O O15 0.921571 0.737030 0.022115
O O16 0.119019 0.662441 0.447976
#
# Coordination Sequence:
#
# PCOD9003392 Si02
#       8
#     2   2   1   2   2   2   2   2
#     4  12  28  49  73 102 143 192 240 291 359 435
#     4  12  26  40  70 105 143 181 238 298 352 417
#     4  10  22  38  72 104 140 178 236 294 344 408
#     4  12  26  47  70 105 144 189 234 294 363 420
#     4  12  26  46  73 104 142 187 240 299 357 420
#     4  10  21  37  60 102 143 175 227 282 364 402
#     4  10  22  38  68 100 137 180 229 294 350 417
#     4  11  25  45  73 102 146 186 242 288 358 422
#
# _framework density 23.594173000000001
#
# number of rings (size 3 to 8) (size 9 to 14) (size 15 to 20)
#    0.000    0.800    1.333    5.200   14.933    0.000 
#    0.000    5.333    0.000    0.000    0.000    0.000 
#    0.000    0.000    0.000    0.000    0.000    0.000 
#
# Total GULP energy -83700.357290 kJ/mol
# GULP energy per Si atom -5580.023819 kJ/mol
# Density = 2.354047 g / cm^3
# Si number density = 23.594173 Si / 1000 Ang^3
#
#
#
# Elastic Constant Matrix: (Units=GPa)
#
#
# Indices 1 2 3 4 5 6 
#
# 1 97.5038 27.2707 1.1235 2.6272 -2.6502 23.6681
# 2 27.2707 105.5029 13.7273 -2.0688 1.6224 -14.2540
# 3 1.1235 13.7273 46.3305 5.2253 4.5555 6.9521
# 4 2.6272 -2.0688 5.2253 19.6826 7.3283 8.2533
# 5 -2.6502 1.6224 4.5555 7.3283 42.0448 0.9804
# 6 23.6681 -14.2540 6.9521 8.2533 0.9804 41.7878
#
#
#
# Elastic Compliance Matrix: (Units=1/GPa)
#
#
# Indices 1 2 3 4 5 6 
#
# 1 0.014346 -0.005492 0.002684 0.000920 0.000913 -0.010648
# 2 -0.005492 0.012643 -0.004804 0.000085 -0.000520 0.008218
# 3 0.002684 -0.004804 0.024510 -0.004163 -0.001427 -0.006381
# 4 0.000920 0.000085 -0.004163 0.060226 -0.009724 -0.011466
# 5 0.000913 -0.000520 -0.001427 -0.009724 0.025691 0.000861
# 6 -0.010648 0.008218 -0.006381 -0.011466 0.000861 0.036071
#
#
# Mechanical properties :
#
#
# Convention : Reuss Voigt Hill
#
# Bulk Modulus (GPa) = 27.56871 37.06448 32.31659
# Shear Modulus (GPa) = 24.89995 34.51743 29.70869
#
# Velocity S-wave (km/s) = 3.25213 3.82902 3.55231
# Velocity P-wave (km/s) = 5.08052 5.94069 5.52736
#
# Compressibility (1/GPa) = 0.03627301
#
# Stress axis : x y z
#
# Youngs Moduli (GPa) = 69.70613 79.09482 40.80008
#
# Poissons Ratio (x) = 0.43439 -0.10949
# Poissons Ratio (y) = 0.38283 0.19602
# Poissons Ratio (z) = -0.18706 0.38001
#
# Static dielectric constant tensor:
#      x y z
#    x 2.046370 -0.139540 0.084130 
#    y -0.139540 2.036750 -0.074630 
#    z 0.084130 -0.074630 1.881170 
# 
# From -- ./inp_files/462324.got.cif
#   From: 2010.05.17/outbox.cif.g08.bks.cpg/sg2_232_cif.got.tgz:462324.got - 2010.06.03 11:33:40.
