data_PCOD9003509
_publ_section_title
;
Structure prediction by ZEFSAII (Michael W. Deem and Ramdas Pophale) SiO2 
 PCOD9003509
Probable space group: P -1
;
_chemical_formula_sum "Si O2"
_cell_formula_units_Z 16
_cell_length_a 19.149977
_cell_length_b 14.421359
_cell_length_c 5.631963
_cell_angle_alpha 70.774585
_cell_angle_beta 130.402402
_cell_angle_gamma 143.138275
_cell_volume 646.655224
_symmetry_space_group_name_H-M "P -1"
_symmetry_group_IT_number 2
_symmetry_cell_setting 'triclinic'
loop_
_space_group_symop_operation_xyz
x,y,z
-x,-y,-z
loop_
_atom_site_type_symbol
_atom_site_label
_atom_site_fract_x
_atom_site_fract_y
_atom_site_fract_z
Si Si1 0.946498 0.624910 0.759812
Si Si2 0.375412 0.023386 0.206550
Si Si3 0.702033 0.231099 0.524669
Si Si4 0.277238 0.384643 0.634493
Si Si5 0.312781 0.315579 0.265884
Si Si6 0.614903 0.268296 0.913262
Si Si7 0.568857 0.750812 0.152636
Si Si8 0.967451 0.587966 0.322760
O O1 0.840529 0.431872 0.680642
O O2 0.843151 0.630825 0.578067
O O3 0.002919 0.678115 0.565559
O O4 0.046424 0.694841 0.163898
O O5 0.534397 0.122759 0.346308
O O6 0.452195 0.120958 0.541642
O O7 0.268440 0.837698 0.194173
O O8 0.333504 0.083733 0.920424
O O9 0.660056 0.201143 0.178897
O O10 0.253903 0.321122 0.370164
O O11 0.249921 0.290511 0.886900
O O12 0.461658 0.584793 0.891085
O O13 0.500000 0.500000 0.500000
O O14 0.316642 0.206095 0.451831
O O15 0.573195 0.316913 0.965987
O O16 0.776503 0.436795 0.996168
O O17 0.000000 0.500000 0.500000
#
# Coordination Sequence:
#
# PCOD9003509 Si02
#       8
#     2   2   2   2   2   2   2   2
#     4  11  20  36  52  70 100 132 164 197 242 286
#     4  10  17  28  46  63  94 129 170 187 230 276
#     4   9  18  28  43  69  88 127 172 190 224 284
#     4  11  19  33  46  66  92 131 168 193 229 280
#     4  10  22  28  45  67  91 126 173 192 227 272
#     4  10  18  30  46  64  97 131 164 195 238 280
#     4  10  19  29  42  65  94 128 164 196 225 278
#     4  11  21  34  51  70  92 129 169 205 244 282
#
# _framework density 24.742706999999999
#
# number of rings (size 3 to 8) (size 9 to 14) (size 15 to 20)
#    0.000    1.750    5.000    3.000    7.000    0.000 
#    0.000    0.000    0.000    0.000    0.000    0.000 
#    0.000    0.000    0.000   51.750   13.250    2.000 
#
# Total GULP energy -89180.953865 kJ/mol
# GULP energy per Si atom -5573.809617 kJ/mol
# Density = 2.468639 g / cm^3
# Si number density = 24.742707 Si / 1000 Ang^3
#
#
#
# Elastic Constant Matrix: (Units=GPa)
#
#
# Indices 1 2 3 4 5 6 
#
# 1 125.0879 3.2585 40.9735 -10.2577 -17.0158 5.9012
# 2 3.2585 64.2606 32.7014 -34.2365 3.7445 3.5057
# 3 40.9735 32.7014 133.2571 -53.6733 -6.9686 -6.1837
# 4 -10.2577 -34.2365 -53.6733 48.4637 1.6876 3.1133
# 5 -17.0158 3.7445 -6.9686 1.6876 37.0220 -8.0505
# 6 5.9012 3.5057 -6.1837 3.1133 -8.0505 14.6963
#
#
#
# Elastic Compliance Matrix: (Units=1/GPa)
#
#
# Indices 1 2 3 4 5 6 
#
# 1 0.009657 0.000633 -0.003763 -0.001542 0.002937 -0.003676
# 2 0.000633 0.028057 0.000714 0.021938 -0.006662 -0.014943
# 3 -0.003763 0.000714 0.015400 0.016382 0.001472 0.005156
# 4 -0.001542 0.021938 0.016382 0.054897 -0.004972 -0.012074
# 5 0.002937 -0.006662 0.001472 -0.004972 0.034047 0.020733
# 6 -0.003676 -0.014943 0.005156 -0.012074 0.020733 0.089170
#
#
# Mechanical properties :
#
#
# Convention : Reuss Voigt Hill
#
# Bulk Modulus (GPa) = 20.71098 52.94140 36.82619
# Shear Modulus (GPa) = 19.82918 36.41455 28.12186
#
# Velocity S-wave (km/s) = 2.83400 3.84047 3.37497
# Velocity P-wave (km/s) = 4.37006 6.41162 5.48663
#
# Compressibility (1/GPa) = 0.04828357
#
# Stress axis : x y z
#
# Youngs Moduli (GPa) = 103.55266 35.64127 64.93345
#
# Poissons Ratio (x) = -0.02255 0.24433
# Poissons Ratio (y) = -0.06553 -0.04639
# Poissons Ratio (z) = 0.38965 -0.02546
#
# Static dielectric constant tensor:
#      x y z
#    x 2.117420 -0.020290 -0.137230 
#    y -0.020290 2.014600 -0.061260 
#    z -0.137230 -0.061260 2.189200 
# 
# From -- ./inp_files/110285.got.cif
#   From: 2010.05.17/outbox.cif.g08.bks.cpg/sg2_56_cif.got.tgz:110285.got - 2010.06.03 11:33:40.
