data_PCOD9003713
_publ_section_title
;
Structure prediction by ZEFSAII (Michael W. Deem and Ramdas Pophale) SiO2 
 PCOD9003713
Probable space group: P -1
;
_chemical_formula_sum "Si O2"
_cell_formula_units_Z 16
_cell_length_a 11.531718
_cell_length_b 17.607933
_cell_length_c 6.646043
_cell_angle_alpha 58.346696
_cell_angle_beta 43.437783
_cell_angle_gamma 44.792424
_cell_volume 653.586425
_symmetry_space_group_name_H-M "P -1"
_symmetry_group_IT_number 2
_symmetry_cell_setting 'triclinic'
loop_
_space_group_symop_operation_xyz
x,y,z
-x,-y,-z
loop_
_atom_site_type_symbol
_atom_site_label
_atom_site_fract_x
_atom_site_fract_y
_atom_site_fract_z
Si Si1 0.642316 0.445535 0.203314
Si Si2 0.765367 0.226957 0.355137
Si Si3 0.223808 0.918401 0.747997
Si Si4 0.737355 0.495805 0.644569
Si Si5 0.081465 0.260830 0.447354
Si Si6 0.358428 0.150780 0.634021
Si Si7 0.692446 0.678106 0.212432
Si Si8 0.837791 0.920568 0.718792
O O1 0.500000 0.500000 0.500000
O O2 0.806855 0.319769 0.208662
O O3 0.491434 0.444983 0.232852
O O4 0.731928 0.501939 0.886754
O O5 0.764303 0.188629 0.182686
O O6 0.534183 0.278321 0.644126
O O7 0.948143 0.123963 0.380839
O O8 0.411275 0.901418 0.664153
O O9 0.248300 0.968796 0.442191
O O10 0.000000 0.000000 0.000000
O O11 0.804707 0.561478 0.340235
O O12 0.860028 0.369283 0.614134
O O13 0.196734 0.202173 0.588270
O O14 0.106370 0.169397 0.396400
O O15 0.191713 0.310350 0.129984
O O16 0.329161 0.242710 0.693594
O O17 0.315281 0.076892 0.928747
#
# Coordination Sequence:
#
# PCOD9003713 Si02
#       8
#     2   2   2   2   2   2   2   2
#     4  10  21  38  63  96 133 174 211 265 326 387
#     4  10  22  44  66  94 136 167 219 273 321 381
#     4  11  26  44  69  98 125 174 225 274 333 384
#     4  10  21  37  61  95 135 166 220 265 318 390
#     4  11  23  40  68  96 132 175 216 265 334 394
#     4  10  24  45  64  92 135 172 217 273 331 392
#     4   9  22  41  63  96 131 175 215 272 322 388
#     4  11  24  43  68  95 132 173 219 270 332 392
#
# _framework density 24.480311
#
# number of rings (size 3 to 8) (size 9 to 14) (size 15 to 20)
#    0.000    1.750    0.000    2.625    5.250    4.000 
#    4.500    0.000    0.000    0.000    0.000    0.000 
#    0.000    0.000    0.000    0.000    0.000    0.000 
#
# Total GULP energy -89395.294163 kJ/mol
# GULP energy per Si atom -5587.205885 kJ/mol
# Density = 2.442459 g / cm^3
# Si number density = 24.480311 Si / 1000 Ang^3
#
#
#
# Elastic Constant Matrix: (Units=GPa)
#
#
# Indices 1 2 3 4 5 6 
#
# 1 72.0235 9.7551 7.1676 1.6307 -7.9617 -11.7310
# 2 9.7551 82.6129 17.4195 1.2093 -6.5549 3.2324
# 3 7.1676 17.4195 106.6540 -1.8565 0.0213 6.8281
# 4 1.6307 1.2093 -1.8565 46.1093 -7.0965 -5.0133
# 5 -7.9617 -6.5549 0.0213 -7.0965 23.3774 3.4127
# 6 -11.7310 3.2324 6.8281 -5.0133 3.4127 32.8390
#
#
#
# Elastic Compliance Matrix: (Units=1/GPa)
#
#
# Indices 1 2 3 4 5 6 
#
# 1 0.015572 -0.001486 -0.001152 0.000711 0.004284 0.005612
# 2 -0.001486 0.013023 -0.001915 -0.000036 0.003395 -0.001773
# 3 -0.001152 -0.001915 0.009910 0.000163 -0.000567 -0.002199
# 4 0.000711 -0.000036 0.000163 0.023044 0.006784 0.003037
# 5 0.004284 0.003395 -0.000567 0.006784 0.047627 -0.002599
# 6 0.005612 -0.001773 -0.002199 0.003037 -0.002599 0.033822
#
#
# Mechanical properties :
#
#
# Convention : Reuss Voigt Hill
#
# Bulk Modulus (GPa) = 34.01358 36.66387 35.33872
# Shear Modulus (GPa) = 30.88273 35.59503 33.23888
#
# Velocity S-wave (km/s) = 3.55566 3.81731 3.68880
# Velocity P-wave (km/s) = 5.54810 5.86843 5.71051
#
# Compressibility (1/GPa) = 0.02940002
#
# Stress axis : x y z
#
# Youngs Moduli (GPa) = 64.21881 76.78614 100.90778
#
# Poissons Ratio (x) = 0.11410 0.11620
# Poissons Ratio (y) = 0.09543 0.19324
# Poissons Ratio (z) = 0.07395 0.14704
#
# Static dielectric constant tensor:
#      x y z
#    x 1.947230 0.038710 -0.045560 
#    y 0.038710 1.964060 -0.035830 
#    z -0.045560 -0.035830 2.056400 
# 
# From -- ./inp_files/83014.got.cif
#   From: 2010.05.17/outbox.cif.g08.bks.cpg/sg2_42_cif.got.tgz:83014.got - 2010.06.03 11:33:40.
