data_PCOD9003800
_publ_section_title
;
Structure prediction by ZEFSAII (Michael W. Deem and Ramdas Pophale) SiO2 
 PCOD9003800
Probable space group: P -1
;
_chemical_formula_sum "Si O2"
_cell_formula_units_Z 14
_cell_length_a 8.947212
_cell_length_b 9.263583
_cell_length_c 15.406990
_cell_angle_alpha 45.653245
_cell_angle_beta 127.484827
_cell_angle_gamma 98.867002
_cell_volume 636.498440
_symmetry_space_group_name_H-M "P -1"
_symmetry_group_IT_number 2
_symmetry_cell_setting 'triclinic'
loop_
_space_group_symop_operation_xyz
x,y,z
-x,-y,-z
loop_
_atom_site_type_symbol
_atom_site_label
_atom_site_fract_x
_atom_site_fract_y
_atom_site_fract_z
Si Si1 0.640735 0.404231 0.349919
Si Si2 0.075436 0.332313 0.514386
Si Si3 0.198544 0.043125 0.125693
Si Si4 0.684241 0.982079 0.637869
Si Si5 0.479990 0.083056 0.857890
Si Si6 0.204679 0.477809 0.176403
Si Si7 0.728675 0.448080 0.639183
O O1 0.561057 0.653697 0.260875
O O2 0.417868 0.437516 0.215355
O O3 0.856376 0.342139 0.398504
O O4 0.732078 0.184823 0.539379
O O5 0.274139 0.105656 0.721359
O O6 0.160665 0.447324 0.426889
O O7 0.000000 0.500000 0.500000
O O8 0.358391 0.995178 0.284356
O O9 0.313587 0.053301 0.073428
O O10 0.151088 0.828472 0.194352
O O11 0.990416 0.269440 0.988679
O O12 0.857974 0.715823 0.791982
O O13 0.500000 0.000000 0.500000
O O14 0.500000 0.000000 0.000000
O O15 0.291639 0.440105 0.321600
O O16 0.500000 0.500000 0.500000
#
# Coordination Sequence:
#
# PCOD9003800 Si02
#       7
#     2   2   2   2   2   2   2
#     4  10  22  42  63  94 127 177 213 270 324 385
#     4  10  21  37  62  90 134 168 211 266 325 384
#     4  12  23  40  69 101 132 166 221 278 330 384
#     4  10  23  44  69  92 127 179 228 266 316 400
#     4  11  24  38  63 101 136 165 211 280 341 380
#     4  11  24  40  66  99 131 170 219 274 327 386
#     4  12  21  40  68 101 124 170 228 266 318 393
#
# _framework density 21.995342000000001
#
# number of rings (size 3 to 8) (size 9 to 14) (size 15 to 20)
#    0.000    1.143    2.857    5.143    4.000    1.143 
#    0.000    0.714    0.000    4.286    0.000    0.000 
#    0.000    0.000    0.000    0.000    0.000    0.000 
#
# Total GULP energy -78019.983530 kJ/mol
# GULP energy per Si atom -5572.855966 kJ/mol
# Density = 2.194528 g / cm^3
# Si number density = 21.995342 Si / 1000 Ang^3
#
#
#
# Elastic Constant Matrix: (Units=GPa)
#
#
# Indices 1 2 3 4 5 6 
#
# 1 162.3616 29.3316 64.0496 6.1972 1.1264 -3.2031
# 2 29.3316 105.2289 34.4352 -9.9549 -13.6373 -10.5633
# 3 64.0496 34.4352 105.6327 -13.2930 7.8805 -2.3227
# 4 6.1972 -9.9549 -13.2930 47.3240 -3.2103 -4.5047
# 5 1.1264 -13.6373 7.8805 -3.2103 40.2574 4.5305
# 6 -3.2031 -10.5633 -2.3227 -4.5047 4.5305 15.5619
#
#
#
# Elastic Compliance Matrix: (Units=1/GPa)
#
#
# Indices 1 2 3 4 5 6 
#
# 1 0.008485 -0.000938 -0.005228 -0.002811 0.000309 -0.000574
# 2 -0.000938 0.012385 -0.003275 0.002791 0.004265 0.007291
# 3 -0.005228 -0.003275 0.014490 0.003921 -0.003605 0.001048
# 4 -0.002811 0.002791 0.003921 0.024081 0.001218 0.008517
# 5 0.000309 0.004265 -0.003605 0.001218 0.027674 -0.005283
# 6 -0.000574 0.007291 0.001048 0.008517 -0.005283 0.073251
#
#
# Mechanical properties :
#
#
# Convention : Reuss Voigt Hill
#
# Bulk Modulus (GPa) = 60.69052 69.87290 65.28171
# Shear Modulus (GPa) = 27.06496 36.98911 32.02703
#
# Velocity S-wave (km/s) = 3.51163 4.10528 3.82000
# Velocity P-wave (km/s) = 6.64036 7.36934 7.01433
#
# Compressibility (1/GPa) = 0.01647704
#
# Stress axis : x y z
#
# Youngs Moduli (GPa) = 117.85731 80.74265 69.01222
#
# Poissons Ratio (x) = 0.07570 0.36083
# Poissons Ratio (y) = 0.11050 0.22605
# Poissons Ratio (z) = 0.61621 0.26447
#
# Static dielectric constant tensor:
#      x y z
#    x 1.927910 0.061830 0.075040 
#    y 0.061830 1.840900 0.006320 
#    z 0.075040 0.006320 2.015480 
# 
# From -- ./inp_files/177641.got.cif
#   From: 2010.05.17/outbox.cif.g08.bks.cpg/sg2_89_cif.got.tgz:177641.got - 2010.06.03 11:33:40.
