data_PCOD9003092
_publ_section_title
;
Structure prediction by ZEFSAII (Michael W. Deem and Ramdas Pophale) SiO2 
 PCOD9003092
Probable space group: P -1
;
_chemical_formula_sum "Si O2"
_cell_formula_units_Z 16
_cell_length_a 11.298725
_cell_length_b 21.351324
_cell_length_c 5.088243
_cell_angle_alpha 87.706135
_cell_angle_beta 106.876659
_cell_angle_gamma 140.681692
_cell_volume 708.960790
_symmetry_space_group_name_H-M "P -1"
_symmetry_group_IT_number 2
_symmetry_cell_setting 'triclinic'
loop_
_space_group_symop_operation_xyz
x,y,z
-x,-y,-z
loop_
_atom_site_type_symbol
_atom_site_label
_atom_site_fract_x
_atom_site_fract_y
_atom_site_fract_z
Si Si1 0.386424 0.596085 0.370322
Si Si2 0.454169 0.709569 0.900763
Si Si3 0.880114 0.106486 0.103619
Si Si4 0.722728 0.101146 0.508642
Si Si5 0.859688 0.955296 0.167908
Si Si6 0.977863 0.420548 0.397126
Si Si7 0.244035 0.338782 0.390872
Si Si8 0.941381 0.668930 0.228505
O O1 0.441539 0.669571 0.618391
O O2 0.147179 0.484080 0.269157
O O3 0.523987 0.589885 0.500407
O O4 0.433827 0.647070 0.115338
O O5 0.260169 0.678171 0.816042
O O6 0.662059 0.831658 0.049603
O O7 0.748366 0.097057 0.218261
O O8 0.110498 0.220288 0.304793
O O9 0.808679 0.008043 0.130084
O O10 0.857908 0.109847 0.778589
O O11 0.827916 0.210027 0.619750
O O12 0.500000 0.000000 0.500000
O O13 0.000000 0.000000 0.500000
O O14 0.000000 0.000000 0.000000
O O15 0.041232 0.395463 0.659534
O O16 0.000000 0.500000 0.500000
O O17 0.192045 0.349208 0.632613
O O18 0.154817 0.347920 0.105259
#
# Coordination Sequence:
#
# PCOD9003092 Si02
#       8
#     2   2   2   2   2   2   2   2
#     4  11  23  43  69  92 130 176 221 277 330 382
#     4  11  24  42  66  97 133 177 220 270 328 392
#     4  10  21  37  57  89 124 163 204 261 315 381
#     4  10  21  38  60  87 125 164 207 257 320 381
#     4  12  24  40  64  98 133 172 219 265 324 395
#     4  10  25  46  67  95 134 174 223 271 329 393
#     4  10  21  40  64  94 127 164 215 271 327 382
#     4  10  23  40  64  96 127 167 216 270 325 390
#
# _framework density 22.568245999999998
#
# number of rings (size 3 to 8) (size 9 to 14) (size 15 to 20)
#    0.000    1.500    0.000    4.500    1.750    7.000 
#    2.250    0.000    0.000    0.000    0.000    0.000 
#    0.000    0.000    0.000    0.000    0.000    0.000 
#
# Total GULP energy -89492.354198 kJ/mol
# GULP energy per Si atom -5593.272137 kJ/mol
# Density = 2.251688 g / cm^3
# Si number density = 22.568246 Si / 1000 Ang^3
#
#
#
# Elastic Constant Matrix: (Units=GPa)
#
#
# Indices 1 2 3 4 5 6 
#
# 1 70.5377 43.7527 11.7531 13.3956 7.9737 14.1860
# 2 43.7527 124.2773 24.8528 3.3241 6.5446 16.2030
# 3 11.7531 24.8528 84.7796 -3.1985 -12.9474 3.9894
# 4 13.3956 3.3241 -3.1985 37.5632 -1.8000 11.9925
# 5 7.9737 6.5446 -12.9474 -1.8000 33.1137 -2.1629
# 6 14.1860 16.2030 3.9894 11.9925 -2.1629 44.7142
#
#
#
# Elastic Compliance Matrix: (Units=1/GPa)
#
#
# Indices 1 2 3 4 5 6 
#
# 1 0.020586 -0.006069 -0.001958 -0.006351 -0.005045 -0.002698
# 2 -0.006069 0.011040 -0.002489 0.001651 -0.001760 -0.002381
# 3 -0.001958 -0.002489 0.013887 0.002430 0.006522 -0.000052
# 4 -0.006351 0.001651 0.002430 0.031360 0.003398 -0.007047
# 5 -0.005045 -0.001760 0.006522 0.003398 0.034654 0.002421
# 6 -0.002698 -0.002381 -0.000052 -0.007047 0.002421 0.026095
#
#
# Mechanical properties :
#
#
# Convention : Reuss Voigt Hill
#
# Bulk Modulus (GPa) = 40.84861 48.92353 44.88607
# Shear Modulus (GPa) = 29.97341 36.36061 33.16701
#
# Velocity S-wave (km/s) = 3.64830 4.01826 3.83774
# Velocity P-wave (km/s) = 5.99050 6.57675 6.29046
#
# Compressibility (1/GPa) = 0.02448063
#
# Stress axis : x y z
#
# Youngs Moduli (GPa) = 48.57579 90.58135 72.01185
#
# Poissons Ratio (x) = 0.54971 0.14100
# Poissons Ratio (y) = 0.29479 0.17926
# Poissons Ratio (z) = 0.09511 0.22549
#
# Static dielectric constant tensor:
#      x y z
#    x 1.992340 0.024730 0.165810 
#    y 0.024730 1.889980 0.061310 
#    z 0.165810 0.061310 1.978760 
# 
# From -- ./inp_files/82571.got.cif
#   From: 2010.05.17/outbox.cif.g08.bks.cpg/sg2_42_cif.got.tgz:82571.got - 2010.06.03 11:33:40.
