data_PCOD9003836
_publ_section_title
;
Structure prediction by ZEFSAII (Michael W. Deem and Ramdas Pophale) SiO2 
 PCOD9003836
Probable space group: P -1
;
_chemical_formula_sum "Si O2"
_cell_formula_units_Z 14
_cell_length_a 7.984219
_cell_length_b 11.592754
_cell_length_c 7.090892
_cell_angle_alpha 80.178748
_cell_angle_beta 99.507539
_cell_angle_gamma 67.707066
_cell_volume 579.036279
_symmetry_space_group_name_H-M "P -1"
_symmetry_group_IT_number 2
_symmetry_cell_setting 'triclinic'
loop_
_space_group_symop_operation_xyz
x,y,z
-x,-y,-z
loop_
_atom_site_type_symbol
_atom_site_label
_atom_site_fract_x
_atom_site_fract_y
_atom_site_fract_z
Si Si1 0.301449 0.083569 0.660157
Si Si2 0.982803 0.732389 0.686982
Si Si3 0.252568 0.831422 0.218009
Si Si4 0.170158 0.444649 0.198342
Si Si5 0.334559 0.618145 0.032065
Si Si6 0.837691 0.883024 0.989810
Si Si7 0.524758 0.190563 0.388957
O O1 0.095442 0.153700 0.508778
O O2 0.286162 0.127563 0.859739
O O3 0.418449 0.136960 0.535678
O O4 0.377663 0.929671 0.699605
O O5 0.927137 0.615378 0.651842
O O6 0.866573 0.792738 0.841683
O O7 0.190653 0.684747 0.815908
O O8 0.379445 0.722309 0.125084
O O9 0.324486 0.789957 0.453960
O O10 0.042217 0.852301 0.121223
O O11 0.248263 0.971049 0.140024
O O12 0.232606 0.561783 0.182719
O O13 0.372036 0.322878 0.239195
O O14 0.000000 0.500000 0.000000
O O15 0.500000 0.500000 0.000000
#
# Coordination Sequence:
#
# PCOD9003836 Si02
#       7
#     2   2   2   2   2   2   2
#     4  10  21  37  62  93 118 155 197 250 310 349
#     4   9  19  42  62  87 121 150 207 247 294 361
#     4  10  22  39  56  90 129 152 200 246 294 367
#     4   9  20  39  60  78 117 165 193 241 294 345
#     4  10  22  37  58  86 119 166 200 239 294 354
#     4  10  21  38  62  90 126 159 185 250 315 349
#     4  10  21  38  59  93 120 148 207 254 289 362
#
# _framework density 24.178107000000001
#
# number of rings (size 3 to 8) (size 9 to 14) (size 15 to 20)
#    0.000    2.286    1.429    0.000    2.000    4.000 
#    0.000    2.857    0.000   18.857    0.000    0.000 
#    0.000    0.000    0.000    0.000    0.000    0.000 
#
# Total GULP energy -78113.475810 kJ/mol
# GULP energy per Si atom -5579.533986 kJ/mol
# Density = 2.412308 g / cm^3
# Si number density = 24.178107 Si / 1000 Ang^3
#
#
#
# Elastic Constant Matrix: (Units=GPa)
#
#
# Indices 1 2 3 4 5 6 
#
# 1 41.1015 20.1997 31.7888 2.1630 15.3902 -3.3265
# 2 20.1997 122.3070 51.3358 -26.6579 8.7539 -12.5713
# 3 31.7888 51.3358 102.5252 -15.8374 14.0806 -15.5915
# 4 2.1630 -26.6579 -15.8374 42.4140 -11.2577 2.1445
# 5 15.3902 8.7539 14.0806 -11.2577 39.9420 -4.9528
# 6 -3.3265 -12.5713 -15.5915 2.1445 -4.9528 31.7986
#
#
#
# Elastic Compliance Matrix: (Units=1/GPa)
#
#
# Indices 1 2 3 4 5 6 
#
# 1 0.040971 -0.004222 -0.011140 -0.012677 -0.015045 -0.004334
# 2 -0.004222 0.011962 -0.003581 0.006943 0.002530 0.002457
# 3 -0.011140 -0.003581 0.016331 0.004476 0.001241 0.005317
# 4 -0.012677 0.006943 0.004476 0.033157 0.011524 0.003172
# 5 -0.015045 0.002530 0.001241 0.011524 0.033647 0.004498
# 6 -0.004334 0.002457 0.005317 0.003172 0.004498 0.035060
#
#
# Mechanical properties :
#
#
# Convention : Reuss Voigt Hill
#
# Bulk Modulus (GPa) = 31.87251 52.50916 42.19084
# Shear Modulus (GPa) = 22.78177 33.67155 28.22666
#
# Velocity S-wave (km/s) = 3.07294 3.73587 3.42050
# Velocity P-wave (km/s) = 5.07953 6.35403 5.75219
#
# Compressibility (1/GPa) = 0.03137500
#
# Stress axis : x y z
#
# Youngs Moduli (GPa) = 24.40743 83.60146 61.23466
#
# Poissons Ratio (x) = 0.35300 0.68218
# Poissons Ratio (y) = 0.10306 0.21930
# Poissons Ratio (z) = 0.27191 0.29940
#
# Static dielectric constant tensor:
#      x y z
#    x 2.029080 -0.011760 0.005150 
#    y -0.011760 1.925110 -0.027020 
#    z 0.005150 -0.027020 1.896670 
# 
# From -- ./inp_files/169709.got.cif
#   From: 2010.05.17/outbox.cif.g08.bks.cpg/sg2_85_cif.got.tgz:169709.got - 2010.06.03 11:33:40.
