data_PCOD9003329
_publ_section_title
;
Structure prediction by ZEFSAII (Michael W. Deem and Ramdas Pophale) SiO2 
 PCOD9003329
Probable space group: P -1
;
_chemical_formula_sum "Si O2"
_cell_formula_units_Z 16
_cell_length_a 10.817399
_cell_length_b 14.555143
_cell_length_c 8.600940
_cell_angle_alpha 108.320620
_cell_angle_beta 114.167507
_cell_angle_gamma 34.397182
_cell_volume 697.249990
_symmetry_space_group_name_H-M "P -1"
_symmetry_group_IT_number 2
_symmetry_cell_setting 'triclinic'
loop_
_space_group_symop_operation_xyz
x,y,z
-x,-y,-z
loop_
_atom_site_type_symbol
_atom_site_label
_atom_site_fract_x
_atom_site_fract_y
_atom_site_fract_z
Si Si1 0.321355 0.514191 0.426117
Si Si2 0.455614 0.408344 0.778111
Si Si3 0.192014 0.086917 0.964959
Si Si4 0.306723 0.909397 0.240746
Si Si5 0.220457 0.312293 0.471601
Si Si6 0.530816 0.887917 0.782530
Si Si7 0.702743 0.460008 0.910314
Si Si8 0.854190 0.842764 0.499288
O O1 0.500000 0.500000 0.500000
O O2 0.375078 0.429299 0.571985
O O3 0.322841 0.468486 0.228257
O O4 0.069933 0.700440 0.427564
O O5 0.678825 0.214436 0.818803
O O6 0.499953 0.497586 0.837196
O O7 0.303969 0.481504 0.895638
O O8 0.308786 0.125795 0.061930
O O9 0.235759 0.997339 0.090335
O O10 0.929142 0.264901 0.906482
O O11 0.339805 0.954050 0.832356
O O12 0.567650 0.787847 0.357388
O O13 0.150792 0.049983 0.364944
O O14 0.310079 0.273126 0.321700
O O15 0.155543 0.236470 0.420637
O O16 0.000000 0.500000 0.500000
O O17 0.375493 0.032033 0.651873
#
# Coordination Sequence:
#
# PCOD9003329 Si02
#       8
#     2   2   2   2   2   2   2   2
#     4  10  21  41  67  92 121 163 210 256 312 366
#     4  10  23  42  63  94 126 161 210 260 311 368
#     4  11  20  38  62  86 126 160 204 257 305 370
#     4  11  22  38  62  92 123 164 206 251 315 372
#     4  11  22  38  61  89 121 162 208 249 308 378
#     4  10  21  37  59  89 119 162 203 248 311 365
#     4  10  22  42  67  89 123 168 208 257 312 366
#     4  11  19  41  62  86 122 164 203 250 308 373
#
# _framework density 22.947293999999999
#
# number of rings (size 3 to 8) (size 9 to 14) (size 15 to 20)
#    0.000    1.500    3.750    2.250    1.750    0.500 
#    6.750    3.125    0.000    0.000    0.000    0.000 
#    0.000    0.000    0.000    0.000    0.000    0.000 
#
# Total GULP energy -89263.367426 kJ/mol
# GULP energy per Si atom -5578.960464 kJ/mol
# Density = 2.289506 g / cm^3
# Si number density = 22.947294 Si / 1000 Ang^3
#
#
#
# Elastic Constant Matrix: (Units=GPa)
#
#
# Indices 1 2 3 4 5 6 
#
# 1 44.7648 7.8838 29.0341 8.3578 -15.6413 -6.5456
# 2 7.8838 63.1970 30.8430 10.8801 -18.9173 -4.5957
# 3 29.0341 30.8430 128.5597 10.2793 -50.7940 -1.3898
# 4 8.3578 10.8801 10.2793 38.1256 -1.6739 -7.8831
# 5 -15.6413 -18.9173 -50.7940 -1.6739 38.9872 3.0919
# 6 -6.5456 -4.5957 -1.3898 -7.8831 3.0919 31.6249
#
#
#
# Elastic Compliance Matrix: (Units=1/GPa)
#
#
# Indices 1 2 3 4 5 6 
#
# 1 0.028246 0.001328 -0.003649 -0.004442 0.006706 0.004116
# 2 0.001328 0.019661 -0.001544 -0.004922 0.007765 0.001078
# 3 -0.003649 -0.001544 0.017222 -0.003129 0.020328 -0.002990
# 4 -0.004442 -0.004922 -0.003129 0.030479 -0.007458 0.006554
# 5 0.006706 0.007765 0.020328 -0.007458 0.058602 -0.004179
# 6 0.004116 0.001078 -0.002990 0.006554 -0.004179 0.034540
#
#
# Mechanical properties :
#
#
# Convention : Reuss Voigt Hill
#
# Bulk Modulus (GPa) = 17.42136 41.33814 29.37975
# Shear Modulus (GPa) = 23.18975 32.99825 28.09400
#
# Velocity S-wave (km/s) = 3.18239 3.79621 3.50277
# Velocity P-wave (km/s) = 4.59476 6.10479 5.40279
#
# Compressibility (1/GPa) = 0.05740079
#
# Stress axis : x y z
#
# Youngs Moduli (GPa) = 35.40355 50.86114 58.06458
#
# Poissons Ratio (x) = -0.06756 0.21186
# Poissons Ratio (y) = -0.04703 0.08965
# Poissons Ratio (z) = 0.12917 0.07853
#
# Static dielectric constant tensor:
#      x y z
#    x 1.882130 -0.007500 0.004100 
#    y -0.007500 1.841810 0.019480 
#    z 0.004100 0.019480 1.941080 
# 
# From -- ./inp_files/271003.got.cif
#   From: 2010.05.17/outbox.cif.g08.bks.cpg/sg2_136_cif.got.tgz:271003.got - 2010.06.03 11:33:40.
