data_PCOD9003460
_publ_section_title
;
Structure prediction by ZEFSAII (Michael W. Deem and Ramdas Pophale) SiO2 
 PCOD9003460
Probable space group: P -1
;
_chemical_formula_sum "Si O2"
_cell_formula_units_Z 16
_cell_length_a 17.038314
_cell_length_b 7.243872
_cell_length_c 16.669026
_cell_angle_alpha 116.310844
_cell_angle_beta 155.066799
_cell_angle_gamma 76.569292
_cell_volume 694.685523
_symmetry_space_group_name_H-M "P -1"
_symmetry_group_IT_number 2
_symmetry_cell_setting 'triclinic'
loop_
_space_group_symop_operation_xyz
x,y,z
-x,-y,-z
loop_
_atom_site_type_symbol
_atom_site_label
_atom_site_fract_x
_atom_site_fract_y
_atom_site_fract_z
Si Si1 0.039866 0.773263 0.422491
Si Si2 0.158191 0.489335 0.038219
Si Si3 0.320140 0.894141 0.143610
Si Si4 0.288188 0.638226 0.368246
Si Si5 0.486325 0.034961 0.824118
Si Si6 0.554551 0.460726 0.356462
Si Si7 0.064414 0.299381 0.340832
Si Si8 0.120107 0.890103 0.701313
O O1 0.261703 0.981805 0.639866
O O2 0.026843 0.528474 0.336209
O O3 0.044317 0.771124 0.522597
O O4 0.870865 0.856523 0.252643
O O5 0.219070 0.724002 0.091007
O O6 0.221077 0.536662 0.198631
O O7 0.319482 0.414922 0.133754
O O8 0.910578 0.336539 0.775113
O O9 0.503463 0.124214 0.392979
O O10 0.424128 0.827007 0.149590
O O11 0.122464 0.904086 0.919487
O O12 0.338835 0.477341 0.444959
O O13 0.453059 0.781413 0.719468
O O14 0.664833 0.111896 0.072170
O O15 0.712087 0.645078 0.476763
O O16 0.035395 0.237571 0.394789
#
# Coordination Sequence:
#
# PCOD9003460 Si02
#       8
#     2   2   2   2   2   2   2   2
#     4  10  21  38  61  86 124 165 200 256 309 366
#     4  11  22  38  65  85 118 162 202 253 313 366
#     4  10  21  39  60  87 121 159 200 254 305 365
#     4  10  22  42  58  87 123 157 203 255 309 363
#     4   9  21  36  58  83 122 154 202 255 300 359
#     4  10  21  38  59  87 118 160 200 252 306 365
#     4  10  21  40  61  90 129 158 209 260 304 371
#     4  10  21  37  60  89 120 165 207 246 315 366
#
# _framework density 23.032005000000002
#
# number of rings (size 3 to 8) (size 9 to 14) (size 15 to 20)
#    0.000    2.000    1.250    1.500    3.500    0.000 
#    4.500    0.625    0.000    7.500    0.000    0.000 
#    0.000    0.000    0.000    0.000    0.000    0.000 
#
# Total GULP energy -89308.323977 kJ/mol
# GULP energy per Si atom -5581.770249 kJ/mol
# Density = 2.297958 g / cm^3
# Si number density = 23.032005 Si / 1000 Ang^3
#
#
#
# Elastic Constant Matrix: (Units=GPa)
#
#
# Indices 1 2 3 4 5 6 
#
# 1 -17.9142 -50.1453 -29.4337 46.6889 26.5232 -30.5879
# 2 -50.1453 8.1043 -3.8808 18.7940 17.0063 -18.6463
# 3 -29.4337 -3.8808 70.5135 30.1894 26.4451 -34.2844
# 4 46.6889 18.7940 30.1894 11.2692 -3.7127 27.6808
# 5 26.5232 17.0063 26.4451 -3.7127 33.4751 12.1709
# 6 -30.5879 -18.6463 -34.2844 27.6808 12.1709 4.0094
#
#
#
# Elastic Compliance Matrix: (Units=1/GPa)
#
#
# Indices 1 2 3 4 5 6 
#
# 1 0.015431 0.006300 -0.010183 0.011039 0.002342 -0.023378
# 2 0.006300 0.043362 -0.017235 0.019337 -0.000634 -0.029227
# 3 -0.010183 -0.017235 0.016680 -0.003460 -0.001081 0.011951
# 4 0.011039 0.019337 -0.003460 0.026544 -0.011373 -0.004180
# 5 0.002342 -0.000634 -0.001081 -0.011373 0.025840 0.005755
# 6 -0.023378 -0.029227 0.011951 -0.004180 0.005755 0.048716
#
#
# Mechanical properties :
#
#
# Convention : Reuss Voigt Hill
#
# Bulk Modulus (GPa) = 30.08821 -11.80178 9.14321
# Shear Modulus (GPa) = 21.74966 19.36164 20.55565
#
# Velocity S-wave (km/s) = 3.07632 2.90253 2.99068
# Velocity P-wave (km/s) = 5.07053 2.46935 3.98798
#
# Compressibility (1/GPa) = 0.03323561
#
# Stress axis : x y z
#
# Youngs Moduli (GPa) = 64.80453 23.06148 59.95373
#
# Poissons Ratio (x) = -0.14529 0.61053
# Poissons Ratio (y) = -0.40826 1.03331
# Poissons Ratio (z) = 0.65993 0.39747
#
# Static dielectric constant tensor:
#      x y z
#    x 1.898030 0.003390 0.009450 
#    y 0.003390 1.926790 -0.010710 
#    z 0.009450 -0.010710 1.899260 
# 
# From -- ./inp_files/575438.got.cif
#   From: 2010.05.17/outbox.cif.g08.bks.cpg/sg2_288_cif.got.tgz:575438.got - 2010.06.03 11:33:40.
