data_PCOD9003072
_publ_section_title
;
Structure prediction by ZEFSAII (Michael W. Deem and Ramdas Pophale) SiO2 
 PCOD9003072
Probable space group: P -1
;
_chemical_formula_sum "Si O2"
_cell_formula_units_Z 16
_cell_length_a 15.923756
_cell_length_b 11.840286
_cell_length_c 13.474648
_cell_angle_alpha 89.943593
_cell_angle_beta 148.121640
_cell_angle_gamma 113.795334
_cell_volume 868.228297
_symmetry_space_group_name_H-M "P -1"
_symmetry_group_IT_number 2
_symmetry_cell_setting 'triclinic'
loop_
_space_group_symop_operation_xyz
x,y,z
-x,-y,-z
loop_
_atom_site_type_symbol
_atom_site_label
_atom_site_fract_x
_atom_site_fract_y
_atom_site_fract_z
Si Si1 0.471440 0.200807 0.138068
Si Si2 0.883079 0.181272 0.235260
Si Si3 0.741383 0.394965 0.692780
Si Si4 0.637725 0.428766 0.794166
Si Si5 0.461696 0.117077 0.739519
Si Si6 0.208122 0.020350 0.688155
Si Si7 0.780141 0.228861 0.587906
Si Si8 0.648396 0.507031 0.420686
O O1 0.705346 0.258869 0.413889
O O2 0.471794 0.322924 0.187243
O O3 0.238024 0.997243 0.934656
O O4 0.442872 0.184750 0.990749
O O5 0.877956 0.143325 0.345969
O O6 0.142996 0.346502 0.448483
O O7 0.694715 0.178954 0.021671
O O8 0.593867 0.368816 0.635740
O O9 0.654012 0.233707 0.549688
O O10 0.765163 0.500043 0.629400
O O11 0.000000 0.500000 0.000000
O O12 0.552783 0.276980 0.774872
O O13 0.489831 0.459413 0.676790
O O14 0.928324 0.609809 0.102468
O O15 0.278009 0.046525 0.644899
O O16 0.329533 0.954710 0.535333
O O17 0.000000 0.000000 0.500000
#
# Coordination Sequence:
#
# PCOD9003072 Si02
#       8
#     2   2   2   2   2   2   2   2
#     4   8  20  37  57  81 115 149 191 228 280 335
#     4   9  20  37  59  81 113 155 186 235 276 336
#     4   9  19  39  60  83 114 148 192 233 283 336
#     4  11  23  35  59  89 115 149 188 238 285 335
#     4  11  21  39  59  83 116 153 195 225 284 342
#     4  10  21  37  57  87 118 146 187 243 281 329
#     4   9  20  38  61  82 111 154 191 234 277 342
#     4  11  20  38  60  86 118 149 185 236 289 332
#
# _framework density 18.428332000000001
#
# number of rings (size 3 to 8) (size 9 to 14) (size 15 to 20)
#    0.750    1.500    0.000    3.750    1.750    0.500 
#    2.250    6.250    0.000   11.250    0.000    0.000 
#    0.000    0.000    0.000    0.000    0.000    0.000 
#
# Total GULP energy -89105.045529 kJ/mol
# GULP energy per Si atom -5569.065346 kJ/mol
# Density = 1.838639 g / cm^3
# Si number density = 18.428332 Si / 1000 Ang^3
#
#
#
# Elastic Constant Matrix: (Units=GPa)
#
#
# Indices 1 2 3 4 5 6 
#
# 1 34.6985 -4.9172 -15.6705 12.1040 3.8986 -17.7617
# 2 -4.9172 71.2642 -5.4527 8.9782 -1.1805 -13.4379
# 3 -15.6705 -5.4527 26.0655 -4.2768 -3.4322 -11.9932
# 4 12.1040 8.9782 -4.2768 11.8825 0.3570 -4.9257
# 5 3.8986 -1.1805 -3.4322 0.3570 24.5224 -0.5453
# 6 -17.7617 -13.4379 -11.9932 -4.9257 -0.5453 34.3005
#
#
#
# Elastic Compliance Matrix: (Units=1/GPa)
#
#
# Indices 1 2 3 4 5 6 
#
# 1 -0.140102 -0.055959 -0.145861 0.076885 -0.004945 -0.134510
# 2 -0.055959 -0.005420 -0.052115 0.023280 -0.000020 -0.045980
# 3 -0.145861 -0.052115 -0.094559 0.106716 0.003366 -0.113632
# 4 0.076885 0.023280 0.106716 0.066238 0.005000 0.095838
# 5 -0.004945 -0.000020 0.003366 0.005000 0.041962 -0.000006
# 6 -0.134510 -0.045980 -0.113632 0.095838 -0.000006 -0.084481
#
#
# Mechanical properties :
#
#
# Convention : Reuss Voigt Hill
#
# Bulk Modulus (GPa) = -1.33698 8.88305 3.77303
# Shear Modulus (GPa) = 118.50355 24.67900 71.59127
#
# Velocity S-wave (km/s) = 8.02774 3.66346 6.23962
# Velocity P-wave (km/s) = 9.23034 4.76712 7.34590
#
# Compressibility (1/GPa) = -0.74795166
#
# Stress axis : x y z
#
# Youngs Moduli (GPa) = -7.13766 -184.50832 -10.57541
#
# Poissons Ratio (x) = -10.32495 -1.54254
# Poissons Ratio (y) = -0.39942 -0.55114
# Poissons Ratio (z) = -1.04111 -9.61569
#
# Static dielectric constant tensor:
#      x y z
#    x 1.646370 -0.007940 -0.023720 
#    y -0.007940 1.631890 -0.017400 
#    z -0.023720 -0.017400 1.650730 
# 
# From -- ./inp_files/448330.got.cif
#   From: 2010.05.17/outbox.cif.g08.bks.cpg/sg2_225_cif.got.tgz:448330.got - 2010.06.03 11:33:40.
