data_PCOD9003163
_publ_section_title
;
Structure prediction by ZEFSAII (Michael W. Deem and Ramdas Pophale) SiO2 
 PCOD9003163
Probable space group: P -1
;
_chemical_formula_sum "Si O2"
_cell_formula_units_Z 16
_cell_length_a 13.607458
_cell_length_b 16.692567
_cell_length_c 21.778224
_cell_angle_alpha 158.838737
_cell_angle_beta 158.904484
_cell_angle_gamma 29.654749
_cell_volume 642.716180
_symmetry_space_group_name_H-M "P -1"
_symmetry_group_IT_number 2
_symmetry_cell_setting 'triclinic'
loop_
_space_group_symop_operation_xyz
x,y,z
-x,-y,-z
loop_
_atom_site_type_symbol
_atom_site_label
_atom_site_fract_x
_atom_site_fract_y
_atom_site_fract_z
Si Si1 0.200815 0.373782 0.884797
Si Si2 0.771230 0.134763 0.701082
Si Si3 0.522336 0.509288 0.630404
Si Si4 0.063964 0.413736 0.705259
Si Si5 0.596060 0.140282 0.784351
Si Si6 0.610958 0.987409 0.816361
Si Si7 0.731860 0.928167 0.980621
Si Si8 0.215098 0.232568 0.926852
O O1 0.277441 0.630424 0.125437
O O2 0.117278 0.291027 0.843934
O O3 0.003935 0.342011 0.688939
O O4 0.448305 0.214316 0.896214
O O5 0.487668 0.024024 0.436547
O O6 0.992192 0.998310 0.771888
O O7 0.954514 0.174302 0.774608
O O8 0.543657 0.249575 0.444154
O O9 0.677620 0.676117 0.792922
O O10 0.631984 0.573276 0.807219
O O11 0.204140 0.569786 0.479808
O O12 0.300151 0.254854 0.705368
O O13 0.203979 0.654754 0.964124
O O14 0.699944 0.018387 0.819502
O O15 0.774661 0.962201 0.957566
O O16 0.456079 0.052163 0.930257
#
# Coordination Sequence:
#
# PCOD9003163 Si02
#       8
#     2   2   2   2   2   2   2   2
#     4  10  22  38  57  85 117 148 188 234 278 331
#     4  11  20  37  60  83 114 151 186 226 282 337
#     4  11  20  37  60  83 114 151 186 226 282 337
#     4  10  22  40  60  83 112 148 190 234 280 330
#     4  10  22  40  60  83 112 148 190 234 280 330
#     4  10  22  38  57  85 117 148 188 234 278 331
#     4  10  21  37  58  87 117 146 184 229 282 338
#     4  10  21  37  58  87 117 146 184 229 282 338
#
# _framework density 24.894348999999998
#
# number of rings (size 3 to 8) (size 9 to 14) (size 15 to 20)
#    0.000    1.750    0.000    5.250    0.000    4.000 
#    0.000   12.500    0.000    6.750    0.000    0.000 
#    0.000    0.000    0.000    0.000    0.000    0.000 
#
# Total GULP energy -89464.122638 kJ/mol
# GULP energy per Si atom -5591.507665 kJ/mol
# Density = 2.483769 g / cm^3
# Si number density = 24.894349 Si / 1000 Ang^3
#
#
#
# Elastic Constant Matrix: (Units=GPa)
#
#
# Indices 1 2 3 4 5 6 
#
# 1 85.8641 23.9659 18.4614 -5.0858 -1.6677 25.9945
# 2 23.9659 93.2273 27.8928 3.7861 -5.1421 -7.5757
# 3 18.4614 27.8928 92.2126 -13.9640 -6.9346 10.1274
# 4 -5.0858 3.7861 -13.9640 41.8380 -2.7535 -11.7921
# 5 -1.6677 -5.1421 -6.9346 -2.7535 28.2926 -1.2218
# 6 25.9945 -7.5757 10.1274 -11.7921 -1.2218 57.3739
#
#
#
# Elastic Compliance Matrix: (Units=1/GPa)
#
#
# Indices 1 2 3 4 5 6 
#
# 1 0.015247 -0.004223 -0.001036 -0.000208 -0.000460 -0.007335
# 2 -0.004223 0.013428 -0.003835 -0.001793 0.001251 0.004021
# 3 -0.001036 -0.003835 0.013253 0.004437 0.002862 -0.001404
# 4 -0.000208 -0.001793 0.004437 0.027086 0.003589 0.004718
# 5 -0.000460 0.001251 0.002862 0.003589 0.036656 0.001387
# 6 -0.007335 0.004021 -0.001404 0.004718 0.001387 0.022531
#
#
# Mechanical properties :
#
#
# Convention : Reuss Voigt Hill
#
# Bulk Modulus (GPa) = 42.12147 45.77158 43.94652
# Shear Modulus (GPa) = 32.40404 38.89985 35.65195
#
# Velocity S-wave (km/s) = 3.61177 3.95726 3.78845
# Velocity P-wave (km/s) = 5.86089 6.26946 6.06861
#
# Compressibility (1/GPa) = 0.02374086
#
# Stress axis : x y z
#
# Youngs Moduli (GPa) = 65.58653 74.47068 75.45265
#
# Poissons Ratio (x) = 0.31446 0.07814
# Poissons Ratio (y) = 0.27695 0.28940
# Poissons Ratio (z) = 0.06793 0.28563
#
# Static dielectric constant tensor:
#      x y z
#    x 1.998110 -0.010580 0.005210 
#    y -0.010580 2.009250 0.017160 
#    z 0.005210 0.017160 1.936720 
# 
# From -- ./inp_files/612218.got.cif
#   From: 2010.05.17/outbox.cif.g08.bks.cpg/sg2_307_cif.got.tgz:612218.got - 2010.06.03 11:33:40.
