data_PCOD9003294
_publ_section_title
;
Structure prediction by ZEFSAII (Michael W. Deem and Ramdas Pophale) SiO2 
 PCOD9003294
Probable space group: P -1
;
_chemical_formula_sum "Si O2"
_cell_formula_units_Z 14
_cell_length_a 24.964961
_cell_length_b 15.860067
_cell_length_c 6.668667
_cell_angle_alpha 115.524356
_cell_angle_beta 115.379843
_cell_angle_gamma 19.328980
_cell_volume 786.520092
_symmetry_space_group_name_H-M "P -1"
_symmetry_group_IT_number 2
_symmetry_cell_setting 'triclinic'
loop_
_space_group_symop_operation_xyz
x,y,z
-x,-y,-z
loop_
_atom_site_type_symbol
_atom_site_label
_atom_site_fract_x
_atom_site_fract_y
_atom_site_fract_z
Si Si1 0.540191 0.144182 0.864834
Si Si2 0.881891 0.686501 0.808564
Si Si3 0.664346 0.786898 0.937351
Si Si4 0.249242 0.625156 0.168555
Si Si5 0.739861 0.487131 0.523960
Si Si6 0.059229 0.563542 0.669446
Si Si7 0.011676 0.844273 0.764012
O O1 0.417786 0.297803 0.646811
O O2 0.696140 0.974126 0.872751
O O3 0.423309 0.358453 0.068323
O O4 0.621483 0.931561 0.864054
O O5 0.897579 0.569733 0.578999
O O6 0.938201 0.687331 0.753051
O O7 0.000000 0.500000 0.000000
O O8 0.785187 0.644663 0.156212
O O9 0.728417 0.602990 0.735240
O O10 0.500000 0.000000 0.000000
O O11 0.257510 0.596390 0.389007
O O12 0.130421 0.717301 0.989279
O O13 0.159827 0.851705 0.197316
O O14 0.896831 0.262213 0.403942
O O15 0.002091 0.747814 0.684322
#
# Coordination Sequence:
#
# PCOD9003294 Si02
#       7
#     2   2   2   2   2   2   2
#     4  11  22  36  57  87 120 154 196 238 295 348
#     4  11  24  41  60  85 115 162 200 240 288 343
#     4  12  19  34  58  90 122 145 182 246 305 351
#     4  10  21  37  59  87 124 151 190 243 289 357
#     4  11  20  35  59  89 120 156 186 239 302 352
#     4  11  23  39  60  86 119 154 196 245 286 345
#     4  10  21  38  58  89 118 156 195 234 296 350
#
# _framework density 17.799927
#
# number of rings (size 3 to 8) (size 9 to 14) (size 15 to 20)
#    0.000    1.143    4.286    3.429    0.000    0.000 
#    0.000    0.714    0.000    1.714    0.000    0.000 
#    0.000    0.000    0.000    0.000    0.000    0.000 
#
# Total GULP energy -78172.854865 kJ/mol
# GULP energy per Si atom -5583.775347 kJ/mol
# Density = 1.775941 g / cm^3
# Si number density = 17.799927 Si / 1000 Ang^3
#
#
#
# Elastic Constant Matrix: (Units=GPa)
#
#
# Indices 1 2 3 4 5 6 
#
# 1 107.8322 51.3851 27.3176 2.4466 -10.2526 -1.4810
# 2 51.3851 83.8468 16.1909 -0.5131 -6.6519 0.0509
# 3 27.3176 16.1909 74.3895 -14.9385 -10.6934 0.7672
# 4 2.4466 -0.5131 -14.9385 17.1513 -0.4699 -0.9227
# 5 -10.2526 -6.6519 -10.6934 -0.4699 28.1634 0.3883
# 6 -1.4810 0.0509 0.7672 -0.9227 0.3883 27.5209
#
#
#
# Elastic Compliance Matrix: (Units=1/GPa)
#
#
# Indices 1 2 3 4 5 6 
#
# 1 0.014526 -0.007920 -0.004660 -0.006289 0.001534 0.000694
# 2 -0.007920 0.016938 -0.000363 0.001325 0.001008 -0.000417
# 3 -0.004660 -0.000363 0.019707 0.017968 0.006004 -0.000282
# 4 -0.006289 0.001325 0.017968 0.075143 0.006078 0.001592
# 5 0.001534 0.001008 0.006004 0.006078 0.038690 -0.000429
# 6 0.000694 -0.000417 -0.000282 0.001592 -0.000429 0.036441
#
#
# Mechanical properties :
#
#
# Convention : Reuss Voigt Hill
#
# Bulk Modulus (GPa) = 39.54733 50.65064 45.09898
# Shear Modulus (GPa) = 21.20783 25.97877 23.59330
#
# Velocity S-wave (km/s) = 3.45549 3.82447 3.64465
# Velocity P-wave (km/s) = 6.17952 6.92960 6.56528
#
# Compressibility (1/GPa) = 0.02528616
#
# Stress axis : x y z
#
# Youngs Moduli (GPa) = 68.84093 59.03722 50.74246
#
# Poissons Ratio (x) = 0.46756 0.23647
# Poissons Ratio (y) = 0.54520 0.01842
# Poissons Ratio (z) = 0.32081 0.02143
#
# Static dielectric constant tensor:
#      x y z
#    x 1.617940 -0.012570 -0.041510 
#    y -0.012570 1.588600 -0.004180 
#    z -0.041510 -0.004180 1.606030 
# 
# From -- ./inp_files/27489.got.cif
#   From: 2010.05.17/outbox.cif.g08.bks.cpg/sg2_14_cif.got.tgz:27489.got - 2010.06.03 11:33:40.
