data_PCOD9003663
_publ_section_title
;
Structure prediction by ZEFSAII (Michael W. Deem and Ramdas Pophale) SiO2 
 PCOD9003663
Probable space group: P -1
;
_chemical_formula_sum "Si O2"
_cell_formula_units_Z 12
_cell_length_a 15.936852
_cell_length_b 4.787864
_cell_length_c 7.814203
_cell_angle_alpha 76.293076
_cell_angle_beta 80.211276
_cell_angle_gamma 66.346044
_cell_volume 528.717685
_symmetry_space_group_name_H-M "P -1"
_symmetry_group_IT_number 2
_symmetry_cell_setting 'triclinic'
loop_
_space_group_symop_operation_xyz
x,y,z
-x,-y,-z
loop_
_atom_site_type_symbol
_atom_site_label
_atom_site_fract_x
_atom_site_fract_y
_atom_site_fract_z
Si Si1 0.278442 0.185863 0.143518
Si Si2 0.075570 0.357586 0.137684
Si Si3 0.427892 0.386178 0.638485
Si Si4 0.928234 0.232563 0.619864
Si Si5 0.273602 0.583410 0.391083
Si Si6 0.429315 0.792772 0.880626
O O1 0.352751 0.010374 0.003372
O O2 0.391582 0.631455 0.769627
O O3 0.177437 0.353670 0.072419
O O4 0.270635 0.930256 0.317274
O O5 0.044258 0.534665 0.305151
O O6 0.088964 0.001498 0.204793
O O7 0.000000 0.500000 0.000000
O O8 0.500000 0.500000 0.500000
O O9 0.346100 0.412191 0.534700
O O10 0.469850 0.033865 0.746201
O O11 0.829065 0.404708 0.541852
O O12 0.000000 0.000000 0.500000
O O13 0.302507 0.424178 0.218934
O O14 0.500000 0.500000 0.000000
#
# Coordination Sequence:
#
# PCOD9003663 Si02
#       6
#     2   2   2   2   2   2
#     4  10  22  42  63  88 125 165 205 256 312 367
#     4  10  21  37  61  91 125 163 202 250 307 365
#     4  12  26  43  65  93 124 164 211 264 317 374
#     4  10  21  37  61  91 125 163 202 250 307 365
#     4  10  22  42  63  88 125 165 205 256 312 367
#     4  12  26  43  65  93 124 164 211 264 317 374
#
# _framework density 22.696422999999999
#
# number of rings (size 3 to 8) (size 9 to 14) (size 15 to 20)
#    0.000    1.333    0.000    5.000    0.000    5.333 
#    0.000    0.000    0.000    0.000    0.000    0.000 
#    0.000    0.000    0.000    0.000    0.000    0.000 
#
# Total GULP energy -67125.295438 kJ/mol
# GULP energy per Si atom -5593.774620 kJ/mol
# Density = 2.264477 g / cm^3
# Si number density = 22.696423 Si / 1000 Ang^3
#
#
#
# Elastic Constant Matrix: (Units=GPa)
#
#
# Indices 1 2 3 4 5 6 
#
# 1 139.8995 57.8137 63.9597 16.2496 30.2817 -18.2107
# 2 57.8137 145.5660 41.5636 8.4396 1.5943 0.5916
# 3 63.9597 41.5636 72.9834 1.7382 7.9941 -12.6714
# 4 16.2496 8.4396 1.7382 57.9340 -1.7162 -10.6118
# 5 30.2817 1.5943 7.9941 -1.7162 25.9062 0.6962
# 6 -18.2107 0.5916 -12.6714 -10.6118 0.6962 42.7628
#
#
#
# Elastic Compliance Matrix: (Units=1/GPa)
#
#
# Indices 1 2 3 4 5 6 
#
# 1 0.019296 -0.003840 -0.011839 -0.004330 -0.019060 0.003998
# 2 -0.003840 0.009211 -0.002891 -0.000554 0.004853 -0.002836
# 3 -0.011839 -0.002891 0.025534 0.003785 0.006296 0.003401
# 4 -0.004330 -0.000554 0.003785 0.019326 0.005100 0.003998
# 5 -0.019060 0.004853 0.006296 0.005100 0.059138 -0.006015
# 6 0.003998 -0.002836 0.003401 0.003998 -0.006015 0.027225
#
#
# Mechanical properties :
#
#
# Convention : Reuss Voigt Hill
#
# Bulk Modulus (GPa) = 59.16587 76.12478 67.64532
# Shear Modulus (GPa) = 24.69099 38.32807 31.50953
#
# Velocity S-wave (km/s) = 3.30188 4.11387 3.73004
# Velocity P-wave (km/s) = 6.37664 7.49523 6.95845
#
# Compressibility (1/GPa) = 0.01690164
#
# Stress axis : x y z
#
# Youngs Moduli (GPa) = 51.82338 108.56827 39.16372
#
# Poissons Ratio (x) = 0.41690 0.46364
# Poissons Ratio (y) = 0.19900 0.11322
# Poissons Ratio (z) = 0.61352 0.31388
#
# Static dielectric constant tensor:
#      x y z
#    x 1.880190 -0.002460 -0.053630 
#    y -0.002460 1.805650 -0.001870 
#    z -0.053630 -0.001870 1.876820 
# 
# From -- ./inp_files/286163.got.cif
#   From: 2010.05.17/outbox.cif.g08.bks.cpg/sg2_144_cif.got.tgz:286163.got - 2010.06.03 11:33:40.
