data_PCOD9003030
_publ_section_title
;
Structure prediction by ZEFSAII (Michael W. Deem and Ramdas Pophale) SiO2 
 PCOD9003030
Probable space group: P -1
;
_chemical_formula_sum "Si O2"
_cell_formula_units_Z 16
_cell_length_a 17.349222
_cell_length_b 5.713832
_cell_length_c 15.314283
_cell_angle_alpha 63.578375
_cell_angle_beta 141.934447
_cell_angle_gamma 94.787889
_cell_volume 733.837266
_symmetry_space_group_name_H-M "P -1"
_symmetry_group_IT_number 2
_symmetry_cell_setting 'triclinic'
loop_
_space_group_symop_operation_xyz
x,y,z
-x,-y,-z
loop_
_atom_site_type_symbol
_atom_site_label
_atom_site_fract_x
_atom_site_fract_y
_atom_site_fract_z
Si Si1 0.171836 0.204113 0.038526
Si Si2 0.002943 0.086138 0.779636
Si Si3 0.709647 0.381930 0.981388
Si Si4 0.183060 0.036582 0.690498
Si Si5 0.528836 0.368268 0.402119
Si Si6 0.164113 0.209328 0.232831
Si Si7 0.321404 0.514630 0.335693
Si Si8 0.138415 0.668644 0.570281
O O1 0.132766 0.298397 0.088432
O O2 0.260890 0.849887 0.191772
O O3 0.263819 0.334671 0.051879
O O4 0.035905 0.287220 0.842072
O O5 0.937508 0.907256 0.800932
O O6 0.159172 0.864428 0.917429
O O7 0.903716 0.239818 0.582910
O O8 0.735677 0.232148 0.123720
O O9 0.558565 0.469035 0.788442
O O10 0.220786 0.304912 0.698896
O O11 0.012800 0.213260 0.532409
O O12 0.201464 0.863758 0.642930
O O13 0.415499 0.326365 0.368723
O O14 0.578216 0.549854 0.480689
O O15 0.675554 0.070698 0.565856
O O16 0.188803 0.470409 0.250341
#
# Coordination Sequence:
#
# PCOD9003030 Si02
#       8
#     2   2   2   2   2   2   2   2
#     4  11  22  36  56  88 120 155 196 244 289 357
#     4  11  24  37  58  86 119 159 195 243 301 364
#     4  11  23  36  62  88 117 148 202 248 302 354
#     4   9  20  37  61  89 117 154 196 261 308 356
#     4  10  21  37  57  83 111 156 201 242 285 353
#     4  11  23  39  55  82 124 162 195 234 295 356
#     4  10  21  37  58  77 119 161 197 242 285 344
#     4   9  20  38  59  87 121 154 199 250 312 363
#
# _framework density 21.803197000000001
#
# number of rings (size 3 to 8) (size 9 to 14) (size 15 to 20)
#    0.000    1.750    2.500    0.750   12.250    4.000 
#    0.000    0.000    0.000    1.500    0.000    0.000 
#    0.000    0.000    0.000    0.000    0.000    0.000 
#
# Total GULP energy -89220.366505 kJ/mol
# GULP energy per Si atom -5576.272907 kJ/mol
# Density = 2.175357 g / cm^3
# Si number density = 21.803197 Si / 1000 Ang^3
#
#
#
# Elastic Constant Matrix: (Units=GPa)
#
#
# Indices 1 2 3 4 5 6 
#
# 1 26.6852 18.6065 32.2317 6.3870 -8.8358 -2.4351
# 2 18.6065 100.3852 53.1041 8.1827 -28.6929 2.3938
# 3 32.2317 53.1041 127.4503 19.7946 -26.7771 -1.6136
# 4 6.3870 8.1827 19.7946 38.3354 -4.6685 -0.5617
# 5 -8.8358 -28.6929 -26.7771 -4.6685 21.7918 1.5673
# 6 -2.4351 2.3938 -1.6136 -0.5617 1.5673 15.9391
#
#
#
# Elastic Compliance Matrix: (Units=1/GPa)
#
#
# Indices 1 2 3 4 5 6 
#
# 1 0.056198 -0.003369 -0.011782 -0.002099 0.002882 0.007542
# 2 -0.003369 0.017442 -0.002572 0.000391 0.018900 -0.005239
# 3 -0.011782 -0.002572 0.014298 -0.003831 0.008654 -0.000952
# 4 -0.002099 0.000391 -0.003831 0.028459 0.001043 0.000133
# 5 0.002882 0.018900 0.008654 0.001043 0.083497 -0.009696
# 6 0.007542 -0.005239 -0.000952 0.000133 -0.009696 0.065539
#
#
# Mechanical properties :
#
#
# Convention : Reuss Voigt Hill
#
# Bulk Modulus (GPa) = 19.04985 51.37836 35.21411
# Shear Modulus (GPa) = 15.70471 25.25183 20.47827
#
# Velocity S-wave (km/s) = 2.68674 3.40688 3.06801
# Velocity P-wave (km/s) = 4.28730 6.25232 5.36062
#
# Compressibility (1/GPa) = 0.05249384
#
# Stress axis : x y z
#
# Youngs Moduli (GPa) = 17.79422 57.33425 69.93772
#
# Poissons Ratio (x) = 0.19315 0.82398
# Poissons Ratio (y) = 0.05995 0.17985
# Poissons Ratio (z) = 0.20964 0.14744
#
# Static dielectric constant tensor:
#      x y z
#    x 1.819630 -0.047130 0.032350 
#    y -0.047130 1.931600 -0.009070 
#    z 0.032350 -0.009070 1.814950 
# 
# From -- ./inp_files/126760.got.cif
#   From: 2010.05.17/outbox.cif.g08.bks.cpg/sg2_64_cif.got.tgz:126760.got - 2010.06.03 11:33:40.
