data_PCOD9003569
_publ_section_title
;
Structure prediction by ZEFSAII (Michael W. Deem and Ramdas Pophale) SiO2 
 PCOD9003569
Probable space group: P -1
;
_chemical_formula_sum "Si O2"
_cell_formula_units_Z 12
_cell_length_a 12.831714
_cell_length_b 12.867193
_cell_length_c 5.162446
_cell_angle_alpha 85.217151
_cell_angle_beta 80.188028
_cell_angle_gamma 134.050231
_cell_volume 578.615643
_symmetry_space_group_name_H-M "P -1"
_symmetry_group_IT_number 2
_symmetry_cell_setting 'triclinic'
loop_
_space_group_symop_operation_xyz
x,y,z
-x,-y,-z
loop_
_atom_site_type_symbol
_atom_site_label
_atom_site_fract_x
_atom_site_fract_y
_atom_site_fract_z
Si Si1 0.894245 0.014888 0.925467
Si Si2 0.630264 0.797630 0.732114
Si Si3 0.714388 0.523818 0.984267
Si Si4 0.679639 0.633163 0.461441
Si Si5 0.009765 0.434141 0.259793
Si Si6 0.153391 0.892492 0.567045
O O1 0.727240 0.852149 0.943147
O O2 0.060947 0.893525 0.383680
O O3 0.884158 0.093713 0.135148
O O4 0.000000 0.000000 0.000000
O O5 0.708119 0.773076 0.500746
O O6 0.674098 0.945791 0.598553
O O7 0.453116 0.645641 0.862025
O O8 0.701667 0.587860 0.728077
O O9 0.836644 0.523481 0.860464
O O10 0.756918 0.625769 0.193903
O O11 0.500000 0.500000 0.500000
O O12 0.881641 0.253590 0.392722
O O13 0.000000 0.500000 0.500000
O O14 0.000000 0.500000 0.000000
#
# Coordination Sequence:
#
# PCOD9003569 Si02
#       6
#     2   2   2   2   2   2
#     4  10  22  37  62  98 139 169 203 244 320 397
#     4   9  23  38  66  98 140 164 210 243 319 402
#     4  11  24  41  66  95 131 174 213 265 317 380
#     4  10  21  37  61 102 139 168 195 247 322 403
#     4  12  27  50  67  88 121 170 233 289 331 364
#     4  10  24  40  64  89 129 166 217 264 321 376
#
# _framework density 20.739159000000001
#
# number of rings (size 3 to 8) (size 9 to 14) (size 15 to 20)
#    1.000    0.667    0.000    4.500    9.333    0.000 
#    0.000    1.667    0.000    0.000    0.000    0.000 
#    0.000    0.000    0.000    0.000    0.000    0.000 
#
# Total GULP energy -66964.636169 kJ/mol
# GULP energy per Si atom -5580.386347 kJ/mol
# Density = 2.069196 g / cm^3
# Si number density = 20.739159 Si / 1000 Ang^3
#
#
#
# Elastic Constant Matrix: (Units=GPa)
#
#
# Indices 1 2 3 4 5 6 
#
# 1 48.1714 34.3969 38.3148 -3.1307 2.1044 -16.4600
# 2 34.3969 156.6701 68.4796 7.8799 5.2848 -22.3042
# 3 38.3148 68.4796 157.8030 28.1030 11.6335 -6.6823
# 4 -3.1307 7.8799 28.1030 53.4690 -3.4794 -6.3416
# 5 2.1044 5.2848 11.6335 -3.4794 41.1337 -2.1595
# 6 -16.4600 -22.3042 -6.6823 -6.3416 -2.1595 27.4369
#
#
#
# Elastic Compliance Matrix: (Units=1/GPa)
#
#
# Indices 1 2 3 4 5 6 
#
# 1 0.037237 -0.001621 -0.009453 0.010104 0.002949 0.021287
# 2 -0.001621 0.009028 -0.003502 0.001123 0.000313 0.005798
# 3 -0.009453 -0.003502 0.011337 -0.007118 -0.003277 -0.007660
# 4 0.010104 0.001123 -0.007118 0.024460 0.004009 0.011210
# 5 0.002949 0.000313 -0.003277 0.004009 0.025605 0.004167
# 6 0.021287 0.005798 -0.007660 0.011210 0.004167 0.054985
#
#
# Mechanical properties :
#
#
# Convention : Reuss Voigt Hill
#
# Bulk Modulus (GPa) = 35.14934 71.66968 53.40951
# Shear Modulus (GPa) = 24.84036 39.17147 32.00592
#
# Velocity S-wave (km/s) = 3.46461 4.35071 3.93270
# Velocity P-wave (km/s) = 5.74367 7.73763 6.81398
#
# Compressibility (1/GPa) = 0.02845004
#
# Stress axis : x y z
#
# Youngs Moduli (GPa) = 26.85500 110.77183 88.20911
#
# Poissons Ratio (x) = 0.17951 0.83388
# Poissons Ratio (y) = 0.04352 0.30888
# Poissons Ratio (z) = 0.25387 0.38789
#
# Static dielectric constant tensor:
#      x y z
#    x 1.736940 0.017380 0.009300 
#    y 0.017380 1.793690 -0.044810 
#    z 0.009300 -0.044810 1.774430 
# 
# From -- ./inp_files/64110.got.cif
#   From: 2010.05.17/outbox.cif.g08.bks.cpg/sg2_33_cif.got.tgz:64110.got - 2010.06.03 11:33:40.
