data_PCOD9003613
_publ_section_title
;
Structure prediction by ZEFSAII (Michael W. Deem and Ramdas Pophale) SiO2 
 PCOD9003613
Probable space group: P -1
;
_chemical_formula_sum "Si O2"
_cell_formula_units_Z 16
_cell_length_a 10.780734
_cell_length_b 13.626511
_cell_length_c 11.919727
_cell_angle_alpha 50.559230
_cell_angle_beta 70.696259
_cell_angle_gamma 110.597331
_cell_volume 813.091470
_symmetry_space_group_name_H-M "P -1"
_symmetry_group_IT_number 2
_symmetry_cell_setting 'triclinic'
loop_
_space_group_symop_operation_xyz
x,y,z
-x,-y,-z
loop_
_atom_site_type_symbol
_atom_site_label
_atom_site_fract_x
_atom_site_fract_y
_atom_site_fract_z
Si Si1 0.760681 0.351978 0.051307
Si Si2 0.656743 0.850475 0.705320
Si Si3 0.937070 0.095369 0.900602
Si Si4 0.360126 0.991851 0.771120
Si Si5 0.626264 0.566512 0.528226
Si Si6 0.810431 0.921505 0.378759
Si Si7 0.769977 0.232113 0.381807
Si Si8 0.748392 0.834577 0.939462
O O1 0.589910 0.333423 0.103167
O O2 0.737340 0.272409 0.240109
O O3 0.710849 0.204842 0.083573
O O4 0.991807 0.569958 0.806694
O O5 0.760362 0.850406 0.573272
O O6 0.718144 0.851921 0.808734
O O7 0.722079 0.046806 0.529849
O O8 0.155605 0.329460 0.652918
O O9 0.835156 0.005468 0.874309
O O10 0.767678 0.035393 0.072873
O O11 0.000000 0.000000 0.000000
O O12 0.291122 0.020633 0.662406
O O13 0.608240 0.174458 0.559533
O O14 0.500000 0.500000 0.500000
O O15 0.705483 0.743665 0.452999
O O16 0.465121 0.371920 0.794623
O O17 0.057020 0.117006 0.148694
#
# Coordination Sequence:
#
# PCOD9003613 Si02
#       8
#     2   2   2   2   2   2   2   2
#     4  10  21  37  61  89 114 159 201 244 288 353
#     4  11  22  41  58  86 129 155 194 245 301 358
#     4  11  21  39  60  86 118 155 199 244 290 350
#     4  11  18  37  62  88 118 147 199 251 290 345
#     4  11  21  38  58  85 119 158 202 240 286 349
#     4  11  21  36  60  90 124 155 193 241 300 361
#     4  10  21  38  62  85 117 158 200 246 295 340
#     4  11  24  38  59  88 123 163 189 243 305 353
#
# _framework density 19.677983999999999
#
# number of rings (size 3 to 8) (size 9 to 14) (size 15 to 20)
#    0.000    1.250    6.250    1.125    0.000    6.500 
#    0.000    2.500    0.000    4.500    0.000    0.000 
#    0.000    0.000    0.000    0.000    0.000    0.000 
#
# Total GULP energy -89202.598717 kJ/mol
# GULP energy per Si atom -5575.162420 kJ/mol
# Density = 1.963320 g / cm^3
# Si number density = 19.677984 Si / 1000 Ang^3
#
#
#
# Elastic Constant Matrix: (Units=GPa)
#
#
# Indices 1 2 3 4 5 6 
#
# 1 20.6363 9.4615 31.3715 -4.8243 -9.4351 8.1641
# 2 9.4615 76.7146 48.7159 20.9698 -5.1501 17.0907
# 3 31.3715 48.7159 153.0745 0.1480 -39.1989 9.2233
# 4 -4.8243 20.9698 0.1480 35.6726 8.5417 -5.7927
# 5 -9.4351 -5.1501 -39.1989 8.5417 30.0535 10.2114
# 6 8.1641 17.0907 9.2233 -5.7927 10.2114 27.9872
#
#
#
# Elastic Compliance Matrix: (Units=1/GPa)
#
#
# Indices 1 2 3 4 5 6 
#
# 1 0.089760 0.009240 -0.010459 -0.007856 0.032589 -0.041896
# 2 0.009240 0.031518 -0.003766 -0.028596 0.023471 -0.035183
# 3 -0.010459 -0.003766 0.015971 -0.005920 0.021655 -0.009039
# 4 -0.007856 -0.028596 -0.005920 0.065036 -0.051962 0.054124
# 5 0.032589 0.023471 0.021655 -0.051962 0.119539 -0.085346
# 6 -0.041896 -0.035183 -0.009039 0.054124 -0.085346 0.114757
#
#
# Mechanical properties :
#
#
# Convention : Reuss Voigt Hill
#
# Bulk Modulus (GPa) = 7.85682 47.72482 27.79082
# Shear Modulus (GPa) = 10.22544 29.46774 19.84659
#
# Velocity S-wave (km/s) = 2.28203 3.87395 3.17924
# Velocity P-wave (km/s) = 3.30831 6.65699 5.25645
#
# Compressibility (1/GPa) = 0.12727790
#
# Stress axis : x y z
#
# Youngs Moduli (GPa) = 11.14086 31.72805 62.61481
#
# Poissons Ratio (x) = -0.29317 0.65489
# Poissons Ratio (y) = -0.10294 0.23582
# Poissons Ratio (z) = 0.11652 0.11949
#
# Static dielectric constant tensor:
#      x y z
#    x 1.690220 -0.011670 -0.012350 
#    y -0.011670 1.710540 0.019910 
#    z -0.012350 0.019910 1.734230 
# 
# From -- ./inp_files/432698.got.cif
#   From: 2010.05.17/outbox.cif.g08.bks.cpg/sg2_217_cif.got.tgz:432698.got - 2010.06.03 11:33:40.
