data_PCOD9003697
_publ_section_title
;
Structure prediction by ZEFSAII (Michael W. Deem and Ramdas Pophale) SiO2 
 PCOD9003697
Probable space group: P -1
;
_chemical_formula_sum "Si O2"
_cell_formula_units_Z 16
_cell_length_a 12.369194
_cell_length_b 14.789641
_cell_length_c 9.407466
_cell_angle_alpha 40.965732
_cell_angle_beta 115.563424
_cell_angle_gamma 135.075130
_cell_volume 776.747275
_symmetry_space_group_name_H-M "P -1"
_symmetry_group_IT_number 2
_symmetry_cell_setting 'triclinic'
loop_
_space_group_symop_operation_xyz
x,y,z
-x,-y,-z
loop_
_atom_site_type_symbol
_atom_site_label
_atom_site_fract_x
_atom_site_fract_y
_atom_site_fract_z
Si Si1 0.959309 0.781223 0.873381
Si Si2 0.514054 0.721694 0.434365
Si Si3 0.534497 0.971388 0.350424
Si Si4 0.168557 0.176652 0.530888
Si Si5 0.865695 0.336648 0.015585
Si Si6 0.648105 0.605448 0.066604
Si Si7 0.664608 0.440875 0.742315
Si Si8 0.461021 0.195474 0.163987
O O1 0.923585 0.807947 0.660942
O O2 0.796500 0.653766 0.013626
O O3 0.058977 0.977855 0.768359
O O4 0.054866 0.712140 0.988351
O O5 0.492362 0.858984 0.317443
O O6 0.687365 0.801222 0.481777
O O7 0.397253 0.528084 0.672374
O O8 0.484407 0.684646 0.294917
O O9 0.506276 0.843591 0.615390
O O10 0.437025 0.038180 0.245439
O O11 0.719227 0.152741 0.232148
O O12 0.248566 0.349746 0.469503
O O13 0.781860 0.404635 0.815046
O O14 0.000000 0.500000 0.000000
O O15 0.500000 0.500000 0.000000
O O16 0.665417 0.777235 0.923159
O O17 0.605652 0.376337 0.947972
#
# Coordination Sequence:
#
# PCOD9003697 Si02
#       8
#     2   2   2   2   2   2   2   2
#     4  11  23  39  66  95 127 165 217 269 308 373
#     4  12  23  41  66  97 131 165 214 264 322 384
#     4  10  22  39  63  95 123 163 215 265 313 370
#     4  11  21  39  63  94 126 165 211 261 317 372
#     4  11  23  40  64  91 129 172 215 258 318 384
#     4  12  22  38  65  96 126 165 217 265 314 370
#     4  11  24  41  66  96 130 170 208 264 326 379
#     4  10  21  37  61  94 123 158 212 267 306 360
#
# _framework density 20.598718999999999
#
# number of rings (size 3 to 8) (size 9 to 14) (size 15 to 20)
#    0.000    1.000    6.250    0.375    3.500    2.000 
#    0.000    1.250    2.750    0.000    0.000    0.000 
#    0.000    0.000    0.000    0.000    0.000    0.000 
#
# Total GULP energy -89295.121051 kJ/mol
# GULP energy per Si atom -5580.945066 kJ/mol
# Density = 2.055184 g / cm^3
# Si number density = 20.598719 Si / 1000 Ang^3
#
#
#
# Elastic Constant Matrix: (Units=GPa)
#
#
# Indices 1 2 3 4 5 6 
#
# 1 128.6754 8.4356 23.3150 -5.1006 11.8014 -10.3299
# 2 8.4356 71.8976 23.0235 -15.4744 3.2819 -16.9558
# 3 23.3150 23.0235 63.8973 -15.8662 -6.6514 -4.0080
# 4 -5.1006 -15.4744 -15.8662 15.1489 -1.3320 4.6169
# 5 11.8014 3.2819 -6.6514 -1.3320 33.4328 -9.2810
# 6 -10.3299 -16.9558 -4.0080 4.6169 -9.2810 22.4479
#
#
#
# Elastic Compliance Matrix: (Units=1/GPa)
#
#
# Indices 1 2 3 4 5 6 
#
# 1 0.008938 0.000738 -0.004118 -0.001731 -0.003304 0.002926
# 2 0.000738 0.021028 -0.003331 0.014327 0.001247 0.013197
# 3 -0.004118 -0.003331 0.024426 0.021914 0.007058 -0.001638
# 4 -0.001731 0.014327 0.021914 0.105114 0.006349 -0.005056
# 5 -0.003304 0.001247 0.007058 0.006349 0.036644 0.014527
# 6 0.002926 0.013197 -0.001638 -0.005056 0.014527 0.062616
#
#
# Mechanical properties :
#
#
# Convention : Reuss Voigt Hill
#
# Bulk Modulus (GPa) = 24.40751 41.55761 32.98256
# Shear Modulus (GPa) = 17.49207 28.18566 22.83887
#
# Velocity S-wave (km/s) = 2.91724 3.70310 3.33340
# Velocity P-wave (km/s) = 4.81890 6.20504 5.55537
#
# Compressibility (1/GPa) = 0.04097100
#
# Stress axis : x y z
#
# Youngs Moduli (GPa) = 111.87640 47.55662 40.93977
#
# Poissons Ratio (x) = -0.03510 0.16858
# Poissons Ratio (y) = -0.08256 0.13636
# Poissons Ratio (z) = 0.46067 0.15840
#
# Static dielectric constant tensor:
#      x y z
#    x 1.744870 -0.031540 0.006480 
#    y -0.031540 1.759210 -0.024460 
#    z 0.006480 -0.024460 1.739000 
# 
# From -- ./inp_files/260775.got.cif
#   From: 2010.05.17/outbox.cif.g08.bks.cpg/sg2_131_cif.got.tgz:260775.got - 2010.06.03 11:33:40.
