data_PCOD9003019
_publ_section_title
;
Structure prediction by ZEFSAII (Michael W. Deem and Ramdas Pophale) SiO2 
 PCOD9003019
Probable space group: P -1
;
_chemical_formula_sum "Si O2"
_cell_formula_units_Z 12
_cell_length_a 9.801693
_cell_length_b 13.760415
_cell_length_c 5.113755
_cell_angle_alpha 92.663093
_cell_angle_beta 107.498489
_cell_angle_gamma 121.754907
_cell_volume 541.220963
_symmetry_space_group_name_H-M "P -1"
_symmetry_group_IT_number 2
_symmetry_cell_setting 'triclinic'
loop_
_space_group_symop_operation_xyz
x,y,z
-x,-y,-z
loop_
_atom_site_type_symbol
_atom_site_label
_atom_site_fract_x
_atom_site_fract_y
_atom_site_fract_z
Si Si1 0.582992 0.686219 0.973194
Si Si2 0.713537 0.132827 0.902291
Si Si3 0.528620 0.147107 0.275262
Si Si4 0.091213 0.302659 0.962309
Si Si5 0.077100 0.581322 0.309346
Si Si6 0.371417 0.562017 0.366970
O O1 0.564014 0.787144 0.854685
O O2 0.782223 0.727779 0.095887
O O3 0.483630 0.580530 0.688825
O O4 0.485477 0.631879 0.185759
O O5 0.619434 0.150542 0.603922
O O6 0.620305 0.993226 0.859415
O O7 0.670623 0.181622 0.135359
O O8 0.921120 0.200013 0.003039
O O9 0.221940 0.424800 0.211209
O O10 0.995503 0.338582 0.712489
O O11 0.275212 0.625353 0.406091
O O12 0.000000 0.500000 0.500000
O O13 0.000000 0.500000 0.000000
#
# Coordination Sequence:
#
# PCOD9003019 Si02
#       6
#     2   2   2   2   2   2
#     4  12  24  39  62  89 128 161 197 249 305 359
#     4  10  23  42  67  88 118 158 208 251 295 364
#     4  10  22  44  65  89 118 160 202 251 308 355
#     4  11  24  39  62  94 123 158 204 251 300 355
#     4  10  21  37  57  80 113 155 200 237 278 347
#     4  11  24  41  59  87 128 167 197 240 302 364
#
# _framework density 22.172091999999999
#
# number of rings (size 3 to 8) (size 9 to 14) (size 15 to 20)
#    0.000    1.333    0.000    6.000    0.000   10.000 
#    0.000    0.000    0.000    8.000    0.000    0.000 
#    0.000    0.000    0.000    0.000    0.000    0.000 
#
# Total GULP energy -66971.540022 kJ/mol
# GULP energy per Si atom -5580.961668 kJ/mol
# Density = 2.212163 g / cm^3
# Si number density = 22.172092 Si / 1000 Ang^3
#
#
#
# Elastic Constant Matrix: (Units=GPa)
#
#
# Indices 1 2 3 4 5 6 
#
# 1 216.4555 66.6320 57.1311 -17.9543 13.0354 23.1232
# 2 66.6320 92.5013 13.2585 -11.8204 3.2865 9.2151
# 3 57.1311 13.2585 109.9411 -25.5406 -13.2373 7.2618
# 4 -17.9543 -11.8204 -25.5406 22.9477 10.6804 -1.9589
# 5 13.0354 3.2865 -13.2373 10.6804 36.7858 -5.0799
# 6 23.1232 9.2151 7.2618 -1.9589 -5.0799 37.6851
#
#
#
# Elastic Compliance Matrix: (Units=1/GPa)
#
#
# Indices 1 2 3 4 5 6 
#
# 1 0.007610 -0.004255 -0.003319 0.001882 -0.004541 -0.003503
# 2 -0.004255 0.014633 0.001972 0.006886 -0.001249 -0.001158
# 3 -0.003319 0.001972 0.013824 0.012743 0.002255 -0.000143
# 4 0.001882 0.006886 0.012743 0.070713 -0.017782 -0.004015
# 5 -0.004541 -0.001249 0.002255 -0.017782 0.035785 0.006557
# 6 -0.003503 -0.001158 -0.000143 -0.004015 0.006557 0.029671
#
#
# Mechanical properties :
#
#
# Convention : Reuss Voigt Hill
#
# Bulk Modulus (GPa) = 40.22159 76.99346 58.60753
# Shear Modulus (GPa) = 26.07871 38.27549 32.17710
#
# Velocity S-wave (km/s) = 3.43329 4.15937 3.81365
# Velocity P-wave (km/s) = 5.82208 7.60710 6.77365
#
# Compressibility (1/GPa) = 0.02486227
#
# Stress axis : x y z
#
# Youngs Moduli (GPa) = 131.41263 68.34098 72.33672
#
# Poissons Ratio (x) = 0.29078 0.24011
# Poissons Ratio (y) = 0.55914 -0.14266
# Poissons Ratio (z) = 0.43620 -0.13478
#
# Static dielectric constant tensor:
#      x y z
#    x 1.906770 -0.029470 0.024230 
#    y -0.029470 1.906920 0.050520 
#    z 0.024230 0.050520 1.837190 
# 
# From -- ./inp_files/32626.got.cif
#   From: 2010.05.17/outbox.cif.g08.bks.cpg/sg2_17_cif.got.tgz:32626.got - 2010.06.03 11:33:40.
