data_PCOD9003302
_publ_section_title
;
Structure prediction by ZEFSAII (Michael W. Deem and Ramdas Pophale) SiO2 
 PCOD9003302
Probable space group: P -1
;
_chemical_formula_sum "Si O2"
_cell_formula_units_Z 16
_cell_length_a 7.670990
_cell_length_b 18.564912
_cell_length_c 8.429241
_cell_angle_alpha 109.400437
_cell_angle_beta 93.716597
_cell_angle_gamma 130.408159
_cell_volume 793.864104
_symmetry_space_group_name_H-M "P -1"
_symmetry_group_IT_number 2
_symmetry_cell_setting 'triclinic'
loop_
_space_group_symop_operation_xyz
x,y,z
-x,-y,-z
loop_
_atom_site_type_symbol
_atom_site_label
_atom_site_fract_x
_atom_site_fract_y
_atom_site_fract_z
Si Si1 0.200373 0.705485 0.673963
Si Si2 0.563548 0.323578 0.581516
Si Si3 0.174577 0.736832 0.354532
Si Si4 0.677996 0.529890 0.675288
Si Si5 0.837914 0.841744 0.335421
Si Si6 0.133991 0.283836 0.961506
Si Si7 0.351872 0.049424 0.600654
Si Si8 0.629410 0.104124 0.977526
O O1 0.361276 0.686805 0.593924
O O2 0.094387 0.716074 0.517704
O O3 0.364898 0.814336 0.866122
O O4 0.960809 0.606018 0.685701
O O5 0.744116 0.327178 0.706057
O O6 0.595499 0.423395 0.663309
O O7 0.290126 0.216264 0.546552
O O8 0.995013 0.710227 0.187790
O O9 0.430331 0.863838 0.446256
O O10 0.500000 0.500000 0.500000
O O11 0.691011 0.603098 0.854170
O O12 0.769606 0.906348 0.333709
O O13 0.742565 0.751066 0.137007
O O14 0.134752 0.929541 0.431965
O O15 0.917446 0.187051 0.997914
O O16 0.474449 0.058378 0.773608
O O17 0.500000 0.000000 0.000000
#
# Coordination Sequence:
#
# PCOD9003302 Si02
#       8
#     2   2   2   2   2   2   2   2
#     4   9  21  41  58  84 115 149 195 229 286 337
#     4   9  21  38  62  80 111 159 190 234 280 334
#     4   8  19  38  62  83 107 154 191 232 272 334
#     4  11  24  40  57  87 117 146 187 242 297 333
#     4  10  21  37  59  88 116 150 192 236 279 329
#     4  10  23  38  59  85 116 145 194 241 279 338
#     4   9  20  37  58  86 119 150 191 227 276 341
#     4  10  22  35  59  88 116 155 186 228 287 345
#
# _framework density 20.154582999999999
#
# number of rings (size 3 to 8) (size 9 to 14) (size 15 to 20)
#    0.750    1.750    0.000    0.375    5.250    4.000 
#    0.000    2.500    0.000    0.000    0.000    0.000 
#    0.000    0.000    0.000    0.000    0.000    0.000 
#
# Total GULP energy -89188.736661 kJ/mol
# GULP energy per Si atom -5574.296041 kJ/mol
# Density = 2.010871 g / cm^3
# Si number density = 20.154583 Si / 1000 Ang^3
#
#
#
# Elastic Constant Matrix: (Units=GPa)
#
#
# Indices 1 2 3 4 5 6 
#
# 1 36.7896 1.9527 7.9783 12.7331 -17.0878 -9.9331
# 2 1.9527 82.8619 0.5442 8.3890 2.7678 -16.6878
# 3 7.9783 0.5442 70.7519 14.2911 -18.3577 -1.5040
# 4 12.7331 8.3890 14.2911 22.9526 -3.2647 -3.0507
# 5 -17.0878 2.7678 -18.3577 -3.2647 26.9884 1.0373
# 6 -9.9331 -16.6878 -1.5040 -3.0507 1.0373 15.7951
#
#
#
# Elastic Compliance Matrix: (Units=1/GPa)
#
#
# Indices 1 2 3 4 5 6 
#
# 1 0.070803 0.009760 0.012528 -0.038035 0.045994 0.045664
# 2 0.009760 0.017166 0.002173 -0.009513 0.003886 0.022388
# 3 0.012528 0.002173 0.021546 -0.017312 0.019980 0.007570
# 4 -0.038035 -0.009513 -0.017312 0.072675 -0.025325 -0.019918
# 5 0.045994 0.003886 0.019980 -0.025325 0.075339 0.025093
# 6 0.045664 0.022388 0.007570 -0.019918 0.025093 0.110907
#
#
# Mechanical properties :
#
#
# Convention : Reuss Voigt Hill
#
# Bulk Modulus (GPa) = 6.31164 23.48375 14.89770
# Shear Modulus (GPa) = 13.42911 25.14242 19.28577
#
# Velocity S-wave (km/s) = 2.58409 3.53580 3.09672
# Velocity P-wave (km/s) = 3.47013 5.32412 4.49378
#
# Compressibility (1/GPa) = 0.15843749
#
# Stress axis : x y z
#
# Youngs Moduli (GPa) = 14.12373 58.25411 46.41155
#
# Poissons Ratio (x) = -0.56855 -0.58145
# Poissons Ratio (y) = -0.13785 -0.10086
# Poissons Ratio (z) = -0.17694 -0.12659
#
# Static dielectric constant tensor:
#      x y z
#    x 1.751510 0.009910 -0.018300 
#    y 0.009910 1.713470 0.001900 
#    z -0.018300 0.001900 1.689480 
# 
# From -- ./inp_files/215528.got.cif
#   From: 2010.05.17/outbox.cif.g08.bks.cpg/sg2_108_cif.got.tgz:215528.got - 2010.06.03 11:33:40.
