data_PCOD9003228
_publ_section_title
;
Structure prediction by ZEFSAII (Michael W. Deem and Ramdas Pophale) SiO2 
 PCOD9003228
Probable space group: P -1
;
_chemical_formula_sum "Si O2"
_cell_formula_units_Z 14
_cell_length_a 24.096421
_cell_length_b 5.257610
_cell_length_c 11.868904
_cell_angle_alpha 119.064046
_cell_angle_beta 29.349698
_cell_angle_gamma 114.837424
_cell_volume 644.179264
_symmetry_space_group_name_H-M "P -1"
_symmetry_group_IT_number 2
_symmetry_cell_setting 'triclinic'
loop_
_space_group_symop_operation_xyz
x,y,z
-x,-y,-z
loop_
_atom_site_type_symbol
_atom_site_label
_atom_site_fract_x
_atom_site_fract_y
_atom_site_fract_z
Si Si1 0.035459 0.660334 0.357482
Si Si2 0.140703 0.673117 0.543579
Si Si3 0.460746 0.468926 0.191524
Si Si4 0.345056 0.766444 0.048636
Si Si5 0.766604 0.735061 0.535642
Si Si6 0.595814 0.100041 0.438925
Si Si7 0.297919 0.507580 0.843550
O O1 0.000000 0.500000 0.500000
O O2 0.969711 0.490940 0.338545
O O3 0.169110 0.615069 0.100452
O O4 0.000000 0.000000 0.500000
O O5 0.239945 0.600727 0.260138
O O6 0.177568 0.548053 0.571428
O O7 0.145103 0.024068 0.611823
O O8 0.334562 0.337954 0.385104
O O9 0.455570 0.780614 0.328806
O O10 0.500000 0.500000 0.000000
O O11 0.548076 0.278362 0.069216
O O12 0.297577 0.093745 0.211502
O O13 0.360860 0.651228 0.870841
O O14 0.652275 0.369631 0.333181
O O15 0.500000 0.000000 0.500000
O O16 0.681747 0.835402 0.252670
#
# Coordination Sequence:
#
# PCOD9003228 Si02
#       7
#     2   2   2   2   2   2   2
#     4  12  22  39  70 102 134 184 233 286 343 409
#     4  10  21  37  59 101 129 164 225 291 330 386
#     4  12  24  43  72  98 134 185 242 278 335 424
#     4  10  22  36  67  97 138 165 230 278 346 387
#     4  10  22  37  60  98 130 164 225 285 333 378
#     4  12  29  46  66 100 148 187 220 284 364 412
#     4  12  26  44  68  99 150 179 223 287 362 413
#
# _framework density 21.733082
#
# number of rings (size 3 to 8) (size 9 to 14) (size 15 to 20)
#    0.857    0.000    4.286    3.429    4.000    2.286 
#    0.000    0.000    0.000    5.143    0.000    0.000 
#    0.000    0.000    0.000    0.000    0.000    0.000 
#
# Total GULP energy -78235.185658 kJ/mol
# GULP energy per Si atom -5588.227547 kJ/mol
# Density = 2.168362 g / cm^3
# Si number density = 21.733082 Si / 1000 Ang^3
#
#
#
# Elastic Constant Matrix: (Units=GPa)
#
#
# Indices 1 2 3 4 5 6 
#
# 1 107.8419 34.2587 34.9895 -10.4221 -4.1953 2.3810
# 2 34.2587 94.1534 12.2513 1.0769 -2.4401 -11.4840
# 3 34.9895 12.2513 52.5329 3.0440 -2.4524 -6.7813
# 4 -10.4221 1.0769 3.0440 27.7463 4.5985 -4.7347
# 5 -4.1953 -2.4401 -2.4524 4.5985 35.8048 3.1350
# 6 2.3810 -11.4840 -6.7813 -4.7347 3.1350 42.4433
#
#
#
# Elastic Compliance Matrix: (Units=1/GPa)
#
#
# Indices 1 2 3 4 5 6 
#
# 1 0.014319 -0.004418 -0.009210 0.006045 0.000216 -0.002812
# 2 -0.004418 0.012613 0.000568 -0.001653 0.000283 0.003546
# 3 -0.009210 0.000568 0.025955 -0.005819 0.001127 0.004085
# 4 0.006045 -0.001653 -0.005819 0.040431 -0.005274 0.003184
# 5 0.000216 0.000283 0.001127 -0.005274 0.028946 -0.002482
# 6 -0.002812 0.003546 0.004085 0.003184 -0.002482 0.025869
#
#
# Mechanical properties :
#
#
# Convention : Reuss Voigt Hill
#
# Bulk Modulus (GPa) = 37.36013 46.39188 41.87601
# Shear Modulus (GPa) = 27.29598 32.73412 30.01505
#
# Velocity S-wave (km/s) = 3.54780 3.88517 3.72032
# Velocity P-wave (km/s) = 5.83184 6.44350 6.14528
#
# Compressibility (1/GPa) = 0.02676650
#
# Stress axis : x y z
#
# Youngs Moduli (GPa) = 69.83551 79.28024 38.52860
#
# Poissons Ratio (x) = 0.35029 0.35486
# Poissons Ratio (y) = 0.30856 -0.02188
# Poissons Ratio (z) = 0.64320 -0.04503
#
# Static dielectric constant tensor:
#      x y z
#    x 1.860910 0.006640 0.134680 
#    y 0.006640 1.826270 -0.039000 
#    z 0.134680 -0.039000 2.020060 
# 
# From -- ./inp_files/473464.got.cif
#   From: 2010.05.17/outbox.cif.g08.bks.cpg/sg2_237_cif.got.tgz:473464.got - 2010.06.03 11:33:40.
