data_PCOD9003419
_publ_section_title
;
Structure prediction by ZEFSAII (Michael W. Deem and Ramdas Pophale) SiO2 
 PCOD9003419
Probable space group: P -1
;
_chemical_formula_sum "Si O2"
_cell_formula_units_Z 16
_cell_length_a 15.963077
_cell_length_b 8.807848
_cell_length_c 17.265923
_cell_angle_alpha 129.385807
_cell_angle_beta 24.065143
_cell_angle_gamma 135.553807
_cell_volume 691.899475
_symmetry_space_group_name_H-M "P -1"
_symmetry_group_IT_number 2
_symmetry_cell_setting 'triclinic'
loop_
_space_group_symop_operation_xyz
x,y,z
-x,-y,-z
loop_
_atom_site_type_symbol
_atom_site_label
_atom_site_fract_x
_atom_site_fract_y
_atom_site_fract_z
Si Si1 0.778110 0.324166 0.514102
Si Si2 0.845561 0.213210 0.243219
Si Si3 0.837144 0.205403 0.660840
Si Si4 0.484946 0.374075 0.551086
Si Si5 0.076783 0.939169 0.305069
Si Si6 0.603038 0.755252 0.984553
Si Si7 0.922755 0.970260 0.293982
Si Si8 0.340953 0.295006 0.809589
O O1 0.812087 0.265031 0.377303
O O2 0.535318 0.332885 0.721950
O O3 0.973590 0.557917 0.445090
O O4 0.816077 0.134565 0.465415
O O5 0.688740 0.301071 0.357008
O O6 0.740378 0.957678 0.228333
O O7 0.113538 0.315519 0.032163
O O8 0.904453 0.016450 0.516554
O O9 0.842100 0.191084 0.746127
O O10 0.599115 0.174311 0.817952
O O11 0.500000 0.500000 0.500000
O O12 0.236701 0.175769 0.683894
O O13 0.462916 0.446363 0.680830
O O14 0.281389 0.155226 0.167882
O O15 0.951294 0.829819 0.295879
O O16 0.500000 0.500000 0.000000
O O17 0.818055 0.877590 0.898779
#
# Coordination Sequence:
#
# PCOD9003419 Si02
#       8
#     2   2   2   2   2   2   2   2
#     4  11  20  37  63  87 120 156 204 242 301 345
#     4  10  21  39  61  88 118 158 200 242 297 357
#     4  11  21  42  61  85 122 162 190 254 296 361
#     4  11  22  40  63  87 130 156 191 250 301 352
#     4   9  24  39  58  87 122 154 202 238 306 354
#     4  10  21  37  60  86 118 154 200 242 293 347
#     4  10  21  40  56  91 121 152 202 246 290 353
#     4  10  21  39  61  89 117 157 199 243 295 357
#
# _framework density 23.124745999999998
#
# number of rings (size 3 to 8) (size 9 to 14) (size 15 to 20)
#    0.750    1.000    3.750    1.125    3.500    3.500 
#    4.500    2.500    0.000    0.000    0.000    0.000 
#    0.000    0.000    0.000    0.000    0.000    0.000 
#
# Total GULP energy -89279.111921 kJ/mol
# GULP energy per Si atom -5579.944495 kJ/mol
# Density = 2.307211 g / cm^3
# Si number density = 23.124746 Si / 1000 Ang^3
#
#
#
# Elastic Constant Matrix: (Units=GPa)
#
#
# Indices 1 2 3 4 5 6 
#
# 1 67.3347 13.6833 41.3249 -3.2224 -25.8073 -15.3691
# 2 13.6833 43.0164 7.8214 -10.2149 -9.4195 -7.9092
# 3 41.3249 7.8214 154.8380 -15.3820 -35.0849 -0.8069
# 4 -3.2224 -10.2149 -15.3820 22.9966 5.8082 -0.8668
# 5 -25.8073 -9.4195 -35.0849 5.8082 40.4843 -6.8465
# 6 -15.3691 -7.9092 -0.8069 -0.8668 -6.8465 34.7069
#
#
#
# Elastic Compliance Matrix: (Units=1/GPa)
#
#
# Indices 1 2 3 4 5 6 
#
# 1 0.027019 -0.002467 -0.003617 -0.003336 0.016443 0.014479
# 2 -0.002467 0.029403 0.001901 0.012662 0.006320 0.007215
# 3 -0.003617 0.001901 0.009024 0.005051 0.005267 0.000207
# 4 -0.003336 0.012662 0.005051 0.052601 -0.001934 0.002458
# 5 0.016443 0.006320 0.005267 -0.001934 0.044466 0.017567
# 6 0.014479 0.007215 0.000207 0.002458 0.017567 0.040400
#
#
# Mechanical properties :
#
#
# Convention : Reuss Voigt Hill
#
# Bulk Modulus (GPa) = 17.51900 43.42759 30.47329
# Shear Modulus (GPa) = 21.71018 33.12821 27.41920
#
# Velocity S-wave (km/s) = 3.06736 3.78906 3.44715
# Velocity P-wave (km/s) = 4.48745 6.16142 5.38982
#
# Compressibility (1/GPa) = 0.05708087
#
# Stress axis : x y z
#
# Youngs Moduli (GPa) = 37.01070 34.00976 110.81509
#
# Poissons Ratio (x) = 0.08389 0.40079
# Poissons Ratio (y) = 0.09129 -0.21061
# Poissons Ratio (z) = 0.13386 -0.06464
#
# Static dielectric constant tensor:
#      x y z
#    x 1.974920 -0.048840 0.022940 
#    y -0.048840 1.931060 -0.039190 
#    z 0.022940 -0.039190 1.854030 
# 
# From -- ./inp_files/599745.got.cif
#   From: 2010.05.17/outbox.cif.g08.bks.cpg/sg2_300_cif.got.tgz:599745.got - 2010.06.03 11:33:40.
