data_PCOD9003553
_publ_section_title
;
Structure prediction by ZEFSAII (Michael W. Deem and Ramdas Pophale) SiO2 
 PCOD9003553
Probable space group: P -1
;
_chemical_formula_sum "Si O2"
_cell_formula_units_Z 12
_cell_length_a 13.138068
_cell_length_b 5.638077
_cell_length_c 24.734425
_cell_angle_alpha 49.135004
_cell_angle_beta 157.673773
_cell_angle_gamma 117.170679
_cell_volume 450.482050
_symmetry_space_group_name_H-M "P -1"
_symmetry_group_IT_number 2
_symmetry_cell_setting 'triclinic'
loop_
_space_group_symop_operation_xyz
x,y,z
-x,-y,-z
loop_
_atom_site_type_symbol
_atom_site_label
_atom_site_fract_x
_atom_site_fract_y
_atom_site_fract_z
Si Si1 0.292558 0.368843 0.265650
Si Si2 0.527068 0.529119 0.918379
Si Si3 0.508755 0.779189 0.249203
Si Si4 0.818291 0.256674 0.725678
Si Si5 0.882310 0.427010 0.376572
Si Si6 0.970920 0.240107 0.271382
O O1 0.272388 0.651264 0.168239
O O2 0.218246 0.584789 0.254594
O O3 0.127072 0.147710 0.195655
O O4 0.662570 0.049312 0.499725
O O5 0.351187 0.392485 0.814178
O O6 0.251616 0.772308 0.790594
O O7 0.598793 0.800868 0.878219
O O8 0.823140 0.239158 0.141254
O O9 0.687724 0.587771 0.311051
O O10 0.784336 0.604496 0.455768
O O11 0.500000 0.500000 0.500000
O O12 0.058398 0.362015 0.802300
O O13 0.000000 0.000000 0.500000
#
# Coordination Sequence:
#
# PCOD9003553 Si02
#       6
#     2   2   2   2   2   2
#     4  11  23  42  72  92 125 172 222 267 306 382
#     4  10  22  40  62  95 131 165 200 276 332 378
#     4  10  21  37  60  96 120 163 222 259 321 378
#     4  10  23  42  67  95 124 175 219 263 309 380
#     4   9  18  34  58  86 124 162 202 260 313 378
#     4  10  21  42  62  95 130 163 217 259 328 385
#
# _framework density 26.638133
#
# number of rings (size 3 to 8) (size 9 to 14) (size 15 to 20)
#    0.000    2.000    0.000    5.000    9.333    0.000 
#   12.000    4.167    0.000    0.000    0.000    0.000 
#    0.000    0.000    0.000    0.000    0.000    0.000 
#
# Total GULP energy -67109.276398 kJ/mol
# GULP energy per Si atom -5592.439700 kJ/mol
# Density = 2.657750 g / cm^3
# Si number density = 26.638133 Si / 1000 Ang^3
#
#
#
# Elastic Constant Matrix: (Units=GPa)
#
#
# Indices 1 2 3 4 5 6 
#
# 1 89.1998 78.6886 2.0792 -5.9010 0.2456 25.2754
# 2 78.6886 201.4001 24.1866 6.5373 10.6768 27.2182
# 3 2.0792 24.1866 102.5667 0.5095 -5.4362 -9.9760
# 4 -5.9010 6.5373 0.5095 42.5753 -20.7786 1.4449
# 5 0.2456 10.6768 -5.4362 -20.7786 29.7950 -3.7291
# 6 25.2754 27.2182 -9.9760 1.4449 -3.7291 50.5320
#
#
#
# Elastic Compliance Matrix: (Units=1/GPa)
#
#
# Indices 1 2 3 4 5 6 
#
# 1 0.020283 -0.008078 0.001374 0.008108 0.007987 -0.005165
# 2 -0.008078 0.009393 -0.002675 -0.006720 -0.008724 -0.001999
# 3 0.001374 -0.002675 0.010941 0.003023 0.005456 0.003229
# 4 0.008108 -0.006720 0.003023 0.041014 0.031661 0.001324
# 5 0.007987 -0.008724 0.005456 0.031661 0.060366 0.005331
# 6 -0.005165 -0.001999 0.003229 0.001324 0.005331 0.024443
#
#
# Mechanical properties :
#
#
# Convention : Reuss Voigt Hill
#
# Bulk Modulus (GPa) = 45.74525 67.00838 56.37681
# Shear Modulus (GPa) = 25.97611 43.79462 34.88536
#
# Velocity S-wave (km/s) = 3.12612 4.05910 3.62277
# Velocity P-wave (km/s) = 5.49912 6.86863 6.22167
#
# Compressibility (1/GPa) = 0.02186019
#
# Stress axis : x y z
#
# Youngs Moduli (GPa) = 49.30179 106.45701 91.40036
#
# Poissons Ratio (x) = 0.86000 -0.12563
# Poissons Ratio (y) = 0.39828 0.24447
# Poissons Ratio (z) = -0.06776 0.28474
#
# Static dielectric constant tensor:
#      x y z
#    x 2.078850 -0.004440 0.015680 
#    y -0.004440 2.147460 0.004040 
#    z 0.015680 0.004040 2.099970 
# 
# From -- ./inp_files/424668.got.cif
#   From: 2010.05.17/outbox.cif.g08.bks.cpg/sg2_213_cif.got.tgz:424668.got - 2010.06.03 11:33:40.
