data_PCOD9003173
_publ_section_title
;
Structure prediction by ZEFSAII (Michael W. Deem and Ramdas Pophale) SiO2 
 PCOD9003173
Probable space group: P -1
;
_chemical_formula_sum "Si O2"
_cell_formula_units_Z 14
_cell_length_a 15.962641
_cell_length_b 9.379875
_cell_length_c 19.766521
_cell_angle_alpha 140.810799
_cell_angle_beta 20.761276
_cell_angle_gamma 130.381858
_cell_volume 622.663496
_symmetry_space_group_name_H-M "P -1"
_symmetry_group_IT_number 2
_symmetry_cell_setting 'triclinic'
loop_
_space_group_symop_operation_xyz
x,y,z
-x,-y,-z
loop_
_atom_site_type_symbol
_atom_site_label
_atom_site_fract_x
_atom_site_fract_y
_atom_site_fract_z
Si Si1 0.156449 0.734021 0.035287
Si Si2 0.867957 0.931813 0.697000
Si Si3 0.322463 0.207789 0.664487
Si Si4 0.772962 0.247190 0.248574
Si Si5 0.561187 0.240305 0.805518
Si Si6 0.453587 0.291258 0.057166
Si Si7 0.481362 0.255186 0.344857
O O1 0.135422 0.863683 0.170361
O O2 0.900061 0.847229 0.227197
O O3 0.208359 0.448924 0.884667
O O4 0.398379 0.766859 0.828001
O O5 0.688514 0.064832 0.820613
O O6 0.148449 0.806275 0.414215
O O7 0.765536 0.743315 0.744017
O O8 0.520004 0.242996 0.474620
O O9 0.500000 0.000000 0.500000
O O10 0.703142 0.276632 0.233559
O O11 0.768623 0.509487 0.372954
O O12 0.000000 0.000000 0.000000
O O13 0.411622 0.289486 0.007446
O O14 0.551537 0.988289 0.695591
O O15 0.490026 0.459457 0.887055
#
# Coordination Sequence:
#
# PCOD9003173 Si02
#       7
#     2   2   2   2   2   2   2
#     4  10  21  38  59  86 122 162 201 255 311 364
#     4  11  22  41  65  90 125 165 204 261 314 366
#     4  10  21  37  58  87 121 158 203 254 305 371
#     4  10  21  37  58  87 121 158 204 252 304 374
#     4  11  22  41  65  91 123 166 206 258 315 366
#     4  10  24  42  62  93 126 160 215 257 306 376
#     4  10  21  38  59  86 122 161 203 254 311 363
#
# _framework density 22.484054
#
# number of rings (size 3 to 8) (size 9 to 14) (size 15 to 20)
#    0.000    1.714    1.429    2.571    0.000    6.857 
#    0.000    0.000    0.000    0.000    0.000    0.000 
#    0.000    0.000    0.000    0.000    0.000    0.000 
#
# Total GULP energy -78137.227796 kJ/mol
# GULP energy per Si atom -5581.230557 kJ/mol
# Density = 2.243288 g / cm^3
# Si number density = 22.484054 Si / 1000 Ang^3
#
#
#
# Elastic Constant Matrix: (Units=GPa)
#
#
# Indices 1 2 3 4 5 6 
#
# 1 52.3816 17.5445 12.7116 17.8223 -2.9143 -5.5343
# 2 17.5445 139.2527 29.0088 20.1581 -3.0252 -6.3422
# 3 12.7116 29.0088 87.1333 23.8861 -9.6603 3.5508
# 4 17.8223 20.1581 23.8861 40.6442 -7.8133 -1.7104
# 5 -2.9143 -3.0252 -9.6603 -7.8133 35.6748 8.2528
# 6 -5.5343 -6.3422 3.5508 -1.7104 8.2528 20.8226
#
#
#
# Elastic Compliance Matrix: (Units=1/GPa)
#
#
# Indices 1 2 3 4 5 6 
#
# 1 0.023381 -0.001183 -0.000939 -0.009217 -0.001849 0.005990
# 2 -0.001183 0.008230 -0.002152 -0.002402 -0.001161 0.002822
# 3 -0.000939 -0.002152 0.014793 -0.006766 0.003508 -0.005374
# 4 -0.009217 -0.002402 -0.006766 0.034743 0.005096 -0.001194
# 5 -0.001849 -0.001161 0.003508 0.005096 0.033121 -0.014152
# 6 0.005990 0.002822 -0.005374 -0.001194 -0.014152 0.056904
#
#
# Mechanical properties :
#
#
# Convention : Reuss Voigt Hill
#
# Bulk Modulus (GPa) = 26.41770 44.14413 35.28092
# Shear Modulus (GPa) = 25.99579 34.06183 30.02881
#
# Velocity S-wave (km/s) = 3.40396 3.89644 3.65850
# Velocity P-wave (km/s) = 5.21769 6.31816 5.79411
#
# Compressibility (1/GPa) = 0.03785341
#
# Stress axis : x y z
#
# Youngs Moduli (GPa) = 42.77005 121.51129 67.59960
#
# Poissons Ratio (x) = 0.14377 0.06351
# Poissons Ratio (y) = 0.05061 0.14550
# Poissons Ratio (z) = 0.04018 0.26154
#
# Static dielectric constant tensor:
#      x y z
#    x 0.000000 0.000000 0.000000 
#    y 0.000000 0.000000 0.000000 
#    z 0.000000 0.000000 0.000000 
# 
# From -- ./inp_files/229588.got.cif
#   From: 2010.05.17/outbox.cif.g08.bks.cpg/sg2_115_cif.got.tgz:229588.got - 2010.06.03 11:33:40.
