data_PCOD9003629
_publ_section_title
;
Structure prediction by ZEFSAII (Michael W. Deem and Ramdas Pophale) SiO2 
 PCOD9003629
Probable space group: P -1
;
_chemical_formula_sum "Si O2"
_cell_formula_units_Z 16
_cell_length_a 9.487356
_cell_length_b 12.235118
_cell_length_c 11.675897
_cell_angle_alpha 58.179222
_cell_angle_beta 82.776422
_cell_angle_gamma 51.458596
_cell_volume 857.795991
_symmetry_space_group_name_H-M "P -1"
_symmetry_group_IT_number 2
_symmetry_cell_setting 'triclinic'
loop_
_space_group_symop_operation_xyz
x,y,z
-x,-y,-z
loop_
_atom_site_type_symbol
_atom_site_label
_atom_site_fract_x
_atom_site_fract_y
_atom_site_fract_z
Si Si1 0.863272 0.350461 0.849322
Si Si2 0.030115 0.505885 0.789078
Si Si3 0.707327 0.451968 0.386222
Si Si4 0.271580 0.736645 0.292711
Si Si5 0.495287 0.643331 0.860166
Si Si6 0.879184 0.894816 0.829682
Si Si7 0.141785 0.827662 0.653122
Si Si8 0.278231 0.267341 0.112643
O O1 0.833328 0.258491 0.809707
O O2 0.657889 0.523625 0.814896
O O3 0.977735 0.410989 0.773039
O O4 0.982274 0.227384 0.013463
O O5 0.134276 0.543428 0.675258
O O6 0.843849 0.655603 0.799141
O O7 0.167974 0.388786 0.946223
O O8 0.493174 0.630253 0.304308
O O9 0.739800 0.368406 0.552407
O O10 0.726768 0.325578 0.363649
O O11 0.186469 0.920581 0.245659
O O12 0.290606 0.798102 0.743311
O O13 0.556734 0.728047 0.884700
O O14 0.500000 0.500000 0.000000
O O15 0.711668 0.890445 0.832283
O O16 0.010167 0.812986 0.749111
O O17 0.000000 0.000000 0.500000
#
# Coordination Sequence:
#
# PCOD9003629 Si02
#       8
#     2   2   2   2   2   2   2   2
#     4  10  21  37  61  90 120 156 204 248 303 361
#     4   9  18  35  61  90 117 154 199 256 300 354
#     4  11  22  39  61  83 119 168 206 237 302 371
#     4  11  24  38  58  87 124 166 199 242 301 368
#     4  11  20  36  65  96 115 154 208 259 295 355
#     4  11  21  39  61  91 125 155 196 261 304 351
#     4  12  22  38  64  91 121 158 206 254 308 352
#     4   9  19  34  61  94 120 146 201 259 308 343
#
# _framework density 18.652453000000001
#
# number of rings (size 3 to 8) (size 9 to 14) (size 15 to 20)
#    0.000    1.500    5.000    1.875    0.000    0.500 
#    0.000    4.375    5.500    0.000    0.000    0.000 
#    0.000    0.000    0.000    0.000    0.000    0.000 
#
# Total GULP energy -89106.499715 kJ/mol
# GULP energy per Si atom -5569.156232 kJ/mol
# Density = 1.861000 g / cm^3
# Si number density = 18.652453 Si / 1000 Ang^3
#
#
#
# Elastic Constant Matrix: (Units=GPa)
#
#
# Indices 1 2 3 4 5 6 
#
# 1 128.8767 12.1670 51.3128 -6.5661 -1.1630 17.5031
# 2 12.1670 38.5342 6.7794 0.7433 5.5161 0.9138
# 3 51.3128 6.7794 68.1373 2.0755 -2.6957 -0.0798
# 4 -6.5661 0.7433 2.0755 18.7732 -5.9129 4.7538
# 5 -1.1630 5.5161 -2.6957 -5.9129 26.8643 3.9408
# 6 17.5031 0.9138 -0.0798 4.7538 3.9408 26.1731
#
#
#
# Elastic Compliance Matrix: (Units=1/GPa)
#
#
# Indices 1 2 3 4 5 6 
#
# 1 0.014711 -0.003280 -0.010926 0.011039 0.004468 -0.012434
# 2 -0.003280 0.028194 -0.000468 -0.005480 -0.007677 0.003359
# 3 -0.010926 -0.000468 0.023184 -0.009164 -0.001428 0.009273
# 4 0.011039 -0.005480 -0.009164 0.070314 0.019524 -0.022929
# 5 0.004468 -0.007677 -0.001428 0.019524 0.045063 -0.013055
# 6 -0.012434 0.003359 0.009273 -0.022929 -0.013055 0.052564
#
#
# Mechanical properties :
#
#
# Convention : Reuss Voigt Hill
#
# Bulk Modulus (GPa) = 27.21745 41.78517 34.50131
# Shear Modulus (GPa) = 18.14060 25.38140 21.76100
#
# Velocity S-wave (km/s) = 3.12197 3.69284 3.41934
# Velocity P-wave (km/s) = 5.25539 6.37443 5.84177
#
# Compressibility (1/GPa) = 0.03674113
#
# Stress axis : x y z
#
# Youngs Moduli (GPa) = 67.97776 35.46854 43.13238
#
# Poissons Ratio (x) = 0.11634 0.47126
# Poissons Ratio (y) = 0.22298 0.02018
# Poissons Ratio (z) = 0.74273 0.01659
#
# Static dielectric constant tensor:
#      x y z
#    x 1.708170 0.008870 0.025510 
#    y 0.008870 1.643000 -0.008600 
#    z 0.025510 -0.008600 1.712910 
# 
# From -- ./inp_files/259202.got.cif
#   From: 2010.05.17/outbox.cif.g08.bks.cpg/sg2_130_cif.got.tgz:259202.got - 2010.06.03 11:33:40.
