data_PCOD9003319
_publ_section_title
;
Structure prediction by ZEFSAII (Michael W. Deem and Ramdas Pophale) SiO2 
 PCOD9003319
Probable space group: P -1
;
_chemical_formula_sum "Si O2"
_cell_formula_units_Z 16
_cell_length_a 4.944426
_cell_length_b 13.977666
_cell_length_c 13.576753
_cell_angle_alpha 109.550141
_cell_angle_beta 121.263946
_cell_angle_gamma 98.685639
_cell_volume 691.696283
_symmetry_space_group_name_H-M "P -1"
_symmetry_group_IT_number 2
_symmetry_cell_setting 'triclinic'
loop_
_space_group_symop_operation_xyz
x,y,z
-x,-y,-z
loop_
_atom_site_type_symbol
_atom_site_label
_atom_site_fract_x
_atom_site_fract_y
_atom_site_fract_z
Si Si1 0.354550 0.409769 0.854686
Si Si2 0.943492 0.923191 0.867117
Si Si3 0.324520 0.796445 0.273091
Si Si4 0.987717 0.838252 0.526518
Si Si5 0.732492 0.979302 0.647274
Si Si6 0.613892 0.386207 0.162932
Si Si7 0.193425 0.692132 0.026969
Si Si8 0.189668 0.770415 0.737014
O O1 0.256339 0.481503 0.780348
O O2 0.686694 0.379131 0.895378
O O3 0.026150 0.301574 0.787575
O O4 0.500000 0.500000 0.000000
O O5 0.571075 0.827939 0.785020
O O6 0.160375 0.853020 0.845924
O O7 0.929248 0.992861 0.792975
O O8 0.000000 0.000000 0.000000
O O9 0.665318 0.784897 0.374844
O O10 0.322062 0.911394 0.349379
O O11 0.315187 0.801767 0.153399
O O12 0.956603 0.769190 0.598030
O O13 0.958797 0.949506 0.600123
O O14 0.360709 0.876513 0.559607
O O15 0.830143 0.345446 0.264599
O O16 0.626095 0.320396 0.042388
O O17 0.205104 0.347810 0.089739
#
# Coordination Sequence:
#
# PCOD9003319 Si02
#       8
#     2   2   2   2   2   2   2   2
#     4  10  23  41  59  97 127 158 198 261 314 369
#     4  10  21  37  59  88 123 156 203 254 302 363
#     4  12  24  39  68  90 125 162 207 252 311 366
#     4  10  24  44  61  88 126 165 208 250 298 364
#     4  10  24  39  61  91 124 161 207 251 304 361
#     4  11  23  39  64  86 131 159 199 250 315 368
#     4  11  23  38  60  95 122 157 201 254 312 359
#     4  10  22  41  59  86 121 168 198 248 303 361
#
# _framework density 23.131539
#
# number of rings (size 3 to 8) (size 9 to 14) (size 15 to 20)
#    0.000    1.500    2.500    2.250    8.750    0.000 
#    0.000    0.625    0.000    0.750    0.000    0.000 
#    0.000    0.000    0.000    0.000    0.000    0.000 
#
# Total GULP energy -89286.267589 kJ/mol
# GULP energy per Si atom -5580.391724 kJ/mol
# Density = 2.307889 g / cm^3
# Si number density = 23.131539 Si / 1000 Ang^3
#
#
#
# Elastic Constant Matrix: (Units=GPa)
#
#
# Indices 1 2 3 4 5 6 
#
# 1 104.6927 15.7692 1.6010 -0.0161 3.4042 -10.1538
# 2 15.7692 89.8422 2.5479 -21.2151 21.6966 -20.1340
# 3 1.6010 2.5479 52.3080 -6.0290 14.1599 9.0761
# 4 -0.0161 -21.2151 -6.0290 21.4793 2.0372 6.6386
# 5 3.4042 21.6966 14.1599 2.0372 29.1145 -4.3693
# 6 -10.1538 -20.1340 9.0761 6.6386 -4.3693 28.0732
#
#
#
# Elastic Compliance Matrix: (Units=1/GPa)
#
#
# Indices 1 2 3 4 5 6 
#
# 1 0.010284 -0.002592 -0.002181 -0.004691 0.002733 0.004100
# 2 -0.002592 0.023982 0.007313 0.026582 -0.022365 0.004131
# 3 -0.002181 0.007313 0.030292 0.022389 -0.023641 -0.014311
# 4 -0.004691 0.026582 0.022389 0.087937 -0.038810 -0.016705
# 5 0.002733 -0.022365 -0.023641 -0.038810 0.066732 0.012155
# 6 0.004100 0.004131 -0.014311 -0.016705 0.012155 0.050536
#
#
# Mechanical properties :
#
#
# Convention : Reuss Voigt Hill
#
# Bulk Modulus (GPa) = 14.36013 31.85324 23.10668
# Shear Modulus (GPa) = 17.36744 30.86173 24.11459
#
# Velocity S-wave (km/s) = 2.74307 3.65661 3.23228
# Velocity P-wave (km/s) = 4.03163 5.62389 4.89296
#
# Compressibility (1/GPa) = 0.06963724
#
# Stress axis : x y z
#
# Youngs Moduli (GPa) = 97.24216 41.69740 33.01255
#
# Poissons Ratio (x) = 0.10808 0.07198
# Poissons Ratio (y) = 0.25206 -0.24141
# Poissons Ratio (z) = 0.21204 -0.30491
#
# Static dielectric constant tensor:
#      x y z
#    x 1.890900 -0.026650 -0.063610 
#    y -0.026650 1.998850 -0.040320 
#    z -0.063610 -0.040320 1.924920 
# 
# From -- ./inp_files/483914.got.cif
#   From: 2010.05.17/outbox.cif.g08.bks.cpg/sg2_242_cif.got.tgz:483914.got - 2010.06.03 11:33:40.
