data_PCOD9003875
_publ_section_title
;
Structure prediction by ZEFSAII (Michael W. Deem and Ramdas Pophale) SiO2 
 PCOD9003875
Probable space group: P -1
;
_chemical_formula_sum "Si O2"
_cell_formula_units_Z 16
_cell_length_a 8.180510
_cell_length_b 28.395966
_cell_length_c 5.777024
_cell_angle_alpha 52.912245
_cell_angle_beta 54.725131
_cell_angle_gamma 42.281805
_cell_volume 698.308577
_symmetry_space_group_name_H-M "P -1"
_symmetry_group_IT_number 2
_symmetry_cell_setting 'triclinic'
loop_
_space_group_symop_operation_xyz
x,y,z
-x,-y,-z
loop_
_atom_site_type_symbol
_atom_site_label
_atom_site_fract_x
_atom_site_fract_y
_atom_site_fract_z
Si Si1 0.658327 0.336680 0.573716
Si Si2 0.173446 0.218600 0.617959
Si Si3 0.397646 0.305314 0.285781
Si Si4 0.639840 0.472345 0.224087
Si Si5 0.874140 0.960455 0.674223
Si Si6 0.811764 0.559136 0.672199
Si Si7 0.059651 0.816763 0.702537
Si Si8 0.642900 0.923357 0.357359
O O1 0.748197 0.387640 0.400162
O O2 0.454671 0.382490 0.407450
O O3 0.924880 0.259534 0.537327
O O4 0.509187 0.328321 0.923806
O O5 0.295502 0.261235 0.405696
O O6 0.361349 0.134484 0.631034
O O7 0.053994 0.218933 0.958750
O O8 0.179569 0.380336 0.377306
O O9 0.648590 0.245951 0.406401
O O10 0.500000 0.500000 0.500000
O O11 0.500000 0.500000 0.000000
O O12 0.793468 0.505539 0.007769
O O13 0.054907 0.875586 0.698611
O O14 0.642057 0.012204 0.534019
O O15 0.747000 0.958842 0.016304
O O16 0.000000 0.000000 0.500000
O O17 0.000000 0.500000 0.500000
O O18 0.849771 0.871438 0.529467
#
# Coordination Sequence:
#
# PCOD9003875 Si02
#       8
#     2   2   2   2   2   2   2   2
#     4  10  23  42  62  88 125 166 215 273 335 404
#     4  10  23  39  62  89 124 170 212 264 326 387
#     4  11  23  42  64  90 125 167 221 270 329 403
#     4  10  21  42  66  92 131 174 218 286 356 415
#     4  10  21  37  62  95 126 163 206 256 314 378
#     4  11  25  42  64  97 125 169 225 284 344 413
#     4  10  22  40  62  92 126 167 211 261 317 391
#     4  10  21  39  60  90 130 163 206 258 315 383
#
# _framework density 22.912507999999999
#
# number of rings (size 3 to 8) (size 9 to 14) (size 15 to 20)
#    0.000    1.750    1.250    1.875    1.750    5.000 
#    2.250    0.000    0.000    0.000    0.000    0.000 
#    0.000    0.000    0.000    0.000    0.000    0.000 
#
# Total GULP energy -89158.973586 kJ/mol
# GULP energy per Si atom -5572.435849 kJ/mol
# Density = 2.286036 g / cm^3
# Si number density = 22.912508 Si / 1000 Ang^3
#
#
#
# Elastic Constant Matrix: (Units=GPa)
#
#
# Indices 1 2 3 4 5 6 
#
# 1 102.6833 28.1885 37.6579 -19.3057 -14.8188 -8.9354
# 2 28.1885 150.1822 33.6813 -1.6726 -20.7232 -0.3935
# 3 37.6579 33.6813 99.1932 -19.6541 -23.8028 7.4182
# 4 -19.3057 -1.6726 -19.6541 34.2793 5.9324 2.0826
# 5 -14.8188 -20.7232 -23.8028 5.9324 35.2544 -21.0946
# 6 -8.9354 -0.3935 7.4182 2.0826 -21.0946 43.9452
#
#
#
# Elastic Compliance Matrix: (Units=1/GPa)
#
#
# Indices 1 2 3 4 5 6 
#
# 1 0.013206 -0.000987 -0.002861 0.004418 0.005698 0.005685
# 2 -0.000987 0.007912 -0.001740 -0.002203 0.005040 0.002688
# 3 -0.002861 -0.001740 0.014407 0.005454 0.006477 -0.000179
# 4 0.004418 -0.002203 0.005454 0.035572 -0.003894 -0.003597
# 5 0.005698 0.005040 0.006477 -0.003894 0.054613 0.026510
# 6 0.005685 0.002688 -0.000179 -0.003597 0.026510 0.036862
#
#
# Mechanical properties :
#
#
# Convention : Reuss Voigt Hill
#
# Bulk Modulus (GPa) = 41.06959 61.23490 51.15225
# Shear Modulus (GPa) = 27.49301 39.53118 33.51209
#
# Velocity S-wave (km/s) = 3.46773 4.15819 3.82856
# Velocity P-wave (km/s) = 5.83070 7.05958 6.47436
#
# Compressibility (1/GPa) = 0.02434892
#
# Stress axis : x y z
#
# Youngs Moduli (GPa) = 75.72062 126.39052 69.41292
#
# Poissons Ratio (x) = 0.12472 0.19861
# Poissons Ratio (y) = 0.07472 0.12077
# Poissons Ratio (z) = 0.21666 0.21991
#
# Static dielectric constant tensor:
#      x y z
#    x 1.967170 0.004750 0.071600 
#    y 0.004750 1.909220 0.026110 
#    z 0.071600 0.026110 1.822400 
# 
# From -- ./inp_files/56770.got.cif
#   From: 2010.05.17/outbox.cif.g08.bks.cpg/sg2_29_cif.got.tgz:56770.got - 2010.06.03 11:33:40.
