data_PCOD9003842
_publ_section_title
;
Structure prediction by ZEFSAII (Michael W. Deem and Ramdas Pophale) SiO2 
 PCOD9003842
Probable space group: P -1
;
_chemical_formula_sum "Si O2"
_cell_formula_units_Z 16
_cell_length_a 30.002563
_cell_length_b 24.579135
_cell_length_c 5.549869
_cell_angle_alpha 74.607551
_cell_angle_beta 73.660214
_cell_angle_gamma 10.270045
_cell_volume 698.648059
_symmetry_space_group_name_H-M "P -1"
_symmetry_group_IT_number 2
_symmetry_cell_setting 'triclinic'
loop_
_space_group_symop_operation_xyz
x,y,z
-x,-y,-z
loop_
_atom_site_type_symbol
_atom_site_label
_atom_site_fract_x
_atom_site_fract_y
_atom_site_fract_z
Si Si1 0.499668 0.808892 0.023069
Si Si2 0.749075 0.411759 0.349168
Si Si3 0.495502 0.594545 0.477486
Si Si4 0.304777 0.341784 0.716670
Si Si5 0.053222 0.741932 0.379864
Si Si6 0.072808 0.496553 0.017488
Si Si7 0.710323 0.232013 0.807456
Si Si8 0.305091 0.182079 0.543757
O O1 0.530244 0.716005 0.247898
O O2 0.542704 0.811538 0.120869
O O3 0.740443 0.515982 0.831160
O O4 0.224030 0.139244 0.945735
O O5 0.642330 0.476774 0.429118
O O6 0.858968 0.307096 0.551483
O O7 0.999633 0.115107 0.150432
O O8 0.680598 0.321125 0.566680
O O9 0.375902 0.722073 0.249347
O O10 0.238640 0.904147 0.662153
O O11 0.089790 0.643021 0.613482
O O12 0.202878 0.402654 0.885047
O O13 0.504487 0.095743 0.483982
O O14 0.143885 0.376087 0.807256
O O15 0.159176 0.368176 0.294966
O O16 0.500000 0.500000 0.000000
O O17 0.500000 0.000000 0.500000
#
# Coordination Sequence:
#
# PCOD9003842 Si02
#       8
#     2   2   2   2   2   2   2   2
#     4  11  25  39  62  93 124 169 216 265 323 392
#     4  10  22  40  58  90 127 162 213 257 316 387
#     4  10  21  39  62  87 124 164 203 261 317 379
#     4  10  23  41  63  88 127 167 211 271 327 386
#     4  10  23  39  59  88 126 163 213 262 319 384
#     4  11  25  42  68  95 129 171 222 272 334 397
#     4  10  21  37  62  93 122 159 209 257 317 379
#     4  10  23  43  68  96 128 170 221 273 334 397
#
# _framework density 22.901374000000001
#
# number of rings (size 3 to 8) (size 9 to 14) (size 15 to 20)
#    0.000    1.750    0.000    3.375    8.750    3.500 
#    0.000    0.000    0.000    0.000    0.000    0.000 
#    0.000    0.000    0.000    0.000    0.000    0.000 
#
# Total GULP energy -89371.650684 kJ/mol
# GULP energy per Si atom -5585.728168 kJ/mol
# Density = 2.284925 g / cm^3
# Si number density = 22.901374 Si / 1000 Ang^3
#
#
#
# Elastic Constant Matrix: (Units=GPa)
#
#
# Indices 1 2 3 4 5 6 
#
# 1 156.4618 45.0346 38.0127 9.9111 5.7633 2.3657
# 2 45.0346 158.1062 33.6961 -9.2000 7.1380 7.4526
# 3 38.0127 33.6961 78.5740 6.3958 11.1437 2.6129
# 4 9.9111 -9.2000 6.3958 44.0726 8.2266 -0.5771
# 5 5.7633 7.1380 11.1437 8.2266 27.2689 4.5456
# 6 2.3657 7.4526 2.6129 -0.5771 4.5456 31.5590
#
#
#
# Elastic Compliance Matrix: (Units=1/GPa)
#
#
# Indices 1 2 3 4 5 6 
#
# 1 0.007680 -0.001689 -0.002925 -0.001759 0.000553 -0.000046
# 2 -0.001689 0.007583 -0.002430 0.002521 -0.001188 -0.001246
# 3 -0.002925 -0.002430 0.015979 -0.001247 -0.004926 0.000157
# 4 -0.001759 0.002521 -0.001247 0.025224 -0.007587 0.001194
# 5 0.000553 -0.001188 -0.004926 -0.007587 0.042094 -0.005555
# 6 -0.000046 -0.001246 0.000157 0.001194 -0.005555 0.032793
#
#
# Mechanical properties :
#
#
# Convention : Reuss Voigt Hill
#
# Bulk Modulus (GPa) = 58.29638 69.62544 63.96091
# Shear Modulus (GPa) = 33.07783 39.00667 36.04225
#
# Velocity S-wave (km/s) = 3.80460 4.13152 3.97142
# Velocity P-wave (km/s) = 6.69407 7.29572 7.00136
#
# Compressibility (1/GPa) = 0.01715372
#
# Stress axis : x y z
#
# Youngs Moduli (GPa) = 130.21021 131.87466 62.58351
#
# Poissons Ratio (x) = 0.22278 0.18303
# Poissons Ratio (y) = 0.21997 0.15208
# Poissons Ratio (z) = 0.38081 0.32045
#
# Static dielectric constant tensor:
#      x y z
#    x 1.820190 0.030300 -0.037540 
#    y 0.030300 1.847430 -0.001410 
#    z -0.037540 -0.001410 2.043190 
# 
# From -- ./inp_files/128837.got.cif
#   From: 2010.05.17/outbox.cif.g08.bks.cpg/sg2_65_cif.got.tgz:128837.got - 2010.06.03 11:33:40.
