data_PCOD9003516
_publ_section_title
;
Structure prediction by ZEFSAII (Michael W. Deem and Ramdas Pophale) SiO2 
 PCOD9003516
Probable space group: P -1
;
_chemical_formula_sum "Si O2"
_cell_formula_units_Z 12
_cell_length_a 7.453959
_cell_length_b 14.302955
_cell_length_c 4.795620
_cell_angle_alpha 104.689303
_cell_angle_beta 79.939802
_cell_angle_gamma 117.967310
_cell_volume 435.878086
_symmetry_space_group_name_H-M "P -1"
_symmetry_group_IT_number 2
_symmetry_cell_setting 'triclinic'
loop_
_space_group_symop_operation_xyz
x,y,z
-x,-y,-z
loop_
_atom_site_type_symbol
_atom_site_label
_atom_site_fract_x
_atom_site_fract_y
_atom_site_fract_z
Si Si1 0.694196 0.092340 0.862815
Si Si2 0.240201 0.250141 0.651551
Si Si3 0.563660 0.618528 0.777397
Si Si4 0.198532 0.504189 0.204928
Si Si5 0.060325 0.925488 0.726997
Si Si6 0.884769 0.318143 0.796752
O O1 0.238496 0.952948 0.464631
O O2 0.694467 0.205004 0.847603
O O3 0.500000 0.000000 0.000000
O O4 0.867262 0.130815 0.088098
O O5 0.306924 0.282215 0.971528
O O6 0.058444 0.281787 0.645935
O O7 0.431334 0.326193 0.472392
O O8 0.138663 0.132218 0.461575
O O9 0.352777 0.549961 0.933996
O O10 0.683748 0.545283 0.674875
O O11 0.154361 0.605698 0.354050
O O12 0.996692 0.403472 0.075263
O O13 0.000000 0.000000 0.000000
#
# Coordination Sequence:
#
# PCOD9003516 Si02
#       6
#     2   2   2   2   2   2
#     4  11  24  44  67  96 133 170 218 273 324 384
#     4  10  21  40  61  88 127 165 205 262 323 380
#     4  10  21  37  60  92 126 161 207 260 313 382
#     4   9  19  37  62  92 127 166 209 255 316 383
#     4  11  23  43  69  95 127 171 220 271 328 386
#     4   9  20  39  62  90 127 170 208 257 322 383
#
# _framework density 27.530633999999999
#
# number of rings (size 3 to 8) (size 9 to 14) (size 15 to 20)
#    0.000    2.000    0.000    4.000    0.000    8.000 
#    0.000   15.000    0.000    0.000    0.000    0.000 
#    0.000    0.000    0.000    0.000    0.000    0.000 
#
# Total GULP energy -67040.359156 kJ/mol
# GULP energy per Si atom -5586.696596 kJ/mol
# Density = 2.746797 g / cm^3
# Si number density = 27.530634 Si / 1000 Ang^3
#
#
#
# Elastic Constant Matrix: (Units=GPa)
#
#
# Indices 1 2 3 4 5 6 
#
# 1 76.1485 6.7866 31.7775 19.1820 -2.6724 -6.8842
# 2 6.7866 162.7301 61.5455 19.8247 -21.8967 15.0546
# 3 31.7775 61.5455 181.8391 -4.2111 -4.9278 6.3291
# 4 19.1820 19.8247 -4.2111 48.0705 4.9901 -7.2632
# 5 -2.6724 -21.8967 -4.9278 4.9901 29.0843 6.1345
# 6 -6.8842 15.0546 6.3291 -7.2632 6.1345 44.4630
#
#
#
# Elastic Compliance Matrix: (Units=1/GPa)
#
#
# Indices 1 2 3 4 5 6 
#
# 1 0.016779 0.002215 -0.003786 -0.008268 0.003881 0.000501
# 2 0.002215 0.009943 -0.003489 -0.007010 0.009348 -0.004962
# 3 -0.003786 -0.003489 0.007346 0.003936 -0.002519 0.000540
# 4 -0.008268 -0.007010 0.003936 0.029638 -0.011937 0.007022
# 5 0.003881 0.009348 -0.002519 -0.011937 0.045602 -0.010447
# 6 0.000501 -0.004962 0.000540 0.007022 -0.010447 0.026760
#
#
# Mechanical properties :
#
#
# Convention : Reuss Voigt Hill
#
# Bulk Modulus (GPa) = 41.75532 68.99298 55.37415
# Shear Modulus (GPa) = 32.43207 45.69742 39.06475
#
# Velocity S-wave (km/s) = 3.43598 4.07858 3.77099
# Velocity P-wave (km/s) = 5.56247 6.87710 6.25442
#
# Compressibility (1/GPa) = 0.02394904
#
# Stress axis : x y z
#
# Youngs Moduli (GPa) = 59.59930 100.57231 136.13160
#
# Poissons Ratio (x) = -0.22278 0.51534
# Poissons Ratio (y) = -0.13202 0.47493
# Poissons Ratio (z) = 0.22562 0.35087
#
# Static dielectric constant tensor:
#      x y z
#    x 2.229480 0.023320 -0.006600 
#    y 0.023320 2.350720 0.080130 
#    z -0.006600 0.080130 2.147710 
# 
# From -- ./inp_files/42769.got.cif
#   From: 2010.05.17/outbox.cif.g08.bks.cpg/sg2_22_cif.got.tgz:42769.got - 2010.06.03 11:33:40.
