data_PCOD9003137
_publ_section_title
;
Structure prediction by ZEFSAII (Michael W. Deem and Ramdas Pophale) SiO2 
 PCOD9003137
Probable space group: P -1
;
_chemical_formula_sum "Si O2"
_cell_formula_units_Z 16
_cell_length_a 8.471795
_cell_length_b 22.508261
_cell_length_c 5.105605
_cell_angle_alpha 107.075228
_cell_angle_beta 60.573764
_cell_angle_gamma 113.875149
_cell_volume 769.893663
_symmetry_space_group_name_H-M "P -1"
_symmetry_group_IT_number 2
_symmetry_cell_setting 'triclinic'
loop_
_space_group_symop_operation_xyz
x,y,z
-x,-y,-z
loop_
_atom_site_type_symbol
_atom_site_label
_atom_site_fract_x
_atom_site_fract_y
_atom_site_fract_z
Si Si1 0.325790 0.207631 0.492222
Si Si2 0.558046 0.198066 0.793208
Si Si3 0.592363 0.943352 0.360333
Si Si4 0.822854 0.671203 0.139836
Si Si5 0.300946 0.473787 0.778052
Si Si6 0.913167 0.445034 0.711216
Si Si7 0.930335 0.309814 0.531689
Si Si8 0.826444 0.938745 0.664106
O O1 0.397942 0.200914 0.717121
O O2 0.270636 0.274155 0.622543
O O3 0.168559 0.136815 0.455705
O O4 0.492710 0.214889 0.151956
O O5 0.558981 0.124132 0.695104
O O6 0.755741 0.244942 0.590396
O O7 0.659089 0.936851 0.591987
O O8 0.500000 0.000000 0.500000
O O9 0.764718 0.952002 0.023668
O O10 0.707249 0.593244 0.150342
O O11 0.993559 0.680424 0.221167
O O12 0.902335 0.688183 0.804599
O O13 0.500000 0.500000 0.500000
O O14 0.099342 0.453996 0.756457
O O15 0.272318 0.536624 0.026422
O O16 0.858999 0.370190 0.577872
O O17 0.000000 0.500000 0.500000
O O18 0.000000 0.000000 0.500000
#
# Coordination Sequence:
#
# PCOD9003137 Si02
#       8
#     2   2   2   2   2   2   2   2
#     4  10  22  39  58  85 119 149 195 240 280 353
#     4  10  22  39  59  85 115 156 190 234 297 340
#     4  10  21  37  58  86 117 148 197 238 277 352
#     4  11  23  40  58  88 116 148 198 240 283 359
#     4  10  23  39  60  87 116 156 199 243 303 354
#     4  10  21  41  58  84 122 149 196 255 290 355
#     4  11  23  39  61  84 117 153 191 240 298 341
#     4  10  21  37  58  85 117 154 189 236 294 335
#
# _framework density 20.782093
#
# number of rings (size 3 to 8) (size 9 to 14) (size 15 to 20)
#    0.000    1.750    1.250    2.250    1.750    3.500 
#    0.000    0.000    0.000    0.000    0.000    0.000 
#    0.000    0.000    0.000    0.000    0.000    0.000 
#
# Total GULP energy -89169.109896 kJ/mol
# GULP energy per Si atom -5573.069368 kJ/mol
# Density = 2.073479 g / cm^3
# Si number density = 20.782093 Si / 1000 Ang^3
#
#
#
# Elastic Constant Matrix: (Units=GPa)
#
#
# Indices 1 2 3 4 5 6 
#
# 1 23.1637 10.6963 1.9491 7.1869 2.1204 -11.4975
# 2 10.6963 129.3908 36.7184 -0.9067 -28.8102 -15.4590
# 3 1.9491 36.7184 92.3739 -1.1330 -10.0453 -2.3736
# 4 7.1869 -0.9067 -1.1330 42.4549 -4.9274 -12.3001
# 5 2.1204 -28.8102 -10.0453 -4.9274 33.2861 -1.5507
# 6 -11.4975 -15.4590 -2.3736 -12.3001 -1.5507 31.3566
#
#
#
# Elastic Compliance Matrix: (Units=1/GPa)
#
#
# Indices 1 2 3 4 5 6 
#
# 1 0.055406 -0.004487 0.000121 -0.005873 -0.007527 0.015436
# 2 -0.004487 0.012216 -0.003388 0.003973 0.010714 0.006209
# 3 0.000121 -0.003388 0.012237 0.000145 0.000746 -0.000606
# 4 -0.005873 0.003973 0.000145 0.029015 0.008693 0.011627
# 5 -0.007527 0.010714 0.000746 0.008693 0.041683 0.008050
# 6 0.015436 0.006209 -0.000606 0.011627 0.008050 0.045525
#
#
# Mechanical properties :
#
#
# Convention : Reuss Voigt Hill
#
# Bulk Modulus (GPa) = 15.53993 38.18402 26.86198
# Shear Modulus (GPa) = 21.45538 34.45718 27.95628
#
# Velocity S-wave (km/s) = 3.21658 4.07630 3.67169
# Velocity P-wave (km/s) = 4.61400 6.36933 5.56136
#
# Compressibility (1/GPa) = 0.06435034
#
# Stress axis : x y z
#
# Youngs Moduli (GPa) = 18.04849 81.85869 81.71920
#
# Poissons Ratio (x) = 0.36734 -0.00986
# Poissons Ratio (y) = 0.08099 0.27685
# Poissons Ratio (z) = -0.00218 0.27732
#
# Static dielectric constant tensor:
#      x y z
#    x 1.764880 0.012190 0.013480 
#    y 0.012190 1.798870 0.046950 
#    z 0.013480 0.046950 1.811880 
# 
# From -- ./inp_files/10989.got.cif
#   From: 2010.05.17/outbox.cif.g08.bks.cpg/sg2_6_cif.got.tgz:10989.got - 2010.06.03 11:33:40.
