data_PCOD9003033
_publ_section_title
;
Structure prediction by ZEFSAII (Michael W. Deem and Ramdas Pophale) SiO2 
 PCOD9003033
Probable space group: P -1
;
_chemical_formula_sum "Si O2"
_cell_formula_units_Z 16
_cell_length_a 33.076323
_cell_length_b 30.498576
_cell_length_c 6.856115
_cell_angle_alpha 56.505556
_cell_angle_beta 124.666590
_cell_angle_gamma 171.799026
_cell_volume 807.783135
_symmetry_space_group_name_H-M "P -1"
_symmetry_group_IT_number 2
_symmetry_cell_setting 'triclinic'
loop_
_space_group_symop_operation_xyz
x,y,z
-x,-y,-z
loop_
_atom_site_type_symbol
_atom_site_label
_atom_site_fract_x
_atom_site_fract_y
_atom_site_fract_z
Si Si1 0.276195 0.403954 0.873694
Si Si2 0.939508 0.564828 0.695614
Si Si3 0.698767 0.661106 0.586240
Si Si4 0.559486 0.170157 0.010089
Si Si5 0.851502 0.556501 0.163128
Si Si6 0.362175 0.230820 0.421825
Si Si7 0.311358 0.804088 0.159558
Si Si8 0.435588 0.214290 0.961236
O O1 0.482678 0.612136 0.745339
O O2 0.250791 0.324524 0.128162
O O3 0.413720 0.592619 0.929877
O O4 0.963834 0.093514 0.706622
O O5 0.787151 0.407464 0.874423
O O6 0.926801 0.606462 0.448266
O O7 0.761562 0.332885 0.654398
O O8 0.265401 0.887725 0.820734
O O9 0.500000 0.500000 0.500000
O O10 0.536379 0.456315 0.477349
O O11 0.000000 0.000000 0.500000
O O12 0.688892 0.342460 0.109660
O O13 0.471522 0.017469 0.201764
O O14 0.647764 0.391478 0.044846
O O15 0.140874 0.879795 0.056337
O O16 0.372159 0.186746 0.676118
O O17 0.000000 0.500000 0.000000
O O18 0.500000 0.000000 0.000000
#
# Coordination Sequence:
#
# PCOD9003033 Si02
#       8
#     2   2   2   2   2   2   2   2
#     4  11  24  43  66  89 121 167 203 235 292 347
#     4  10  21  37  57  83 114 148 189 239 296 359
#     4  11  24  41  64 100 134 154 194 249 284 339
#     4  10  21  37  57  83 114 148 189 239 296 359
#     4  12  24  38  60  87 114 151 198 247 302 347
#     4  11  24  43  66  89 121 167 203 235 292 347
#     4   8  16  33  54  77 110 146 182 231 290 357
#     4  11  26  42  58  88 120 151 204 255 284 339
#
# _framework density 19.807296000000001
#
# number of rings (size 3 to 8) (size 9 to 14) (size 15 to 20)
#    0.000    1.500    0.000    4.500    0.000   13.500 
#    0.000    0.000    0.000   10.500    0.000    0.000 
#    0.000    0.000    0.000    0.000    0.000    0.000 
#
# Total GULP energy -89427.174667 kJ/mol
# GULP energy per Si atom -5589.198417 kJ/mol
# Density = 1.976221 g / cm^3
# Si number density = 19.807296 Si / 1000 Ang^3
#
#
#
# Elastic Constant Matrix: (Units=GPa)
#
#
# Indices 1 2 3 4 5 6 
#
# 1 132.0956 36.2538 42.3890 -23.5151 23.2459 14.6534
# 2 36.2538 102.6190 24.7042 -24.9201 17.5378 10.6781
# 3 42.3890 24.7042 78.9778 -18.4930 19.9754 -11.5930
# 4 -23.5151 -24.9201 -18.4930 35.8006 -1.4100 -1.9270
# 5 23.2459 17.5378 19.9754 -1.4100 32.4541 -0.7455
# 6 14.6534 10.6781 -11.5930 -1.9270 -0.7455 36.6174
#
#
#
# Elastic Compliance Matrix: (Units=1/GPa)
#
#
# Indices 1 2 3 4 5 6 
#
# 1 0.011469 -0.000413 -0.004551 0.004381 -0.005133 -0.005784
# 2 -0.000413 0.013584 -0.001151 0.008143 -0.006071 -0.003855
# 3 -0.004551 -0.001151 0.020459 0.006930 -0.008207 0.008832
# 4 0.004381 0.008143 0.006930 0.039658 -0.010082 -0.000052
# 5 -0.005133 -0.006071 -0.008207 -0.010082 0.042419 0.001559
# 6 -0.005784 -0.003855 0.008832 -0.000052 0.001559 0.033574
#
#
# Mechanical properties :
#
#
# Convention : Reuss Voigt Hill
#
# Bulk Modulus (GPa) = 30.04688 57.82073 43.93380
# Shear Modulus (GPa) = 27.10203 34.99743 31.04973
#
# Velocity S-wave (km/s) = 3.70305 4.20801 3.96358
# Velocity P-wave (km/s) = 5.78670 7.27082 6.57080
#
# Compressibility (1/GPa) = 0.03328133
#
# Stress axis : x y z
#
# Youngs Moduli (GPa) = 87.19177 73.61586 48.87720
#
# Poissons Ratio (x) = 0.03042 0.22246
# Poissons Ratio (y) = 0.03602 0.05626
# Poissons Ratio (z) = 0.39684 0.08473
#
# Static dielectric constant tensor:
#      x y z
#    x 1.677470 -0.034920 0.004740 
#    y -0.034920 1.661180 0.000390 
#    z 0.004740 0.000390 1.671260 
# 
# From -- ./inp_files/128887.got.cif
#   From: 2010.05.17/outbox.cif.g08.bks.cpg/sg2_65_cif.got.tgz:128887.got - 2010.06.03 11:33:40.
