data_PCOD9003487
_publ_section_title
;
Structure prediction by ZEFSAII (Michael W. Deem and Ramdas Pophale) SiO2 
 PCOD9003487
Probable space group: P -1
;
_chemical_formula_sum "Si O2"
_cell_formula_units_Z 12
_cell_length_a 5.215631
_cell_length_b 18.637815
_cell_length_c 4.857883
_cell_angle_alpha 88.766547
_cell_angle_beta 93.934760
_cell_angle_gamma 89.277818
_cell_volume 470.955706
_symmetry_space_group_name_H-M "P -1"
_symmetry_group_IT_number 2
_symmetry_cell_setting 'triclinic'
loop_
_space_group_symop_operation_xyz
x,y,z
-x,-y,-z
loop_
_atom_site_type_symbol
_atom_site_label
_atom_site_fract_x
_atom_site_fract_y
_atom_site_fract_z
Si Si1 0.295951 0.349609 0.946075
Si Si2 0.182694 0.084281 0.112869
Si Si3 0.282316 0.707120 0.589070
Si Si4 0.927471 0.222834 0.911750
Si Si5 0.316826 0.957978 0.707776
Si Si6 0.089550 0.420488 0.445168
O O1 0.504185 0.319709 0.178386
O O2 0.147181 0.278861 0.848090
O O3 0.142017 0.404955 0.130082
O O4 0.325509 0.394771 0.663934
O O5 0.033536 0.142636 0.914796
O O6 0.475961 0.106180 0.205942
O O7 0.975964 0.069863 0.344893
O O8 0.251000 0.013059 0.947454
O O9 0.114881 0.758257 0.773487
O O10 0.135625 0.635076 0.501429
O O11 0.305883 0.754378 0.310000
O O12 0.500000 0.000000 0.500000
O O13 0.000000 0.500000 0.500000
#
# Coordination Sequence:
#
# PCOD9003487 Si02
#       6
#     2   2   2   2   2   2
#     4  10  21  39  59  88 125 164 212 268 324 396
#     4  10  23  41  63  98 129 178 227 286 340 417
#     4  10  22  40  60  88 128 164 217 271 324 403
#     4  10  23  40  60  92 125 169 220 270 337 397
#     4  10  22  43  66  93 134 171 229 282 346 407
#     4  10  21  37  60  90 124 162 211 265 325 395
#
# _framework density 25.480103
#
# number of rings (size 3 to 8) (size 9 to 14) (size 15 to 20)
#    0.000    2.000    0.000    2.000    4.667    1.333 
#    0.000    0.000    0.000    0.000    0.000    0.000 
#    0.000    0.000    0.000    0.000    0.000    0.000 
#
# Total GULP energy -66825.159000 kJ/mol
# GULP energy per Si atom -5568.763250 kJ/mol
# Density = 2.542211 g / cm^3
# Si number density = 25.480103 Si / 1000 Ang^3
#
#
#
# Elastic Constant Matrix: (Units=GPa)
#
#
# Indices 1 2 3 4 5 6 
#
# 1 139.9893 33.8968 41.2811 8.3268 -5.3782 -29.6555
# 2 33.8968 105.4728 46.6708 -2.7244 3.9105 -3.8202
# 3 41.2811 46.6708 133.9759 -21.7863 -6.3451 -9.8162
# 4 8.3268 -2.7244 -21.7863 17.7997 -8.8989 -4.7314
# 5 -5.3782 3.9105 -6.3451 -8.8989 39.7193 3.7685
# 6 -29.6555 -3.8202 -9.8162 -4.7314 3.7685 14.4940
#
#
#
# Elastic Compliance Matrix: (Units=1/GPa)
#
#
# Indices 1 2 3 4 5 6 
#
# 1 0.014037 -0.002674 -0.002118 -0.003395 -0.001386 0.025832
# 2 -0.002674 0.012361 -0.005280 -0.006868 -0.003280 -0.007179
# 3 -0.002118 -0.005280 0.015242 0.025419 0.007320 0.010991
# 4 -0.003395 -0.006868 0.025419 0.110652 0.025467 0.037958
# 5 -0.001386 -0.003280 0.007320 0.025467 0.032070 0.001232
# 6 0.025832 -0.007179 0.010991 0.037958 0.001232 0.139471
#
#
# Mechanical properties :
#
#
# Convention : Reuss Voigt Hill
#
# Bulk Modulus (GPa) = 46.52564 69.23727 57.88146
# Shear Modulus (GPa) = 14.23918 31.57521 22.90720
#
# Velocity S-wave (km/s) = 2.36653 3.52406 3.00162
# Velocity P-wave (km/s) = 5.07608 6.61746 5.89734
#
# Compressibility (1/GPa) = 0.02149352
#
# Stress axis : x y z
#
# Youngs Moduli (GPa) = 71.24148 80.89805 65.60973
#
# Poissons Ratio (x) = 0.21635 0.13899
# Poissons Ratio (y) = 0.19053 0.34643
# Poissons Ratio (z) = 0.15092 0.42716
#
# Static dielectric constant tensor:
#      x y z
#    x 2.171930 -0.045170 0.076400 
#    y -0.045170 2.049350 -0.091420 
#    z 0.076400 -0.091420 2.155420 
# 
# From -- ./inp_files/9720.got.cif
#   From: 2010.05.17/outbox.cif.g08.bks.cpg/sg2_5_cif.got.tgz:9720.got - 2010.06.03 11:33:40.
