data_PCOD9003314
_publ_section_title
;
Structure prediction by ZEFSAII (Michael W. Deem and Ramdas Pophale) SiO2 
 PCOD9003314
Probable space group: P -1
;
_chemical_formula_sum "Si O2"
_cell_formula_units_Z 16
_cell_length_a 19.203101
_cell_length_b 6.076453
_cell_length_c 8.829223
_cell_angle_alpha 43.538891
_cell_angle_beta 90.383064
_cell_angle_gamma 96.745969
_cell_volume 700.121472
_symmetry_space_group_name_H-M "P -1"
_symmetry_group_IT_number 2
_symmetry_cell_setting 'triclinic'
loop_
_space_group_symop_operation_xyz
x,y,z
-x,-y,-z
loop_
_atom_site_type_symbol
_atom_site_label
_atom_site_fract_x
_atom_site_fract_y
_atom_site_fract_z
Si Si1 0.144098 0.908695 0.622691
Si Si2 0.272174 0.304811 0.275632
Si Si3 0.895062 0.089442 0.027552
Si Si4 0.981247 0.498653 0.323801
Si Si5 0.770329 0.690004 0.077063
Si Si6 0.644016 0.289097 0.428275
Si Si7 0.393872 0.739958 0.206984
Si Si8 0.523234 0.537579 0.155552
O O1 0.124158 0.922552 0.790660
O O2 0.072135 0.818125 0.571063
O O3 0.186409 0.607636 0.757690
O O4 0.199199 0.212801 0.412300
O O5 0.322571 0.628181 0.167412
O O6 0.319475 0.023880 0.443154
O O7 0.253895 0.298157 0.101803
O O8 0.938258 0.794515 0.148456
O O9 0.823604 0.006840 0.970979
O O10 0.946944 0.411366 0.816119
O O11 0.000000 0.500000 0.500000
O O12 0.702463 0.593284 0.229535
O O13 0.624424 0.309510 0.592834
O O14 0.573569 0.288070 0.330455
O O15 0.453892 0.536921 0.255518
O O16 0.428823 0.110810 0.998549
O O17 0.500000 0.500000 0.000000
#
# Coordination Sequence:
#
# PCOD9003314 Si02
#       8
#     2   2   2   2   2   2   2   2
#     4  10  22  38  60  89 121 161 204 248 301 360
#     4  11  24  41  63  91 123 160 204 252 305 361
#     4  10  21  38  59  86 121 159 202 248 298 357
#     4  10  21  37  59  88 121 158 202 251 300 352
#     4  10  22  39  59  87 123 160 200 250 301 356
#     4  11  23  41  63  89 123 158 201 251 303 360
#     4  11  24  40  64  92 119 160 204 247 305 366
#     4  11  25  44  64  90 124 159 200 251 306 363
#
# _framework density 22.853178
#
# number of rings (size 3 to 8) (size 9 to 14) (size 15 to 20)
#    0.000    1.500    0.000    4.500    0.000    9.500 
#    0.000    0.000    0.000    0.000    0.000    0.000 
#    0.000    0.000    0.000    0.000    0.000    0.000 
#
# Total GULP energy -89579.706464 kJ/mol
# GULP energy per Si atom -5598.731654 kJ/mol
# Density = 2.280116 g / cm^3
# Si number density = 22.853178 Si / 1000 Ang^3
#
#
#
# Elastic Constant Matrix: (Units=GPa)
#
#
# Indices 1 2 3 4 5 6 
#
# 1 135.4962 54.1064 53.0150 -4.3128 -33.0240 30.1054
# 2 54.1064 98.5175 35.1197 6.3434 -23.2622 38.5037
# 3 53.0150 35.1197 85.5517 8.5681 -32.9697 20.3353
# 4 -4.3128 6.3434 8.5681 43.1741 -5.9653 -0.0601
# 5 -33.0240 -23.2622 -32.9697 -5.9653 58.5537 3.3894
# 6 30.1054 38.5037 20.3353 -0.0601 3.3894 54.9664
#
#
#
# Elastic Compliance Matrix: (Units=1/GPa)
#
#
# Indices 1 2 3 4 5 6 
#
# 1 0.011971 -0.003280 -0.004359 0.003018 0.003467 -0.002857
# 2 -0.003280 0.017722 -0.000386 -0.002126 0.005382 -0.010809
# 3 -0.004359 -0.000386 0.019174 -0.003064 0.008159 -0.004942
# 4 0.003018 -0.002126 -0.003064 0.024604 0.001587 0.000899
# 5 0.003467 0.005382 0.008159 0.001587 0.026525 -0.010322
# 6 -0.002857 -0.010809 -0.004942 0.000899 -0.010322 0.029795
#
#
# Mechanical properties :
#
#
# Convention : Reuss Voigt Hill
#
# Bulk Modulus (GPa) = 30.47143 67.11642 48.79392
# Shear Modulus (GPa) = 31.89158 43.16045 37.52601
#
# Velocity S-wave (km/s) = 3.73969 4.35051 4.05662
# Velocity P-wave (km/s) = 5.65770 7.39380 6.58323
#
# Compressibility (1/GPa) = 0.03281762
#
# Stress axis : x y z
#
# Youngs Moduli (GPa) = 83.53184 56.42805 52.15333
#
# Poissons Ratio (x) = 0.18508 0.22734
# Poissons Ratio (y) = 0.27397 0.02013
# Poissons Ratio (z) = 0.36412 0.02178
#
# Static dielectric constant tensor:
#      x y z
#    x 1.864040 -0.008160 0.006080 
#    y -0.008160 1.830010 -0.062780 
#    z 0.006080 -0.062780 1.824720 
# 
# From -- ./inp_files/10674.got.cif
#   From: 2010.05.17/outbox.cif.g08.bks.cpg/sg2_6_cif.got.tgz:10674.got - 2010.06.03 11:33:40.
