data_PCOD9003762
_publ_section_title
;
Structure prediction by ZEFSAII (Michael W. Deem and Ramdas Pophale) SiO2 
 PCOD9003762
Probable space group: P -1
;
_chemical_formula_sum "Si O2"
_cell_formula_units_Z 14
_cell_length_a 24.905941
_cell_length_b 9.267323
_cell_length_c 9.094963
_cell_angle_alpha 130.358682
_cell_angle_beta 38.107950
_cell_angle_gamma 151.476373
_cell_volume 611.778184
_symmetry_space_group_name_H-M "P -1"
_symmetry_group_IT_number 2
_symmetry_cell_setting 'triclinic'
loop_
_space_group_symop_operation_xyz
x,y,z
-x,-y,-z
loop_
_atom_site_type_symbol
_atom_site_label
_atom_site_fract_x
_atom_site_fract_y
_atom_site_fract_z
Si Si1 0.157305 0.163915 0.089469
Si Si2 0.991407 0.160249 0.279536
Si Si3 0.193999 0.018543 0.211329
Si Si4 0.686962 0.566413 0.512633
Si Si5 0.373344 0.290080 0.518660
Si Si6 0.632991 0.130990 0.878175
Si Si7 0.713780 0.228103 0.095594
O O1 0.020235 0.012296 0.206029
O O2 0.141177 0.022903 0.180553
O O3 0.244508 0.504729 0.159231
O O4 0.250630 0.190225 0.802369
O O5 0.128716 0.451341 0.088645
O O6 0.941958 0.228403 0.552377
O O7 0.847312 0.884338 0.321365
O O8 0.299836 0.336081 0.285388
O O9 0.269823 0.948760 0.985968
O O10 0.593233 0.530529 0.581704
O O11 0.663873 0.306726 0.364185
O O12 0.500000 0.500000 0.500000
O O13 0.337197 0.017879 0.362073
O O14 0.622992 0.076144 0.040014
O O15 0.500000 0.000000 0.000000
#
# Coordination Sequence:
#
# PCOD9003762 Si02
#       7
#     2   2   2   2   2   2   2
#     4  11  23  40  60  92 126 151 197 256 296 345
#     4   9  20  38  61  88 126 157 199 239 293 357
#     4  10  23  36  59  92 128 152 194 246 309 339
#     4  10  21  37  62  88 119 156 205 239 291 356
#     4  12  22  40  65  88 114 158 206 247 291 356
#     4  11  21  39  64  86 112 159 205 243 292 355
#     4  11  19  37  62  88 119 161 203 238 289 362
#
# _framework density 22.884111000000001
#
# number of rings (size 3 to 8) (size 9 to 14) (size 15 to 20)
#    0.857    0.571    5.714    1.286    0.000    1.143 
#    0.000    3.571    0.000    3.429    0.000    0.000 
#    0.000    0.000    0.000    0.000    0.000    0.000 
#
# Total GULP energy -78186.117911 kJ/mol
# GULP energy per Si atom -5584.722708 kJ/mol
# Density = 2.283203 g / cm^3
# Si number density = 22.884111 Si / 1000 Ang^3
#
#
#
# Elastic Constant Matrix: (Units=GPa)
#
#
# Indices 1 2 3 4 5 6 
#
# 1 128.9147 8.8327 17.1031 8.4814 -17.3325 7.8339
# 2 8.8327 47.3964 32.3046 7.5026 -10.4348 6.4609
# 3 17.1031 32.3046 105.0700 41.8911 -23.0141 -16.1605
# 4 8.4814 7.5026 41.8911 38.6539 -4.4706 -8.7085
# 5 -17.3325 -10.4348 -23.0141 -4.4706 36.5792 6.3083
# 6 7.8339 6.4609 -16.1605 -8.7085 6.3083 31.2114
#
#
#
# Elastic Compliance Matrix: (Units=1/GPa)
#
#
# Indices 1 2 3 4 5 6 
#
# 1 0.008748 0.000501 -0.000454 -0.001904 0.004454 -0.003966
# 2 0.000501 0.031672 -0.013151 0.005577 0.003874 -0.012718
# 3 -0.000454 -0.013151 0.025491 -0.022201 0.007938 0.008236
# 4 -0.001904 0.005577 -0.022201 0.049059 -0.007817 0.003097
# 5 0.004454 0.003874 0.007938 -0.007817 0.035840 -0.007234
# 6 -0.003966 -0.012718 0.008236 0.003097 -0.007234 0.042258
#
#
# Mechanical properties :
#
#
# Convention : Reuss Voigt Hill
#
# Bulk Modulus (GPa) = 25.18536 44.20689 34.69613
# Shear Modulus (GPa) = 21.50442 36.16494 28.83468
#
# Velocity S-wave (km/s) = 3.06879 3.97968 3.55354
# Velocity P-wave (km/s) = 4.85656 6.36213 5.65963
#
# Compressibility (1/GPa) = 0.03970560
#
# Stress axis : x y z
#
# Youngs Moduli (GPa) = 114.31253 31.57341 39.22882
#
# Poissons Ratio (x) = -0.01583 0.01779
# Poissons Ratio (y) = -0.05731 0.51589
# Poissons Ratio (z) = 0.05184 0.41522
#
# Static dielectric constant tensor:
#      x y z
#    x 1.831660 0.015680 -0.069820 
#    y 0.015680 1.884900 -0.017440 
#    z -0.069820 -0.017440 1.574280 
# 
# From -- ./inp_files/272493.got.cif
#   From: 2010.05.17/outbox.cif.g08.bks.cpg/sg2_137_cif.got.tgz:272493.got - 2010.06.03 11:33:40.
