data_PCOD9003183
_publ_section_title
;
Structure prediction by ZEFSAII (Michael W. Deem and Ramdas Pophale) SiO2 
 PCOD9003183
Probable space group: P -1
;
_chemical_formula_sum "Si O2"
_cell_formula_units_Z 16
_cell_length_a 9.293407
_cell_length_b 8.320208
_cell_length_c 17.907220
_cell_angle_alpha 76.709970
_cell_angle_beta 46.072655
_cell_angle_gamma 53.469284
_cell_volume 760.173711
_symmetry_space_group_name_H-M "P -1"
_symmetry_group_IT_number 2
_symmetry_cell_setting 'triclinic'
loop_
_space_group_symop_operation_xyz
x,y,z
-x,-y,-z
loop_
_atom_site_type_symbol
_atom_site_label
_atom_site_fract_x
_atom_site_fract_y
_atom_site_fract_z
Si Si1 0.321657 0.673130 0.721838
Si Si2 0.728012 0.470320 0.965753
Si Si3 0.159686 0.205998 0.148194
Si Si4 0.685315 0.948299 0.052898
Si Si5 0.254069 0.007011 0.821478
Si Si6 0.301650 0.654084 0.486799
Si Si7 0.715229 0.030955 0.650028
Si Si8 0.619863 0.635935 0.151152
O O1 0.588928 0.517347 0.601094
O O2 0.265767 0.550351 0.811575
O O3 0.096628 0.748016 0.736533
O O4 0.292318 0.848986 0.762920
O O5 0.815457 0.610354 0.894360
O O6 0.979072 0.231566 0.889677
O O7 0.500000 0.500000 0.000000
O O8 0.620024 0.552103 0.079647
O O9 0.388352 0.064289 0.137714
O O10 0.226317 0.073969 0.060983
O O11 0.730031 0.056770 0.089815
O O12 0.780575 0.722822 0.074146
O O13 0.487770 0.014947 0.728436
O O14 0.500000 0.500000 0.500000
O O15 0.318430 0.832789 0.425926
O O16 0.992133 0.804630 0.586814
O O17 0.642770 0.184764 0.730442
#
# Coordination Sequence:
#
# PCOD9003183 Si02
#       8
#     2   2   2   2   2   2   2   2
#     4  11  24  38  64  90 122 162 212 252 315 374
#     4  11  24  37  58  91 131 166 209 251 301 368
#     4  10  21  37  58  88 121 165 210 247 295 369
#     4   9  20  36  61  83 119 168 202 245 297 363
#     4  11  24  39  60  91 130 164 198 254 312 369
#     4  10  22  41  71  93 115 163 216 264 319 382
#     4   9  21  44  65  91 125 163 207 264 321 375
#     4   9  20  39  59  85 123 163 202 247 307 367
#
# _framework density 21.047820000000002
#
# number of rings (size 3 to 8) (size 9 to 14) (size 15 to 20)
#    0.000    2.000    0.000    3.000   10.500    5.000 
#    0.000    0.625    0.000    0.000    0.000    0.000 
#    0.000    0.000    0.000    0.000    0.000    0.000 
#
# Total GULP energy -89088.511481 kJ/mol
# GULP energy per Si atom -5568.031968 kJ/mol
# Density = 2.099991 g / cm^3
# Si number density = 21.047820 Si / 1000 Ang^3
#
#
#
# Elastic Constant Matrix: (Units=GPa)
#
#
# Indices 1 2 3 4 5 6 
#
# 1 135.0846 48.6583 75.1139 31.2883 -10.1221 -1.4629
# 2 48.6583 87.3066 47.5715 20.1254 -0.4087 -12.8487
# 3 75.1139 47.5715 114.4615 34.3036 -14.6470 -0.8012
# 4 31.2883 20.1254 34.3036 43.2319 -3.8468 1.6757
# 5 -10.1221 -0.4087 -14.6470 -3.8468 36.9852 4.6824
# 6 -1.4629 -12.8487 -0.8012 1.6757 4.6824 36.0205
#
#
#
# Elastic Compliance Matrix: (Units=1/GPa)
#
#
# Indices 1 2 3 4 5 6 
#
# 1 0.012589 -0.003223 -0.005995 -0.002749 0.000845 -0.000754
# 2 -0.003223 0.017387 -0.004769 -0.002559 -0.003675 0.006562
# 3 -0.005995 -0.004769 0.017221 -0.006618 0.004674 -0.001861
# 4 -0.002749 -0.002559 -0.006618 0.031688 0.000233 -0.002676
# 5 0.000845 -0.003675 0.004674 0.000233 0.029743 -0.005050
# 6 -0.000754 0.006562 -0.001861 -0.002676 -0.005050 0.030812
#
#
# Mechanical properties :
#
#
# Convention : Reuss Voigt Hill
#
# Bulk Modulus (GPa) = 52.01909 75.50445 63.76177
# Shear Modulus (GPa) = 28.76524 34.28145 31.52335
#
# Velocity S-wave (km/s) = 3.70085 4.04014 3.87421
# Velocity P-wave (km/s) = 6.55973 7.59700 7.09734
#
# Compressibility (1/GPa) = 0.01922371
#
# Stress axis : x y z
#
# Youngs Moduli (GPa) = 79.43245 57.51508 58.06820
#
# Poissons Ratio (x) = 0.18536 0.34813
# Poissons Ratio (y) = 0.25600 0.27691
# Poissons Ratio (z) = 0.47622 0.27427
#
# Static dielectric constant tensor:
#      x y z
#    x 1.916170 -0.120380 -0.030740 
#    y -0.120380 1.914850 0.016420 
#    z -0.030740 0.016420 1.824240 
# 
# From -- ./inp_files/557230.got.cif
#   From: 2010.05.17/outbox.cif.g08.bks.cpg/sg2_279_cif.got.tgz:557230.got - 2010.06.03 11:33:40.
