data_PCOD9003860
_publ_section_title
;
Structure prediction by ZEFSAII (Michael W. Deem and Ramdas Pophale) SiO2 
 PCOD9003860
Probable space group: P -1
;
_chemical_formula_sum "Si O2"
_cell_formula_units_Z 16
_cell_length_a 10.701748
_cell_length_b 14.426838
_cell_length_c 4.870845
_cell_angle_alpha 107.637194
_cell_angle_beta 97.161073
_cell_angle_gamma 96.024487
_cell_volume 702.934665
_symmetry_space_group_name_H-M "P -1"
_symmetry_group_IT_number 2
_symmetry_cell_setting 'triclinic'
loop_
_space_group_symop_operation_xyz
x,y,z
-x,-y,-z
loop_
_atom_site_type_symbol
_atom_site_label
_atom_site_fract_x
_atom_site_fract_y
_atom_site_fract_z
Si Si1 0.648348 0.857844 0.860169
Si Si2 0.944725 0.695972 0.965277
Si Si3 0.029463 0.915156 0.137968
Si Si4 0.385197 0.808176 0.506370
Si Si5 0.148849 0.489585 0.537873
Si Si6 0.317710 0.922438 0.103526
Si Si7 0.798328 0.383314 0.842710
Si Si8 0.813650 0.828645 0.379804
O O1 0.518606 0.794220 0.666750
O O2 0.764162 0.839181 0.678417
O O3 0.694919 0.841740 0.163058
O O4 0.632615 0.970790 0.908495
O O5 0.856669 0.618547 0.683128
O O6 0.860863 0.727391 0.220343
O O7 0.998614 0.799811 0.925590
O O8 0.065745 0.651633 0.080289
O O9 0.933794 0.905850 0.366438
O O10 0.181834 0.928062 0.217077
O O11 0.000000 0.000000 0.000000
O O12 0.307629 0.848764 0.773998
O O13 0.307790 0.711714 0.259433
O O14 0.403496 0.886592 0.333464
O O15 0.208749 0.573684 0.421773
O O16 0.000000 0.500000 0.500000
O O17 0.207084 0.524303 0.875636
#
# Coordination Sequence:
#
# PCOD9003860 Si02
#       8
#     2   2   2   2   2   2   2   2
#     4  12  24  43  58  88 124 172 214 247 300 368
#     4   9  20  40  62  96 125 162 196 256 318 383
#     4  10  21  41  63  95 130 163 200 256 310 379
#     4  12  25  40  64  87 123 165 214 263 299 358
#     4  10  21  37  62  94 126 154 197 259 326 373
#     4  12  23  41  62  90 124 163 212 254 314 360
#     4  11  22  39  63  94 123 157 204 264 315 365
#     4  10  24  38  63  86 124 166 201 251 309 367
#
# _framework density 22.761714000000001
#
# number of rings (size 3 to 8) (size 9 to 14) (size 15 to 20)
#    0.750    0.500    2.500    4.500    1.750    5.500 
#    0.000    0.000    0.000    4.500    0.000    0.000 
#    0.000    0.000    0.000    0.000    0.000    0.000 
#
# Total GULP energy -89418.260722 kJ/mol
# GULP energy per Si atom -5588.641295 kJ/mol
# Density = 2.270991 g / cm^3
# Si number density = 22.761714 Si / 1000 Ang^3
#
#
#
# Elastic Constant Matrix: (Units=GPa)
#
#
# Indices 1 2 3 4 5 6 
#
# 1 71.4005 -0.3793 9.8355 10.9316 5.4042 -4.8974
# 2 -0.3793 70.9132 -2.8163 8.2320 0.3254 -1.2542
# 3 9.8355 -2.8163 62.4802 6.5686 5.9534 -2.1348
# 4 10.9316 8.2320 6.5686 45.6224 1.4561 3.1297
# 5 5.4042 0.3254 5.9534 1.4561 40.7091 -0.8511
# 6 -4.8974 -1.2542 -2.1348 3.1297 -0.8511 16.1859
#
#
#
# Elastic Compliance Matrix: (Units=1/GPa)
#
#
# Indices 1 2 3 4 5 6 
#
# 1 0.015290 0.000558 -0.001657 -0.003827 -0.001548 0.005110
# 2 0.000558 0.014531 0.000971 -0.003027 -0.000182 0.001998
# 3 -0.001657 0.000971 0.016824 -0.002278 -0.002122 0.002122
# 4 -0.003827 -0.003027 -0.002278 0.024151 -0.000132 -0.006370
# 5 -0.001548 -0.000182 -0.002122 -0.000132 0.025099 0.000583
# 6 0.005110 0.001998 0.002122 -0.006370 0.000583 0.065025
#
#
# Mechanical properties :
#
#
# Convention : Reuss Voigt Hill
#
# Bulk Modulus (GPa) = 21.55746 24.23042 22.89394
# Shear Modulus (GPa) = 28.30611 33.71373 31.00992
#
# Velocity S-wave (km/s) = 3.53027 3.85276 3.69504
# Velocity P-wave (km/s) = 5.10966 5.51906 5.31830
#
# Compressibility (1/GPa) = 0.04638765
#
# Stress axis : x y z
#
# Youngs Moduli (GPa) = 65.40086 68.81920 59.43903
#
# Poissons Ratio (x) = -0.03838 0.09852
# Poissons Ratio (y) = -0.03647 -0.05772
# Poissons Ratio (z) = 0.10840 -0.06682
#
# Static dielectric constant tensor:
#      x y z
#    x 1.592620 -0.235620 -0.247730 
#    y -0.235620 1.672360 -0.153710 
#    z -0.247730 -0.153710 1.706230 
# 
# From -- ./inp_files/75078.got.cif
#   From: 2010.05.17/outbox.cif.g08.bks.cpg/sg2_38_cif.got.tgz:75078.got - 2010.06.03 11:33:40.
