data_PCOD9003656
_publ_section_title
;
Structure prediction by ZEFSAII (Michael W. Deem and Ramdas Pophale) SiO2 
 PCOD9003656
Probable space group: P -1
;
_chemical_formula_sum "Si O2"
_cell_formula_units_Z 16
_cell_length_a 30.009243
_cell_length_b 24.843038
_cell_length_c 5.303624
_cell_angle_alpha 82.776908
_cell_angle_beta 82.441914
_cell_angle_gamma 9.820964
_cell_volume 668.392823
_symmetry_space_group_name_H-M "P -1"
_symmetry_group_IT_number 2
_symmetry_cell_setting 'triclinic'
loop_
_space_group_symop_operation_xyz
x,y,z
-x,-y,-z
loop_
_atom_site_type_symbol
_atom_site_label
_atom_site_fract_x
_atom_site_fract_y
_atom_site_fract_z
Si Si1 0.457996 0.848838 0.035318
Si Si2 0.715512 0.448502 0.326897
Si Si3 0.487605 0.603902 0.522267
Si Si4 0.319298 0.329001 0.677871
Si Si5 0.063901 0.725382 0.354375
Si Si6 0.125757 0.453578 0.036327
Si Si7 0.734642 0.210209 0.808931
Si Si8 0.238005 0.255406 0.556738
O O1 0.484082 0.759418 0.201536
O O2 0.479330 0.871099 0.209219
O O3 0.722826 0.538645 0.862095
O O4 0.185742 0.175589 0.903582
O O5 0.622172 0.500958 0.446732
O O6 0.831790 0.346167 0.528636
O O7 0.963131 0.149168 0.128624
O O8 0.696307 0.308762 0.600530
O O9 0.340123 0.755966 0.297757
O O10 0.237104 0.908400 0.715019
O O11 0.092633 0.638112 0.562689
O O12 0.216755 0.403643 0.892722
O O13 0.490669 0.099721 0.460254
O O14 0.183563 0.344227 0.821855
O O15 0.251634 0.283677 0.303232
O O16 0.500000 0.500000 0.000000
O O17 0.000000 0.500000 0.500000
#
# Coordination Sequence:
#
# PCOD9003656 Si02
#       8
#     2   2   2   2   2   2   2   2
#     4  11  24  41  64  91 128 170 213 271 324 389
#     4  10  22  39  59  92 124 165 212 258 322 386
#     4  10  21  39  61  88 126 161 208 262 316 386
#     4  11  25  42  65  94 128 167 218 270 325 396
#     4  10  23  40  62  88 128 165 211 265 321 382
#     4  12  27  43  70  98 129 176 222 272 339 395
#     4  10  21  37  61  91 123 162 207 261 318 378
#     4  12  25  46  69  96 134 171 220 279 335 394
#
# _framework density 23.938020999999999
#
# number of rings (size 3 to 8) (size 9 to 14) (size 15 to 20)
#    0.000    1.250    1.250    3.750    5.250    2.500 
#    0.000    0.000    0.000    0.000    0.000    0.000 
#    0.000    0.000    0.000    0.000    0.000    0.000 
#
# Total GULP energy -89517.050236 kJ/mol
# GULP energy per Si atom -5594.815640 kJ/mol
# Density = 2.388354 g / cm^3
# Si number density = 23.938021 Si / 1000 Ang^3
#
#
#
# Elastic Constant Matrix: (Units=GPa)
#
#
# Indices 1 2 3 4 5 6 
#
# 1 136.3968 33.2646 23.9402 7.3703 -18.5040 15.2704
# 2 33.2646 126.6318 11.1443 7.2027 5.8055 6.9298
# 3 23.9402 11.1443 67.4581 11.4746 -0.7906 12.1996
# 4 7.3703 7.2027 11.4746 41.9503 4.7829 -7.4294
# 5 -18.5040 5.8055 -0.7906 4.7829 25.0174 5.5123
# 6 15.2704 6.9298 12.1996 -7.4294 5.5123 25.5417
#
#
#
# Elastic Compliance Matrix: (Units=1/GPa)
#
#
# Indices 1 2 3 4 5 6 
#
# 1 0.010910 -0.002576 -0.000986 -0.004100 0.011404 -0.009006
# 2 -0.002576 0.008819 -0.000533 -0.000450 -0.003908 0.000114
# 3 -0.000986 -0.000533 0.018521 -0.007183 0.003780 -0.011017
# 4 -0.004100 -0.000450 -0.007183 0.031266 -0.013081 0.017922
# 5 0.011404 -0.003908 0.003780 -0.013081 0.057158 -0.023704
# 6 -0.009006 0.000114 -0.011017 0.017922 -0.023704 0.060096
#
#
# Mechanical properties :
#
#
# Convention : Reuss Voigt Hill
#
# Bulk Modulus (GPa) = 33.26717 51.90944 42.58830
# Shear Modulus (GPa) = 24.39282 35.97772 30.18527
#
# Velocity S-wave (km/s) = 3.19564 3.88100 3.55487
# Velocity P-wave (km/s) = 5.24819 6.46644 5.88891
#
# Compressibility (1/GPa) = 0.03005967
#
# Stress axis : x y z
#
# Youngs Moduli (GPa) = 91.65986 113.39241 53.99381
#
# Poissons Ratio (x) = 0.29208 0.05326
# Poissons Ratio (y) = 0.23610 0.02876
# Poissons Ratio (z) = 0.09042 0.06040
#
# Static dielectric constant tensor:
#      x y z
#    x 1.891460 0.036330 -0.036700 
#    y 0.036330 1.954270 0.035300 
#    z -0.036700 0.035300 2.025290 
# 
# From -- ./inp_files/47572.got.cif
#   From: 2010.05.17/outbox.cif.g08.bks.cpg/sg2_24_cif.got.tgz:47572.got - 2010.06.03 11:33:40.
