data_PCOD9003281
_publ_section_title
;
Structure prediction by ZEFSAII (Michael W. Deem and Ramdas Pophale) SiO2 
 PCOD9003281
Probable space group: P -1
;
_chemical_formula_sum "Si O2"
_cell_formula_units_Z 15
_cell_length_a 11.125693
_cell_length_b 7.420785
_cell_length_c 8.672896
_cell_angle_alpha 111.573950
_cell_angle_beta 71.533998
_cell_angle_gamma 74.879355
_cell_volume 570.893582
_symmetry_space_group_name_H-M "P -1"
_symmetry_group_IT_number 2
_symmetry_cell_setting 'triclinic'
loop_
_space_group_symop_operation_xyz
x,y,z
-x,-y,-z
loop_
_atom_site_type_symbol
_atom_site_label
_atom_site_fract_x
_atom_site_fract_y
_atom_site_fract_z
Si Si1 0.718612 0.702305 0.833234
Si Si2 0.847668 0.556130 0.230301
Si Si3 0.075137 0.673637 0.183373
Si Si4 0.555097 0.661992 0.457907
Si Si5 0.000000 0.500000 0.500000
Si Si6 0.707363 0.977133 0.208130
Si Si7 0.137051 0.846287 0.593294
Si Si8 0.421791 0.564121 0.214443
O O1 0.593803 0.654550 0.797207
O O2 0.779056 0.488302 0.854572
O O3 0.838146 0.683153 0.661377
O O4 0.698315 0.897720 0.015607
O O5 0.976827 0.569531 0.273064
O O6 0.717875 0.580678 0.390165
O O7 0.787521 0.768367 0.215299
O O8 0.909721 0.368870 0.019924
O O9 0.989792 0.922952 0.322659
O O10 0.500000 0.500000 0.500000
O O11 0.449812 0.894678 0.627474
O O12 0.532253 0.629626 0.278573
O O13 0.068881 0.680332 0.561262
O O14 0.795930 0.113583 0.259775
O O15 0.273218 0.759813 0.395633
O O16 0.500000 0.500000 0.000000
#
# Coordination Sequence:
#
# PCOD9003281 Si02
#       8
#     2   2   2   2   1   2   2   2
#     4  10  21  37  59  87 119 156 196 250 307 363
#     4   9  18  34  59  89 118 151 199 254 294 350
#     4   9  18  34  59  88 113 149 205 249 288 351
#     4  11  23  38  60  90 123 162 207 254 300 356
#     4  10  22  34  48  80 122 154 184 238 314 364
#     4   9  19  38  61  84 114 162 213 247 296 362
#     4   9  20  37  59  87 117 157 202 250 303 362
#     4  10  21  39  60  84 121 163 203 245 300 359
#
# _framework density 26.2746
#
# number of rings (size 3 to 8) (size 9 to 14) (size 15 to 20)
#    0.000    2.400    0.000    2.800    0.000    9.067 
#    0.000    2.000    0.000    9.600    0.000    0.000 
#    0.000    0.000    0.000    0.000    0.000    0.000 
#
# Total GULP energy -83550.893545 kJ/mol
# GULP energy per Si atom -5570.059570 kJ/mol
# Density = 2.621480 g / cm^3
# Si number density = 26.274600 Si / 1000 Ang^3
#
#
#
# Elastic Constant Matrix: (Units=GPa)
#
#
# Indices 1 2 3 4 5 6 
#
# 1 133.8247 22.5794 74.7121 9.7666 -1.0100 25.4798
# 2 22.5794 58.9541 40.0465 8.8443 -15.9929 10.8003
# 3 74.7121 40.0465 219.2812 10.5458 7.8330 17.3724
# 4 9.7666 8.8443 10.5458 37.2936 17.6932 -16.9601
# 5 -1.0100 -15.9929 7.8330 17.6932 56.9054 1.2771
# 6 25.4798 10.8003 17.3724 -16.9601 1.2771 40.2115
#
#
#
# Elastic Compliance Matrix: (Units=1/GPa)
#
#
# Indices 1 2 3 4 5 6 
#
# 1 0.011762 0.002569 -0.003280 -0.010086 0.004768 -0.011131
# 2 0.002569 0.030135 -0.004478 -0.022484 0.016521 -0.017795
# 3 -0.003280 -0.004478 0.006371 0.002209 -0.002915 0.001553
# 4 -0.010086 -0.022484 0.002209 0.065755 -0.028147 0.040103
# 5 0.004768 0.016521 -0.002915 -0.028147 0.031882 -0.019083
# 6 -0.011131 -0.017795 0.001553 0.040103 -0.019083 0.053551
#
#
# Mechanical properties :
#
#
# Convention : Reuss Voigt Hill
#
# Bulk Modulus (GPa) = 26.39217 76.30398 51.34808
# Shear Modulus (GPa) = 22.47578 45.19692 33.83635
#
# Velocity S-wave (km/s) = 2.92793 4.15200 3.59248
# Velocity P-wave (km/s) = 4.63647 7.21730 6.06574
#
# Compressibility (1/GPa) = 0.03789003
#
# Stress axis : x y z
#
# Youngs Moduli (GPa) = 85.02298 33.18384 156.97316
#
# Poissons Ratio (x) = -0.08525 0.51486
# Poissons Ratio (y) = -0.21844 0.70290
# Poissons Ratio (z) = 0.27887 0.14859
#
# Static dielectric constant tensor:
#      x y z
#    x 2.309340 -0.083440 0.094340 
#    y -0.083440 2.074900 -0.006940 
#    z 0.094340 -0.006940 1.982110 
# 
# From -- ./inp_files/416494.got.cif
#   From: 2010.05.17/outbox.cif.g08.bks.cpg/sg2_209_cif.got.tgz:416494.got - 2010.06.03 11:33:40.
