data_PCOD9003588
_publ_section_title
;
Structure prediction by ZEFSAII (Michael W. Deem and Ramdas Pophale) SiO2 
 PCOD9003588
Probable space group: P -1
;
_chemical_formula_sum "Si O2"
_cell_formula_units_Z 16
_cell_length_a 12.408596
_cell_length_b 12.021693
_cell_length_c 9.454850
_cell_angle_alpha 45.918675
_cell_angle_beta 46.121636
_cell_angle_gamma 61.518648
_cell_volume 730.265001
_symmetry_space_group_name_H-M "P -1"
_symmetry_group_IT_number 2
_symmetry_cell_setting 'triclinic'
loop_
_space_group_symop_operation_xyz
x,y,z
-x,-y,-z
loop_
_atom_site_type_symbol
_atom_site_label
_atom_site_fract_x
_atom_site_fract_y
_atom_site_fract_z
Si Si1 0.214507 0.763419 0.504059
Si Si2 0.662554 0.926200 0.939845
Si Si3 0.688112 0.045908 0.115631
Si Si4 0.481908 0.375426 0.751353
Si Si5 0.796026 0.553374 0.668847
Si Si6 0.919692 0.306199 0.586636
Si Si7 0.555144 0.800458 0.640148
Si Si8 0.677366 0.362854 0.186348
O O1 0.358711 0.710348 0.324055
O O2 0.080656 0.715130 0.564054
O O3 0.238758 0.687274 0.702231
O O4 0.225117 0.949649 0.342733
O O5 0.645313 0.753132 0.052422
O O6 0.500000 0.000000 0.000000
O O7 0.688832 0.936721 0.074237
O O8 0.537524 0.148524 0.182516
O O9 0.670003 0.933026 0.366231
O O10 0.826272 0.162966 0.865835
O O11 0.500000 0.500000 0.500000
O O12 0.425023 0.486696 0.826634
O O13 0.840618 0.467036 0.561009
O O14 0.643583 0.643768 0.713889
O O15 0.919559 0.673849 0.506194
O O16 0.785958 0.417147 0.914806
O O17 0.431186 0.771279 0.656045
#
# Coordination Sequence:
#
# PCOD9003588 Si02
#       8
#     2   2   2   2   2   2   2   2
#     4   9  19  34  58  81 116 152 197 237 294 351
#     4   9  17  30  52  82 113 154 181 236 292 356
#     4  10  21  37  61  86 119 152 203 241 299 351
#     4   9  17  29  51  86 116 144 185 245 299 338
#     4  11  24  38  60  84 127 158 200 240 301 355
#     4  10  22  42  58  85 118 171 194 237 297 367
#     4  11  22  36  60  95 116 151 195 259 294 346
#     4  11  21  36  58  93 118 148 195 258 296 343
#
# _framework density 21.909853999999999
#
# number of rings (size 3 to 8) (size 9 to 14) (size 15 to 20)
#    0.000    2.000    1.250    3.375    5.250    2.000 
#    0.000    0.000    0.000    3.000    0.000    0.000 
#    0.000    0.000    0.000    0.000    0.000    0.000 
#
# Total GULP energy -89234.527540 kJ/mol
# GULP energy per Si atom -5577.157971 kJ/mol
# Density = 2.185999 g / cm^3
# Si number density = 21.909854 Si / 1000 Ang^3
#
#
#
# Elastic Constant Matrix: (Units=GPa)
#
#
# Indices 1 2 3 4 5 6 
#
# 1 73.7724 18.4971 43.5136 -13.8289 -0.2357 28.1548
# 2 18.4971 71.7239 2.9077 -20.4853 2.7805 18.0408
# 3 43.5136 2.9077 75.4055 -18.5675 8.3862 9.9877
# 4 -13.8289 -20.4853 -18.5675 27.2831 7.0571 -6.4901
# 5 -0.2357 2.7805 8.3862 7.0571 21.9438 -4.3744
# 6 28.1548 18.0408 9.9877 -6.4901 -4.3744 22.3711
#
#
#
# Elastic Compliance Matrix: (Units=1/GPa)
#
#
# Indices 1 2 3 4 5 6 
#
# 1 0.040453 0.001589 -0.017279 -0.000223 -0.002051 -0.044943
# 2 0.001589 0.029260 0.011478 0.030265 -0.023084 -0.026454
# 3 -0.017279 0.011478 0.031863 0.027795 -0.022366 0.001954
# 4 -0.000223 0.030265 0.027795 0.085119 -0.045987 -0.020833
# 5 -0.002051 -0.023084 -0.022366 -0.045987 0.078424 0.033176
# 6 -0.044943 -0.026454 0.001954 -0.020833 0.033176 0.122167
#
#
# Mechanical properties :
#
#
# Convention : Reuss Voigt Hill
#
# Bulk Modulus (GPa) = 10.73518 38.97094 24.85306
# Shear Modulus (GPa) = 11.71620 24.71849 18.21735
#
# Velocity S-wave (km/s) = 2.31497 3.36250 2.88665
# Velocity P-wave (km/s) = 3.47214 5.73592 4.74112
#
# Compressibility (1/GPa) = 0.09315171
#
# Stress axis : x y z
#
# Youngs Moduli (GPa) = 24.72031 34.17621 31.38481
#
# Poissons Ratio (x) = -0.05429 0.54229
# Poissons Ratio (y) = -0.03927 -0.36025
# Poissons Ratio (z) = 0.42714 -0.39229
#
# Static dielectric constant tensor:
#      x y z
#    x 1.810530 0.002570 -0.000390 
#    y 0.002570 1.837570 0.010660 
#    z -0.000390 0.010660 1.864280 
# 
# From -- ./inp_files/261438.got.cif
#   From: 2010.05.17/outbox.cif.g08.bks.cpg/sg2_131_cif.got.tgz:261438.got - 2010.06.03 11:33:40.
