data_PCOD9003466
_publ_section_title
;
Structure prediction by ZEFSAII (Michael W. Deem and Ramdas Pophale) SiO2 
 PCOD9003466
Probable space group: P -1
;
_chemical_formula_sum "Si O2"
_cell_formula_units_Z 16
_cell_length_a 28.126667
_cell_length_b 7.204551
_cell_length_c 5.295968
_cell_angle_alpha 93.708737
_cell_angle_beta 85.937213
_cell_angle_gamma 47.108280
_cell_volume 774.859942
_symmetry_space_group_name_H-M "P -1"
_symmetry_group_IT_number 2
_symmetry_cell_setting 'triclinic'
loop_
_space_group_symop_operation_xyz
x,y,z
-x,-y,-z
loop_
_atom_site_type_symbol
_atom_site_label
_atom_site_fract_x
_atom_site_fract_y
_atom_site_fract_z
Si Si1 0.057944 0.334840 0.762667
Si Si2 0.707339 0.340702 0.390350
Si Si3 0.712759 0.070243 0.863029
Si Si4 0.565087 0.448525 0.949660
Si Si5 0.562367 0.703281 0.473252
Si Si6 0.033874 0.708413 0.452937
Si Si7 0.831369 0.250489 0.283314
Si Si8 0.158790 0.528702 0.200857
O O1 0.067200 0.514459 0.660283
O O2 0.025866 0.271346 0.576967
O O3 0.123671 0.054362 0.795777
O O4 0.000000 0.500000 0.000000
O O5 0.718904 0.184956 0.623002
O O6 0.632737 0.614500 0.454663
O O7 0.758202 0.370893 0.356071
O O8 0.714372 0.192598 0.125844
O O9 0.640222 0.168635 0.885331
O O10 0.773874 0.766653 0.823948
O O11 0.557438 0.590814 0.713477
O O12 0.500000 0.500000 0.000000
O O13 0.564890 0.573009 0.210917
O O14 0.500000 0.000000 0.500000
O O15 0.094573 0.568399 0.225931
O O16 0.000000 0.000000 0.500000
O O17 0.848667 0.322096 0.533583
O O18 0.839426 0.353679 0.041463
#
# Coordination Sequence:
#
# PCOD9003466 Si02
#       8
#     2   2   2   2   2   2   2   2
#     4  11  26  41  69  93 125 172 206 260 323 372
#     4  10  22  41  62  86 126 162 209 255 306 385
#     4  10  22  41  62  88 121 168 206 250 320 367
#     4  10  21  37  60  89 123 159 206 258 305 375
#     4  10  21  37  60  89 121 164 203 254 315 364
#     4  11  24  45  65  94 129 163 212 262 313 380
#     4  12  26  42  63  96 125 161 212 257 314 373
#     4  12  26  41  66  92 127 163 206 265 309 374
#
# _framework density 20.648890999999999
#
# number of rings (size 3 to 8) (size 9 to 14) (size 15 to 20)
#    0.000    1.250    1.250    3.750    5.250    3.000 
#    0.000    0.000    0.000    0.000    0.000    0.000 
#    0.000    0.000    0.000    0.000    0.000    0.000 
#
# Total GULP energy -89325.030142 kJ/mol
# GULP energy per Si atom -5582.814384 kJ/mol
# Density = 2.060189 g / cm^3
# Si number density = 20.648891 Si / 1000 Ang^3
#
#
#
# Elastic Constant Matrix: (Units=GPa)
#
#
# Indices 1 2 3 4 5 6 
#
# 1 113.0866 27.1715 24.7016 -14.7114 -32.6033 -16.7767
# 2 27.1715 152.8790 42.8435 -1.8153 -20.2397 -23.8602
# 3 24.7016 42.8435 143.2430 -22.4067 -12.7698 0.3261
# 4 -14.7114 -1.8153 -22.4067 32.1040 0.6409 -6.2519
# 5 -32.6033 -20.2397 -12.7698 0.6409 40.7914 4.9827
# 6 -16.7767 -23.8602 0.3261 -6.2519 4.9827 33.3304
#
#
#
# Elastic Compliance Matrix: (Units=1/GPa)
#
#
# Indices 1 2 3 4 5 6 
#
# 1 0.013716 0.000156 -0.000423 0.007138 0.009956 0.006870
# 2 0.000156 0.008432 -0.002306 -0.000008 0.002890 0.005704
# 3 -0.000423 -0.002306 0.008726 0.005524 0.001298 -0.001107
# 4 0.007138 -0.000008 0.005524 0.040157 0.005549 0.010236
# 5 0.009956 0.002890 0.001298 0.005549 0.033854 0.003048
# 6 0.006870 0.005704 -0.001107 0.010236 0.003048 0.039019
#
#
# Mechanical properties :
#
#
# Convention : Reuss Voigt Hill
#
# Bulk Modulus (GPa) = 38.86754 66.51575 52.69164
# Shear Modulus (GPa) = 31.72054 42.21130 36.96592
#
# Velocity S-wave (km/s) = 3.92367 4.52623 4.23568
# Velocity P-wave (km/s) = 6.27621 7.72000 7.03524
#
# Compressibility (1/GPa) = 0.02572841
#
# Stress axis : x y z
#
# Youngs Moduli (GPa) = 72.90779 118.59190 114.59866
#
# Poissons Ratio (x) = -0.01850 0.04853
# Poissons Ratio (y) = -0.01137 0.26421
# Poissons Ratio (z) = 0.03087 0.27341
#
# Static dielectric constant tensor:
#      x y z
#    x 1.762390 -0.036940 0.033470 
#    y -0.036940 1.734540 -0.006980 
#    z 0.033470 -0.006980 1.742020 
# 
# From -- ./inp_files/11387.got.cif
#   From: 2010.05.17/outbox.cif.g08.bks.cpg/sg2_6_cif.got.tgz:11387.got - 2010.06.03 11:33:40.
