data_PCOD9003028
_publ_section_title
;
Structure prediction by ZEFSAII (Michael W. Deem and Ramdas Pophale) SiO2 
 PCOD9003028
Probable space group: P -1
;
_chemical_formula_sum "Si O2"
_cell_formula_units_Z 12
_cell_length_a 7.728833
_cell_length_b 7.691173
_cell_length_c 16.557336
_cell_angle_alpha 112.618042
_cell_angle_beta 146.425041
_cell_angle_gamma 81.188967
_cell_volume 474.713942
_symmetry_space_group_name_H-M "P -1"
_symmetry_group_IT_number 2
_symmetry_cell_setting 'triclinic'
loop_
_space_group_symop_operation_xyz
x,y,z
-x,-y,-z
loop_
_atom_site_type_symbol
_atom_site_label
_atom_site_fract_x
_atom_site_fract_y
_atom_site_fract_z
Si Si1 0.054127 0.667694 0.657966
Si Si2 0.279662 0.038902 0.347491
Si Si3 0.152462 0.330792 0.815327
Si Si4 0.169631 0.459785 0.178822
Si Si5 0.516022 0.586319 0.185666
Si Si6 0.410399 0.772671 0.656077
O O1 0.360631 0.608066 0.803962
O O2 0.204675 0.795565 0.658562
O O3 0.865224 0.783271 0.658210
O O4 0.802252 0.448841 0.498209
O O5 0.479022 0.076280 0.347938
O O6 0.500000 0.000000 0.500000
O O7 0.959355 0.841083 0.193052
O O8 0.205334 0.261299 0.733897
O O9 0.880873 0.441131 0.739482
O O10 0.500000 0.500000 0.000000
O O11 0.457819 0.606343 0.261398
O O12 0.253231 0.260178 0.187593
O O13 0.830816 0.423865 0.991509
#
# Coordination Sequence:
#
# PCOD9003028 Si02
#       6
#     2   2   2   2   2   2
#     4  10  21  38  61  88 118 152 194 245 296 349
#     4  12  24  37  60  90 120 156 199 245 291 350
#     4  10  21  37  57  82 117 158 194 237 290 346
#     4   9  18  36  60  82 111 152 193 237 291 347
#     4   9  18  36  60  82 111 152 193 237 291 347
#     4  10  21  38  61  88 118 152 194 245 296 349
#
# _framework density 25.278382000000001
#
# number of rings (size 3 to 8) (size 9 to 14) (size 15 to 20)
#    0.000    2.000    0.000    3.500    0.000    2.000 
#    0.000   13.333    0.000   18.000    0.000    0.000 
#    0.000    0.000    0.000    0.000    0.000    0.000 
#
# Total GULP energy -66940.371497 kJ/mol
# GULP energy per Si atom -5578.364291 kJ/mol
# Density = 2.522085 g / cm^3
# Si number density = 25.278382 Si / 1000 Ang^3
#
#
#
# Elastic Constant Matrix: (Units=GPa)
#
#
# Indices 1 2 3 4 5 6 
#
# 1 143.1989 12.7753 10.4309 3.7798 36.0389 53.1839
# 2 12.7753 96.8696 42.9959 -11.4164 6.0968 27.4145
# 3 10.4309 42.9959 97.6680 -19.4394 12.5961 10.4466
# 4 3.7798 -11.4164 -19.4394 44.8588 5.7535 11.2968
# 5 36.0389 6.0968 12.5961 5.7535 24.1762 4.6846
# 6 53.1839 27.4145 10.4466 11.2968 4.6846 56.6052
#
#
#
# Elastic Compliance Matrix: (Units=1/GPa)
#
#
# Indices 1 2 3 4 5 6 
#
# 1 0.027472 0.006598 0.005898 0.014926 -0.043531 -0.029472
# 2 0.006598 0.016582 -0.003680 0.007022 -0.011051 -0.014038
# 3 0.005898 -0.003680 0.016116 0.009568 -0.017138 -0.007225
# 4 0.014926 0.007022 0.009568 0.037243 -0.033243 -0.023872
# 5 -0.043531 -0.011051 -0.017138 -0.033243 0.116894 0.046375
# 6 -0.029472 -0.014038 -0.007225 -0.023872 0.046375 0.054416
#
#
# Mechanical properties :
#
#
# Convention : Reuss Voigt Hill
#
# Bulk Modulus (GPa) = 12.85278 52.23786 32.54532
# Shear Modulus (GPa) = 18.04887 43.23033 30.63960
#
# Velocity S-wave (km/s) = 2.67498 4.13991 3.48528
# Velocity P-wave (km/s) = 3.82574 6.60013 5.39435
#
# Compressibility (1/GPa) = 0.07780420
#
# Stress axis : x y z
#
# Youngs Moduli (GPa) = 36.40032 60.30475 62.04841
#
# Poissons Ratio (x) = -0.39792 -0.36598
# Poissons Ratio (y) = -0.24018 0.22835
# Poissons Ratio (z) = -0.21470 0.22194
#
# Static dielectric constant tensor:
#      x y z
#    x 2.109580 0.035410 -0.040900 
#    y 0.035410 2.022380 -0.005080 
#    z -0.040900 -0.005080 2.144240 
# 
# From -- ./inp_files/111089.got.cif
#   From: 2010.05.17/outbox.cif.g08.bks.cpg/sg2_56_cif.got.tgz:111089.got - 2010.06.03 11:33:40.
