data_PCOD9003814
_publ_section_title
;
Structure prediction by ZEFSAII (Michael W. Deem and Ramdas Pophale) SiO2 
 PCOD9003814
Probable space group: P -1
;
_chemical_formula_sum "Si O2"
_cell_formula_units_Z 16
_cell_length_a 17.197237
_cell_length_b 9.178905
_cell_length_c 12.562889
_cell_angle_alpha 111.580252
_cell_angle_beta 41.560619
_cell_angle_gamma 77.977873
_cell_volume 759.815787
_symmetry_space_group_name_H-M "P -1"
_symmetry_group_IT_number 2
_symmetry_cell_setting 'triclinic'
loop_
_space_group_symop_operation_xyz
x,y,z
-x,-y,-z
loop_
_atom_site_type_symbol
_atom_site_label
_atom_site_fract_x
_atom_site_fract_y
_atom_site_fract_z
Si Si1 0.872801 0.239426 0.274330
Si Si2 0.015960 0.385035 0.616041
Si Si3 0.676477 0.765205 0.590194
Si Si4 0.237342 0.843664 0.902230
Si Si5 0.763432 0.471667 0.056243
Si Si6 0.633253 0.227899 0.481796
Si Si7 0.784749 0.747715 0.253049
Si Si8 0.266740 0.095543 0.081247
O O1 0.770280 0.496578 0.400767
O O2 0.715979 0.279572 0.482445
O O3 0.000000 0.000000 0.000000
O O4 0.026291 0.130325 0.173126
O O5 0.177499 0.305294 0.497696
O O6 0.120582 0.215192 0.357822
O O7 0.843617 0.675761 0.828062
O O8 0.925734 0.347428 0.774127
O O9 0.671336 0.860503 0.509076
O O10 0.457992 0.970858 0.899300
O O11 0.199886 0.709600 0.949212
O O12 0.355639 0.724429 0.639269
O O13 0.324259 0.874328 0.904493
O O14 0.572440 0.614509 0.234576
O O15 0.725676 0.669349 0.215054
O O16 0.762544 0.938796 0.273878
O O17 0.000000 0.500000 0.000000
#
# Coordination Sequence:
#
# PCOD9003814 Si02
#       8
#     2   2   2   2   2   2   2   2
#     4  10  21  37  62  91 128 163 201 253 307 379
#     4  11  25  44  64  94 126 162 218 267 310 359
#     4  12  22  42  67  94 128 166 211 255 316 377
#     4  11  21  40  62  88 129 163 206 255 309 375
#     4  12  23  38  61  92 128 162 204 261 315 375
#     4  11  22  37  60  94 125 164 206 247 318 391
#     4  12  21  35  60  92 128 159 197 256 322 371
#     4  11  24  44  69  89 120 173 217 262 307 367
#
# _framework density 21.057735000000001
#
# number of rings (size 3 to 8) (size 9 to 14) (size 15 to 20)
#    0.000    0.750    2.500    7.875    0.000    0.500 
#    0.000    0.000    0.000    1.500    0.000    0.000 
#    0.000    0.000    0.000    0.000    0.000    0.000 
#
# Total GULP energy -89377.443566 kJ/mol
# GULP energy per Si atom -5586.090223 kJ/mol
# Density = 2.100981 g / cm^3
# Si number density = 21.057735 Si / 1000 Ang^3
#
#
#
# Elastic Constant Matrix: (Units=GPa)
#
#
# Indices 1 2 3 4 5 6 
#
# 1 54.3329 -0.1356 26.8850 -11.6004 -30.7974 4.3756
# 2 -0.1356 124.8935 29.4493 -10.9502 -2.2427 0.3678
# 3 26.8850 29.4493 87.7395 -13.9426 -20.9463 -1.3354
# 4 -11.6004 -10.9502 -13.9426 30.2687 -2.8465 -6.3324
# 5 -30.7974 -2.2427 -20.9463 -2.8465 42.8064 -1.4509
# 6 4.3756 0.3678 -1.3354 -6.3324 -1.4509 25.1603
#
#
#
# Elastic Compliance Matrix: (Units=1/GPa)
#
#
# Indices 1 2 3 4 5 6 
#
# 1 0.039998 0.002950 -0.003849 0.016997 0.028134 -0.001303
# 2 0.002950 0.009045 -0.003149 0.003078 0.001261 0.000035
# 3 -0.003849 -0.003149 0.015904 0.005917 0.005355 0.003358
# 4 0.016997 0.003078 0.005917 0.047312 0.018781 0.010304
# 5 0.028134 0.001261 0.005355 0.018781 0.047634 0.002847
# 6 -0.001303 0.000035 0.003358 0.010304 0.002847 0.042907
#
#
# Mechanical properties :
#
#
# Convention : Reuss Voigt Hill
#
# Bulk Modulus (GPa) = 17.58973 42.15147 29.87060
# Shear Modulus (GPa) = 21.75373 33.69824 27.72599
#
# Velocity S-wave (km/s) = 3.21760 4.00469 3.63252
# Velocity P-wave (km/s) = 4.70905 6.43770 5.63999
#
# Compressibility (1/GPa) = 0.05685137
#
# Stress axis : x y z
#
# Youngs Moduli (GPa) = 25.00132 110.55838 62.87884
#
# Poissons Ratio (x) = -0.32617 0.24200
# Poissons Ratio (y) = -0.07376 0.19801
# Poissons Ratio (z) = 0.09622 0.34816
#
# Static dielectric constant tensor:
#      x y z
#    x 1.798460 -0.025070 -0.049420 
#    y -0.025070 1.772410 0.022780 
#    z -0.049420 0.022780 1.799670 
# 
# From -- ./inp_files/244501.got.cif
#   From: 2010.05.17/outbox.cif.g08.bks.cpg/sg2_123_cif.got.tgz:244501.got - 2010.06.03 11:33:40.
