data_PCOD9003828
_publ_section_title
;
Structure prediction by ZEFSAII (Michael W. Deem and Ramdas Pophale) SiO2 
 PCOD9003828
Probable space group: P -1
;
_chemical_formula_sum "Si O2"
_cell_formula_units_Z 16
_cell_length_a 25.394481
_cell_length_b 6.182530
_cell_length_c 11.714591
_cell_angle_alpha 69.161404
_cell_angle_beta 30.748806
_cell_angle_gamma 56.337354
_cell_volume 750.553992
_symmetry_space_group_name_H-M "P -1"
_symmetry_group_IT_number 2
_symmetry_cell_setting 'triclinic'
loop_
_space_group_symop_operation_xyz
x,y,z
-x,-y,-z
loop_
_atom_site_type_symbol
_atom_site_label
_atom_site_fract_x
_atom_site_fract_y
_atom_site_fract_z
Si Si1 0.034029 0.260926 0.639104
Si Si2 0.094027 0.693578 0.342113
Si Si3 0.791562 0.346409 0.647406
Si Si4 0.515853 0.035667 0.288774
Si Si5 0.333767 0.909359 0.523532
Si Si6 0.096079 0.347666 0.749559
Si Si7 0.400453 0.449813 0.637206
Si Si8 0.541016 0.471851 0.055941
O O1 0.056880 0.489747 0.502919
O O2 0.036804 0.270463 0.769633
O O3 0.917980 0.309704 0.771946
O O4 0.142745 0.965789 0.454708
O O5 0.205311 0.636247 0.224333
O O6 0.000000 0.000000 0.500000
O O7 0.861350 0.467352 0.427932
O O8 0.652887 0.511316 0.843587
O O9 0.454885 0.239785 0.470364
O O10 0.578387 0.169462 0.079749
O O11 0.406789 0.035935 0.423784
O O12 0.612829 0.736155 0.209613
O O13 0.308474 0.742016 0.698891
O O14 0.432919 0.685939 0.295824
O O15 0.215135 0.107702 0.635177
O O16 0.000000 0.500000 0.000000
O O17 0.500000 0.500000 0.500000
O O18 0.500000 0.500000 0.000000
#
# Coordination Sequence:
#
# PCOD9003828 Si02
#       8
#     2   2   2   2   2   2   2   2
#     4   9  18  37  64  84 118 162 204 264 317 361
#     4   8  16  34  64  86 118 159 204 262 311 368
#     4  10  21  37  62  92 126 159 206 264 320 385
#     4   9  18  34  61  85 126 161 198 250 309 375
#     4  10  21  38  63  89 125 163 207 260 311 374
#     4  11  24  40  62  87 125 169 218 258 310 380
#     4   8  16  35  63  82 117 162 204 252 298 365
#     4  11  22  35  59  98 131 160 203 253 328 386
#
# _framework density 21.317587
#
# number of rings (size 3 to 8) (size 9 to 14) (size 15 to 20)
#    0.000    2.500    0.000    1.500    0.000    5.500 
#    0.000    0.000  126.500    0.000    0.000    0.000 
#    0.000    0.000    0.000    0.000    0.000    0.000 
#
# Total GULP energy -89119.427602 kJ/mol
# GULP energy per Si atom -5569.964225 kJ/mol
# Density = 2.126907 g / cm^3
# Si number density = 21.317587 Si / 1000 Ang^3
#
#
#
# Elastic Constant Matrix: (Units=GPa)
#
#
# Indices 1 2 3 4 5 6 
#
# 1 210.6116 35.0079 48.1934 19.8334 4.8951 5.9101
# 2 35.0079 107.8200 24.6080 1.7196 13.8462 -1.1741
# 3 48.1934 24.6080 78.1621 7.2036 6.4329 -0.4137
# 4 19.8334 1.7196 7.2036 18.5506 -2.8093 -0.6832
# 5 4.8951 13.8462 6.4329 -2.8093 22.1032 0.5238
# 6 5.9101 -1.1741 -0.4137 -0.6832 0.5238 31.3370
#
#
#
# Elastic Compliance Matrix: (Units=1/GPa)
#
#
# Indices 1 2 3 4 5 6 
#
# 1 0.006177 -0.001218 -0.002892 -0.005483 -0.000428 -0.001361
# 2 -0.001218 0.010942 -0.002229 0.000284 -0.005917 0.000715
# 3 -0.002892 -0.002229 0.015832 -0.003280 -0.003003 0.000650
# 4 -0.005483 0.000284 -0.003280 0.062596 0.009895 0.002201
# 5 -0.000428 -0.005917 -0.003003 0.009895 0.051195 -0.000821
# 6 -0.001361 0.000715 0.000650 0.002201 -0.000821 0.032265
#
#
# Mechanical properties :
#
#
# Convention : Reuss Voigt Hill
#
# Bulk Modulus (GPa) = 49.32791 68.02357 58.67574
# Shear Modulus (GPa) = 25.19635 33.65045 29.42340
#
# Velocity S-wave (km/s) = 3.44168 3.97738 3.71919
# Velocity P-wave (km/s) = 6.24366 7.28503 6.78436
#
# Compressibility (1/GPa) = 0.02027250
#
# Stress axis : x y z
#
# Youngs Moduli (GPa) = 161.89915 91.39033 63.16462
#
# Poissons Ratio (x) = 0.11131 0.18265
# Poissons Ratio (y) = 0.19718 0.14082
# Poissons Ratio (z) = 0.46815 0.20374
#
# Static dielectric constant tensor:
#      x y z
#    x 1.810940 -0.039760 -0.035950 
#    y -0.039760 1.987170 0.298150 
#    z -0.035950 0.298150 2.294650 
# 
# From -- ./inp_files/473389.got.cif
#   From: 2010.05.17/outbox.cif.g08.bks.cpg/sg2_237_cif.got.tgz:473389.got - 2010.06.03 11:33:40.
