data_PCOD9003703
_publ_section_title
;
Structure prediction by ZEFSAII (Michael W. Deem and Ramdas Pophale) SiO2 
 PCOD9003703
Probable space group: P -1
;
_chemical_formula_sum "Si O2"
_cell_formula_units_Z 15
_cell_length_a 13.907174
_cell_length_b 8.668518
_cell_length_c 9.353039
_cell_angle_alpha 119.317609
_cell_angle_beta 138.447737
_cell_angle_gamma 83.374181
_cell_volume 587.475641
_symmetry_space_group_name_H-M "P -1"
_symmetry_group_IT_number 2
_symmetry_cell_setting 'triclinic'
loop_
_space_group_symop_operation_xyz
x,y,z
-x,-y,-z
loop_
_atom_site_type_symbol
_atom_site_label
_atom_site_fract_x
_atom_site_fract_y
_atom_site_fract_z
Si Si1 0.084238 0.328537 0.899931
Si Si2 0.050251 0.709420 0.580676
Si Si3 0.003343 0.198222 0.149963
Si Si4 0.227101 0.761345 0.291110
Si Si5 0.399760 0.173441 0.797165
Si Si6 0.500000 0.500000 0.500000
Si Si7 0.710154 0.896885 0.035090
Si Si8 0.350789 0.444070 0.622164
O O1 0.159324 0.175535 0.910671
O O2 0.027027 0.328437 0.676086
O O3 0.930917 0.276774 0.805240
O O4 0.227976 0.546920 0.190117
O O5 0.000000 0.500000 0.500000
O O6 0.976734 0.799080 0.657758
O O7 0.230724 0.877742 0.839233
O O8 0.163082 0.377788 0.349589
O O9 0.839178 0.207349 0.922769
O O10 0.000000 0.000000 0.000000
O O11 0.366179 0.961835 0.597018
O O12 0.299935 0.122337 0.812565
O O13 0.356920 0.290170 0.676929
O O14 0.569329 0.340700 0.119815
O O15 0.443256 0.436300 0.578549
O O16 0.556068 0.731433 0.715307
#
# Coordination Sequence:
#
# PCOD9003703 Si02
#       8
#     2   2   2   2   2   1   2   2
#     4  11  23  39  63  91 130 167 215 256 323 386
#     4  12  24  41  63 100 134 163 213 276 321 375
#     4  12  22  37  65  94 128 167 215 268 321 380
#     4  11  22  38  60  93 127 167 213 268 314 377
#     4  10  21  39  63  90 128 172 217 262 320 394
#     4  10  22  40  64  94 128 164 224 268 310 392
#     4  11  23  42  66  94 126 178 213 258 328 388
#     4  10  21  37  61  94 128 170 217 265 323 388
#
# _framework density 25.532973999999999
#
# number of rings (size 3 to 8) (size 9 to 14) (size 15 to 20)
#    0.000    1.067    4.000    3.600    0.000    0.000 
#    0.000    1.333    0.000   13.600    0.000    0.000 
#    0.000    0.000    0.000    0.000    0.000    0.000 
#
# Total GULP energy -83646.465192 kJ/mol
# GULP energy per Si atom -5576.431013 kJ/mol
# Density = 2.547486 g / cm^3
# Si number density = 25.532974 Si / 1000 Ang^3
#
#
#
# Elastic Constant Matrix: (Units=GPa)
#
#
# Indices 1 2 3 4 5 6 
#
# 1 93.1280 47.0866 38.6550 5.0946 -21.2944 26.3894
# 2 47.0866 127.8643 62.7655 42.2521 -2.0539 13.5688
# 3 38.6550 62.7655 208.3450 43.1435 -13.6220 17.9617
# 4 5.0946 42.2521 43.1435 50.7324 9.2965 -4.0097
# 5 -21.2944 -2.0539 -13.6220 9.2965 34.5714 7.9690
# 6 26.3894 13.5688 17.9617 -4.0097 7.9690 32.8122
#
#
#
# Elastic Compliance Matrix: (Units=1/GPa)
#
#
# Indices 1 2 3 4 5 6 
#
# 1 0.025983 -0.005163 0.001973 -0.006550 0.024359 -0.026559
# 2 -0.005163 0.013997 -0.000677 -0.010970 0.000991 -0.002846
# 3 0.001973 -0.000677 0.007659 -0.008367 0.008418 -0.008567
# 4 -0.006550 -0.010970 -0.008367 0.043362 -0.025615 0.025905
# 5 0.024359 0.000991 0.008418 -0.025615 0.064180 -0.043326
# 6 -0.026559 -0.002846 -0.008567 0.025905 -0.043326 0.071391
#
#
# Mechanical properties :
#
#
# Convention : Reuss Voigt Hill
#
# Bulk Modulus (GPa) = 25.05872 80.70574 52.88223
# Shear Modulus (GPa) = 20.19309 42.34521 31.26915
#
# Velocity S-wave (km/s) = 2.81528 4.07683 3.50331
# Velocity P-wave (km/s) = 4.51700 7.33742 6.09266
#
# Compressibility (1/GPa) = 0.03990627
#
# Stress axis : x y z
#
# Youngs Moduli (GPa) = 38.48604 71.44222 130.56163
#
# Poissons Ratio (x) = 0.36886 -0.25764
# Poissons Ratio (y) = 0.19870 0.08841
# Poissons Ratio (z) = -0.07594 0.04838
#
# Static dielectric constant tensor:
#      x y z
#    x 2.123200 -0.058720 0.177650 
#    y -0.058720 2.019760 -0.117800 
#    z 0.177650 -0.117800 1.808910 
# 
# From -- ./inp_files/296521.got.cif
#   From: 2010.05.17/outbox.cif.g08.bks.cpg/sg2_149_cif.got.tgz:296521.got - 2010.06.03 11:33:40.
