data_PCOD9003459
_publ_section_title
;
Structure prediction by ZEFSAII (Michael W. Deem and Ramdas Pophale) SiO2 
 PCOD9003459
Probable space group: P -1
;
_chemical_formula_sum "Si O2"
_cell_formula_units_Z 13
_cell_length_a 18.370244
_cell_length_b 12.964611
_cell_length_c 11.481125
_cell_angle_alpha 51.804687
_cell_angle_beta 146.805220
_cell_angle_gamma 151.098901
_cell_volume 652.596693
_symmetry_space_group_name_H-M "P -1"
_symmetry_group_IT_number 2
_symmetry_cell_setting 'triclinic'
loop_
_space_group_symop_operation_xyz
x,y,z
-x,-y,-z
loop_
_atom_site_type_symbol
_atom_site_label
_atom_site_fract_x
_atom_site_fract_y
_atom_site_fract_z
Si Si1 0.174690 0.363994 0.926314
Si Si2 0.745522 0.882124 0.555646
Si Si3 0.000000 0.500000 0.500000
Si Si4 0.374074 0.353832 0.812576
Si Si5 0.245619 0.859738 0.774775
Si Si6 0.046123 0.827580 0.741866
Si Si7 0.225562 0.396141 0.247142
O O1 0.130955 0.472320 0.741386
O O2 0.419644 0.505840 0.103964
O O3 0.172023 0.370415 0.057441
O O4 0.959122 0.095996 0.778089
O O5 0.491578 0.671164 0.428737
O O6 0.774812 0.761768 0.626347
O O7 0.741919 0.987065 0.376244
O O8 0.942630 0.379530 0.382498
O O9 0.185553 0.306631 0.545189
O O10 0.224316 0.096958 0.809481
O O11 0.500000 0.500000 0.000000
O O12 0.175466 0.826065 0.836938
O O13 0.500000 0.000000 0.000000
O O14 0.958052 0.701881 0.835653
#
# Coordination Sequence:
#
# PCOD9003459 Si02
#       7
#     2   2   1   2   2   2   2
#     4  11  22  39  63  88 120 163 202 244 300 356
#     4  10  21  37  60  89 120 158 201 238 294 367
#     4  10  22  40  62  84 110 156 212 244 284 360
#     4  11  21  37  61  90 124 161 203 251 294 345
#     4  11  22  41  63  84 116 161 207 249 296 356
#     4  11  23  36  58  93 122 153 204 251 299 362
#     4  11  21  37  59  89 128 156 187 250 312 356
#
# _framework density 19.92042
#
# number of rings (size 3 to 8) (size 9 to 14) (size 15 to 20)
#    0.000    1.231    0.000    9.692    0.000    1.231 
#    0.000    3.077    0.000    6.462    0.000    0.000 
#    0.000    0.000    0.000    0.000    0.000    0.000 
#
# Total GULP energy -72434.230834 kJ/mol
# GULP energy per Si atom -5571.863910 kJ/mol
# Density = 1.987508 g / cm^3
# Si number density = 19.920420 Si / 1000 Ang^3
#
#
#
# Elastic Constant Matrix: (Units=GPa)
#
#
# Indices 1 2 3 4 5 6 
#
# 1 182.6357 32.5588 53.9291 19.1832 2.4736 23.1312
# 2 32.5588 47.1868 20.4710 26.0792 2.8333 3.2768
# 3 53.9291 20.4710 92.7028 13.8375 -8.4063 7.0532
# 4 19.1832 26.0792 13.8375 33.2800 -6.1055 3.6667
# 5 2.4736 2.8333 -8.4063 -6.1055 28.4999 4.3310
# 6 23.1312 3.2768 7.0532 3.6667 4.3310 29.3652
#
#
#
# Elastic Compliance Matrix: (Units=1/GPa)
#
#
# Indices 1 2 3 4 5 6 
#
# 1 0.007717 -0.003603 -0.003410 0.000223 -0.000539 -0.004806
# 2 -0.003603 0.045111 -0.004340 -0.034541 -0.013638 0.005171
# 3 -0.003410 -0.004340 0.014203 0.000533 0.005194 -0.001073
# 4 0.000223 -0.034541 0.000533 0.060722 0.017587 -0.006626
# 5 -0.000539 -0.013638 0.005194 0.017587 0.042981 -0.007836
# 6 -0.004806 0.005171 -0.001073 -0.006626 -0.007836 0.039504
#
#
# Mechanical properties :
#
#
# Convention : Reuss Voigt Hill
#
# Bulk Modulus (GPa) = 22.56084 59.60476 41.08280
# Shear Modulus (GPa) = 20.18425 32.60011 26.39218
#
# Velocity S-wave (km/s) = 3.18660 4.04978 3.64384
# Velocity P-wave (km/s) = 4.98892 7.20097 6.19449
#
# Compressibility (1/GPa) = 0.04432459
#
# Stress axis : x y z
#
# Youngs Moduli (GPa) = 129.58033 22.16760 70.40922
#
# Poissons Ratio (x) = 0.07986 0.24013
# Poissons Ratio (y) = 0.46683 0.30557
# Poissons Ratio (z) = 0.44193 0.09621
#
# Static dielectric constant tensor:
#      x y z
#    x 1.717610 0.019480 -0.007200 
#    y 0.019480 1.710620 0.009980 
#    z -0.007200 0.009980 1.718130 
# 
# From -- ./inp_files/265392.got.cif
#   From: 2010.05.17/outbox.cif.g08.bks.cpg/sg2_133_cif.got.tgz:265392.got - 2010.06.03 11:33:40.
