data_PCOD9003478
_publ_section_title
;
Structure prediction by ZEFSAII (Michael W. Deem and Ramdas Pophale) SiO2 
 PCOD9003478
Probable space group: P -1
;
_chemical_formula_sum "Si O2"
_cell_formula_units_Z 16
_cell_length_a 19.955179
_cell_length_b 8.516109
_cell_length_c 21.874300
_cell_angle_alpha 30.845788
_cell_angle_beta 20.034456
_cell_angle_gamma 29.267733
_cell_volume 605.494860
_symmetry_space_group_name_H-M "P -1"
_symmetry_group_IT_number 2
_symmetry_cell_setting 'triclinic'
loop_
_space_group_symop_operation_xyz
x,y,z
-x,-y,-z
loop_
_atom_site_type_symbol
_atom_site_label
_atom_site_fract_x
_atom_site_fract_y
_atom_site_fract_z
Si Si1 0.629906 0.378814 0.367421
Si Si2 0.828489 0.866735 0.046998
Si Si3 0.832406 0.075912 0.834426
Si Si4 0.049194 0.377300 0.399110
Si Si5 0.405832 0.218625 0.947876
Si Si6 0.589947 0.719271 0.654504
Si Si7 0.011326 0.321715 0.785289
Si Si8 0.771323 0.300414 0.466653
O O1 0.500000 0.500000 0.500000
O O2 0.818717 0.505515 0.173818
O O3 0.469249 0.594591 0.382113
O O4 0.654548 0.997420 0.471710
O O5 0.610816 0.093044 0.193454
O O6 0.812509 0.988766 0.950770
O O7 0.003225 0.962323 0.902303
O O8 0.840633 0.437584 0.714004
O O9 0.058353 0.852364 0.683847
O O10 0.644229 0.015847 0.979940
O O11 0.052660 0.479891 0.290842
O O12 0.799343 0.511193 0.582346
O O13 0.151219 0.992813 0.452775
O O14 0.536169 0.455969 0.747259
O O15 0.177951 0.481790 0.072889
O O16 0.500000 0.000000 0.000000
O O17 0.201777 0.375442 0.638047
#
# Coordination Sequence:
#
# PCOD9003478 Si02
#       8
#     2   2   2   2   2   2   2   2
#     4  10  22  41  61  86 121 161 200 247 297 352
#     4   9  20  40  60  85 120 158 198 246 300 355
#     4  10  21  37  60  90 117 155 203 247 296 356
#     4  11  22  40  64  91 120 157 202 250 297 355
#     4  10  21  39  60  88 124 158 193 244 301 354
#     4  10  21  42  63  86 122 159 195 247 300 351
#     4   9  21  39  61  90 121 156 200 249 300 354
#     4  11  22  40  63  90 121 160 201 246 300 357
#
# _framework density 26.424665000000001
#
# number of rings (size 3 to 8) (size 9 to 14) (size 15 to 20)
#    0.000    2.000    0.000    3.750    0.000    5.000 
#    0.000   33.750    0.000    0.000    0.000    0.000 
#    0.000    0.000    0.000    0.000    0.000    0.000 
#
# Total GULP energy -89560.499005 kJ/mol
# GULP energy per Si atom -5597.531188 kJ/mol
# Density = 2.636452 g / cm^3
# Si number density = 26.424665 Si / 1000 Ang^3
#
#
#
# Elastic Constant Matrix: (Units=GPa)
#
#
# Indices 1 2 3 4 5 6 
#
# 1 51.9061 5.8333 25.6625 1.7982 -26.4316 19.5817
# 2 5.8333 95.2171 18.1369 -7.6298 -17.3869 15.8536
# 3 25.6625 18.1369 155.3244 -27.1613 -28.5112 12.7081
# 4 1.7982 -7.6298 -27.1613 23.3528 15.3750 -8.2300
# 5 -26.4316 -17.3869 -28.5112 15.3750 55.9314 -1.9185
# 6 19.5817 15.8536 12.7081 -8.2300 -1.9185 54.2342
#
#
#
# Elastic Compliance Matrix: (Units=1/GPa)
#
#
# Indices 1 2 3 4 5 6 
#
# 1 0.046696 0.004415 -0.007768 -0.037790 0.029147 -0.021034
# 2 0.004415 0.012147 -0.001249 -0.003634 0.006047 -0.005190
# 3 -0.007768 -0.001249 0.009582 0.014384 -0.003026 0.003000
# 4 -0.037790 -0.003634 0.014384 0.093970 -0.036654 0.024300
# 5 0.029147 0.006047 -0.003026 -0.036654 0.041528 -0.015675
# 6 -0.021034 -0.005190 0.003000 0.024300 -0.015675 0.029980
#
#
# Mechanical properties :
#
#
# Convention : Reuss Voigt Hill
#
# Bulk Modulus (GPa) = 16.88559 44.63478 30.76019
# Shear Modulus (GPa) = 19.02249 43.55801 31.29025
#
# Velocity S-wave (km/s) = 2.68596 4.06443 3.44485
# Velocity P-wave (km/s) = 4.00289 6.24133 5.24296
#
# Compressibility (1/GPa) = 0.05922210
#
# Stress axis : x y z
#
# Youngs Moduli (GPa) = 21.41492 82.32654 104.36481
#
# Poissons Ratio (x) = -0.36348 0.81069
# Poissons Ratio (y) = -0.09455 0.13032
# Poissons Ratio (z) = 0.16635 0.10280
#
# Static dielectric constant tensor:
#      x y z
#    x 2.017930 0.035630 0.032150 
#    y 0.035630 2.081660 0.041630 
#    z 0.032150 0.041630 2.183890 
# 
# From -- ./inp_files/613554.got.cif
#   From: 2010.05.17/outbox.cif.g08.bks.cpg/sg2_307_cif.got.tgz:613554.got - 2010.06.03 11:33:40.
