data_PCOD9003454
_publ_section_title
;
Structure prediction by ZEFSAII (Michael W. Deem and Ramdas Pophale) SiO2 
 PCOD9003454
Probable space group: P -1
;
_chemical_formula_sum "Si O2"
_cell_formula_units_Z 16
_cell_length_a 14.792679
_cell_length_b 11.752991
_cell_length_c 11.004702
_cell_angle_alpha 59.486079
_cell_angle_beta 148.513371
_cell_angle_gamma 139.779554
_cell_volume 584.048785
_symmetry_space_group_name_H-M "P -1"
_symmetry_group_IT_number 2
_symmetry_cell_setting 'triclinic'
loop_
_space_group_symop_operation_xyz
x,y,z
-x,-y,-z
loop_
_atom_site_type_symbol
_atom_site_label
_atom_site_fract_x
_atom_site_fract_y
_atom_site_fract_z
Si Si1 0.565628 0.932397 0.007940
Si Si2 0.582527 0.711978 0.722441
Si Si3 0.741840 0.268222 0.802889
Si Si4 0.151686 0.237769 0.483680
Si Si5 0.500429 0.273798 0.735369
Si Si6 0.061714 0.280404 0.002575
Si Si7 0.897650 0.304185 0.541596
Si Si8 0.763012 0.728758 0.167482
O O1 0.468663 0.751167 0.074985
O O2 0.399198 0.846762 0.743662
O O3 0.861134 0.117928 0.216793
O O4 0.500000 0.000000 0.000000
O O5 0.441585 0.763272 0.488608
O O6 0.356537 0.473073 0.591345
O O7 0.809797 0.785026 0.856278
O O8 0.705161 0.789287 0.954424
O O9 0.570619 0.197242 0.765646
O O10 0.851121 0.195653 0.908027
O O11 0.000000 0.500000 0.000000
O O12 0.224449 0.186586 0.480109
O O13 0.181012 0.189058 0.678236
O O14 0.691159 0.496086 0.797216
O O15 0.962852 0.297976 0.756192
O O16 0.000000 0.500000 0.500000
O O17 0.018244 0.253488 0.626888
O O18 0.500000 0.500000 0.000000
#
# Coordination Sequence:
#
# PCOD9003454 Si02
#       8
#     2   2   2   2   2   2   2   2
#     4  12  24  37  60  91 128 161 193 255 319 370
#     4   9  20  37  59  93 124 153 207 258 310 360
#     4  10  22  36  62  92 120 162 210 262 301 353
#     4  10  21  37  60  88 126 161 195 252 323 364
#     4  10  22  39  55  88 122 160 209 248 300 376
#     4   9  20  37  62  92 117 156 207 261 302 354
#     4  11  21  36  61  91 124 154 207 255 305 371
#     4   9  19  33  57  90 118 156 193 257 308 359
#
# _framework density 27.394971999999999
#
# number of rings (size 3 to 8) (size 9 to 14) (size 15 to 20)
#    0.000    2.000    2.500    1.125    7.000    4.500 
#    0.000    0.000    0.000    3.750    0.000    0.000 
#    0.000    0.000    0.000    0.000    0.000    0.000 
#
# Total GULP energy -89504.349192 kJ/mol
# GULP energy per Si atom -5594.021825 kJ/mol
# Density = 2.733262 g / cm^3
# Si number density = 27.394972 Si / 1000 Ang^3
#
#
#
# Elastic Constant Matrix: (Units=GPa)
#
#
# Indices 1 2 3 4 5 6 
#
# 1 215.3966 35.8614 90.4140 8.4504 45.6855 24.5940
# 2 35.8614 73.5472 19.6047 13.6459 12.2934 3.9985
# 3 90.4140 19.6047 191.4040 8.5128 21.7290 16.6177
# 4 8.4504 13.6459 8.5128 35.0060 5.3749 1.8205
# 5 45.6855 12.2934 21.7290 5.3749 64.5172 -3.9292
# 6 24.5940 3.9985 16.6177 1.8205 -3.9292 35.9028
#
#
#
# Elastic Compliance Matrix: (Units=1/GPa)
#
#
# Indices 1 2 3 4 5 6 
#
# 1 0.007391 -0.002098 -0.002446 0.000508 -0.004308 -0.004195
# 2 -0.002098 0.015874 -0.000276 -0.005460 -0.000993 -0.000035
# 3 -0.002446 -0.000276 0.006613 -0.000768 -0.000462 -0.001366
# 4 0.000508 -0.005460 -0.000768 0.031083 -0.001720 -0.001149
# 5 -0.004308 -0.000993 -0.000462 -0.001720 0.019372 0.005483
# 6 -0.004195 -0.000035 -0.001366 -0.001149 0.005483 0.032021
#
#
# Mechanical properties :
#
#
# Convention : Reuss Voigt Hill
#
# Bulk Modulus (GPa) = 49.41040 85.78976 67.60008
# Shear Modulus (GPa) = 38.83723 49.38306 44.11014
#
# Velocity S-wave (km/s) = 3.76929 4.25035 4.01703
# Velocity P-wave (km/s) = 6.08431 7.44789 6.80037
#
# Compressibility (1/GPa) = 0.02023866
#
# Stress axis : x y z
#
# Youngs Moduli (GPa) = 135.29271 62.99465 151.20657
#
# Poissons Ratio (x) = 0.13217 0.36984
# Poissons Ratio (y) = 0.28386 0.04177
# Poissons Ratio (z) = 0.33091 0.01740
#
# Static dielectric constant tensor:
#      x y z
#    x 2.070460 0.008730 -0.008170 
#    y 0.008730 2.168290 -0.134090 
#    z -0.008170 -0.134090 2.199750 
# 
# From -- ./inp_files/455717.got.cif
#   From: 2010.05.17/outbox.cif.g08.bks.cpg/sg2_228_cif.got.tgz:455717.got - 2010.06.03 11:33:40.
