data_PCOD9003009
_publ_section_title
;
Structure prediction by ZEFSAII (Michael W. Deem and Ramdas Pophale) SiO2 
 PCOD9003009
Probable space group: P -1
;
_chemical_formula_sum "Si O2"
_cell_formula_units_Z 16
_cell_length_a 4.866337
_cell_length_b 11.405867
_cell_length_c 14.105458
_cell_angle_alpha 87.564400
_cell_angle_beta 82.413182
_cell_angle_gamma 107.740946
_cell_volume 736.316974
_symmetry_space_group_name_H-M "P -1"
_symmetry_group_IT_number 2
_symmetry_cell_setting 'triclinic'
loop_
_space_group_symop_operation_xyz
x,y,z
-x,-y,-z
loop_
_atom_site_type_symbol
_atom_site_label
_atom_site_fract_x
_atom_site_fract_y
_atom_site_fract_z
Si Si1 0.311664 0.504952 0.933530
Si Si2 0.446848 0.290703 0.239484
Si Si3 0.105194 0.674443 0.183222
Si Si4 0.167615 0.414401 0.403392
Si Si5 0.795350 0.582587 0.386814
Si Si6 0.841494 0.723336 0.010955
Si Si7 0.437171 0.079115 0.913309
Si Si8 0.143671 0.841727 0.825322
O O1 0.705086 0.413266 0.828677
O O2 0.373806 0.589910 0.833754
O O3 0.591753 0.602410 0.983904
O O4 0.000000 0.500000 0.000000
O O5 0.274872 0.327994 0.331130
O O6 0.663666 0.211055 0.250757
O O7 0.192608 0.200574 0.187689
O O8 0.942396 0.666305 0.289476
O O9 0.875758 0.641619 0.103746
O O10 0.281871 0.816076 0.142448
O O11 0.447255 0.537567 0.397115
O O12 0.111894 0.362742 0.514820
O O13 0.900380 0.459875 0.380949
O O14 0.754796 0.840211 0.038756
O O15 0.276895 0.983571 0.842804
O O16 0.882224 0.232662 0.070250
O O17 0.500000 0.000000 0.000000
#
# Coordination Sequence:
#
# PCOD9003009 Si02
#       8
#     2   2   2   2   2   2   2   2
#     4  10  21  37  56  90 128 161 196 248 321 381
#     4  12  24  39  61  91 127 164 195 257 317 393
#     4  10  23  37  65  89 124 164 213 264 308 364
#     4  10  21  41  64  94 132 154 206 253 325 389
#     4  10  21  39  67  96 122 166 198 265 316 374
#     4  10  23  39  58  87 118 169 204 269 289 366
#     4  12  24  41  60  84 125 170 230 255 294 354
#     4  12  26  39  61  85 125 173 210 244 311 363
#
# _framework density 21.729769999999998
#
# number of rings (size 3 to 8) (size 9 to 14) (size 15 to 20)
#    0.750    0.500    3.750    1.875    5.250    0.500 
#    0.000    0.000    0.000    1.500    0.000    0.000 
#    0.000    0.000    0.000    0.000    0.000    0.000 
#
# Total GULP energy -89119.580033 kJ/mol
# GULP energy per Si atom -5569.973752 kJ/mol
# Density = 2.168031 g / cm^3
# Si number density = 21.729770 Si / 1000 Ang^3
#
#
#
# Elastic Constant Matrix: (Units=GPa)
#
#
# Indices 1 2 3 4 5 6 
#
# 1 91.1701 23.2210 20.7059 7.6585 -4.2329 7.7230
# 2 23.2210 107.9132 39.7322 25.3427 -7.2827 12.2099
# 3 20.7059 39.7322 116.9069 -5.8916 -27.4362 11.7707
# 4 7.6585 25.3427 -5.8916 31.8618 -0.6426 -3.9848
# 5 -4.2329 -7.2827 -27.4362 -0.6426 35.7566 7.2663
# 6 7.7230 12.2099 11.7707 -3.9848 7.2663 44.2364
#
#
#
# Elastic Compliance Matrix: (Units=1/GPa)
#
#
# Indices 1 2 3 4 5 6 
#
# 1 0.011994 -0.001229 -0.001622 -0.002398 0.000201 -0.001572
# 2 -0.001229 0.014886 -0.005303 -0.012982 -0.000697 -0.003538
# 3 -0.001622 -0.005303 0.013599 0.006963 0.009870 -0.002866
# 4 -0.002398 -0.012982 0.006963 0.044342 0.002031 0.005810
# 5 0.000201 -0.000697 0.009870 0.002031 0.037164 -0.008391
# 6 -0.001572 -0.003538 -0.002866 0.005810 -0.008391 0.026521
#
#
# Mechanical properties :
#
#
# Convention : Reuss Voigt Hill
#
# Bulk Modulus (GPa) = 41.37223 53.70091 47.53657
# Shear Modulus (GPa) = 28.92341 37.85969 33.39155
#
# Velocity S-wave (km/s) = 3.65231 4.17861 3.92429
# Velocity P-wave (km/s) = 6.07179 6.93165 6.51592
#
# Compressibility (1/GPa) = 0.02417080
#
# Stress axis : x y z
#
# Youngs Moduli (GPa) = 83.37598 67.17923 73.53414
#
# Poissons Ratio (x) = 0.08257 0.11926
# Poissons Ratio (y) = 0.10248 0.38995
# Poissons Ratio (z) = 0.13522 0.35625
#
# Static dielectric constant tensor:
#      x y z
#    x 2.119260 -0.123050 -0.182720 
#    y -0.123050 1.956290 0.221890 
#    z -0.182720 0.221890 2.323110 
# 
# From -- ./inp_files/481654.got.cif
#   From: 2010.05.17/outbox.cif.g08.bks.cpg/sg2_241_cif.got.tgz:481654.got - 2010.06.03 11:33:40.
