data_PCOD9003148
_publ_section_title
;
Structure prediction by ZEFSAII (Michael W. Deem and Ramdas Pophale) SiO2 
 PCOD9003148
Probable space group: P -1
;
_chemical_formula_sum "Si O2"
_cell_formula_units_Z 10
_cell_length_a 5.393003
_cell_length_b 7.428267
_cell_length_c 12.314227
_cell_angle_alpha 125.789793
_cell_angle_beta 86.136757
_cell_angle_gamma 84.916360
_cell_volume 394.227076
_symmetry_space_group_name_H-M "P -1"
_symmetry_group_IT_number 2
_symmetry_cell_setting 'triclinic'
loop_
_space_group_symop_operation_xyz
x,y,z
-x,-y,-z
loop_
_atom_site_type_symbol
_atom_site_label
_atom_site_fract_x
_atom_site_fract_y
_atom_site_fract_z
Si Si1 0.805285 0.413654 0.056296
Si Si2 0.735121 0.751265 0.513750
Si Si3 0.382063 0.841604 0.865094
Si Si4 0.516069 0.144774 0.797733
Si Si5 0.273357 0.570874 0.392226
O O1 0.653408 0.268625 0.930550
O O2 0.848983 0.255823 0.105844
O O3 0.646474 0.647566 0.183122
O O4 0.000000 0.500000 0.000000
O O5 0.471800 0.741989 0.458867
O O6 0.742996 0.554970 0.535716
O O7 0.991907 0.690589 0.417772
O O8 0.710136 0.984078 0.661683
O O9 0.598247 0.629826 0.759378
O O10 0.340948 0.984241 0.806013
O O11 0.500000 0.000000 0.000000
#
# Coordination Sequence:
#
# PCOD9003148 Si02
#       5
#     2   2   2   2   2
#     4  10  21  37  58  86 117 149 202 249 291 355
#     4   9  18  34  60  83 120 155 196 244 300 352
#     4   9  19  40  59  86 116 154 198 242 301 353
#     4   9  20  38  58  84 116 157 193 244 300 352
#     4   9  18  35  56  90 115 153 201 245 290 364
#
# _framework density 25.36609
#
# number of rings (size 3 to 8) (size 9 to 14) (size 15 to 20)
#    0.000    2.800    0.000    0.000    2.800    0.800 
#   21.600    2.000    0.000    0.000    0.000    0.000 
#    0.000    0.000    0.000    0.000    0.000    0.000 
#
# Total GULP energy -55852.119404 kJ/mol
# GULP energy per Si atom -5585.211940 kJ/mol
# Density = 2.530836 g / cm^3
# Si number density = 25.366090 Si / 1000 Ang^3
#
#
#
# Elastic Constant Matrix: (Units=GPa)
#
#
# Indices 1 2 3 4 5 6 
#
# 1 116.0732 49.0817 42.0427 8.2942 -11.6764 22.0526
# 2 49.0817 134.8028 19.0322 6.1122 -6.1715 44.3737
# 3 42.0427 19.0322 113.2502 29.0286 -2.9853 3.8548
# 4 8.2942 6.1122 29.0286 37.2476 3.4580 -6.0606
# 5 -11.6764 -6.1715 -2.9853 3.4580 9.6087 -3.3670
# 6 22.0526 44.3737 3.8548 -6.0606 -3.3670 35.5570
#
#
#
# Elastic Compliance Matrix: (Units=1/GPa)
#
#
# Indices 1 2 3 4 5 6 
#
# 1 0.012975 -0.002318 -0.003591 -0.001483 0.012348 -0.003849
# 2 -0.002318 0.014074 0.000430 -0.005078 0.002289 -0.016821
# 3 -0.003591 0.000430 0.012658 -0.009576 0.002928 -0.001037
# 4 -0.001483 -0.005078 -0.009576 0.039268 -0.017500 0.013331
# 5 0.012348 0.002289 0.002928 -0.017500 0.127133 -0.001777
# 6 -0.003849 -0.016821 -0.001037 0.013331 -0.001777 0.053719
#
#
# Mechanical properties :
#
#
# Convention : Reuss Voigt Hill
#
# Bulk Modulus (GPa) = 34.78327 64.93769 49.86048
# Shear Modulus (GPa) = 17.83375 33.41399 25.62387
#
# Velocity S-wave (km/s) = 2.65439 3.63336 3.18175
# Velocity P-wave (km/s) = 4.81006 6.57704 5.76169
#
# Compressibility (1/GPa) = 0.02874945
#
# Stress axis : x y z
#
# Youngs Moduli (GPa) = 77.06907 71.05517 79.00212
#
# Poissons Ratio (x) = 0.16469 0.28367
# Poissons Ratio (y) = 0.17863 -0.03395
# Poissons Ratio (z) = 0.27673 -0.03054
#
# Static dielectric constant tensor:
#      x y z
#    x 2.039490 0.047050 -0.050340 
#    y 0.047050 2.051780 -0.050210 
#    z -0.050340 -0.050210 1.956030 
# 
# From -- ./inp_files/16261.got.cif
#   From: 2010.05.17/outbox.cif.g08.bks.cpg/sg2_9_cif.got.tgz:16261.got - 2010.06.03 11:33:40.
