data_PCOD9003518
_publ_section_title
;
Structure prediction by ZEFSAII (Michael W. Deem and Ramdas Pophale) SiO2 
 PCOD9003518
Probable space group: P -1
;
_chemical_formula_sum "Si O2"
_cell_formula_units_Z 14
_cell_length_a 27.882285
_cell_length_b 7.945555
_cell_length_c 22.367079
_cell_angle_alpha 140.105263
_cell_angle_beta 10.589994
_cell_angle_gamma 139.279447
_cell_volume 583.787824
_symmetry_space_group_name_H-M "P -1"
_symmetry_group_IT_number 2
_symmetry_cell_setting 'triclinic'
loop_
_space_group_symop_operation_xyz
x,y,z
-x,-y,-z
loop_
_atom_site_type_symbol
_atom_site_label
_atom_site_fract_x
_atom_site_fract_y
_atom_site_fract_z
Si Si1 0.643299 0.415822 0.397060
Si Si2 0.715145 0.709462 0.513064
Si Si3 0.226048 0.216149 0.769761
Si Si4 0.520791 0.720994 0.253690
Si Si5 0.293063 0.109421 0.168028
Si Si6 0.937977 0.915946 0.875421
Si Si7 0.452756 0.608778 0.180306
O O1 0.654459 0.601297 0.491245
O O2 0.353573 0.348942 0.708874
O O3 0.792477 0.570278 0.201991
O O4 0.785487 0.139469 0.159321
O O5 0.732481 0.456046 0.464328
O O6 0.946328 0.922507 0.279466
O O7 0.481285 0.865976 0.870976
O O8 0.455371 0.025555 0.414292
O O9 0.000000 0.000000 0.000000
O O10 0.603685 0.622396 0.061200
O O11 0.731236 0.705879 0.044698
O O12 0.360356 0.319504 0.194527
O O13 0.371494 0.262391 0.052289
O O14 0.000000 0.000000 0.500000
O O15 0.189757 0.780127 0.557062
#
# Coordination Sequence:
#
# PCOD9003518 Si02
#       7
#     2   2   2   2   2   2   2
#     4  10  22  39  62  93 128 164 204 251 307 368
#     4  11  23  39  62  92 125 164 205 252 309 366
#     4  10  21  37  60  92 127 167 207 248 303 366
#     4  11  24  39  62  94 124 162 207 251 308 367
#     4  10  22  42  66  90 121 163 208 256 310 362
#     4  10  22  42  64  91 127 163 203 253 305 364
#     4  10  23  43  65  91 123 161 207 257 306 364
#
# _framework density 23.981317000000001
#
# number of rings (size 3 to 8) (size 9 to 14) (size 15 to 20)
#    0.000    1.714    0.000    3.857    0.000    8.571 
#    0.000   10.000    0.000    0.000    0.000    0.000 
#    0.000    0.000    0.000    0.000    0.000    0.000 
#
# Total GULP energy -78302.041251 kJ/mol
# GULP energy per Si atom -5593.002946 kJ/mol
# Density = 2.392673 g / cm^3
# Si number density = 23.981317 Si / 1000 Ang^3
#
#
#
# Elastic Constant Matrix: (Units=GPa)
#
#
# Indices 1 2 3 4 5 6 
#
# 1 68.2072 20.5770 -3.7807 -1.0411 -3.9147 13.8406
# 2 20.5770 124.8810 32.3968 -1.7317 -2.6637 3.7974
# 3 -3.7807 32.3968 84.8220 -8.4832 -9.3037 4.0745
# 4 -1.0411 -1.7317 -8.4832 51.4874 6.0112 -0.5568
# 5 -3.9147 -2.6637 -9.3037 6.0112 16.0511 -7.1112
# 6 13.8406 3.7974 4.0745 -0.5568 -7.1112 33.7492
#
#
#
# Elastic Compliance Matrix: (Units=1/GPa)
#
#
# Indices 1 2 3 4 5 6 
#
# 1 0.017251 -0.003267 0.002601 0.000347 0.002134 -0.006566
# 2 -0.003267 0.009531 -0.003967 -0.000253 -0.001203 0.000489
# 3 0.002601 -0.003967 0.014417 0.001415 0.007464 -0.000765
# 4 0.000347 -0.000253 0.001415 0.020512 -0.007495 -0.001526
# 5 0.002134 -0.001203 0.007464 -0.007495 0.076075 0.014265
# 6 -0.006566 0.000489 -0.000765 -0.001526 0.014265 0.035341
#
#
# Mechanical properties :
#
#
# Convention : Reuss Voigt Hill
#
# Bulk Modulus (GPa) = 31.31497 41.81070 36.56283
# Shear Modulus (GPa) = 25.90158 35.50536 30.70347
#
# Velocity S-wave (km/s) = 3.29001 3.85196 3.58202
# Velocity P-wave (km/s) = 5.24582 6.10377 5.69099
#
# Compressibility (1/GPa) = 0.03193360
#
# Stress axis : x y z
#
# Youngs Moduli (GPa) = 57.96704 104.92102 69.36119
#
# Poissons Ratio (x) = 0.34281 -0.18041
# Poissons Ratio (y) = 0.18940 0.27513
# Poissons Ratio (z) = -0.15077 0.41618
#
# Static dielectric constant tensor:
#      x y z
#    x 1.880500 -0.010660 -0.009280 
#    y -0.010660 1.896610 0.007640 
#    z -0.009280 0.007640 1.985040 
# 
# From -- ./inp_files/614480.got.cif
#   From: 2010.05.17/outbox.cif.g08.bks.cpg/sg2_308_cif.got.tgz:614480.got - 2010.06.03 11:33:40.
