data_PCOD9003955
_publ_section_title
;
Structure prediction by ZEFSAII (Michael W. Deem and Ramdas Pophale) SiO2 
 PCOD9003955
Probable space group: P -1
;
_chemical_formula_sum "Si O2"
_cell_formula_units_Z 16
_cell_length_a 11.777434
_cell_length_b 8.020601
_cell_length_c 10.821023
_cell_angle_alpha 82.964859
_cell_angle_beta 89.622210
_cell_angle_gamma 36.659137
_cell_volume 598.408911
_symmetry_space_group_name_H-M "P -1"
_symmetry_group_IT_number 2
_symmetry_cell_setting 'triclinic'
loop_
_space_group_symop_operation_xyz
x,y,z
-x,-y,-z
loop_
_atom_site_type_symbol
_atom_site_label
_atom_site_fract_x
_atom_site_fract_y
_atom_site_fract_z
Si Si1 0.923469 0.593841 0.131072
Si Si2 0.469853 0.761580 0.455841
Si Si3 0.019773 0.133292 0.809022
Si Si4 0.333357 0.306486 0.745975
Si Si5 0.465156 0.810192 0.021932
Si Si6 0.234695 0.343765 0.483901
Si Si7 0.871728 0.004862 0.442677
Si Si8 0.739764 0.273355 0.921488
O O1 0.033886 0.605335 0.205506
O O2 0.875013 0.472133 0.204994
O O3 0.000000 0.500000 0.000000
O O4 0.708616 0.925263 0.086926
O O5 0.588964 0.625790 0.339082
O O6 0.636011 0.645381 0.551794
O O7 0.310672 0.103705 0.420664
O O8 0.328960 0.785388 0.504066
O O9 0.151889 0.943740 0.708369
O O10 0.120470 0.969972 0.952733
O O11 0.845363 0.210596 0.805226
O O12 0.485628 0.124034 0.873254
O O13 0.305398 0.216330 0.636665
O O14 0.645394 0.549209 0.959763
O O15 0.409377 0.698640 0.095383
O O16 0.017495 0.668374 0.472175
O O17 0.000000 0.000000 0.500000
#
# Coordination Sequence:
#
# PCOD9003955 Si02
#       8
#     2   2   2   2   2   2   2   2
#     4  11  23  39  60  99 122 159 217 267 315 377
#     4   9  22  44  63  89 129 169 218 257 320 388
#     4  10  23  40  64  86 133 159 211 267 311 380
#     4  10  21  38  65  87 126 161 207 266 313 376
#     4  10  21  37  63  89 121 161 212 252 322 378
#     4   9  22  43  64  92 126 172 217 253 327 381
#     4  12  26  40  65 101 130 171 218 267 324 379
#     4   9  21  43  59  89 121 171 203 250 331 381
#
# _framework density 26.737569000000001
#
# number of rings (size 3 to 8) (size 9 to 14) (size 15 to 20)
#    0.750    1.250    0.000    2.250    3.500    3.500 
#    4.500    0.000    0.000    0.000    0.000    0.000 
#    0.000    0.000    0.000    0.000    0.000    0.000 
#
# Total GULP energy -89171.006736 kJ/mol
# GULP energy per Si atom -5573.187921 kJ/mol
# Density = 2.667671 g / cm^3
# Si number density = 26.737569 Si / 1000 Ang^3
#
#
#
# Elastic Constant Matrix: (Units=GPa)
#
#
# Indices 1 2 3 4 5 6 
#
# 1 154.1053 10.2714 47.9403 31.0488 -43.7720 -20.3334
# 2 10.2714 78.6576 10.7709 10.0462 -19.0937 -3.7638
# 3 47.9403 10.7709 98.6484 14.7281 -21.0353 -1.4564
# 4 31.0488 10.0462 14.7281 42.0489 -11.5027 -8.1521
# 5 -43.7720 -19.0937 -21.0353 -11.5027 38.6153 20.3514
# 6 -20.3334 -3.7638 -1.4564 -8.1521 20.3514 36.3298
#
#
#
# Elastic Compliance Matrix: (Units=1/GPa)
#
#
# Indices 1 2 3 4 5 6 
#
# 1 0.011301 0.002301 -0.002506 -0.005048 0.011735 -0.001243
# 2 0.002301 0.015411 0.000072 -0.003061 0.011630 -0.004314
# 3 -0.002506 0.000072 0.012872 -0.001917 0.006138 -0.004748
# 4 -0.005048 -0.003061 -0.001917 0.029249 -0.001887 0.004401
# 5 0.011735 0.011630 0.006138 -0.001887 0.062046 -0.027162
# 6 -0.001243 -0.004314 -0.004748 0.004401 -0.027162 0.042396
#
#
# Mechanical properties :
#
#
# Convention : Reuss Voigt Hill
#
# Bulk Modulus (GPa) = 25.43284 52.15294 38.79289
# Shear Modulus (GPa) = 26.78876 40.89405 33.84141
#
# Velocity S-wave (km/s) = 3.16874 3.91507 3.56151
# Velocity P-wave (km/s) = 4.78754 6.32336 5.60827
#
# Compressibility (1/GPa) = 0.03931925
#
# Stress axis : x y z
#
# Youngs Moduli (GPa) = 88.48431 64.89065 77.68888
#
# Poissons Ratio (x) = -0.14933 0.19467
# Poissons Ratio (y) = -0.20362 -0.00562
# Poissons Ratio (z) = 0.22172 -0.00469
#
# Static dielectric constant tensor:
#      x y z
#    x 2.301360 0.079210 -0.059530 
#    y 0.079210 2.194250 -0.059100 
#    z -0.059530 -0.059100 2.114780 
# 
# From -- ./inp_files/417370.got.cif
#   From: 2010.05.17/outbox.cif.g08.bks.cpg/sg2_209_cif.got.tgz:417370.got - 2010.06.03 11:33:40.
