data_PCOD9003966
_publ_section_title
;
Structure prediction by ZEFSAII (Michael W. Deem and Ramdas Pophale) SiO2 
 PCOD9003966
Probable space group: P -1
;
_chemical_formula_sum "Si O2"
_cell_formula_units_Z 14
_cell_length_a 11.430334
_cell_length_b 10.623154
_cell_length_c 12.596095
_cell_angle_alpha 131.830453
_cell_angle_beta 145.017129
_cell_angle_gamma 60.049823
_cell_volume 649.405709
_symmetry_space_group_name_H-M "P -1"
_symmetry_group_IT_number 2
_symmetry_cell_setting 'triclinic'
loop_
_space_group_symop_operation_xyz
x,y,z
-x,-y,-z
loop_
_atom_site_type_symbol
_atom_site_label
_atom_site_fract_x
_atom_site_fract_y
_atom_site_fract_z
Si Si1 0.938778 0.785886 0.466106
Si Si2 0.786324 0.508935 0.517869
Si Si3 0.559966 0.628346 0.212926
Si Si4 0.853714 0.835103 0.890603
Si Si5 0.507894 0.225481 0.250946
Si Si6 0.299487 0.904918 0.239905
Si Si7 0.257678 0.065357 0.789153
O O1 0.743218 0.767019 0.385833
O O2 0.862005 0.814949 0.305667
O O3 0.042752 0.612327 0.455399
O O4 0.111294 0.947193 0.694675
O O5 0.649039 0.540594 0.331712
O O6 0.867322 0.688649 0.730063
O O7 0.651068 0.400144 0.444841
O O8 0.367631 0.724055 0.156575
O O9 0.500000 0.500000 0.000000
O O10 0.685915 0.770826 0.816441
O O11 0.762884 0.990126 0.850014
O O12 0.084402 0.883659 0.131773
O O13 0.641333 0.069588 0.286646
O O14 0.427084 0.176176 0.044936
O O15 0.500000 0.000000 0.500000
#
# Coordination Sequence:
#
# PCOD9003966 Si02
#       7
#     2   2   2   2   2   2   2
#     4  10  21  37  63  90 127 168 211 271 330 369
#     4  11  23  41  61  97 134 166 220 273 315 401
#     4  12  24  41  67  94 132 171 218 272 329 376
#     4  11  24  43  68  91 132 176 214 264 335 382
#     4  10  21  39  65  90 128 169 212 268 328 376
#     4  11  25  45  66  96 133 169 223 267 316 399
#     4   9  20  39  61  95 124 160 223 268 312 399
#
# _framework density 21.558171000000002
#
# number of rings (size 3 to 8) (size 9 to 14) (size 15 to 20)
#    0.000    1.429    1.429    3.429    2.000    2.286 
#    0.000    1.429    0.000    0.000    0.000    0.000 
#    0.000    0.000    0.000    0.000    0.000    0.000 
#
# Total GULP energy -78224.352012 kJ/mol
# GULP energy per Si atom -5587.453715 kJ/mol
# Density = 2.150910 g / cm^3
# Si number density = 21.558171 Si / 1000 Ang^3
#
#
#
# Elastic Constant Matrix: (Units=GPa)
#
#
# Indices 1 2 3 4 5 6 
#
# 1 69.8311 14.8560 9.0625 -11.0436 22.7820 -9.5232
# 2 14.8560 133.7338 29.6553 -21.5785 -13.9549 -1.5208
# 3 9.0625 29.6553 82.6585 -14.9683 3.3828 -11.1179
# 4 -11.0436 -21.5785 -14.9683 32.1699 -7.7061 7.6049
# 5 22.7820 -13.9549 3.3828 -7.7061 38.0940 1.2508
# 6 -9.5232 -1.5208 -11.1179 7.6049 1.2508 20.3153
#
#
#
# Elastic Compliance Matrix: (Units=1/GPa)
#
#
# Indices 1 2 3 4 5 6 
#
# 1 0.021425 -0.004316 0.001151 -0.001434 -0.015174 0.011821
# 2 -0.004316 0.010749 -0.003181 0.007824 0.008594 -0.006417
# 3 0.001151 -0.003181 0.014724 0.002639 -0.002875 0.007548
# 4 -0.001434 0.007824 0.002639 0.043910 0.012893 -0.015873
# 5 -0.015174 0.008594 -0.002875 0.012893 0.041845 -0.015446
# 6 0.011821 -0.006417 0.007548 -0.015873 -0.015446 0.065309
#
#
# Mechanical properties :
#
#
# Convention : Reuss Voigt Hill
#
# Bulk Modulus (GPa) = 29.23524 43.70791 36.47157
# Shear Modulus (GPa) = 22.51697 33.62581 28.07139
#
# Velocity S-wave (km/s) = 3.23534 3.95368 3.61241
# Velocity P-wave (km/s) = 5.24853 6.41565 5.86121
#
# Compressibility (1/GPa) = 0.03420530
#
# Stress axis : x y z
#
# Youngs Moduli (GPa) = 46.67467 93.03521 67.91663
#
# Poissons Ratio (x) = 0.40149 -0.07815
# Poissons Ratio (y) = 0.20142 0.21606
# Poissons Ratio (z) = -0.05371 0.29596
#
# Static dielectric constant tensor:
#      x y z
#    x 1.771000 -0.010860 0.041160 
#    y -0.010860 1.774800 -0.006200 
#    z 0.041160 -0.006200 1.841130 
# 
# From -- ./inp_files/519279.got.cif
#   From: 2010.05.17/outbox.cif.g08.bks.cpg/sg2_260_cif.got.tgz:519279.got - 2010.06.03 11:33:40.
