data_PCOD9003712
_publ_section_title
;
Structure prediction by ZEFSAII (Michael W. Deem and Ramdas Pophale) SiO2 
 PCOD9003712
Probable space group: P -1
;
_chemical_formula_sum "Si O2"
_cell_formula_units_Z 14
_cell_length_a 5.149528
_cell_length_b 19.011295
_cell_length_c 9.482046
_cell_angle_alpha 48.887186
_cell_angle_beta 105.021654
_cell_angle_gamma 112.607230
_cell_volume 645.617851
_symmetry_space_group_name_H-M "P -1"
_symmetry_group_IT_number 2
_symmetry_cell_setting 'triclinic'
loop_
_space_group_symop_operation_xyz
x,y,z
-x,-y,-z
loop_
_atom_site_type_symbol
_atom_site_label
_atom_site_fract_x
_atom_site_fract_y
_atom_site_fract_z
Si Si1 0.535779 0.684701 0.452623
Si Si2 0.183784 0.469709 0.690556
Si Si3 0.586696 0.862040 0.781992
Si Si4 0.586158 0.956034 0.389215
Si Si5 0.816685 0.194773 0.631033
Si Si6 0.389448 0.656000 0.144300
Si Si7 0.083069 0.944617 0.954018
O O1 0.416137 0.570958 0.627691
O O2 0.398990 0.743198 0.464014
O O3 0.424110 0.690332 0.268598
O O4 0.869481 0.733782 0.432503
O O5 0.366386 0.397163 0.770788
O O6 0.000000 0.500000 0.500000
O O7 0.926496 0.415457 0.827538
O O8 0.710608 0.898653 0.597631
O O9 0.821877 0.885273 0.903838
O O10 0.412057 0.938235 0.691848
O O11 0.431744 0.748769 0.926629
O O12 0.277129 0.883194 0.406061
O O13 0.728865 0.978308 0.228650
O O14 0.788846 0.133287 0.853203
O O15 0.000000 0.000000 0.000000
#
# Coordination Sequence:
#
# PCOD9003712 Si02
#       7
#     2   2   2   2   2   2   2
#     4  11  21  38  64  95 125 167 207 282 329 376
#     4  10  21  37  61  95 132 155 213 277 334 383
#     4  11  25  42  65  91 138 179 217 263 330 393
#     4  11  26  43  60  96 135 182 217 265 323 399
#     4  12  23  38  66  93 132 164 223 263 328 382
#     4  11  21  38  62  97 125 170 212 268 330 390
#     4  12  23  41  64  96 129 175 220 277 315 381
#
# _framework density 21.684656
#
# number of rings (size 3 to 8) (size 9 to 14) (size 15 to 20)
#    0.000    0.857    2.857    6.857    2.000    0.000 
#    0.000    0.000    0.000    5.143    0.000    0.000 
#    0.000    0.000    0.000    0.000    0.000    0.000 
#
# Total GULP energy -78195.047585 kJ/mol
# GULP energy per Si atom -5585.360542 kJ/mol
# Density = 2.163530 g / cm^3
# Si number density = 21.684656 Si / 1000 Ang^3
#
#
#
# Elastic Constant Matrix: (Units=GPa)
#
#
# Indices 1 2 3 4 5 6 
#
# 1 81.2512 28.5004 39.8032 -9.5489 -30.9349 -33.5898
# 2 28.5004 72.7203 59.6075 -21.9196 -16.6988 -13.5753
# 3 39.8032 59.6075 120.3004 -31.2614 -11.3892 4.0065
# 4 -9.5489 -21.9196 -31.2614 35.7040 9.1618 12.0877
# 5 -30.9349 -16.6988 -11.3892 9.1618 20.3600 -31.4108
# 6 -33.5898 -13.5753 4.0065 12.0877 -31.4108 -13.6782
#
#
#
# Elastic Compliance Matrix: (Units=1/GPa)
#
#
# Indices 1 2 3 4 5 6 
#
# 1 0.009799 -0.005337 0.000164 0.003123 -0.003395 -0.008163
# 2 -0.005337 0.023870 -0.008127 0.007536 -0.001364 -0.003173
# 3 0.000164 -0.008127 0.013827 0.004537 0.005180 0.003826
# 4 0.003123 0.007536 0.004537 0.034509 0.005209 0.004715
# 5 -0.003395 -0.001364 0.005180 0.005209 0.014922 -0.018454
# 6 -0.008163 -0.003173 0.003826 0.004715 -0.018454 -0.002248
#
#
# Mechanical properties :
#
#
# Convention : Reuss Voigt Hill
#
# Bulk Modulus (GPa) = 47.85455 58.89935 53.37695
# Shear Modulus (GPa) = 38.98829 18.23454 28.61142
#
# Velocity S-wave (km/s) = 4.24484 2.90297 3.63634
# Velocity P-wave (km/s) = 6.79273 6.20137 6.50378
#
# Compressibility (1/GPa) = 0.02089665
#
# Stress axis : x y z
#
# Youngs Moduli (GPa) = 102.05043 41.89282 72.32352
#
# Poissons Ratio (x) = 0.22359 -0.01188
# Poissons Ratio (y) = 0.54467 0.58776
# Poissons Ratio (z) = -0.01676 0.34045
#
# Static dielectric constant tensor:
#      x y z
#    x 1.861090 -0.016660 0.002660 
#    y -0.016660 1.856740 -0.054920 
#    z 0.002660 -0.054920 1.849040 
# 
# From -- ./inp_files/46789.got.cif
#   From: 2010.05.17/outbox.cif.g08.bks.cpg/sg2_24_cif.got.tgz:46789.got - 2010.06.03 11:33:40.
