data_PCOD9003507
_publ_section_title
;
Structure prediction by ZEFSAII (Michael W. Deem and Ramdas Pophale) SiO2 
 PCOD9003507
Probable space group: P -1
;
_chemical_formula_sum "Si O2"
_cell_formula_units_Z 14
_cell_length_a 15.655476
_cell_length_b 17.798563
_cell_length_c 9.381019
_cell_angle_alpha 137.630188
_cell_angle_beta 135.734582
_cell_angle_gamma 21.320862
_cell_volume 636.341627
_symmetry_space_group_name_H-M "P -1"
_symmetry_group_IT_number 2
_symmetry_cell_setting 'triclinic'
loop_
_space_group_symop_operation_xyz
x,y,z
-x,-y,-z
loop_
_atom_site_type_symbol
_atom_site_label
_atom_site_fract_x
_atom_site_fract_y
_atom_site_fract_z
Si Si1 0.346510 0.477292 0.201789
Si Si2 0.060525 0.474927 0.872974
Si Si3 0.681797 0.320897 0.784041
Si Si4 0.738371 0.903534 0.566513
Si Si5 0.234325 0.264491 0.379070
Si Si6 0.819406 0.283716 0.210876
Si Si7 0.854612 0.156721 0.369562
O O1 0.337414 0.545812 0.133468
O O2 0.620335 0.269008 0.284318
O O3 0.196754 0.679303 0.404183
O O4 0.235233 0.443432 0.023103
O O5 0.185138 0.268372 0.666838
O O6 0.832328 0.683092 0.793230
O O7 0.000000 0.500000 0.000000
O O8 0.423825 0.465095 0.677618
O O9 0.752551 0.287879 0.984081
O O10 0.891477 0.090411 0.636405
O O11 0.732237 0.876590 0.689819
O O12 0.945535 0.827992 0.678183
O O13 0.477186 0.139575 0.531097
O O14 0.000000 0.500000 0.500000
O O15 0.856417 0.165175 0.211999
#
# Coordination Sequence:
#
# PCOD9003507 Si02
#       7
#     2   2   2   2   2   2   2
#     4  10  22  39  58  85 118 155 201 240 291 364
#     4  11  23  39  60  90 124 159 202 249 296 356
#     4  10  21  38  62  88 116 153 195 247 305 350
#     4  10  21  40  62  88 125 162 197 244 300 359
#     4   9  21  39  59  86 119 162 203 238 294 357
#     4  10  21  37  60  92 118 146 197 246 296 361
#     4  10  21  38  60  86 117 154 192 244 303 351
#
# _framework density 22.000758999999999
#
# number of rings (size 3 to 8) (size 9 to 14) (size 15 to 20)
#    0.000    2.000    0.000    2.571    0.000    7.429 
#    0.000    2.857    0.000    0.000    0.000    0.000 
#    0.000    0.000    0.000    0.000    0.000    0.000 
#
# Total GULP energy -78174.203058 kJ/mol
# GULP energy per Si atom -5583.871647 kJ/mol
# Density = 2.195068 g / cm^3
# Si number density = 22.000759 Si / 1000 Ang^3
#
#
#
# Elastic Constant Matrix: (Units=GPa)
#
#
# Indices 1 2 3 4 5 6 
#
# 1 89.5089 43.8229 27.6157 -20.8592 -13.5705 -11.6916
# 2 43.8229 187.3577 34.1593 -25.7756 11.5266 -26.1914
# 3 27.6157 34.1593 52.9414 -17.3626 -8.8343 1.4147
# 4 -20.8592 -25.7756 -17.3626 32.1976 -4.4153 -4.2018
# 5 -13.5705 11.5266 -8.8343 -4.4153 43.6644 -15.5063
# 6 -11.6916 -26.1914 1.4147 -4.2018 -15.5063 32.6252
#
#
#
# Elastic Compliance Matrix: (Units=1/GPa)
#
#
# Indices 1 2 3 4 5 6 
#
# 1 0.019374 -0.000847 -0.003595 0.013334 0.011736 0.013714
# 2 -0.000847 0.007688 -0.003160 0.004741 -0.000124 0.006557
# 3 -0.003595 -0.003160 0.027305 0.010592 0.006037 -0.000776
# 4 0.013334 0.004741 0.010592 0.055023 0.019251 0.024361
# 5 0.011736 -0.000124 0.006037 0.019251 0.038493 0.024619
# 6 0.013714 0.006557 -0.000776 0.024361 0.024619 0.055702
#
#
# Mechanical properties :
#
#
# Convention : Reuss Voigt Hill
#
# Bulk Modulus (GPa) = 25.53362 60.11153 42.82258
# Shear Modulus (GPa) = 21.56646 36.64477 29.10561
#
# Velocity S-wave (km/s) = 3.13431 4.08562 3.64117
# Velocity P-wave (km/s) = 4.97288 7.04544 6.09786
#
# Compressibility (1/GPa) = 0.03916404
#
# Stress axis : x y z
#
# Youngs Moduli (GPa) = 51.61669 130.07221 36.62352
#
# Poissons Ratio (x) = 0.11011 0.13165
# Poissons Ratio (y) = 0.04369 0.11573
# Poissons Ratio (z) = 0.18554 0.41104
#
# Static dielectric constant tensor:
#      x y z
#    x 1.813940 0.009410 -0.049500 
#    y 0.009410 1.869310 0.011310 
#    z -0.049500 0.011310 1.824710 
# 
# From -- ./inp_files/318109.got.cif
#   From: 2010.05.17/outbox.cif.g08.bks.cpg/sg2_160_cif.got.tgz:318109.got - 2010.06.03 11:33:40.
