data_PCOD9003781
_publ_section_title
;
Structure prediction by ZEFSAII (Michael W. Deem and Ramdas Pophale) SiO2 
 PCOD9003781
Probable space group: P -1
;
_chemical_formula_sum "Si O2"
_cell_formula_units_Z 14
_cell_length_a 8.734969
_cell_length_b 21.183764
_cell_length_c 5.345000
_cell_angle_alpha 104.941513
_cell_angle_beta 118.119545
_cell_angle_gamma 45.395763
_cell_volume 616.826951
_symmetry_space_group_name_H-M "P -1"
_symmetry_group_IT_number 2
_symmetry_cell_setting 'triclinic'
loop_
_space_group_symop_operation_xyz
x,y,z
-x,-y,-z
loop_
_atom_site_type_symbol
_atom_site_label
_atom_site_fract_x
_atom_site_fract_y
_atom_site_fract_z
Si Si1 0.877739 0.233524 0.476825
Si Si2 0.962686 0.427557 0.117184
Si Si3 0.311972 0.933125 0.921511
Si Si4 0.829611 0.967977 0.587569
Si Si5 0.317067 0.391572 0.754828
Si Si6 0.564919 0.737416 0.938336
Si Si7 0.781535 0.333607 0.984886
O O1 0.638731 0.250515 0.352939
O O2 0.838593 0.290217 0.261647
O O3 0.081198 0.128907 0.464989
O O4 0.920863 0.261428 0.794752
O O5 0.788728 0.533026 0.033121
O O6 0.824577 0.399039 0.066351
O O7 0.112854 0.415954 0.452649
O O8 0.166148 0.350365 0.008940
O O9 0.514477 0.826358 0.980874
O O10 0.068792 0.951939 0.757806
O O11 0.312454 0.973105 0.706532
O O12 0.303872 0.981004 0.206744
O O13 0.462150 0.289854 0.842204
O O14 0.506698 0.389610 0.770127
#
# Coordination Sequence:
#
# PCOD9003781 Si02
#       7
#     2   2   2   2   2   2   2
#     4  10  21  39  63  90 129 162 207 252 309 364
#     4  11  23  40  64  90 125 164 207 258 310 362
#     4   9  18  29  57  88 119 154 205 245 302 360
#     4   9  17  32  54  89 119 157 199 251 296 364
#     4  10  23  42  61  92 124 164 208 256 307 369
#     4  10  21  37  62  89 127 162 206 259 306 367
#     4  11  23  41  64  93 125 167 204 253 305 371
#
# _framework density 22.696802999999999
#
# number of rings (size 3 to 8) (size 9 to 14) (size 15 to 20)
#    0.000    2.000    1.429    1.714    4.000    3.429 
#    0.000    2.143    0.000    5.143    0.000    0.000 
#    0.000    0.000    0.000    0.000    0.000    0.000 
#
# Total GULP energy -78114.006661 kJ/mol
# GULP energy per Si atom -5579.571904 kJ/mol
# Density = 2.264514 g / cm^3
# Si number density = 22.696803 Si / 1000 Ang^3
#
#
#
# Elastic Constant Matrix: (Units=GPa)
#
#
# Indices 1 2 3 4 5 6 
#
# 1 104.7646 35.5048 27.9348 -4.2951 3.7868 10.2746
# 2 35.5048 124.6245 32.7929 7.2829 -7.7898 11.1251
# 3 27.9348 32.7929 73.1435 19.8217 -14.0251 1.2597
# 4 -4.2951 7.2829 19.8217 32.3572 -1.3197 -6.8146
# 5 3.7868 -7.7898 -14.0251 -1.3197 34.4824 5.4122
# 6 10.2746 11.1251 1.2597 -6.8146 5.4122 22.4871
#
#
#
# Elastic Compliance Matrix: (Units=1/GPa)
#
#
# Indices 1 2 3 4 5 6 
#
# 1 0.012417 -0.002412 -0.005777 0.005226 -0.003798 -0.001659
# 2 -0.002412 0.010069 -0.002562 -0.001950 0.002184 -0.004852
# 3 -0.005777 -0.002562 0.022890 -0.014691 0.009447 -0.004101
# 4 0.005226 -0.001950 -0.014691 0.043780 -0.007589 0.014494
# 5 -0.003798 0.002184 0.009447 -0.007589 0.035131 -0.010630
# 6 -0.001659 -0.004852 -0.004101 0.014494 -0.010630 0.054809
#
#
# Mechanical properties :
#
#
# Convention : Reuss Voigt Hill
#
# Bulk Modulus (GPa) = 41.88661 54.99975 48.44318
# Shear Modulus (GPa) = 23.97429 31.61868 27.79649
#
# Velocity S-wave (km/s) = 3.25358 3.73646 3.50335
# Velocity P-wave (km/s) = 5.71045 6.54980 6.14447
#
# Compressibility (1/GPa) = 0.02387398
#
# Stress axis : x y z
#
# Youngs Moduli (GPa) = 80.53318 99.31254 43.68734
#
# Poissons Ratio (x) = 0.23957 0.25237
# Poissons Ratio (y) = 0.19427 0.11194
# Poissons Ratio (z) = 0.46521 0.25447
#
# Static dielectric constant tensor:
#      x y z
#    x 1.901500 -0.083040 -0.009560 
#    y -0.083040 1.882850 -0.003690 
#    z -0.009560 -0.003690 1.846260 
# 
# From -- ./inp_files/36149.got.cif
#   From: 2010.05.17/outbox.cif.g08.bks.cpg/sg2_19_cif.got.tgz:36149.got - 2010.06.03 11:33:40.
