data_PCOD9003277
_publ_section_title
;
Structure prediction by ZEFSAII (Michael W. Deem and Ramdas Pophale) SiO2 
 PCOD9003277
Probable space group: P -1
;
_chemical_formula_sum "Si O2"
_cell_formula_units_Z 12
_cell_length_a 12.371978
_cell_length_b 13.109141
_cell_length_c 9.207380
_cell_angle_alpha 42.932207
_cell_angle_beta 60.822430
_cell_angle_gamma 37.211171
_cell_volume 598.330776
_symmetry_space_group_name_H-M "P -1"
_symmetry_group_IT_number 2
_symmetry_cell_setting 'triclinic'
loop_
_space_group_symop_operation_xyz
x,y,z
-x,-y,-z
loop_
_atom_site_type_symbol
_atom_site_label
_atom_site_fract_x
_atom_site_fract_y
_atom_site_fract_z
Si Si1 0.811017 0.623878 0.574297
Si Si2 0.870072 0.712651 0.757769
Si Si3 0.522626 0.899467 0.241778
Si Si4 0.301302 0.628655 0.064920
Si Si5 0.527564 0.557098 0.573967
Si Si6 0.133497 0.945978 0.589262
O O1 0.831483 0.669152 0.675337
O O2 0.658528 0.832192 0.350046
O O3 0.748694 0.504422 0.759350
O O4 0.000000 0.500000 0.500000
O O5 0.677081 0.911508 0.755139
O O6 0.934718 0.824928 0.574161
O O7 0.000000 0.500000 0.000000
O O8 0.588690 0.673553 0.392862
O O9 0.500000 0.000000 0.000000
O O10 0.329325 0.648064 0.195011
O O11 0.500000 0.500000 0.000000
O O12 0.153779 0.841331 0.837561
O O13 0.500000 0.500000 0.500000
O O14 0.334015 0.749653 0.585724
O O15 0.000000 0.000000 0.500000
#
# Coordination Sequence:
#
# PCOD9003277 Si02
#       6
#     2   2   2   2   2   2
#     4  11  23  40  63  93 126 164 208 260 317 375
#     4  11  23  40  61  88 126 171 211 257 310 369
#     4  10  22  38  59  89 122 160 207 252 306 372
#     4   9  20  40  61  85 119 160 203 251 307 370
#     4   9  20  37  58  84 115 151 195 247 303 361
#     4  10  21  37  59  87 117 156 204 249 303 367
#
# _framework density 20.055796999999998
#
# number of rings (size 3 to 8) (size 9 to 14) (size 15 to 20)
#    0.000    2.000    0.000    3.500    0.000    9.333 
#    0.000    1.667    0.000    0.000    0.000    0.000 
#    0.000    0.000    0.000    0.000    0.000    0.000 
#
# Total GULP energy -66836.155296 kJ/mol
# GULP energy per Si atom -5569.679608 kJ/mol
# Density = 2.001015 g / cm^3
# Si number density = 20.055797 Si / 1000 Ang^3
#
#
#
# Elastic Constant Matrix: (Units=GPa)
#
#
# Indices 1 2 3 4 5 6 
#
# 1 153.6754 29.5531 92.7816 3.0055 31.1851 32.3803
# 2 29.5531 54.4612 36.3169 7.0905 5.2993 19.6215
# 3 92.7816 36.3169 189.3079 7.7823 42.3268 19.1484
# 4 3.0055 7.0905 7.7823 28.6427 -1.6907 9.9429
# 5 31.1851 5.2993 42.3268 -1.6907 50.6188 10.5222
# 6 32.3803 19.6215 19.1484 9.9429 10.5222 48.4775
#
#
#
# Elastic Compliance Matrix: (Units=1/GPa)
#
#
# Indices 1 2 3 4 5 6 
#
# 1 0.010628 -0.001314 -0.004118 0.001929 -0.001878 -0.004928
# 2 -0.001314 0.024386 -0.003844 -0.001998 0.003008 -0.007717
# 3 -0.004118 -0.003844 0.009053 -0.002181 -0.005183 0.002302
# 4 0.001929 -0.001998 -0.002181 0.038964 0.003904 -0.008457
# 5 -0.001878 0.003008 -0.005183 0.003904 0.025966 -0.004353
# 6 -0.004928 -0.007717 0.002302 -0.008457 -0.004353 0.028814
#
#
# Mechanical properties :
#
#
# Convention : Reuss Voigt Hill
#
# Bulk Modulus (GPa) = 39.19143 79.41642 59.30393
# Shear Modulus (GPa) = 30.32726 41.46734 35.89730
#
# Velocity S-wave (km/s) = 3.89285 4.55202 4.23528
# Velocity P-wave (km/s) = 6.30788 8.20436 7.31782
#
# Compressibility (1/GPa) = 0.02551578
#
# Stress axis : x y z
#
# Youngs Moduli (GPa) = 94.09344 41.00707 110.45494
#
# Poissons Ratio (x) = 0.05389 0.45480
# Poissons Ratio (y) = 0.12365 0.42460
# Poissons Ratio (z) = 0.38743 0.15764
#
# Static dielectric constant tensor:
#      x y z
#    x 1.769720 -0.063610 -0.033300 
#    y -0.063610 1.717190 0.001570 
#    z -0.033300 0.001570 1.720760 
# 
# From -- ./inp_files/144756.got.cif
#   From: 2010.05.17/outbox.cif.g08.bks.cpg/sg2_73_cif.got.tgz:144756.got - 2010.06.03 11:33:40.
