data_PCOD9003118
_publ_section_title
;
Structure prediction by ZEFSAII (Michael W. Deem and Ramdas Pophale) SiO2 
 PCOD9003118
Probable space group: P -1
;
_chemical_formula_sum "Si O2"
_cell_formula_units_Z 12
_cell_length_a 17.672455
_cell_length_b 16.640254
_cell_length_c 7.243987
_cell_angle_alpha 64.079122
_cell_angle_beta 58.457165
_cell_angle_gamma 15.837797
_cell_volume 475.023285
_symmetry_space_group_name_H-M "P -1"
_symmetry_group_IT_number 2
_symmetry_cell_setting 'triclinic'
loop_
_space_group_symop_operation_xyz
x,y,z
-x,-y,-z
loop_
_atom_site_type_symbol
_atom_site_label
_atom_site_fract_x
_atom_site_fract_y
_atom_site_fract_z
Si Si1 0.362199 0.751371 0.281956
Si Si2 0.481319 0.296301 0.221862
Si Si3 0.842324 0.859689 0.531014
Si Si4 0.132794 0.504100 0.829138
Si Si5 0.340308 0.574886 0.408639
Si Si6 0.148787 0.338062 0.668464
O O1 0.483038 0.537043 0.275791
O O2 0.513735 0.624266 0.413374
O O3 0.410985 0.778084 0.039747
O O4 0.010282 0.078305 0.444916
O O5 0.371964 0.494574 0.256579
O O6 0.194238 0.506015 0.360448
O O7 0.725582 0.026105 0.330167
O O8 0.975622 0.740723 0.692426
O O9 0.502308 0.146724 0.725087
O O10 0.058424 0.500970 0.769207
O O11 0.971251 0.633715 0.096766
O O12 0.000000 0.500000 0.500000
O O13 0.500000 0.000000 0.500000
#
# Coordination Sequence:
#
# PCOD9003118 Si02
#       6
#     2   2   2   2   2   2
#     4  10  21  37  58  84 111 145 195 248 291 330
#     4  11  21  39  59  81 115 156 194 228 283 349
#     4  10  22  39  59  82 120 160 182 224 290 338
#     4  10  22  43  59  86 126 144 182 246 272 324
#     4  10  21  37  58  84 111 145 195 248 291 330
#     4  11  22  39  68  92 110 149 194 229 282 332
#
# _framework density 25.26192
#
# number of rings (size 3 to 8) (size 9 to 14) (size 15 to 20)
#    0.000    1.667    0.000    4.500    0.000    2.667 
#    0.000   40.000    0.000    0.000    0.000    0.000 
#    0.000    0.000    0.000    0.000    0.000    0.000 
#
# Total GULP energy -66822.438764 kJ/mol
# GULP energy per Si atom -5568.536564 kJ/mol
# Density = 2.520442 g / cm^3
# Si number density = 25.261920 Si / 1000 Ang^3
#
#
#
# Elastic Constant Matrix: (Units=GPa)
#
#
# Indices 1 2 3 4 5 6 
#
# 1 76.2727 0.4452 17.5190 -3.2952 21.9433 1.9185
# 2 0.4452 174.2316 74.6876 -29.8388 0.3641 -27.8200
# 3 17.5190 74.6876 268.7938 0.6819 -33.0803 -20.9270
# 4 -3.2952 -29.8388 0.6819 40.0484 -2.9138 1.7684
# 5 21.9433 0.3641 -33.0803 -2.9138 49.7004 10.4839
# 6 1.9185 -27.8200 -20.9270 1.7684 10.4839 33.4140
#
#
#
# Elastic Compliance Matrix: (Units=1/GPa)
#
#
# Indices 1 2 3 4 5 6 
#
# 1 0.016352 0.001638 -0.002525 0.001873 -0.009143 0.001613
# 2 0.001638 0.008949 -0.002529 0.006304 -0.003480 0.006531
# 3 -0.002525 -0.002529 0.005137 -0.001854 0.004453 -0.000043
# 4 0.001873 0.006304 -0.001854 0.029665 -0.000938 0.002705
# 5 -0.009143 -0.003480 0.004453 -0.000938 0.028907 -0.008604
# 6 0.001613 0.006531 -0.000043 0.002705 -0.008604 0.037803
#
#
# Mechanical properties :
#
#
# Convention : Reuss Voigt Hill
#
# Bulk Modulus (GPa) = 42.36310 78.28908 60.32609
# Shear Modulus (GPa) = 35.33223 53.07564 44.20393
#
# Velocity S-wave (km/s) = 3.74389 4.58865 4.18763
# Velocity P-wave (km/s) = 5.95776 7.68977 6.87850
#
# Compressibility (1/GPa) = 0.02360545
#
# Stress axis : x y z
#
# Youngs Moduli (GPa) = 61.15447 111.74076 194.66160
#
# Poissons Ratio (x) = -0.18304 0.49158
# Poissons Ratio (y) = -0.10018 0.49235
# Poissons Ratio (z) = 0.15443 0.28262
#
# Static dielectric constant tensor:
#      x y z
#    x 2.357510 0.116750 -0.155190 
#    y 0.116750 1.916770 -0.024040 
#    z -0.155190 -0.024040 1.979460 
# 
# From -- ./inp_files/125215.got.cif
#   From: 2010.05.17/outbox.cif.g08.bks.cpg/sg2_63_cif.got.tgz:125215.got - 2010.06.03 11:33:40.
