data_PCOD9003935
_publ_section_title
;
Structure prediction by ZEFSAII (Michael W. Deem and Ramdas Pophale) SiO2 
 PCOD9003935
Probable space group: P -1
;
_chemical_formula_sum "Si O2"
_cell_formula_units_Z 14
_cell_length_a 20.042934
_cell_length_b 12.566199
_cell_length_c 14.652709
_cell_angle_alpha 19.623107
_cell_angle_beta 141.948510
_cell_angle_gamma 143.613338
_cell_volume 727.310312
_symmetry_space_group_name_H-M "P -1"
_symmetry_group_IT_number 2
_symmetry_cell_setting 'triclinic'
loop_
_space_group_symop_operation_xyz
x,y,z
-x,-y,-z
loop_
_atom_site_type_symbol
_atom_site_label
_atom_site_fract_x
_atom_site_fract_y
_atom_site_fract_z
Si Si1 0.082178 0.884040 0.425000
Si Si2 0.118206 0.209553 0.007961
Si Si3 0.825972 0.723519 0.282561
Si Si4 0.755904 0.341451 0.700525
Si Si5 0.076701 0.261860 0.299071
Si Si6 0.539654 0.892671 0.751383
Si Si7 0.319110 0.899044 0.449170
O O1 0.948852 0.680483 0.446080
O O2 0.102711 0.130000 0.163137
O O3 0.101396 0.078395 0.383960
O O4 0.142788 0.602563 0.702612
O O5 0.226192 0.089972 0.194853
O O6 0.000000 0.000000 0.000000
O O7 0.775581 0.599976 0.428472
O O8 0.749406 0.490605 0.311852
O O9 0.834492 0.100906 0.966497
O O10 0.805672 0.540216 0.684580
O O11 0.629962 0.070738 0.782930
O O12 0.000000 0.000000 0.500000
O O13 0.000000 0.500000 0.000000
O O14 0.422898 0.984737 0.562408
O O15 0.613174 0.045011 0.618505
O O16 0.500000 0.500000 0.000000
#
# Coordination Sequence:
#
# PCOD9003935 Si02
#       7
#     2   2   2   2   2   2   2
#     4  12  24  38  57  91 124 162 201 237 302 375
#     4  12  26  38  60  87 127 167 195 239 308 371
#     4  11  20  34  60  86 124 151 198 236 300 366
#     4  11  21  36  59  91 118 155 192 259 301 347
#     4  12  22  38  62  88 122 162 199 253 303 351
#     4  10  21  37  63  86 118 152 207 255 299 350
#     4  10  23  37  56  89 121 157 197 249 302 359
#
# _framework density 19.249006000000001
#
# number of rings (size 3 to 8) (size 9 to 14) (size 15 to 20)
#    0.000    0.857    5.714    2.143    4.000    0.000 
#    0.000    0.000    0.000    1.714    0.000    0.000 
#    0.000    0.000    0.000    0.000    0.000    0.000 
#
# Total GULP energy -78100.802994 kJ/mol
# GULP energy per Si atom -5578.628785 kJ/mol
# Density = 1.920519 g / cm^3
# Si number density = 19.249006 Si / 1000 Ang^3
#
#
#
# Elastic Constant Matrix: (Units=GPa)
#
#
# Indices 1 2 3 4 5 6 
#
# 1 51.6359 35.6418 11.3184 6.6226 7.1849 -9.6270
# 2 35.6418 146.4242 21.3415 9.5918 12.4148 1.5128
# 3 11.3184 21.3415 79.6900 8.1504 3.3188 -5.7514
# 4 6.6226 9.5918 8.1504 28.0231 6.0432 3.2706
# 5 7.1849 12.4148 3.3188 6.0432 36.0343 8.1310
# 6 -9.6270 1.5128 -5.7514 3.2706 8.1310 27.5866
#
#
#
# Elastic Compliance Matrix: (Units=1/GPa)
#
#
# Indices 1 2 3 4 5 6 
#
# 1 0.027039 -0.005862 -0.000763 -0.004402 -0.005192 0.011651
# 2 -0.005862 0.008634 -0.001554 -0.000613 -0.001001 -0.002475
# 3 -0.000763 -0.001554 0.013700 -0.003500 -0.000733 0.003306
# 4 -0.004402 -0.000613 -0.003500 0.039468 -0.003908 -0.005759
# 5 -0.005192 -0.001001 -0.000733 -0.003908 0.032331 -0.010976
# 6 0.011651 -0.002475 0.003306 -0.005759 -0.010976 0.045058
#
#
# Mechanical properties :
#
#
# Convention : Reuss Voigt Hill
#
# Bulk Modulus (GPa) = 30.28966 46.03927 38.16446
# Shear Modulus (GPa) = 25.82729 32.29203 29.05966
#
# Velocity S-wave (km/s) = 3.66696 4.10029 3.88966
# Velocity P-wave (km/s) = 5.80505 6.81074 6.32791
#
# Compressibility (1/GPa) = 0.03301456
#
# Stress axis : x y z
#
# Youngs Moduli (GPa) = 36.98323 115.82751 72.99119
#
# Poissons Ratio (x) = 0.67902 0.05570
# Poissons Ratio (y) = 0.21681 0.11341
# Poissons Ratio (z) = 0.02822 0.17997
#
# Static dielectric constant tensor:
#      x y z
#    x 1.686670 -0.005850 -0.021910 
#    y -0.005850 1.755400 0.025000 
#    z -0.021910 0.025000 1.713520 
# 
# From -- ./inp_files/74493.got.cif
#   From: 2010.05.17/outbox.cif.g08.bks.cpg/sg2_38_cif.got.tgz:74493.got - 2010.06.03 11:33:40.
