data_PCOD9003075
_publ_section_title
;
Structure prediction by ZEFSAII (Michael W. Deem and Ramdas Pophale) SiO2 
 PCOD9003075
Probable space group: P -1
;
_chemical_formula_sum "Si O2"
_cell_formula_units_Z 14
_cell_length_a 16.079916
_cell_length_b 8.263790
_cell_length_c 6.536071
_cell_angle_alpha 122.799234
_cell_angle_beta 80.154263
_cell_angle_gamma 124.491030
_cell_volume 590.057643
_symmetry_space_group_name_H-M "P -1"
_symmetry_group_IT_number 2
_symmetry_cell_setting 'triclinic'
loop_
_space_group_symop_operation_xyz
x,y,z
-x,-y,-z
loop_
_atom_site_type_symbol
_atom_site_label
_atom_site_fract_x
_atom_site_fract_y
_atom_site_fract_z
Si Si1 0.389512 0.923415 0.414217
Si Si2 0.604857 0.432899 0.083634
Si Si3 0.075302 0.357474 0.810676
Si Si4 0.637925 0.851919 0.080112
Si Si5 0.124384 0.006804 0.620449
Si Si6 0.682984 0.817008 0.596558
Si Si7 0.937566 0.317469 0.216976
O O1 0.351912 0.703570 0.132713
O O2 0.500000 0.000000 0.500000
O O3 0.395540 0.124801 0.415697
O O4 0.329474 0.922508 0.640348
O O5 0.636265 0.656928 0.084418
O O6 0.481041 0.262750 0.011393
O O7 0.641075 0.550679 0.372418
O O8 0.122576 0.600107 0.835154
O O9 0.984240 0.174687 0.568318
O O10 0.142094 0.258107 0.764733
O O11 0.019290 0.344245 0.035761
O O12 0.695698 0.874022 0.866137
O O13 0.121033 0.924517 0.796978
O O14 0.210312 0.016688 0.454354
O O15 0.000000 0.500000 0.500000
#
# Coordination Sequence:
#
# PCOD9003075 Si02
#       7
#     2   2   2   2   2   2   2
#     4   9  20  38  57  81 112 153 197 241 294 346
#     4   9  19  37  56  82 110 154 200 240 291 349
#     4   9  19  38  62  84 113 158 195 231 297 353
#     4   9  19  36  59  80 115 152 195 244 291 352
#     4  10  21  37  57  87 120 151 191 246 294 349
#     4  11  22  36  56  88 119 150 197 244 297 352
#     4   9  18  37  62  86 111 152 198 236 285 361
#
# _framework density 23.726493999999999
#
# number of rings (size 3 to 8) (size 9 to 14) (size 15 to 20)
#    0.000    2.571    0.000    1.714    0.000    5.714 
#   10.286    0.000    0.000    0.000    0.000    0.000 
#    0.000    0.000    0.000    0.000    0.000    0.000 
#
# Total GULP energy -78145.042254 kJ/mol
# GULP energy per Si atom -5581.788732 kJ/mol
# Density = 2.367249 g / cm^3
# Si number density = 23.726494 Si / 1000 Ang^3
#
#
#
# Elastic Constant Matrix: (Units=GPa)
#
#
# Indices 1 2 3 4 5 6 
#
# 1 66.4903 46.1170 43.3376 -7.3189 -7.6568 -21.8175
# 2 46.1170 91.5141 65.6707 -14.8445 -10.8490 -16.7853
# 3 43.3376 65.6707 198.8999 -1.3281 -18.7425 -24.9244
# 4 -7.3189 -14.8445 -1.3281 54.0045 0.2742 3.5895
# 5 -7.6568 -10.8490 -18.7425 0.2742 33.0908 9.5773
# 6 -21.8175 -16.7853 -24.9244 3.5895 9.5773 31.1155
#
#
#
# Elastic Compliance Matrix: (Units=1/GPa)
#
#
# Indices 1 2 3 4 5 6 
#
# 1 0.027266 -0.010966 -0.000833 -0.000198 -0.001527 0.013028
# 2 -0.010966 0.020121 -0.004198 0.004016 0.002020 -0.001282
# 3 -0.000833 -0.004198 0.007053 -0.001262 0.001738 0.002412
# 4 -0.000198 0.004016 -0.001262 0.019659 0.000829 -0.001506
# 5 -0.001527 0.002020 0.001738 0.000829 0.034170 -0.009202
# 6 0.013028 -0.001282 0.002412 -0.001506 -0.009202 0.045520
#
#
# Mechanical properties :
#
#
# Convention : Reuss Voigt Hill
#
# Bulk Modulus (GPa) = 44.54947 74.12830 59.33889
# Shear Modulus (GPa) = 25.87133 37.09408 31.48271
#
# Velocity S-wave (km/s) = 3.30570 3.95828 3.64662
# Velocity P-wave (km/s) = 5.77817 7.22505 6.54173
#
# Compressibility (1/GPa) = 0.02244696
#
# Stress axis : x y z
#
# Youngs Moduli (GPa) = 36.67567 49.69813 141.79140
#
# Poissons Ratio (x) = 0.54499 0.11809
# Poissons Ratio (y) = 0.40219 0.59519
# Poissons Ratio (z) = 0.03054 0.20862
#
# Static dielectric constant tensor:
#      x y z
#    x 1.916840 -0.002700 0.017590 
#    y -0.002700 1.934240 0.031710 
#    z 0.017590 0.031710 1.936790 
# 
# From -- ./inp_files/43456.got.cif
#   From: 2010.05.17/outbox.cif.g08.bks.cpg/sg2_22_cif.got.tgz:43456.got - 2010.06.03 11:33:40.
