data_PCOD9003043
_publ_section_title
;
Structure prediction by ZEFSAII (Michael W. Deem and Ramdas Pophale) SiO2 
 PCOD9003043
Probable space group: P -1
;
_chemical_formula_sum "Si O2"
_cell_formula_units_Z 16
_cell_length_a 7.939432
_cell_length_b 24.028933
_cell_length_c 6.830008
_cell_angle_alpha 117.560909
_cell_angle_beta 91.107332
_cell_angle_gamma 132.649084
_cell_volume 730.625708
_symmetry_space_group_name_H-M "P -1"
_symmetry_group_IT_number 2
_symmetry_cell_setting 'triclinic'
loop_
_space_group_symop_operation_xyz
x,y,z
-x,-y,-z
loop_
_atom_site_type_symbol
_atom_site_label
_atom_site_fract_x
_atom_site_fract_y
_atom_site_fract_z
Si Si1 0.927995 0.050225 0.338306
Si Si2 0.680454 0.404302 0.807003
Si Si3 0.415822 0.109092 0.617072
Si Si4 0.286294 0.969858 0.087009
Si Si5 0.224191 0.492330 0.363866
Si Si6 0.616394 0.596006 0.897232
Si Si7 0.089147 0.198579 0.881303
Si Si8 0.365076 0.701348 0.036101
O O1 0.171727 0.078488 0.467126
O O2 0.967315 0.128792 0.573539
O O3 0.672910 0.944634 0.264183
O O4 0.901869 0.048400 0.102997
O O5 0.651647 0.412893 0.594065
O O6 0.601120 0.317528 0.774120
O O7 0.508386 0.407537 0.920699
O O8 0.000000 0.500000 0.000000
O O9 0.641960 0.225858 0.836624
O O10 0.441306 0.059993 0.386514
O O11 0.105216 0.872510 0.058882
O O12 0.500000 0.000000 0.000000
O O13 0.371430 0.525698 0.624494
O O14 0.277989 0.444306 0.160115
O O15 0.906253 0.405043 0.228735
O O16 0.837637 0.708404 0.004492
O O17 0.374035 0.245491 0.988346
#
# Coordination Sequence:
#
# PCOD9003043 Si02
#       8
#     2   2   2   2   2   2   2   2
#     4   9  19  38  58  79 110 145 185 233 277 325
#     4   9  19  36  56  79 108 145 187 229 274 323
#     4   9  19  37  58  81 110 145 186 230 276 328
#     4  11  23  37  58  87 116 148 183 227 285 340
#     4  10  21  37  58  84 116 149 186 234 283 330
#     4  10  21  37  57  84 116 150 186 230 283 334
#     4   9  21  38  56  82 113 150 191 229 277 332
#     4   9  19  37  60  83 110 150 192 233 277 325
#
# _framework density 21.899038000000001
#
# number of rings (size 3 to 8) (size 9 to 14) (size 15 to 20)
#    0.000    2.500    0.000    1.500    0.000   11.500 
#    0.000   11.250    0.000    0.000    0.000    0.000 
#    0.000    0.000    0.000    0.000    0.000    0.000 
#
# Total GULP energy -89305.001745 kJ/mol
# GULP energy per Si atom -5581.562609 kJ/mol
# Density = 2.184919 g / cm^3
# Si number density = 21.899038 Si / 1000 Ang^3
#
#
#
# Elastic Constant Matrix: (Units=GPa)
#
#
# Indices 1 2 3 4 5 6 
#
# 1 72.5930 27.6885 1.6516 3.3658 -3.4308 12.7152
# 2 27.6885 143.0254 36.4081 6.4199 -17.3951 0.0887
# 3 1.6516 36.4081 41.3462 3.8243 -11.0394 -2.2854
# 4 3.3658 6.4199 3.8243 25.5494 -4.2333 -9.1857
# 5 -3.4308 -17.3951 -11.0394 -4.2333 27.2254 1.5740
# 6 12.7152 0.0887 -2.2854 -9.1857 1.5740 30.2895
#
#
#
# Elastic Compliance Matrix: (Units=1/GPa)
#
#
# Indices 1 2 3 4 5 6 
#
# 1 0.016791 -0.003644 0.002674 -0.004557 0.000641 -0.008252
# 2 -0.003644 0.010049 -0.007934 -0.000157 0.002679 0.000715
# 3 0.002674 -0.007934 0.033543 -0.001803 0.008563 0.000440
# 4 -0.004557 -0.000157 -0.001803 0.046479 0.004919 0.015617
# 5 0.000641 0.002679 0.008563 0.004919 0.042780 -0.000362
# 6 -0.008252 0.000715 0.000440 0.015617 -0.000362 0.041265
#
#
# Mechanical properties :
#
#
# Convention : Reuss Voigt Hill
#
# Bulk Modulus (GPa) = 23.48722 43.16232 33.32477
# Shear Modulus (GPa) = 22.43077 29.36064 25.89571
#
# Velocity S-wave (km/s) = 3.20391 3.66557 3.44249
# Velocity P-wave (km/s) = 4.94320 6.13740 5.57238
#
# Compressibility (1/GPa) = 0.04257634
#
# Stress axis : x y z
#
# Youngs Moduli (GPa) = 59.55440 99.50948 29.81234
#
# Poissons Ratio (x) = 0.36260 -0.07973
# Poissons Ratio (y) = 0.21701 0.23654
# Poissons Ratio (z) = -0.15927 0.78954
#
# Static dielectric constant tensor:
#      x y z
#    x 1.870710 -0.000480 -0.001190 
#    y -0.000480 1.792300 0.015400 
#    z -0.001190 0.015400 1.804730 
# 
# From -- ./inp_files/56535.got.cif
#   From: 2010.05.17/outbox.cif.g08.bks.cpg/sg2_29_cif.got.tgz:56535.got - 2010.06.03 11:33:40.
