data_PCOD9003776
_publ_section_title
;
Structure prediction by ZEFSAII (Michael W. Deem and Ramdas Pophale) SiO2 
 PCOD9003776
Probable space group: P -1
;
_chemical_formula_sum "Si O2"
_cell_formula_units_Z 16
_cell_length_a 8.479616
_cell_length_b 16.180766
_cell_length_c 11.246077
_cell_angle_alpha 121.712465
_cell_angle_beta 81.198654
_cell_angle_gamma 141.626585
_cell_volume 710.061519
_symmetry_space_group_name_H-M "P -1"
_symmetry_group_IT_number 2
_symmetry_cell_setting 'triclinic'
loop_
_space_group_symop_operation_xyz
x,y,z
-x,-y,-z
loop_
_atom_site_type_symbol
_atom_site_label
_atom_site_fract_x
_atom_site_fract_y
_atom_site_fract_z
Si Si1 0.169021 0.370315 0.413148
Si Si2 0.843992 0.333136 0.821040
Si Si3 0.231231 0.997923 0.761187
Si Si4 0.224116 0.337894 0.822604
Si Si5 0.140127 0.522600 0.688861
Si Si6 0.962287 0.060315 0.807900
Si Si7 0.614976 0.619125 0.813879
Si Si8 0.507854 0.888125 0.919766
O O1 0.500000 0.500000 0.500000
O O2 0.104169 0.448090 0.512034
O O3 0.155200 0.324590 0.246282
O O4 0.932570 0.187279 0.373944
O O5 0.511929 0.155428 0.765618
O O6 0.009065 0.319959 0.833388
O O7 0.899595 0.378333 0.708544
O O8 0.000000 0.500000 0.000000
O O9 0.006414 0.968541 0.735072
O O10 0.332783 0.058160 0.933179
O O11 0.039395 0.151029 0.743286
O O12 0.382410 0.422903 0.741891
O O13 0.500000 0.500000 0.000000
O O14 0.427669 0.608860 0.766093
O O15 0.216422 0.674523 0.794810
O O16 0.208653 0.233651 0.995255
O O17 0.669328 0.937538 0.817696
O O18 0.500000 0.000000 0.000000
#
# Coordination Sequence:
#
# PCOD9003776 Si02
#       8
#     2   2   2   2   2   2   2   2
#     4  10  21  37  62  89 120 165 207 248 304 373
#     4  11  20  36  61  89 126 158 204 259 302 364
#     4  12  22  38  63  91 122 162 206 254 311 358
#     4   9  19  32  55  91 121 155 197 251 307 353
#     4  10  21  38  59  86 121 160 200 244 309 365
#     4  11  19  34  59  89 118 150 204 255 298 360
#     4   9  16  34  59  85 116 155 199 248 291 360
#     4  12  23  37  61  91 121 154 204 261 307 361
#
# _framework density 22.533256999999999
#
# number of rings (size 3 to 8) (size 9 to 14) (size 15 to 20)
#    0.000    1.500    3.750    4.125    0.000    0.500 
#    0.000    0.625    0.000   13.500    0.000    0.000 
#    0.000    0.000    0.000    0.000    0.000    0.000 
#
# Total GULP energy -89293.204514 kJ/mol
# GULP energy per Si atom -5580.825282 kJ/mol
# Density = 2.248197 g / cm^3
# Si number density = 22.533257 Si / 1000 Ang^3
#
#
#
# Elastic Constant Matrix: (Units=GPa)
#
#
# Indices 1 2 3 4 5 6 
#
# 1 78.4051 44.0489 7.1717 2.4520 -23.9963 -8.2111
# 2 44.0489 123.5843 15.0715 14.3527 -21.3545 4.1868
# 3 7.1717 15.0715 33.8342 7.3300 -14.7366 -0.3687
# 4 2.4520 14.3527 7.3300 25.0247 -0.4190 -6.4712
# 5 -23.9963 -21.3545 -14.7366 -0.4190 31.5976 2.0821
# 6 -8.2111 4.1868 -0.3687 -6.4712 2.0821 41.6337
#
#
#
# Elastic Compliance Matrix: (Units=1/GPa)
#
#
# Indices 1 2 3 4 5 6 
#
# 1 0.019859 -0.005637 0.003533 0.001530 0.012668 0.004119
# 2 -0.005637 0.011692 -0.001221 -0.006645 0.003193 -0.003491
# 3 0.003533 -0.001221 0.040993 -0.011740 0.020932 -0.001689
# 4 0.001530 -0.006645 -0.011740 0.049230 -0.008741 0.008955
# 5 0.012668 0.003193 0.020932 -0.008741 0.053182 -0.001656
# 6 0.004119 -0.003491 -0.001689 0.008955 -0.001656 0.026642
#
#
# Mechanical properties :
#
#
# Convention : Reuss Voigt Hill
#
# Bulk Modulus (GPa) = 15.17623 40.93419 28.05521
# Shear Modulus (GPa) = 21.71912 30.95329 26.33620
#
# Velocity S-wave (km/s) = 3.10799 3.71033 3.42244
# Velocity P-wave (km/s) = 4.43048 6.04656 5.30048
#
# Compressibility (1/GPa) = 0.06589250
#
# Stress axis : x y z
#
# Youngs Moduli (GPa) = 50.35503 85.53219 24.39452
#
# Poissons Ratio (x) = 0.48218 -0.08618
# Poissons Ratio (y) = 0.28387 0.02978
# Poissons Ratio (z) = -0.17790 0.10443
#
# Static dielectric constant tensor:
#      x y z
#    x 1.801060 0.011380 0.065960 
#    y 0.011380 1.866660 -0.064310 
#    z 0.065960 -0.064310 1.936700 
# 
# From -- ./inp_files/199687.got.cif
#   From: 2010.05.17/outbox.cif.g08.bks.cpg/sg2_100_cif.got.tgz:199687.got - 2010.06.03 11:33:40.
