data_PCOD9003534
_publ_section_title
;
Structure prediction by ZEFSAII (Michael W. Deem and Ramdas Pophale) SiO2 
 PCOD9003534
Probable space group: P -1
;
_chemical_formula_sum "Si O2"
_cell_formula_units_Z 14
_cell_length_a 12.981760
_cell_length_b 14.474228
_cell_length_c 6.940871
_cell_angle_alpha 114.661383
_cell_angle_beta 66.540302
_cell_angle_gamma 150.418382
_cell_volume 583.301471
_symmetry_space_group_name_H-M "P -1"
_symmetry_group_IT_number 2
_symmetry_cell_setting 'triclinic'
loop_
_space_group_symop_operation_xyz
x,y,z
-x,-y,-z
loop_
_atom_site_type_symbol
_atom_site_label
_atom_site_fract_x
_atom_site_fract_y
_atom_site_fract_z
Si Si1 0.219451 0.610833 0.903305
Si Si2 0.936372 0.834588 0.379449
Si Si3 0.298790 0.840769 0.764740
Si Si4 0.321881 0.496263 0.459832
Si Si5 0.292562 0.098587 0.610943
Si Si6 0.359105 0.764855 0.324001
Si Si7 0.001249 0.200241 0.108592
O O1 0.337361 0.791564 0.863129
O O2 0.242816 0.530608 0.681167
O O3 0.285686 0.637004 0.095094
O O4 0.000000 0.500000 0.000000
O O5 0.742050 0.649791 0.491887
O O6 0.143980 0.941955 0.416614
O O7 0.914558 0.789869 0.135058
O O8 0.000000 0.000000 0.500000
O O9 0.209283 0.706718 0.533986
O O10 0.145972 0.820398 0.876956
O O11 0.519242 0.054033 0.720967
O O12 0.564615 0.699418 0.398679
O O13 0.182108 0.380968 0.270709
O O14 0.473603 0.162762 0.604279
O O15 0.138654 0.982841 0.811413
#
# Coordination Sequence:
#
# PCOD9003534 Si02
#       7
#     2   2   2   2   2   2   2
#     4  12  24  35  61  99 140 181 223 261 321 390
#     4  11  27  50  72  98 130 171 227 291 355 408
#     4  10  21  37  60  93 134 180 222 251 319 386
#     4  11  25  42  69 104 136 174 231 274 336 404
#     4  10  24  43  69 102 133 175 224 274 338 405
#     4  10  22  38  60  92 141 177 215 265 315 388
#     4  10  24  44  70  95 142 179 220 282 337 393
#
# _framework density 24.001311999999999
#
# number of rings (size 3 to 8) (size 9 to 14) (size 15 to 20)
#    0.000    1.429    1.429    2.143    8.000    8.571 
#    0.000    1.429    0.000    0.000    0.000    0.000 
#    0.000    0.000    0.000    0.000    0.000    0.000 
#
# Total GULP energy -78169.987846 kJ/mol
# GULP energy per Si atom -5583.570560 kJ/mol
# Density = 2.394668 g / cm^3
# Si number density = 24.001312 Si / 1000 Ang^3
#
#
#
# Elastic Constant Matrix: (Units=GPa)
#
#
# Indices 1 2 3 4 5 6 
#
# 1 58.0933 19.1769 34.8729 2.7000 7.2536 -10.0436
# 2 19.1769 108.4796 15.8769 -11.0579 19.0939 -18.5321
# 3 34.8729 15.8769 171.0316 17.7754 18.9517 -5.2667
# 4 2.7000 -11.0579 17.7754 33.7225 -4.2772 9.4789
# 5 7.2536 19.0939 18.9517 -4.2772 21.9030 -2.0547
# 6 -10.0436 -18.5321 -5.2667 9.4789 -2.0547 39.9907
#
#
#
# Elastic Compliance Matrix: (Units=1/GPa)
#
#
# Indices 1 2 3 4 5 6 
#
# 1 0.021175 -0.002398 -0.003555 -0.002000 -0.001850 0.004118
# 2 -0.002398 0.012121 0.000366 0.001603 -0.009382 0.004201
# 3 -0.003555 0.000366 0.007831 -0.004897 -0.006769 0.001121
# 4 -0.002000 0.001603 -0.004897 0.036577 0.009841 -0.008569
# 5 -0.001850 -0.009382 -0.006769 0.009841 0.061770 -0.004863
# 6 0.004118 0.004201 0.001121 -0.008569 -0.004863 0.029916
#
#
# Mechanical properties :
#
#
# Convention : Reuss Voigt Hill
#
# Bulk Modulus (GPa) = 33.38474 53.05088 43.21781
# Shear Modulus (GPa) = 26.23993 36.96842 31.60417
#
# Velocity S-wave (km/s) = 3.31005 3.92888 3.63267
# Velocity P-wave (km/s) = 5.34306 6.53703 5.96997
#
# Compressibility (1/GPa) = 0.02995380
#
# Stress axis : x y z
#
# Youngs Moduli (GPa) = 47.22485 82.50090 127.69229
#
# Poissons Ratio (x) = 0.19781 0.45399
# Poissons Ratio (y) = 0.11323 -0.04675
# Poissons Ratio (z) = 0.16790 -0.03020
#
# Static dielectric constant tensor:
#      x y z
#    x 1.956800 -0.017750 0.009480 
#    y -0.017750 2.065590 -0.059790 
#    z 0.009480 -0.059790 2.028330 
# 
# From -- ./inp_files/91103.got.cif
#   From: 2010.05.17/outbox.cif.g08.bks.cpg/sg2_46_cif.got.tgz:91103.got - 2010.06.03 11:33:40.
