data_PCOD9003017
_publ_section_title
;
Structure prediction by ZEFSAII (Michael W. Deem and Ramdas Pophale) SiO2 
 PCOD9003017
Probable space group: P -1
;
_chemical_formula_sum "Si O2"
_cell_formula_units_Z 14
_cell_length_a 22.487072
_cell_length_b 19.972695
_cell_length_c 5.055563
_cell_angle_alpha 104.571930
_cell_angle_beta 72.507853
_cell_angle_gamma 162.287057
_cell_volume 654.142545
_symmetry_space_group_name_H-M "P -1"
_symmetry_group_IT_number 2
_symmetry_cell_setting 'triclinic'
loop_
_space_group_symop_operation_xyz
x,y,z
-x,-y,-z
loop_
_atom_site_type_symbol
_atom_site_label
_atom_site_fract_x
_atom_site_fract_y
_atom_site_fract_z
Si Si1 0.538340 0.665174 0.015535
Si Si2 0.278614 0.386573 0.569979
Si Si3 0.033127 0.854123 0.558679
Si Si4 0.128297 0.715344 0.797355
Si Si5 0.269472 0.233267 0.493039
Si Si6 0.151161 0.902214 0.934208
Si Si7 0.718549 0.202029 0.825619
O O1 0.402248 0.491960 0.253352
O O2 0.638508 0.840327 0.164765
O O3 0.412101 0.548290 0.802490
O O4 0.703265 0.782452 0.827152
O O5 0.162950 0.195082 0.622192
O O6 0.150457 0.311072 0.532235
O O7 0.002307 0.783540 0.808128
O O8 0.165967 0.063611 0.633177
O O9 0.128376 0.900585 0.269438
O O10 0.142984 0.812182 0.826852
O O11 0.257758 0.809415 0.501971
O O12 0.895556 0.446230 0.831405
O O13 0.212879 0.782001 0.033985
O O14 0.500000 0.500000 0.500000
O O15 0.500000 0.000000 0.000000
#
# Coordination Sequence:
#
# PCOD9003017 Si02
#       7
#     2   2   2   2   2   2   2
#     4  10  21  37  57  78 117 152 199 248 301 378
#     4  11  21  37  55  85 111 149 207 262 302 343
#     4  11  23  37  58  83 121 151 201 258 293 367
#     4  10  22  41  68  93 135 169 198 259 305 368
#     4   9  19  36  58  78 106 157 202 250 311 355
#     4  11  22  42  58  85 122 166 192 231 319 360
#     4  10  21  42  69 102 127 159 215 250 300 364
#
# _framework density 21.402062999999998
#
# number of rings (size 3 to 8) (size 9 to 14) (size 15 to 20)
#    0.000    1.714    0.000    5.571    0.000    3.429 
#    7.714    7.143    0.000    0.000    0.000    0.000 
#    0.000    0.000    0.000    0.000    0.000    0.000 
#
# Total GULP energy -78020.901212 kJ/mol
# GULP energy per Si atom -5572.921515 kJ/mol
# Density = 2.135335 g / cm^3
# Si number density = 21.402063 Si / 1000 Ang^3
#
#
#
# Elastic Constant Matrix: (Units=GPa)
#
#
# Indices 1 2 3 4 5 6 
#
# 1 114.9679 43.5088 22.0110 13.2937 3.5362 -21.8331
# 2 43.5088 55.1267 11.4397 1.8307 -7.9128 1.3568
# 3 22.0110 11.4397 72.5530 -2.5630 24.1796 0.7673
# 4 13.2937 1.8307 -2.5630 26.4515 7.5355 1.0844
# 5 3.5362 -7.9128 24.1796 7.5355 33.7517 4.6950
# 6 -21.8331 1.3568 0.7673 1.0844 4.6950 35.9347
#
#
#
# Elastic Compliance Matrix: (Units=1/GPa)
#
#
# Indices 1 2 3 4 5 6 
#
# 1 0.017762 -0.014023 -0.002470 -0.007742 -0.003326 0.012042
# 2 -0.014023 0.032764 -0.005674 0.000514 0.014710 -0.011573
# 3 -0.002470 -0.005674 0.022077 0.009166 -0.018996 0.000447
# 4 -0.007742 0.000514 0.009166 0.047159 -0.015565 -0.004309
# 5 -0.003326 0.014710 -0.018996 -0.015565 0.051685 -0.008453
# 6 0.012042 -0.011573 0.000447 -0.004309 -0.008453 0.036807
#
#
# Mechanical properties :
#
#
# Convention : Reuss Voigt Hill
#
# Bulk Modulus (GPa) = 35.37359 44.06295 39.71827
# Shear Modulus (GPa) = 19.08318 30.27346 24.67832
#
# Velocity S-wave (km/s) = 2.98929 3.76508 3.39939
# Velocity P-wave (km/s) = 5.33653 6.28760 5.83149
#
# Compressibility (1/GPa) = 0.02826968
#
# Stress axis : x y z
#
# Youngs Moduli (GPa) = 56.29919 30.52107 45.29635
#
# Poissons Ratio (x) = 0.42799 0.11189
# Poissons Ratio (y) = 0.78948 0.25700
# Poissons Ratio (z) = 0.13907 0.17317
#
# Static dielectric constant tensor:
#      x y z
#    x 1.860890 0.084350 0.002810 
#    y 0.084350 1.880490 -0.023000 
#    z 0.002810 -0.023000 1.770570 
# 
# From -- ./inp_files/119901.got.cif
#   From: 2010.05.17/outbox.cif.g08.bks.cpg/sg2_60_cif.got.tgz:119901.got - 2010.06.03 11:33:40.
