data_PCOD9003402
_publ_section_title
;
Structure prediction by ZEFSAII (Michael W. Deem and Ramdas Pophale) SiO2 
 PCOD9003402
Probable space group: P -1
;
_chemical_formula_sum "Si O2"
_cell_formula_units_Z 12
_cell_length_a 11.238850
_cell_length_b 21.438628
_cell_length_c 4.924439
_cell_angle_alpha 50.885625
_cell_angle_beta 113.201302
_cell_angle_gamma 145.979765
_cell_volume 491.825584
_symmetry_space_group_name_H-M "P -1"
_symmetry_group_IT_number 2
_symmetry_cell_setting 'triclinic'
loop_
_space_group_symop_operation_xyz
x,y,z
-x,-y,-z
loop_
_atom_site_type_symbol
_atom_site_label
_atom_site_fract_x
_atom_site_fract_y
_atom_site_fract_z
Si Si1 0.457341 0.615551 0.569339
Si Si2 0.452406 0.768031 0.517587
Si Si3 0.152108 0.798733 0.633257
Si Si4 0.008136 0.427565 0.509589
Si Si5 0.405887 0.064506 0.343799
Si Si6 0.294318 0.388212 0.417416
O O1 0.480445 0.696928 0.588243
O O2 0.681962 0.691921 0.440785
O O3 0.270926 0.547039 0.366154
O O4 0.352128 0.484460 0.980548
O O5 0.188735 0.652740 0.658517
O O6 0.594827 0.861433 0.653338
O O7 0.528064 0.868245 0.075762
O O8 0.393279 0.891933 0.490677
O O9 0.961706 0.719282 0.456302
O O10 0.193834 0.901232 0.558684
O O11 0.073411 0.688714 0.065390
O O12 0.000000 0.500000 0.500000
O O13 0.500000 0.500000 0.500000
#
# Coordination Sequence:
#
# PCOD9003402 Si02
#       6
#     2   2   2   2   2   2
#     4   9  20  38  55  87 118 152 199 243 293 352
#     4  10  21  38  62  88 119 152 198 245 295 343
#     4   9  20  38  57  88 119 152 200 240 290 356
#     4   8  16  34  57  87 115 149 187 248 295 338
#     4  10  22  39  62  89 116 158 194 245 293 343
#     4  10  21  37  60  85 115 160 193 242 296 350
#
# _framework density 24.398893999999999
#
# number of rings (size 3 to 8) (size 9 to 14) (size 15 to 20)
#    0.000    2.667    0.000    0.000    4.667    6.000 
#    6.000    6.667    0.000    0.000    0.000    0.000 
#    0.000    0.000    0.000    0.000    0.000    0.000 
#
# Total GULP energy -66985.686417 kJ/mol
# GULP energy per Si atom -5582.140535 kJ/mol
# Density = 2.434336 g / cm^3
# Si number density = 24.398894 Si / 1000 Ang^3
#
#
#
# Elastic Constant Matrix: (Units=GPa)
#
#
# Indices 1 2 3 4 5 6 
#
# 1 76.9935 27.7487 25.3965 -3.7676 21.2596 -1.0045
# 2 27.7487 123.5012 22.9369 -2.8326 12.4448 -12.7909
# 3 25.3965 22.9369 71.4724 -2.6213 7.9036 -0.5817
# 4 -3.7676 -2.8326 -2.6213 37.1396 -9.3841 14.9205
# 5 21.2596 12.4448 7.9036 -9.3841 29.7749 4.9971
# 6 -1.0045 -12.7909 -0.5817 14.9205 4.9971 43.8587
#
#
#
# Elastic Compliance Matrix: (Units=1/GPa)
#
#
# Indices 1 2 3 4 5 6 
#
# 1 0.018528 -0.001890 -0.004688 -0.002554 -0.012350 0.002087
# 2 -0.001890 0.009593 -0.002076 -0.001977 -0.003367 0.003783
# 3 -0.004688 -0.002076 0.016315 0.000943 0.000325 -0.000854
# 4 -0.002554 -0.001977 0.000943 0.036789 0.016515 -0.015020
# 5 -0.012350 -0.003367 0.000325 0.016515 0.051060 -0.012697
# 6 0.002087 0.003783 -0.000854 -0.015020 -0.012697 0.030497
#
#
# Mechanical properties :
#
#
# Convention : Reuss Voigt Hill
#
# Bulk Modulus (GPa) = 36.86331 47.12569 41.99450
# Shear Modulus (GPa) = 26.43624 35.21364 30.82494
#
# Velocity S-wave (km/s) = 3.29523 3.80313 3.55825
# Velocity P-wave (km/s) = 5.44238 6.21624 5.84214
#
# Compressibility (1/GPa) = 0.02712724
#
# Stress axis : x y z
#
# Youngs Moduli (GPa) = 53.97206 104.24092 61.29222
#
# Poissons Ratio (x) = 0.19704 0.28734
# Poissons Ratio (y) = 0.10202 0.12727
# Poissons Ratio (z) = 0.25302 0.21644
#
# Static dielectric constant tensor:
#      x y z
#    x 2.029450 0.019410 0.015410 
#    y 0.019410 2.019740 0.000560 
#    z 0.015410 0.000560 1.936000 
# 
# From -- ./inp_files/22661.got.cif
#   From: 2010.05.17/outbox.cif.g08.bks.cpg/sg2_12_cif.got.tgz:22661.got - 2010.06.03 11:33:40.
