data_PCOD9003979
_publ_section_title
;
Structure prediction by ZEFSAII (Michael W. Deem and Ramdas Pophale) SiO2 
 PCOD9003979
Probable space group: P -1
;
_chemical_formula_sum "Si O2"
_cell_formula_units_Z 16
_cell_length_a 11.897556
_cell_length_b 12.110321
_cell_length_c 9.306139
_cell_angle_alpha 68.309561
_cell_angle_beta 127.419891
_cell_angle_gamma 128.190591
_cell_volume 836.938714
_symmetry_space_group_name_H-M "P -1"
_symmetry_group_IT_number 2
_symmetry_cell_setting 'triclinic'
loop_
_space_group_symop_operation_xyz
x,y,z
-x,-y,-z
loop_
_atom_site_type_symbol
_atom_site_label
_atom_site_fract_x
_atom_site_fract_y
_atom_site_fract_z
Si Si1 0.390901 0.711366 0.477508
Si Si2 0.887857 0.727041 0.171790
Si Si3 0.376962 0.181671 0.133084
Si Si4 0.403905 0.559486 0.986223
Si Si5 0.930493 0.569880 0.521641
Si Si6 0.386757 0.540602 0.309386
Si Si7 0.206334 0.857002 0.159748
Si Si8 0.997920 0.630452 0.869006
O O1 0.556546 0.779502 0.670041
O O2 0.253555 0.561268 0.514197
O O3 0.409019 0.672894 0.348442
O O4 0.312630 0.806475 0.354095
O O5 0.924268 0.693733 0.375531
O O6 0.052400 0.820919 0.161991
O O7 0.767910 0.787593 0.032459
O O8 0.787419 0.567309 0.108847
O O9 0.312940 0.021523 0.132302
O O10 0.537757 0.292513 0.110531
O O11 0.447777 0.576695 0.177648
O O12 0.500000 0.500000 0.000000
O O13 0.000000 0.500000 0.500000
O O14 0.024292 0.628667 0.718931
O O15 0.500000 0.500000 0.500000
O O16 0.193374 0.413480 0.231976
O O17 0.127039 0.765634 0.997039
O O18 0.000000 0.500000 0.000000
#
# Coordination Sequence:
#
# PCOD9003979 Si02
#       8
#     2   2   2   2   2   2   2   2
#     4  11  23  40  63  93 127 167 207 259 314 371
#     4  11  21  40  66  93 121 164 215 258 302 371
#     4  11  25  40  63  95 130 164 208 256 319 370
#     4  10  21  37  63  91 123 157 209 255 304 359
#     4  11  21  37  68  97 120 156 219 264 301 363
#     4  11  22  37  64  95 122 154 215 264 303 358
#     4  12  23  44  62  92 132 168 202 257 318 383
#     4  11  22  39  64  93 123 162 208 255 310 369
#
# _framework density 19.117289
#
# number of rings (size 3 to 8) (size 9 to 14) (size 15 to 20)
#    0.000    1.000    6.250    2.250    5.250    0.000 
#    0.000    2.500    0.000    0.000    0.000    0.000 
#    0.000    0.000    0.000    0.000    0.000    0.000 
#
# Total GULP energy -89301.449628 kJ/mol
# GULP energy per Si atom -5581.340602 kJ/mol
# Density = 1.907378 g / cm^3
# Si number density = 19.117289 Si / 1000 Ang^3
#
#
#
# Elastic Constant Matrix: (Units=GPa)
#
#
# Indices 1 2 3 4 5 6 
#
# 1 54.0503 -4.4490 19.3075 2.0301 -16.8247 -2.8231
# 2 -4.4490 100.7409 15.4402 8.9722 -13.1291 2.3047
# 3 19.3075 15.4402 121.2031 -0.6268 -23.7177 -5.3198
# 4 2.0301 8.9722 -0.6268 19.1776 -6.4879 -1.8798
# 5 -16.8247 -13.1291 -23.7177 -6.4879 44.6105 -1.6203
# 6 -2.8231 2.3047 -5.3198 -1.8798 -1.6203 16.4481
#
#
#
# Elastic Compliance Matrix: (Units=1/GPa)
#
#
# Indices 1 2 3 4 5 6 
#
# 1 0.022122 0.002296 -0.002106 -0.000445 0.007963 0.003528
# 2 0.002296 0.011046 -0.001365 -0.004749 0.002632 -0.001879
# 3 -0.002106 -0.001365 0.009851 0.003127 0.004636 0.003830
# 4 -0.000445 -0.004749 0.003127 0.058433 0.008928 0.009158
# 5 0.007963 0.002632 0.004636 0.008928 0.030193 0.006492
# 6 0.003528 -0.001879 0.003830 0.009158 0.006492 0.064591
#
#
# Mechanical properties :
#
#
# Convention : Reuss Voigt Hill
#
# Bulk Modulus (GPa) = 24.58744 37.39907 30.99326
# Shear Modulus (GPa) = 23.56907 32.42695 27.99801
#
# Velocity S-wave (km/s) = 3.51503 4.12298 3.83108
# Velocity P-wave (km/s) = 5.41878 6.50159 5.98472
#
# Compressibility (1/GPa) = 0.04067117
#
# Stress axis : x y z
#
# Youngs Moduli (GPa) = 45.20347 90.52975 101.50903
#
# Poissons Ratio (x) = -0.20790 0.21376
# Poissons Ratio (y) = -0.10381 0.13855
# Poissons Ratio (z) = 0.09519 0.12356
#
# Static dielectric constant tensor:
#      x y z
#    x 1.766520 -0.013780 0.044300 
#    y -0.013780 1.649530 0.000680 
#    z 0.044300 0.000680 1.747960 
# 
# From -- ./inp_files/262145.got.cif
#   From: 2010.05.17/outbox.cif.g08.bks.cpg/sg2_132_cif.got.tgz:262145.got - 2010.06.03 11:33:40.
