data_PCOD9003246
_publ_section_title
;
Structure prediction by ZEFSAII (Michael W. Deem and Ramdas Pophale) SiO2 
 PCOD9003246
Probable space group: P -1
;
_chemical_formula_sum "Si O2"
_cell_formula_units_Z 16
_cell_length_a 21.222280
_cell_length_b 5.728779
_cell_length_c 17.048432
_cell_angle_alpha 87.184145
_cell_angle_beta 18.391522
_cell_angle_gamma 95.569169
_cell_volume 581.342619
_symmetry_space_group_name_H-M "P -1"
_symmetry_group_IT_number 2
_symmetry_cell_setting 'triclinic'
loop_
_space_group_symop_operation_xyz
x,y,z
-x,-y,-z
loop_
_atom_site_type_symbol
_atom_site_label
_atom_site_fract_x
_atom_site_fract_y
_atom_site_fract_z
Si Si1 0.818694 0.105872 0.052340
Si Si2 0.636259 0.533255 0.059001
Si Si3 0.015519 0.605623 0.730350
Si Si4 0.353769 0.702106 0.606422
Si Si5 0.751078 0.628806 0.737370
Si Si6 0.497892 0.961511 0.186150
Si Si7 0.019002 0.814413 0.898286
Si Si8 0.245038 0.868543 0.273765
O O1 0.684735 0.224868 0.260449
O O2 0.614768 0.824308 0.276670
O O3 0.950942 0.298310 0.822689
O O4 0.990662 0.069655 0.907589
O O5 0.512617 0.716906 0.215609
O O6 0.500612 0.211537 0.224578
O O7 0.831308 0.613148 0.890956
O O8 0.718605 0.596202 0.870000
O O9 0.014414 0.700249 0.819130
O O10 0.269670 0.810746 0.407365
O O11 0.230385 0.821547 0.693579
O O12 0.204632 0.390044 0.788295
O O13 0.857511 0.442640 0.585999
O O14 0.855250 0.934225 0.587912
O O15 0.500000 0.500000 0.000000
O O16 0.708459 0.090135 0.875962
O O17 0.500000 0.000000 0.000000
#
# Coordination Sequence:
#
# PCOD9003246 Si02
#       8
#     2   2   2   2   2   2   2   2
#     4  10  21  37  59  84 117 153 199 250 301 365
#     4  10  23  40  61  87 125 165 202 254 307 365
#     4  11  26  36  58  92 120 164 206 246 310 380
#     4   9  20  38  58  86 112 150 202 248 308 350
#     4   8  14  29  55  81 108 151 197 241 299 351
#     4  10  23  40  61  87 125 165 202 254 307 365
#     4  10  21  37  59  84 117 153 199 250 301 365
#     4   8  14  29  55  81 108 151 197 241 299 351
#
# _framework density 27.522496
#
# number of rings (size 3 to 8) (size 9 to 14) (size 15 to 20)
#    0.000    2.500    0.000    0.750    5.250    0.000 
#    0.000    2.500    0.000   24.000    0.000    0.000 
#    0.000    0.000    0.000    0.000    0.000    0.000 
#
# Total GULP energy -89454.297603 kJ/mol
# GULP energy per Si atom -5590.893600 kJ/mol
# Density = 2.745985 g / cm^3
# Si number density = 27.522496 Si / 1000 Ang^3
#
#
#
# Elastic Constant Matrix: (Units=GPa)
#
#
# Indices 1 2 3 4 5 6 
#
# 1 117.5744 22.0663 42.9660 -1.4828 -28.0430 -16.4697
# 2 22.0663 207.1248 54.9355 -16.2241 -2.2716 -21.0488
# 3 42.9660 54.9355 104.3001 -21.2190 -16.8606 -9.9276
# 4 -1.4828 -16.2241 -21.2190 32.0026 -10.0903 3.5094
# 5 -28.0430 -2.2716 -16.8606 -10.0903 51.4311 9.2152
# 6 -16.4697 -21.0488 -9.9276 3.5094 9.2152 45.5936
#
#
#
# Elastic Compliance Matrix: (Units=1/GPa)
#
#
# Indices 1 2 3 4 5 6 
#
# 1 0.011282 0.000070 -0.003977 -0.001023 0.004208 0.002470
# 2 0.000070 0.005861 -0.002972 0.000444 -0.000993 0.002251
# 3 -0.003977 -0.002972 0.015610 0.010396 0.005078 -0.001237
# 4 -0.001023 0.000444 0.010396 0.042439 0.011834 -0.003559
# 5 0.004208 -0.000993 0.005078 0.011834 0.026412 -0.004082
# 6 0.002470 0.002251 -0.001237 -0.003559 -0.004082 0.024694
#
#
# Mechanical properties :
#
#
# Convention : Reuss Voigt Hill
#
# Bulk Modulus (GPa) = 52.64699 74.32609 63.48654
# Shear Modulus (GPa) = 34.15550 46.40757 40.28154
#
# Velocity S-wave (km/s) = 3.52661 4.11075 3.82983
# Velocity P-wave (km/s) = 5.97937 7.04239 6.53254
#
# Compressibility (1/GPa) = 0.01899444
#
# Stress axis : x y z
#
# Youngs Moduli (GPa) = 88.63459 170.60586 64.06227
#
# Poissons Ratio (x) = -0.01194 0.25480
# Poissons Ratio (y) = -0.00620 0.19040
# Poissons Ratio (z) = 0.35254 0.50706
#
# Static dielectric constant tensor:
#      x y z
#    x 2.223410 0.063300 0.047750 
#    y 0.063300 2.231810 -0.026830 
#    z 0.047750 -0.026830 2.183350 
# 
# From -- ./inp_files/601726.got.cif
#   From: 2010.05.17/outbox.cif.g08.bks.cpg/sg2_301_cif.got.tgz:601726.got - 2010.06.03 11:33:40.
