data_PCOD9003372
_publ_section_title
;
Structure prediction by ZEFSAII (Michael W. Deem and Ramdas Pophale) SiO2 
 PCOD9003372
Probable space group: P -1
;
_chemical_formula_sum "Si O2"
_cell_formula_units_Z 14
_cell_length_a 8.591064
_cell_length_b 11.903374
_cell_length_c 11.905387
_cell_angle_alpha 129.404147
_cell_angle_beta 129.888459
_cell_angle_gamma 48.170976
_cell_volume 648.809280
_symmetry_space_group_name_H-M "P -1"
_symmetry_group_IT_number 2
_symmetry_cell_setting 'triclinic'
loop_
_space_group_symop_operation_xyz
x,y,z
-x,-y,-z
loop_
_atom_site_type_symbol
_atom_site_label
_atom_site_fract_x
_atom_site_fract_y
_atom_site_fract_z
Si Si1 0.658267 0.318629 0.000282
Si Si2 0.468345 0.907444 0.757220
Si Si3 0.394839 0.834968 0.904093
Si Si4 0.991731 0.027743 0.356401
Si Si5 0.052377 0.334342 0.530975
Si Si6 0.091326 0.317984 0.282919
Si Si7 0.443497 0.847487 0.353082
O O1 0.634376 0.183229 0.825113
O O2 0.500000 0.500000 0.000000
O O3 0.591269 0.294523 0.080428
O O4 0.917718 0.289915 0.104417
O O5 0.516325 0.782952 0.806062
O O6 0.654966 0.819679 0.695326
O O7 0.508139 0.053659 0.919134
O O8 0.858542 0.056298 0.191698
O O9 0.202585 0.970619 0.649626
O O10 0.027209 0.189424 0.489340
O O11 0.233753 0.877721 0.356486
O O12 0.914292 0.508134 0.630682
O O13 0.312739 0.302875 0.621965
O O14 0.994900 0.329492 0.371045
O O15 0.500000 0.000000 0.500000
#
# Coordination Sequence:
#
# PCOD9003372 Si02
#       7
#     2   2   2   2   2   2   2
#     4  12  23  39  65  91 121 162 211 254 307 355
#     4   9  20  37  62  88 121 161 201 252 300 373
#     4   9  20  38  60  93 115 157 214 245 301 371
#     4   9  18  38  59  84 121 160 198 248 304 356
#     4  10  21  37  59  92 125 156 209 253 300 366
#     4  11  21  37  63  90 119 166 205 249 309 362
#     4  10  22  37  61  90 124 155 204 268 297 351
#
# _framework density 21.577991999999998
#
# number of rings (size 3 to 8) (size 9 to 14) (size 15 to 20)
#    0.857    1.143    2.857    0.857    4.000    1.714 
#    0.000    1.429    0.000    0.000    0.000    0.000 
#    0.000    0.000    0.000    0.000    0.000    0.000 
#
# Total GULP energy -77966.985145 kJ/mol
# GULP energy per Si atom -5569.070368 kJ/mol
# Density = 2.152888 g / cm^3
# Si number density = 21.577992 Si / 1000 Ang^3
#
#
#
# Elastic Constant Matrix: (Units=GPa)
#
#
# Indices 1 2 3 4 5 6 
#
# 1 80.0942 33.6421 33.8441 0.7060 14.5557 -6.7754
# 2 33.6421 51.8543 6.9816 -4.6433 7.7117 0.2902
# 3 33.8441 6.9816 100.5178 -1.3422 11.6787 -9.2152
# 4 0.7060 -4.6433 -1.3422 23.8451 -3.5975 0.5115
# 5 14.5557 7.7117 11.6787 -3.5975 35.3744 -11.0679
# 6 -6.7754 0.2902 -9.2152 0.5115 -11.0679 35.6556
#
#
#
# Elastic Compliance Matrix: (Units=1/GPa)
#
#
# Indices 1 2 3 4 5 6 
#
# 1 0.021108 -0.012707 -0.005680 -0.004053 -0.003994 0.001465
# 2 -0.012707 0.028024 0.002385 0.005734 -0.001932 -0.002708
# 3 -0.005680 0.002385 0.012031 0.001039 -0.001578 0.001506
# 4 -0.004053 0.005734 0.001039 0.043924 0.004622 0.000256
# 5 -0.003994 -0.001932 -0.001578 0.004622 0.034272 0.009421
# 6 0.001465 -0.002708 0.001506 0.000256 0.009421 0.031656
#
#
# Mechanical properties :
#
#
# Convention : Reuss Voigt Hill
#
# Bulk Modulus (GPa) = 34.29647 42.37797 38.33722
# Shear Modulus (GPa) = 23.50282 29.50824 26.50553
#
# Velocity S-wave (km/s) = 3.30389 3.70201 3.50860
# Velocity P-wave (km/s) = 5.52114 6.16078 5.84971
#
# Compressibility (1/GPa) = 0.02915752
#
# Stress axis : x y z
#
# Youngs Moduli (GPa) = 47.37446 35.68390 83.12106
#
# Poissons Ratio (x) = 0.45344 0.47216
# Poissons Ratio (y) = 0.60199 -0.19823
# Poissons Ratio (z) = 0.26910 -0.08510
#
# Static dielectric constant tensor:
#      x y z
#    x 1.831270 0.021730 0.003700 
#    y 0.021730 1.813070 -0.051860 
#    z 0.003700 -0.051860 1.848230 
# 
# From -- ./inp_files/393214.got.cif
#   From: 2010.05.17/outbox.cif.g08.bks.cpg/sg2_197_cif.got.tgz:393214.got - 2010.06.03 11:33:40.
