data_PCOD9003847
_publ_section_title
;
Structure prediction by ZEFSAII (Michael W. Deem and Ramdas Pophale) SiO2 
 PCOD9003847
Probable space group: P -1
;
_chemical_formula_sum "Si O2"
_cell_formula_units_Z 15
_cell_length_a 15.179967
_cell_length_b 8.195704
_cell_length_c 5.221173
_cell_angle_alpha 59.335385
_cell_angle_beta 84.690259
_cell_angle_gamma 73.813932
_cell_volume 535.621110
_symmetry_space_group_name_H-M "P -1"
_symmetry_group_IT_number 2
_symmetry_cell_setting 'triclinic'
loop_
_space_group_symop_operation_xyz
x,y,z
-x,-y,-z
loop_
_atom_site_type_symbol
_atom_site_label
_atom_site_fract_x
_atom_site_fract_y
_atom_site_fract_z
Si Si1 0.679106 0.372817 0.398584
Si Si2 0.493114 0.682094 0.669076
Si Si3 0.000000 0.000000 0.000000
Si Si4 0.416915 0.046349 0.780460
Si Si5 0.216883 0.372326 0.056268
Si Si6 0.957670 0.616216 0.166662
Si Si7 0.758360 0.006332 0.296487
Si Si8 0.157445 0.728547 0.175673
O O1 0.578374 0.350769 0.499681
O O2 0.691429 0.574557 0.111074
O O3 0.748911 0.320480 0.654035
O O4 0.714960 0.206592 0.304952
O O5 0.582503 0.735253 0.492270
O O6 0.448382 0.880048 0.685451
O O7 0.500000 0.500000 0.000000
O O8 0.070109 0.814077 0.306074
O O9 0.978009 0.826066 0.972329
O O10 0.313879 0.029604 0.869912
O O11 0.500000 0.000000 0.000000
O O12 0.151136 0.365380 0.839852
O O13 0.229582 0.175033 0.371495
O O14 0.168320 0.553723 0.112538
O O15 0.000000 0.500000 0.500000
O O16 0.000000 0.500000 0.000000
O O17 0.851912 0.055401 0.135880
#
# Coordination Sequence:
#
# PCOD9003847 Si02
#       8
#     2   2   1   2   2   2   2   2
#     4  10  22  42  62  93 133 177 223 286 351 423
#     4  10  21  37  62  93 129 172 224 277 342 416
#     4  12  26  46  74 100 144 184 244 302 364 426
#     4  10  21  38  61  95 132 172 223 282 343 420
#     4  11  24  43  66  97 135 178 237 286 360 432
#     4  12  28  49  75 108 145 190 246 304 371 445
#     4  10  23  41  64  94 133 176 226 286 358 422
#     4  11  24  42  66  96 132 180 231 294 356 427
#
# _framework density 28.004871999999999
#
# number of rings (size 3 to 8) (size 9 to 14) (size 15 to 20)
#    0.000    1.333    1.333    3.200    1.867    4.267 
#    0.000    0.000    0.000    0.000    0.000    0.000 
#    0.000    0.000    0.000    0.000    0.000    0.000 
#
# Total GULP energy -83771.151688 kJ/mol
# GULP energy per Si atom -5584.743446 kJ/mol
# Density = 2.794113 g / cm^3
# Si number density = 28.004872 Si / 1000 Ang^3
#
#
#
# Elastic Constant Matrix: (Units=GPa)
#
#
# Indices 1 2 3 4 5 6 
#
# 1 68.2028 64.5872 31.0673 -1.2410 11.9352 37.6348
# 2 64.5872 153.0919 41.3839 -17.3576 -18.6455 41.3914
# 3 31.0673 41.3839 139.8779 -24.4104 1.2734 34.8644
# 4 -1.2410 -17.3576 -24.4104 56.5336 20.8907 -9.4761
# 5 11.9352 -18.6455 1.2734 20.8907 56.0912 6.3010
# 6 37.6348 41.3914 34.8644 -9.4761 6.3010 71.6524
#
#
#
# Elastic Compliance Matrix: (Units=1/GPa)
#
#
# Indices 1 2 3 4 5 6 
#
# 1 0.034588 -0.013067 -0.001778 -0.001878 -0.009938 -0.009128
# 2 -0.013067 0.013497 -0.000759 0.000705 0.007145 -0.001100
# 3 -0.001778 -0.000759 0.009022 0.003645 -0.001163 -0.002433
# 4 -0.001878 0.000705 0.003645 0.022926 -0.008276 0.002565
# 5 -0.009938 0.007145 -0.001163 -0.008276 0.025616 -0.001689
# 6 -0.009128 -0.001100 -0.002433 0.002565 -0.001689 0.021057
#
#
# Mechanical properties :
#
#
# Convention : Reuss Voigt Hill
#
# Bulk Modulus (GPa) = 38.61207 70.58327 54.59767
# Shear Modulus (GPa) = 30.02125 51.79772 40.90948
#
# Velocity S-wave (km/s) = 3.27769 4.30536 3.82619
# Velocity P-wave (km/s) = 5.30490 7.06919 6.24962
#
# Compressibility (1/GPa) = 0.02589864
#
# Stress axis : x y z
#
# Youngs Moduli (GPa) = 28.91150 74.08818 110.84275
#
# Poissons Ratio (x) = 0.96811 0.19712
# Poissons Ratio (y) = 0.37779 0.08414
# Poissons Ratio (z) = 0.05142 0.05624
#
# Static dielectric constant tensor:
#      x y z
#    x 2.254500 -0.049700 0.052210 
#    y -0.049700 1.881620 -0.007850 
#    z 0.052210 -0.007850 2.212790 
# 
# From -- ./inp_files/104421.got.cif
#   From: 2010.05.17/outbox.cif.g08.bks.cpg/sg2_53_cif.got.tgz:104421.got - 2010.06.03 11:33:40.
