data_PCOD9003587
_publ_section_title
;
Structure prediction by ZEFSAII (Michael W. Deem and Ramdas Pophale) SiO2 
 PCOD9003587
Probable space group: P -1
;
_chemical_formula_sum "Si O2"
_cell_formula_units_Z 12
_cell_length_a 18.960430
_cell_length_b 9.366933
_cell_length_c 8.760526
_cell_angle_alpha 49.372217
_cell_angle_beta 37.984772
_cell_angle_gamma 33.771314
_cell_volume 532.255782
_symmetry_space_group_name_H-M "P -1"
_symmetry_group_IT_number 2
_symmetry_cell_setting 'triclinic'
loop_
_space_group_symop_operation_xyz
x,y,z
-x,-y,-z
loop_
_atom_site_type_symbol
_atom_site_label
_atom_site_fract_x
_atom_site_fract_y
_atom_site_fract_z
Si Si1 0.711144 0.590781 0.433823
Si Si2 0.075422 0.757501 0.931900
Si Si3 0.802041 0.753113 0.750184
Si Si4 0.872015 0.467691 0.551780
Si Si5 0.871214 0.065703 0.798990
Si Si6 0.610480 0.089422 0.093949
O O1 0.780518 0.368745 0.344787
O O2 0.834932 0.522105 0.398398
O O3 0.657636 0.838232 0.266345
O O4 0.563584 0.674386 0.718843
O O5 0.136530 0.512631 0.095428
O O6 0.944227 0.863349 0.953163
O O7 0.000000 0.000000 0.000000
O O8 0.792748 0.720007 0.610521
O O9 0.946513 0.724392 0.573461
O O10 0.645397 0.007706 0.914304
O O11 0.812976 0.325545 0.792114
O O12 0.000000 0.000000 0.500000
O O13 0.733787 0.105572 0.927814
#
# Coordination Sequence:
#
# PCOD9003587 Si02
#       6
#     2   2   2   2   2   2
#     4  10  22  40  60  84 120 156 193 232 296 350
#     4  11  21  37  60  85 115 151 194 242 283 339
#     4  10  21  37  61  86 117 152 195 238 285 344
#     4  11  21  36  60  91 114 150 197 242 285 338
#     4  12  21  37  61  90 115 150 198 242 287 339
#     4  10  22  40  61  83 119 159 189 235 294 349
#
# _framework density 22.545549999999999
#
# number of rings (size 3 to 8) (size 9 to 14) (size 15 to 20)
#    0.000    1.333    5.000    1.000    0.000    4.000 
#    0.000    0.833    3.667    0.000    0.000    0.000 
#    0.000    0.000    0.000    0.000    0.000    0.000 
#
# Total GULP energy -66903.975496 kJ/mol
# GULP energy per Si atom -5575.331291 kJ/mol
# Density = 2.249424 g / cm^3
# Si number density = 22.545550 Si / 1000 Ang^3
#
#
#
# Elastic Constant Matrix: (Units=GPa)
#
#
# Indices 1 2 3 4 5 6 
#
# 1 100.9322 28.0497 47.8299 26.3879 15.2840 32.5342
# 2 28.0497 71.5832 38.4734 28.7405 3.9705 22.2927
# 3 47.8299 38.4734 106.8435 37.9303 1.9859 33.4270
# 4 26.3879 28.7405 37.9303 36.9056 9.5699 20.5791
# 5 15.2840 3.9705 1.9859 9.5699 35.3379 -4.4256
# 6 32.5342 22.2927 33.4270 20.5791 -4.4256 37.2558
#
#
#
# Elastic Compliance Matrix: (Units=1/GPa)
#
#
# Indices 1 2 3 4 5 6 
#
# 1 0.017071 -0.000882 -0.003762 0.002202 -0.009338 -0.013330
# 2 -0.000882 0.021284 -0.001813 -0.012521 0.001070 -0.003295
# 3 -0.003762 -0.001813 0.017236 -0.012511 0.003783 -0.003734
# 4 0.002202 -0.012521 -0.012511 0.065021 -0.019130 -0.021394
# 5 -0.009338 0.001070 0.003783 -0.019130 0.039614 0.019393
# 6 -0.013330 -0.003295 -0.003734 -0.021394 0.019393 0.057925
#
#
# Mechanical properties :
#
#
# Convention : Reuss Voigt Hill
#
# Bulk Modulus (GPa) = 23.43266 56.45165 39.94215
# Shear Modulus (GPa) = 20.38396 32.90025 26.64211
#
# Velocity S-wave (km/s) = 3.01013 3.82420 3.44132
# Velocity P-wave (km/s) = 4.74312 6.67777 5.79179
#
# Compressibility (1/GPa) = 0.04267548
#
# Stress axis : x y z
#
# Youngs Moduli (GPa) = 58.58028 46.98403 58.01749
#
# Poissons Ratio (x) = 0.04144 0.21827
# Poissons Ratio (y) = 0.05167 0.10520
# Poissons Ratio (z) = 0.22039 0.08520
#
# Static dielectric constant tensor:
#      x y z
#    x 1.826060 0.017300 0.043000 
#    y 0.017300 1.932320 0.023480 
#    z 0.043000 0.023480 1.913740 
# 
# From -- ./inp_files/144866.got.cif
#   From: 2010.05.17/outbox.cif.g08.bks.cpg/sg2_73_cif.got.tgz:144866.got - 2010.06.03 11:33:40.
