data_PCOD9003197
_publ_section_title
;
Structure prediction by ZEFSAII (Michael W. Deem and Ramdas Pophale) SiO2 
 PCOD9003197
Probable space group: P -1
;
_chemical_formula_sum "Si O2"
_cell_formula_units_Z 14
_cell_length_a 8.335640
_cell_length_b 6.233714
_cell_length_c 16.951107
_cell_angle_alpha 51.382160
_cell_angle_beta 127.396649
_cell_angle_gamma 121.889277
_cell_volume 530.706801
_symmetry_space_group_name_H-M "P -1"
_symmetry_group_IT_number 2
_symmetry_cell_setting 'triclinic'
loop_
_space_group_symop_operation_xyz
x,y,z
-x,-y,-z
loop_
_atom_site_type_symbol
_atom_site_label
_atom_site_fract_x
_atom_site_fract_y
_atom_site_fract_z
Si Si1 0.687448 0.326981 0.421953
Si Si2 0.123752 0.863170 0.811972
Si Si3 0.655114 0.666004 0.573769
Si Si4 0.486357 0.149781 0.158850
Si Si5 0.963768 0.397187 0.642795
Si Si6 0.653550 0.758727 0.081402
Si Si7 0.936241 0.236844 0.871300
O O1 0.463582 0.377290 0.367351
O O2 0.799984 0.465608 0.345346
O O3 0.828824 0.437853 0.515248
O O4 0.678805 0.996053 0.488372
O O5 0.284304 0.903949 0.775540
O O6 0.993722 0.542878 0.859367
O O7 0.963545 0.063599 0.715325
O O8 0.289008 0.969500 0.908320
O O9 0.500000 0.500000 0.500000
O O10 0.862813 0.559711 0.642824
O O11 0.508099 0.458847 0.132873
O O12 0.300308 0.904214 0.193404
O O13 0.408397 0.190757 0.037425
O O14 0.888039 0.714585 0.154589
O O15 0.000000 0.000000 0.000000
#
# Coordination Sequence:
#
# PCOD9003197 Si02
#       7
#     2   2   2   2   2   2   2
#     4   9  19  39  64  81 118 167 191 241 306 359
#     4  11  22  36  56  91 121 150 203 257 295 352
#     4   9  18  36  61  89 110 156 206 234 295 378
#     4   9  19  37  56  81 114 155 199 238 305 362
#     4  10  21  37  58  89 122 153 201 250 300 358
#     4   9  19  36  59  81 113 155 198 249 296 358
#     4   9  20  38  59  82 115 159 202 242 302 363
#
# _framework density 26.379912000000001
#
# number of rings (size 3 to 8) (size 9 to 14) (size 15 to 20)
#    0.000    2.571    0.000    1.714    0.000    5.714 
#   10.286    0.000    0.000    0.000    0.000    0.000 
#    0.000    0.000    0.000    0.000    0.000    0.000 
#
# Total GULP energy -78123.756213 kJ/mol
# GULP energy per Si atom -5580.268301 kJ/mol
# Density = 2.631987 g / cm^3
# Si number density = 26.379912 Si / 1000 Ang^3
#
#
#
# Elastic Constant Matrix: (Units=GPa)
#
#
# Indices 1 2 3 4 5 6 
#
# 1 183.7136 83.7962 43.8638 -46.7867 15.7705 -0.7762
# 2 83.7962 145.2514 27.4690 -27.2968 -14.7738 20.3778
# 3 43.8638 27.4690 59.6427 -21.0575 15.9213 -2.1135
# 4 -46.7867 -27.2968 -21.0575 54.7441 2.6350 4.6873
# 5 15.7705 -14.7738 15.9213 2.6350 35.8649 -8.8567
# 6 -0.7762 20.3778 -2.1135 4.6873 -8.8567 39.7512
#
#
#
# Elastic Compliance Matrix: (Units=1/GPa)
#
#
# Indices 1 2 3 4 5 6 
#
# 1 0.010193 -0.005293 -0.001288 0.005818 -0.006334 0.000746
# 2 -0.005293 0.012180 -0.003987 0.000046 0.007926 -0.004799
# 3 -0.001288 -0.003987 0.025669 0.007453 -0.013122 -0.000419
# 4 0.005818 0.000046 0.007453 0.026964 -0.008989 -0.004696
# 5 -0.006334 0.007926 -0.013122 -0.008989 0.041772 0.005482
# 6 0.000746 -0.004799 -0.000419 -0.004696 0.005482 0.029384
#
#
# Mechanical properties :
#
#
# Convention : Reuss Voigt Hill
#
# Bulk Modulus (GPa) = 37.16353 77.65174 57.40764
# Shear Modulus (GPa) = 28.36631 41.63730 35.00180
#
# Velocity S-wave (km/s) = 3.28273 3.97718 3.64653
# Velocity P-wave (km/s) = 5.33731 7.11270 6.28798
#
# Compressibility (1/GPa) = 0.02690810
#
# Stress axis : x y z
#
# Youngs Moduli (GPa) = 98.10212 82.10237 38.95756
#
# Poissons Ratio (x) = 0.43454 0.05016
# Poissons Ratio (y) = 0.51922 0.15532
# Poissons Ratio (z) = 0.12632 0.32733
#
# Static dielectric constant tensor:
#      x y z
#    x 2.170450 -0.041400 -0.010010 
#    y -0.041400 2.150830 0.079290 
#    z -0.010010 0.079290 2.304140 
# 
# From -- ./inp_files/585502.got.cif
#   From: 2010.05.17/outbox.cif.g08.bks.cpg/sg2_293_cif.got.tgz:585502.got - 2010.06.03 11:33:40.
