data_PCOD9003014
_publ_section_title
;
Structure prediction by ZEFSAII (Michael W. Deem and Ramdas Pophale) SiO2 
 PCOD9003014
Probable space group: P -1
;
_chemical_formula_sum "Si O2"
_cell_formula_units_Z 14
_cell_length_a 12.242911
_cell_length_b 4.995111
_cell_length_c 11.515736
_cell_angle_alpha 74.841860
_cell_angle_beta 112.750379
_cell_angle_gamma 94.279319
_cell_volume 626.576570
_symmetry_space_group_name_H-M "P -1"
_symmetry_group_IT_number 2
_symmetry_cell_setting 'triclinic'
loop_
_space_group_symop_operation_xyz
x,y,z
-x,-y,-z
loop_
_atom_site_type_symbol
_atom_site_label
_atom_site_fract_x
_atom_site_fract_y
_atom_site_fract_z
Si Si1 0.857885 0.493480 0.782696
Si Si2 0.976648 0.612711 0.332939
Si Si3 0.127833 0.099908 0.442687
Si Si4 0.475464 0.371006 0.878942
Si Si5 0.252475 0.671903 0.714486
Si Si6 0.863937 0.921631 0.935281
Si Si7 0.697363 0.086120 0.049116
O O1 0.801771 0.710563 0.641344
O O2 0.987937 0.449100 0.781008
O O3 0.810987 0.186575 0.810077
O O4 0.141509 0.355855 0.110748
O O5 0.839235 0.577598 0.304527
O O6 0.042752 0.892553 0.360807
O O7 0.044164 0.334315 0.444369
O O8 0.205143 0.916297 0.583517
O O9 0.387962 0.582223 0.751276
O O10 0.390841 0.117197 0.898263
O O11 0.500000 0.500000 0.000000
O O12 0.606820 0.269849 0.909344
O O13 0.246570 0.752027 0.839180
O O14 0.791724 0.931878 0.023722
O O15 0.000000 0.000000 0.000000
#
# Coordination Sequence:
#
# PCOD9003014 Si02
#       7
#     2   2   2   2   2   2   2
#     4  10  22  39  56  87 125 162 201 243 305 365
#     4  10  21  37  56  94 129 161 202 248 311 368
#     4  10  22  38  59  91 134 160 202 254 310 373
#     4   9  22  41  59  91 118 164 211 259 313 354
#     4  11  22  35  65  89 121 165 206 256 319 367
#     4  12  24  39  63  90 124 167 206 247 310 375
#     4  10  24  40  62  91 126 159 212 263 305 366
#
# _framework density 22.343636
#
# number of rings (size 3 to 8) (size 9 to 14) (size 15 to 20)
#    0.857    0.857    1.429    2.143   10.000    0.000 
#    0.000    0.000    0.000    1.714    0.000    0.000 
#    0.000    0.000    0.000    0.000    0.000    0.000 
#
# Total GULP energy -78095.118259 kJ/mol
# GULP energy per Si atom -5578.222733 kJ/mol
# Density = 2.229278 g / cm^3
# Si number density = 22.343636 Si / 1000 Ang^3
#
#
#
# Elastic Constant Matrix: (Units=GPa)
#
#
# Indices 1 2 3 4 5 6 
#
# 1 67.4749 10.7222 34.9711 3.1505 10.3102 -24.2817
# 2 10.7222 119.1137 31.8318 4.8811 13.8702 -7.3227
# 3 34.9711 31.8318 99.6834 -15.3803 16.6627 -7.9556
# 4 3.1505 4.8811 -15.3803 49.2046 -1.7838 -0.6609
# 5 10.3102 13.8702 16.6627 -1.7838 34.1539 -6.7089
# 6 -24.2817 -7.3227 -7.9556 -0.6609 -6.7089 34.5124
#
#
#
# Elastic Compliance Matrix: (Units=1/GPa)
#
#
# Indices 1 2 3 4 5 6 
#
# 1 0.024922 0.001247 -0.008355 -0.004162 -0.001111 0.015577
# 2 0.001247 0.009642 -0.003302 -0.002136 -0.002470 0.001641
# 3 -0.008355 -0.003302 0.015227 0.005426 -0.004018 -0.003746
# 4 -0.004162 -0.002136 0.005426 0.022488 0.000330 -0.001636
# 5 -0.001111 -0.002470 -0.004018 0.000330 0.033435 0.004274
# 6 0.015577 0.001641 -0.003746 -0.001636 0.004274 0.040219
#
#
# Mechanical properties :
#
#
# Convention : Reuss Voigt Hill
#
# Bulk Modulus (GPa) = 34.51677 49.03579 41.77628
# Shear Modulus (GPa) = 28.34327 37.49063 32.91695
#
# Velocity S-wave (km/s) = 3.56549 4.10068 3.84241
# Velocity P-wave (km/s) = 5.69491 6.66442 6.19865
#
# Compressibility (1/GPa) = 0.02897143
#
# Stress axis : x y z
#
# Youngs Moduli (GPa) = 40.12510 103.71776 65.67249
#
# Poissons Ratio (x) = -0.12932 0.54866
# Poissons Ratio (y) = -0.05003 0.21685
# Poissons Ratio (z) = 0.33523 0.34247
#
# Static dielectric constant tensor:
#      x y z
#    x 1.941960 0.119330 0.092840 
#    y 0.119330 2.161940 0.092620 
#    z 0.092840 0.092620 2.123700 
# 
# From -- ./inp_files/410340.got.cif
#   From: 2010.05.17/outbox.cif.g08.bks.cpg/sg2_206_cif.got.tgz:410340.got - 2010.06.03 11:33:40.
