data_PCOD9003724
_publ_section_title
;
Structure prediction by ZEFSAII (Michael W. Deem and Ramdas Pophale) SiO2 
 PCOD9003724
Probable space group: P -1
;
_chemical_formula_sum "Si O2"
_cell_formula_units_Z 14
_cell_length_a 24.441456
_cell_length_b 12.830074
_cell_length_c 12.660983
_cell_angle_alpha 23.649940
_cell_angle_beta 158.282696
_cell_angle_gamma 154.766085
_cell_volume 549.602147
_symmetry_space_group_name_H-M "P -1"
_symmetry_group_IT_number 2
_symmetry_cell_setting 'triclinic'
loop_
_space_group_symop_operation_xyz
x,y,z
-x,-y,-z
loop_
_atom_site_type_symbol
_atom_site_label
_atom_site_fract_x
_atom_site_fract_y
_atom_site_fract_z
Si Si1 0.949901 0.969674 0.632257
Si Si2 0.854314 0.739515 0.891540
Si Si3 0.903138 0.453086 0.760267
Si Si4 0.809235 0.167349 0.554767
Si Si5 0.344945 0.458195 0.631284
Si Si6 0.512438 0.970037 0.769586
Si Si7 0.654119 0.186061 0.042002
O O1 0.807545 0.747377 0.517266
O O2 0.008479 0.276136 0.403890
O O3 0.087188 0.834691 0.998144
O O4 0.895825 0.962173 0.663028
O O5 0.691740 0.504988 0.780599
O O6 0.822287 0.870599 0.820776
O O7 0.012432 0.664182 0.246310
O O8 0.733470 0.458963 0.483656
O O9 0.000000 0.500000 0.000000
O O10 0.666795 0.134652 0.409256
O O11 0.769957 0.263693 0.280998
O O12 0.439813 0.741924 0.476002
O O13 0.448678 0.264841 0.007613
O O14 0.626260 0.039641 0.013683
O O15 0.500000 0.000000 0.000000
#
# Coordination Sequence:
#
# PCOD9003724 Si02
#       7
#     2   2   2   2   2   2   2
#     4  11  21  37  64  94 128 165 208 263 322 381
#     4  11  23  42  62  88 132 170 217 256 321 379
#     4  10  21  37  61  97 129 158 208 267 325 377
#     4  10  25  40  60  90 125 178 213 259 309 387
#     4  11  20  38  62  91 128 158 206 266 325 368
#     4  11  23  37  64  94 127 165 210 262 318 374
#     4  10  22  38  62  90 126 166 212 267 311 373
#
# _framework density 25.472973
#
# number of rings (size 3 to 8) (size 9 to 14) (size 15 to 20)
#    0.000    1.429    1.429    5.571    6.000    1.143 
#    0.000    0.000    0.000    5.143    0.000    0.000 
#    0.000    0.000    0.000    0.000    0.000    0.000 
#
# Total GULP energy -78145.380763 kJ/mol
# GULP energy per Si atom -5581.812912 kJ/mol
# Density = 2.541500 g / cm^3
# Si number density = 25.472973 Si / 1000 Ang^3
#
#
#
# Elastic Constant Matrix: (Units=GPa)
#
#
# Indices 1 2 3 4 5 6 
#
# 1 63.2982 35.2872 18.4454 -6.8738 25.0410 19.1753
# 2 35.2872 109.8669 62.0883 -8.5474 6.6401 34.8434
# 3 18.4454 62.0883 86.1599 -14.4822 16.3378 3.3625
# 4 -6.8738 -8.5474 -14.4822 43.4569 -3.4461 -4.7134
# 5 25.0410 6.6401 16.3378 -3.4461 62.0407 0.0086
# 6 19.1753 34.8434 3.3625 -4.7134 0.0086 38.9208
#
#
#
# Elastic Compliance Matrix: (Units=1/GPa)
#
#
# Indices 1 2 3 4 5 6 
#
# 1 0.024707 -0.005663 0.001161 0.001662 -0.009579 -0.007000
# 2 -0.005663 0.028342 -0.019844 -0.003911 0.004264 -0.021343
# 3 0.001161 -0.019844 0.027130 0.006613 -0.005124 0.015652
# 4 0.001662 -0.003911 0.006613 0.025222 -0.000593 0.005166
# 5 -0.009579 0.004264 -0.005124 -0.000593 0.020844 0.001268
# 6 -0.007000 -0.021343 0.015652 0.005166 0.001268 0.047522
#
#
# Mechanical properties :
#
#
# Convention : Reuss Voigt Hill
#
# Bulk Modulus (GPa) = 31.76059 54.55187 43.15623
# Shear Modulus (GPa) = 21.46309 38.45063 29.95686
#
# Velocity S-wave (km/s) = 2.90588 3.88940 3.43304
# Velocity P-wave (km/s) = 4.87383 6.45229 5.71779
#
# Compressibility (1/GPa) = 0.03148556
#
# Stress axis : x y z
#
# Youngs Moduli (GPa) = 40.47356 35.28306 36.85892
#
# Poissons Ratio (x) = 0.19982 -0.04278
# Poissons Ratio (y) = 0.22922 0.73145
# Poissons Ratio (z) = -0.04697 0.70017
#
# Static dielectric constant tensor:
#      x y z
#    x 1.993660 -0.028380 -0.005010 
#    y -0.028380 1.969640 0.135940 
#    z -0.005010 0.135940 1.931560 
# 
# From -- ./inp_files/135490.got.cif
#   From: 2010.05.17/outbox.cif.g08.bks.cpg/sg2_68_cif.got.tgz:135490.got - 2010.06.03 11:33:40.
