data_PCOD9003599
_publ_section_title
;
Structure prediction by ZEFSAII (Michael W. Deem and Ramdas Pophale) SiO2 
 PCOD9003599
Probable space group: P -1
;
_chemical_formula_sum "Si O2"
_cell_formula_units_Z 14
_cell_length_a 9.414862
_cell_length_b 9.357902
_cell_length_c 14.501888
_cell_angle_alpha 132.643368
_cell_angle_beta 88.402439
_cell_angle_gamma 120.238651
_cell_volume 706.438795
_symmetry_space_group_name_H-M "P -1"
_symmetry_group_IT_number 2
_symmetry_cell_setting 'triclinic'
loop_
_space_group_symop_operation_xyz
x,y,z
-x,-y,-z
loop_
_atom_site_type_symbol
_atom_site_label
_atom_site_fract_x
_atom_site_fract_y
_atom_site_fract_z
Si Si1 0.555364 0.370349 0.703758
Si Si2 0.801554 0.228564 0.857279
Si Si3 0.867670 0.389434 0.542099
Si Si4 0.764057 0.137283 0.609531
Si Si5 0.429919 0.122793 0.778449
Si Si6 0.818035 0.967058 0.908860
Si Si7 0.888927 0.067163 0.150334
O O1 0.674212 0.275153 0.666728
O O2 0.470060 0.319517 0.785636
O O3 0.673859 0.662961 0.800849
O O4 0.389587 0.163081 0.545737
O O5 0.826751 0.169212 0.727014
O O6 0.627843 0.223481 0.856672
O O7 0.754744 0.029075 0.848874
O O8 0.000000 0.500000 0.000000
O O9 0.902655 0.276525 0.578965
O O10 0.000000 0.500000 0.500000
O O11 0.927921 0.653805 0.693075
O O12 0.667084 0.142014 0.395111
O O13 0.282083 0.058988 0.830556
O O14 0.028757 0.073798 0.929536
O O15 0.836261 0.096907 0.062373
#
# Coordination Sequence:
#
# PCOD9003599 Si02
#       7
#     2   2   2   2   2   2   2
#     4   9  18  35  61  84 109 154 200 230 283 347
#     4  11  24  38  56  87 119 155 191 240 299 341
#     4   9  16  34  64  87 107 150 202 234 272 348
#     4   9  17  35  58  82 115 153 194 233 282 351
#     4   9  21  39  63  84 112 157 197 235 289 346
#     4  11  23  36  59  91 121 149 192 244 292 339
#     4  10  21  37  61  88 117 150 198 240 281 348
#
# _framework density 19.817712
#
# number of rings (size 3 to 8) (size 9 to 14) (size 15 to 20)
#    0.000    2.286    1.429    1.714    6.000    1.714 
#    0.000    0.000    0.000    2.571    0.000    0.000 
#    0.000    0.000    0.000    0.000    0.000    0.000 
#
# Total GULP energy -77940.357977 kJ/mol
# GULP energy per Si atom -5567.168427 kJ/mol
# Density = 1.977261 g / cm^3
# Si number density = 19.817712 Si / 1000 Ang^3
#
#
#
# Elastic Constant Matrix: (Units=GPa)
#
#
# Indices 1 2 3 4 5 6 
#
# 1 44.4311 48.1655 33.7735 -9.2377 10.4862 17.1009
# 2 48.1655 150.7440 67.0522 -21.8556 5.1237 17.8181
# 3 33.7735 67.0522 119.7305 -18.8355 12.6843 3.6696
# 4 -9.2377 -21.8556 -18.8355 47.9963 3.8863 -1.0241
# 5 10.4862 5.1237 12.6843 3.8863 24.5333 -6.3942
# 6 17.1009 17.8181 3.6696 -1.0241 -6.3942 30.0510
#
#
#
# Elastic Compliance Matrix: (Units=1/GPa)
#
#
# Indices 1 2 3 4 5 6 
#
# 1 0.059236 -0.010654 -0.005642 0.006039 -0.029686 -0.032814
# 2 -0.010654 0.011746 -0.003764 0.001513 0.003923 0.000445
# 3 -0.005642 -0.003764 0.012637 0.002462 -0.002846 0.003378
# 4 0.006039 0.001513 0.002462 0.024300 -0.009540 -0.005836
# 5 -0.029686 0.003923 -0.002846 -0.009540 0.062903 0.027974
# 6 -0.032814 0.000445 0.003378 -0.005836 0.027974 0.057027
#
#
# Mechanical properties :
#
#
# Convention : Reuss Voigt Hill
#
# Bulk Modulus (GPa) = 22.98937 68.09867 45.54402
# Shear Modulus (GPa) = 17.70109 31.57709 24.63909
#
# Velocity S-wave (km/s) = 2.99188 3.99604 3.52985
# Velocity P-wave (km/s) = 4.85394 7.46514 6.29639
#
# Compressibility (1/GPa) = 0.04349836
#
# Stress axis : x y z
#
# Youngs Moduli (GPa) = 16.88154 85.13841 79.13536
#
# Poissons Ratio (x) = 0.90709 0.44648
# Poissons Ratio (y) = 0.17986 0.29784
# Poissons Ratio (z) = 0.09525 0.32044
#
# Static dielectric constant tensor:
#      x y z
#    x 1.711840 0.047030 -0.028520 
#    y 0.047030 1.768950 -0.020620 
#    z -0.028520 -0.020620 1.785940 
# 
# From -- ./inp_files/419747.got.cif
#   From: 2010.05.17/outbox.cif.g08.bks.cpg/sg2_210_cif.got.tgz:419747.got - 2010.06.03 11:33:40.
