data_PCOD9003853
_publ_section_title
;
Structure prediction by ZEFSAII (Michael W. Deem and Ramdas Pophale) SiO2 
 PCOD9003853
Probable space group: P -1
;
_chemical_formula_sum "Si O2"
_cell_formula_units_Z 16
_cell_length_a 9.302541
_cell_length_b 12.714359
_cell_length_c 18.129957
_cell_angle_alpha 154.501477
_cell_angle_beta 77.005662
_cell_angle_gamma 88.651240
_cell_volume 757.080563
_symmetry_space_group_name_H-M "P -1"
_symmetry_group_IT_number 2
_symmetry_cell_setting 'triclinic'
loop_
_space_group_symop_operation_xyz
x,y,z
-x,-y,-z
loop_
_atom_site_type_symbol
_atom_site_label
_atom_site_fract_x
_atom_site_fract_y
_atom_site_fract_z
Si Si1 0.115557 0.404232 0.351616
Si Si2 0.632592 0.449020 0.542370
Si Si3 0.556219 0.826493 0.647193
Si Si4 0.150850 0.013398 0.452510
Si Si5 0.123696 0.523646 0.714253
Si Si6 0.649878 0.276959 0.896339
Si Si7 0.670159 0.240069 0.113728
Si Si8 0.512249 0.701121 0.297275
O O1 0.205387 0.590436 0.455176
O O2 0.000000 0.500000 0.500000
O O3 0.005906 0.424259 0.304722
O O4 0.272362 0.066354 0.122145
O O5 0.636467 0.594816 0.557493
O O6 0.618085 0.171846 0.352209
O O7 0.450376 0.687323 0.754314
O O8 0.681374 0.694047 0.478236
O O9 0.572457 0.100526 0.832422
O O10 0.188699 0.917288 0.300557
O O11 0.327956 0.805407 0.345834
O O12 0.101103 0.344536 0.666902
O O13 0.000000 0.000000 0.500000
O O14 0.148662 0.774941 0.899691
O O15 0.500000 0.500000 0.000000
O O16 0.664961 0.473673 0.079886
O O17 0.552557 0.512012 0.245900
O O18 0.500000 0.000000 0.500000
#
# Coordination Sequence:
#
# PCOD9003853 Si02
#       8
#     2   2   2   2   2   2   2   2
#     4  12  24  40  62  94 130 169 209 264 324 378
#     4  10  21  37  62  94 124 163 214 262 306 382
#     4   9  18  39  64  88 125 166 210 257 311 386
#     4  10  22  42  65  95 125 164 216 273 327 372
#     4  10  21  41  64  87 131 171 205 258 329 379
#     4   9  20  38  65  91 122 171 214 257 322 381
#     4  11  24  41  64  93 129 170 219 258 317 391
#     4  11  22  42  69  91 124 174 223 261 310 389
#
# _framework density 21.133814000000001
#
# number of rings (size 3 to 8) (size 9 to 14) (size 15 to 20)
#    0.000    1.750    2.500    1.500    5.250    0.000 
#    2.250    0.625    0.000    0.000    0.000    0.000 
#    0.000    0.000    0.000    0.000    0.000    0.000 
#
# Total GULP energy -89158.333717 kJ/mol
# GULP energy per Si atom -5572.395857 kJ/mol
# Density = 2.108571 g / cm^3
# Si number density = 21.133814 Si / 1000 Ang^3
#
#
#
# Elastic Constant Matrix: (Units=GPa)
#
#
# Indices 1 2 3 4 5 6 
#
# 1 127.5005 35.4844 17.9224 -1.8152 18.9437 6.3796
# 2 35.4844 87.0022 13.2789 7.1309 5.4352 6.2217
# 3 17.9224 13.2789 72.6289 -5.8392 15.4967 9.4692
# 4 -1.8152 7.1309 -5.8392 30.0745 -3.3431 -1.0398
# 5 18.9437 5.4352 15.4967 -3.3431 24.3245 0.7498
# 6 6.3796 6.2217 9.4692 -1.0398 0.7498 42.0122
#
#
#
# Elastic Compliance Matrix: (Units=1/GPa)
#
#
# Indices 1 2 3 4 5 6 
#
# 1 0.009911 -0.003589 -0.000212 0.000639 -0.006670 -0.000791
# 2 -0.003589 0.013606 -0.001852 -0.003792 0.000450 -0.001154
# 3 -0.000212 -0.001852 0.016859 0.002507 -0.009717 -0.003258
# 4 0.000639 -0.003792 0.002507 0.035095 0.003554 0.000705
# 5 -0.006670 0.000450 -0.009717 0.003554 0.052813 0.002282
# 6 -0.000791 -0.001154 -0.003258 0.000705 0.002282 0.024805
#
#
# Mechanical properties :
#
#
# Convention : Reuss Voigt Hill
#
# Bulk Modulus (GPa) = 34.40026 46.72257 40.56141
# Shear Modulus (GPa) = 28.72151 33.97864 31.35008
#
# Velocity S-wave (km/s) = 3.69050 4.01407 3.85568
# Velocity P-wave (km/s) = 5.87132 6.60603 6.24948
#
# Compressibility (1/GPa) = 0.02906955
#
# Stress axis : x y z
#
# Youngs Moduli (GPa) = 100.89329 73.49783 59.31511
#
# Poissons Ratio (x) = 0.26380 0.01257
# Poissons Ratio (y) = 0.36213 0.10986
# Poissons Ratio (z) = 0.02139 0.13613
#
# Static dielectric constant tensor:
#      x y z
#    x 2.072680 0.285270 0.209590 
#    y 0.285270 2.177340 0.152610 
#    z 0.209590 0.152610 1.985260 
# 
# From -- ./inp_files/590536.got.cif
#   From: 2010.05.17/outbox.cif.g08.bks.cpg/sg2_296_cif.got.tgz:590536.got - 2010.06.03 11:33:40.
