data_PCOD9003076
_publ_section_title
;
Structure prediction by ZEFSAII (Michael W. Deem and Ramdas Pophale) SiO2 
 PCOD9003076
Probable space group: P -1
;
_chemical_formula_sum "Si O2"
_cell_formula_units_Z 16
_cell_length_a 7.496763
_cell_length_b 11.250427
_cell_length_c 15.617921
_cell_angle_alpha 34.230333
_cell_angle_beta 121.657773
_cell_angle_gamma 108.792777
_cell_volume 613.288991
_symmetry_space_group_name_H-M "P -1"
_symmetry_group_IT_number 2
_symmetry_cell_setting 'triclinic'
loop_
_space_group_symop_operation_xyz
x,y,z
-x,-y,-z
loop_
_atom_site_type_symbol
_atom_site_label
_atom_site_fract_x
_atom_site_fract_y
_atom_site_fract_z
Si Si1 0.013550 0.496425 0.605613
Si Si2 0.257948 0.478585 0.333650
Si Si3 0.383020 0.319660 0.164174
Si Si4 0.540803 0.077257 0.700434
Si Si5 0.261444 0.667126 0.050479
Si Si6 0.939649 0.974940 0.337185
Si Si7 0.376336 0.107599 0.990831
Si Si8 0.860504 0.314945 0.249184
O O1 0.165165 0.273640 0.807736
O O2 0.000000 0.500000 0.500000
O O3 0.789857 0.482772 0.601761
O O4 0.068340 0.730625 0.499045
O O5 0.481641 0.300146 0.499119
O O6 0.259364 0.661802 0.155350
O O7 0.040252 0.402393 0.294042
O O8 0.274622 0.423506 0.163870
O O9 0.642870 0.284186 0.259082
O O10 0.361466 0.106232 0.234930
O O11 0.258525 0.510302 0.955667
O O12 0.300378 0.052333 0.682111
O O13 0.651794 0.035069 0.847658
O O14 0.479827 0.727664 0.038670
O O15 0.085762 0.860450 0.847575
O O16 0.990062 0.106197 0.353242
O O17 0.500000 0.000000 0.000000
#
# Coordination Sequence:
#
# PCOD9003076 Si02
#       8
#     2   2   2   2   2   2   2   2
#     4  11  22  40  64  84 105 147 199 235 280 346
#     4  11  22  35  57  89 120 148 188 239 287 332
#     4   9  17  33  57  84 116 157 197 226 275 339
#     4   9  19  35  55  83 117 154 193 226 271 341
#     4  10  21  37  57  87 121 148 184 238 290 334
#     4   8  18  35  56  83 115 149 193 230 270 339
#     4  11  22  42  65  80 108 152 194 236 283 341
#     4   9  17  33  57  83 115 156 194 231 274 336
#
# _framework density 26.088840000000001
#
# number of rings (size 3 to 8) (size 9 to 14) (size 15 to 20)
#    0.000    2.250    0.000    6.000    0.000    8.000 
#    0.000    7.500    0.000    0.000    0.000    0.000 
#    0.000    0.000    0.000    0.000    0.000    0.000 
#
# Total GULP energy -89259.365412 kJ/mol
# GULP energy per Si atom -5578.710338 kJ/mol
# Density = 2.602946 g / cm^3
# Si number density = 26.088840 Si / 1000 Ang^3
#
#
#
# Elastic Constant Matrix: (Units=GPa)
#
#
# Indices 1 2 3 4 5 6 
#
# 1 62.2334 18.4573 26.5598 -8.6170 -8.1606 -0.3758
# 2 18.4573 80.5955 31.7701 -9.3245 2.5747 -11.5986
# 3 26.5598 31.7701 150.3313 2.8516 -16.8721 -6.1368
# 4 -8.6170 -9.3245 2.8516 40.4621 -13.6524 11.6878
# 5 -8.1606 2.5747 -16.8721 -13.6524 37.7589 3.8323
# 6 -0.3758 -11.5986 -6.1368 11.6878 3.8323 25.5306
#
#
#
# Elastic Compliance Matrix: (Units=1/GPa)
#
#
# Indices 1 2 3 4 5 6 
#
# 1 0.020257 -0.003997 -0.002359 0.007935 0.007155 -0.006791
# 2 -0.003997 0.015497 -0.002721 -0.000531 -0.004057 0.007179
# 3 -0.002359 -0.002721 0.008008 -0.000916 0.002858 0.000644
# 4 0.007935 -0.000531 -0.000916 0.037998 0.017142 -0.020313
# 5 0.007155 -0.004057 0.002858 0.017142 0.037252 -0.014490
# 6 -0.006791 0.007179 0.000644 -0.020313 -0.014490 0.053960
#
#
# Mechanical properties :
#
#
# Convention : Reuss Voigt Hill
#
# Bulk Modulus (GPa) = 39.05054 49.63718 44.34386
# Shear Modulus (GPa) = 25.04236 35.17519 30.10878
#
# Velocity S-wave (km/s) = 3.10157 3.67588 3.40087
# Velocity P-wave (km/s) = 5.27514 6.08964 5.69696
#
# Compressibility (1/GPa) = 0.02560784
#
# Stress axis : x y z
#
# Youngs Moduli (GPa) = 49.36686 64.52866 124.87245
#
# Poissons Ratio (x) = 0.25792 0.29456
# Poissons Ratio (y) = 0.19732 0.33979
# Poissons Ratio (z) = 0.11645 0.17559
#
# Static dielectric constant tensor:
#      x y z
#    x 2.209890 -0.031460 0.027130 
#    y -0.031460 2.207180 -0.033660 
#    z 0.027130 -0.033660 2.091610 
# 
# From -- ./inp_files/498790.got.cif
#   From: 2010.05.17/outbox.cif.g08.bks.cpg/sg2_250_cif.got.tgz:498790.got - 2010.06.03 11:33:40.
