data_PCOD9003743
_publ_section_title
;
Structure prediction by ZEFSAII (Michael W. Deem and Ramdas Pophale) SiO2 
 PCOD9003743
Probable space group: P -1
;
_chemical_formula_sum "Si O2"
_cell_formula_units_Z 13
_cell_length_a 9.334322
_cell_length_b 9.608112
_cell_length_c 7.765202
_cell_angle_alpha 114.806000
_cell_angle_beta 51.720711
_cell_angle_gamma 113.140228
_cell_volume 487.520825
_symmetry_space_group_name_H-M "P -1"
_symmetry_group_IT_number 2
_symmetry_cell_setting 'triclinic'
loop_
_space_group_symop_operation_xyz
x,y,z
-x,-y,-z
loop_
_atom_site_type_symbol
_atom_site_label
_atom_site_fract_x
_atom_site_fract_y
_atom_site_fract_z
Si Si1 0.658379 0.386216 0.955802
Si Si2 0.597072 0.631674 0.364824
Si Si3 0.000000 0.500000 0.500000
Si Si4 0.025487 0.154938 0.293886
Si Si5 0.348961 0.813455 0.467441
Si Si6 0.021748 0.316332 0.714449
Si Si7 0.597363 0.915846 0.028905
O O1 0.730910 0.343982 0.685849
O O2 0.468296 0.266690 0.065960
O O3 0.817532 0.339635 0.938278
O O4 0.617382 0.551358 0.123101
O O5 0.500000 0.500000 0.500000
O O6 0.459527 0.750928 0.502831
O O7 0.806890 0.696043 0.300138
O O8 0.825147 0.106077 0.331849
O O9 0.929232 0.533555 0.370141
O O10 0.075131 0.336843 0.295786
O O11 0.991561 0.169381 0.531620
O O12 0.492300 0.917909 0.288259
O O13 0.183565 0.055591 0.101870
O O14 0.500000 0.000000 0.000000
#
# Coordination Sequence:
#
# PCOD9003743 Si02
#       7
#     2   2   1   2   2   2   2
#     4   9  21  36  52  83 116 148 190 238 276 349
#     4  12  21  31  56  91 121 150 182 232 305 352
#     4   8  16  30  54  84 110 144 180 218 306 330
#     4   9  18  34  57  82 116 144 184 245 279 342
#     4   9  22  36  54  87 114 147 193 235 288 339
#     4   9  19  32  54  85 118 150 175 237 298 345
#     4  10  21  37  62  83 106 160 205 233 272 334
#
# _framework density 26.665527000000001
#
# number of rings (size 3 to 8) (size 9 to 14) (size 15 to 20)
#    1.846    0.615    0.000    2.769    4.308    0.615 
#    2.769    0.000    0.000    4.615    0.000    0.000 
#    0.000    0.000    0.000    0.000    0.000    0.000 
#
# Total GULP energy -72391.778500 kJ/mol
# GULP energy per Si atom -5568.598346 kJ/mol
# Density = 2.660483 g / cm^3
# Si number density = 26.665527 Si / 1000 Ang^3
#
#
#
# Elastic Constant Matrix: (Units=GPa)
#
#
# Indices 1 2 3 4 5 6 
#
# 1 228.8643 41.5825 39.6546 5.5664 -47.9767 -30.4278
# 2 41.5825 67.0569 20.6777 -3.5383 -4.7905 -30.0547
# 3 39.6546 20.6777 77.3278 -3.8098 -23.5819 -5.7459
# 4 5.5664 -3.5383 -3.8098 28.0349 6.0465 4.6157
# 5 -47.9767 -4.7905 -23.5819 6.0465 53.2286 6.6738
# 6 -30.4278 -30.0547 -5.7459 4.6157 6.6738 42.9749
#
#
#
# Elastic Compliance Matrix: (Units=1/GPa)
#
#
# Indices 1 2 3 4 5 6 
#
# 1 0.006478 -0.002483 -0.001054 -0.003241 0.005235 0.002244
# 2 -0.002483 0.024816 -0.005537 0.001313 -0.004540 0.015421
# 3 -0.001054 -0.005537 0.016650 0.000997 0.006250 -0.003470
# 4 -0.003241 0.001313 0.000997 0.038682 -0.006200 -0.004435
# 5 0.005235 -0.004540 0.006250 -0.006200 0.026838 -0.002135
# 6 0.002244 0.015421 -0.003470 -0.004435 -0.002135 0.035987
#
#
# Mechanical properties :
#
#
# Convention : Reuss Voigt Hill
#
# Bulk Modulus (GPa) = 33.56113 64.11984 48.84048
# Shear Modulus (GPa) = 28.16398 42.93663 35.55030
#
# Velocity S-wave (km/s) = 3.25344 4.01707 3.65525
# Velocity P-wave (km/s) = 5.16976 6.75381 6.01417
#
# Compressibility (1/GPa) = 0.02979638
#
# Stress axis : x y z
#
# Youngs Moduli (GPa) = 154.37229 40.29599 60.05852
#
# Poissons Ratio (x) = 0.10005 0.06333
# Poissons Ratio (y) = 0.38331 0.33252
# Poissons Ratio (z) = 0.16278 0.22311
#
# Static dielectric constant tensor:
#      x y z
#    x 2.017560 -0.088700 0.144180 
#    y -0.088700 1.787480 0.137360 
#    z 0.144180 0.137360 2.145360 
# 
# From -- ./inp_files/165980.got.cif
#   From: 2010.05.17/outbox.cif.g08.bks.cpg/sg2_83_cif.got.tgz:165980.got - 2010.06.03 11:33:40.
