data_PCOD9003020
_publ_section_title
;
Structure prediction by ZEFSAII (Michael W. Deem and Ramdas Pophale) SiO2 
 PCOD9003020
Probable space group: P -1
;
_chemical_formula_sum "Si O2"
_cell_formula_units_Z 14
_cell_length_a 19.879882
_cell_length_b 5.642533
_cell_length_c 22.355042
_cell_angle_alpha 121.160432
_cell_angle_beta 161.895145
_cell_angle_gamma 64.460428
_cell_volume 649.237855
_symmetry_space_group_name_H-M "P -1"
_symmetry_group_IT_number 2
_symmetry_cell_setting 'triclinic'
loop_
_space_group_symop_operation_xyz
x,y,z
-x,-y,-z
loop_
_atom_site_type_symbol
_atom_site_label
_atom_site_fract_x
_atom_site_fract_y
_atom_site_fract_z
Si Si1 0.696021 0.668583 0.606392
Si Si2 0.265348 0.718895 0.523352
Si Si3 0.313893 0.327990 0.666248
Si Si4 0.800514 0.340567 0.768021
Si Si5 0.421878 0.158110 0.080471
Si Si6 0.254806 0.169677 0.733706
Si Si7 0.900451 0.426448 0.263836
O O1 0.695838 0.482010 0.522687
O O2 0.807778 0.514744 0.733940
O O3 0.441298 0.651782 0.408361
O O4 0.802604 0.002621 0.725438
O O5 0.447867 0.761416 0.736298
O O6 0.027220 0.588899 0.335396
O O7 0.283990 0.044640 0.564252
O O8 0.556164 0.528305 0.885956
O O9 0.285609 0.267003 0.703934
O O10 0.104837 0.450083 0.486007
O O11 0.000000 0.500000 0.000000
O O12 0.568049 0.025932 0.138361
O O13 0.211258 0.906220 0.881392
O O14 0.269746 0.412888 0.827325
O O15 0.000000 0.000000 0.500000
#
# Coordination Sequence:
#
# PCOD9003020 Si02
#       7
#     2   2   2   2   2   2   2
#     4  10  23  42  71 101 140 175 212 268 327 382
#     4  10  23  41  59  85 131 161 196 257 321 379
#     4  10  21  37  57  80 117 159 203 262 316 370
#     4  10  22  44  73 106 133 172 220 263 316 396
#     4  10  23  37  56  85 114 156 213 261 311 380
#     4  11  19  38  57  76 115 157 204 269 316 365
#     4  11  22  37  58  84 114 158 212 258 320 375
#
# _framework density 21.563744
#
# number of rings (size 3 to 8) (size 9 to 14) (size 15 to 20)
#    0.000    1.714    4.286    1.286    4.000    4.000 
#    0.000    0.000    0.000    0.000    0.000    0.000 
#    0.000    0.000    0.000    0.000    0.000    0.000 
#
# Total GULP energy -78085.083606 kJ/mol
# GULP energy per Si atom -5577.505972 kJ/mol
# Density = 2.151466 g / cm^3
# Si number density = 21.563744 Si / 1000 Ang^3
#
#
#
# Elastic Constant Matrix: (Units=GPa)
#
#
# Indices 1 2 3 4 5 6 
#
# 1 82.4677 51.7151 28.6181 23.7393 -25.0061 -11.6097
# 2 51.7151 115.3902 42.7189 40.7952 -10.2108 -0.5445
# 3 28.6181 42.7189 137.1859 37.9602 -11.0262 11.3050
# 4 23.7393 40.7952 37.9602 46.1126 8.1207 -2.5622
# 5 -25.0061 -10.2108 -11.0262 8.1207 27.6065 10.7404
# 6 -11.6097 -0.5445 11.3050 -2.5622 10.7404 30.3874
#
#
#
# Elastic Compliance Matrix: (Units=1/GPa)
#
#
# Indices 1 2 3 4 5 6 
#
# 1 0.029208 -0.004108 0.004208 -0.021212 0.034609 -0.004501
# 2 -0.004108 0.016428 0.001514 -0.015852 0.010270 -0.006805
# 3 0.004208 0.001514 0.013932 -0.019259 0.020422 -0.012390
# 4 -0.021212 -0.015852 -0.019259 0.075719 -0.066146 0.028541
# 5 0.034609 0.010270 0.020422 -0.066146 0.114662 -0.040295
# 6 -0.004501 -0.006805 -0.012390 0.028541 -0.040295 0.052325
#
#
# Mechanical properties :
#
#
# Convention : Reuss Voigt Hill
#
# Bulk Modulus (GPa) = 15.92453 64.57202 40.24827
# Shear Modulus (GPa) = 15.62610 34.95408 25.29009
#
# Velocity S-wave (km/s) = 2.69485 4.03049 3.42834
# Velocity P-wave (km/s) = 4.13326 7.18815 5.86316
#
# Compressibility (1/GPa) = 0.06279619
#
# Stress axis : x y z
#
# Youngs Moduli (GPa) = 34.23666 60.87270 71.77919
#
# Poissons Ratio (x) = 0.25005 -0.30205
# Poissons Ratio (y) = 0.14064 -0.10867
# Poissons Ratio (z) = -0.14407 -0.09216
#
# Static dielectric constant tensor:
#      x y z
#    x 1.750940 0.077460 0.017680 
#    y 0.077460 1.963120 0.022720 
#    z 0.017680 0.022720 1.830710 
# 
# From -- ./inp_files/48040.got.cif
#   From: 2010.05.17/outbox.cif.g08.bks.cpg/sg2_25_cif.got.tgz:48040.got - 2010.06.03 11:33:40.
