data_PCOD9003025
_publ_section_title
;
Structure prediction by ZEFSAII (Michael W. Deem and Ramdas Pophale) SiO2 
 PCOD9003025
Probable space group: P -1
;
_chemical_formula_sum "Si O2"
_cell_formula_units_Z 16
_cell_length_a 19.256851
_cell_length_b 20.196443
_cell_length_c 7.916013
_cell_angle_alpha 137.382448
_cell_angle_beta 136.001603
_cell_angle_gamma 21.316839
_cell_volume 750.614764
_symmetry_space_group_name_H-M "P -1"
_symmetry_group_IT_number 2
_symmetry_cell_setting 'triclinic'
loop_
_space_group_symop_operation_xyz
x,y,z
-x,-y,-z
loop_
_atom_site_type_symbol
_atom_site_label
_atom_site_fract_x
_atom_site_fract_y
_atom_site_fract_z
Si Si1 0.236090 0.702234 0.567538
Si Si2 0.642416 0.883972 0.374785
Si Si3 0.287095 0.123069 0.044951
Si Si4 0.043424 0.504312 0.271281
Si Si5 0.879374 0.915111 0.172084
Si Si6 0.649458 0.292142 0.580025
Si Si7 0.878734 0.828260 0.497302
Si Si8 0.008137 0.077666 0.972293
O O1 0.423046 0.497917 0.594927
O O2 0.299196 0.700274 0.496478
O O3 0.071507 0.764278 0.338762
O O4 0.138741 0.871557 0.819478
O O5 0.846248 0.658512 0.323225
O O6 0.704954 0.939382 0.525940
O O7 0.500000 0.000000 0.500000
O O8 0.516889 0.936386 0.106868
O O9 0.210445 0.297949 0.248594
O O10 0.200406 0.127359 0.048411
O O11 0.199744 0.143992 0.766512
O O12 0.055129 0.611092 0.462472
O O13 0.000000 0.500000 0.000000
O O14 0.933061 0.913536 0.080664
O O15 0.719993 0.121575 0.361149
O O16 0.788890 0.226964 0.837980
O O17 0.940910 0.887292 0.729526
#
# Coordination Sequence:
#
# PCOD9003025 Si02
#       8
#     2   2   2   2   2   2   2   2
#     4   8  15  30  51  74 103 137 174 215 276 323
#     4  10  21  37  57  82 107 139 191 237 260 320
#     4  11  20  37  57  75 110 155 177 220 289 324
#     4   8  20  37  55  76 108 148 182 220 268 333
#     4   9  18  29  53  77 105 134 178 229 265 323
#     4   8  15  30  51  74 103 139 169 221 275 321
#     4   9  20  37  53  76 110 145 181 224 273 333
#     4   9  16  33  49  77 105 131 178 227 268 315
#
# _framework density 21.315861999999999
#
# number of rings (size 3 to 8) (size 9 to 14) (size 15 to 20)
#    0.750    2.250    0.000    2.625    0.000    1.500 
#    2.250    3.750    0.000    1.500    0.000    0.000 
#    0.000    0.000    0.000    0.000    0.000    0.000 
#
# Total GULP energy -89163.606882 kJ/mol
# GULP energy per Si atom -5572.725430 kJ/mol
# Density = 2.126735 g / cm^3
# Si number density = 21.315862 Si / 1000 Ang^3
#
#
#
# Elastic Constant Matrix: (Units=GPa)
#
#
# Indices 1 2 3 4 5 6 
#
# 1 65.6789 1.8781 7.0054 0.8764 -1.0944 3.6248
# 2 1.8781 107.7903 23.9537 -10.5175 4.9984 -9.4870
# 3 7.0054 23.9537 81.3268 -8.9347 4.8182 -2.0428
# 4 0.8764 -10.5175 -8.9347 18.2489 -1.4878 -4.5577
# 5 -1.0944 4.9984 4.8182 -1.4878 30.4817 -0.8581
# 6 3.6248 -9.4870 -2.0428 -4.5577 -0.8581 15.1079
#
#
#
# Elastic Compliance Matrix: (Units=1/GPa)
#
#
# Indices 1 2 3 4 5 6 
#
# 1 0.015781 -0.000732 -0.001682 -0.003308 0.000638 -0.005435
# 2 -0.000732 0.011394 -0.002146 0.007811 -0.000911 0.009345
# 3 -0.001682 -0.002146 0.013914 0.006212 -0.001528 0.002725
# 4 -0.003308 0.007811 0.006212 0.069544 0.001790 0.027620
# 5 0.000638 -0.000911 -0.001528 0.001790 0.033350 0.001502
# 6 -0.005435 0.009345 0.002725 0.027620 0.001502 0.082149
#
#
# Mechanical properties :
#
#
# Convention : Reuss Voigt Hill
#
# Bulk Modulus (GPa) = 31.27958 35.60780 33.44369
# Shear Modulus (GPa) = 20.33288 27.56495 23.94891
#
# Velocity S-wave (km/s) = 3.09185 3.59996 3.35554
# Velocity P-wave (km/s) = 5.23949 5.83273 5.54405
#
# Compressibility (1/GPa) = 0.03196973
#
# Stress axis : x y z
#
# Youngs Moduli (GPa) = 63.36889 87.76731 71.86765
#
# Poissons Ratio (x) = 0.06425 0.12085
# Poissons Ratio (y) = 0.04639 0.15423
# Poissons Ratio (z) = 0.10655 0.18835
#
# Static dielectric constant tensor:
#      x y z
#    x 1.863990 0.035040 -0.071790 
#    y 0.035040 1.757790 -0.015480 
#    z -0.071790 -0.015480 1.795820 
# 
# From -- ./inp_files/349729.got.cif
#   From: 2010.05.17/outbox.cif.g08.bks.cpg/sg2_175_cif.got.tgz:349729.got - 2010.06.03 11:33:40.
