data_PCOD9003230
_publ_section_title
;
Structure prediction by ZEFSAII (Michael W. Deem and Ramdas Pophale) SiO2 
 PCOD9003230
Probable space group: P -1
;
_chemical_formula_sum "Si O2"
_cell_formula_units_Z 16
_cell_length_a 7.823813
_cell_length_b 22.270504
_cell_length_c 24.762877
_cell_angle_alpha 10.733811
_cell_angle_beta 120.641641
_cell_angle_gamma 123.187504
_cell_volume 661.468079
_symmetry_space_group_name_H-M "P -1"
_symmetry_group_IT_number 2
_symmetry_cell_setting 'triclinic'
loop_
_space_group_symop_operation_xyz
x,y,z
-x,-y,-z
loop_
_atom_site_type_symbol
_atom_site_label
_atom_site_fract_x
_atom_site_fract_y
_atom_site_fract_z
Si Si1 0.883147 0.070150 0.695676
Si Si2 0.847072 0.194606 0.278662
Si Si3 0.118909 0.410901 0.967353
Si Si4 0.185109 0.196689 0.477537
Si Si5 0.832396 0.648617 0.237477
Si Si6 0.168633 0.038691 0.869130
Si Si7 0.679156 0.518870 0.644751
Si Si8 0.684911 0.301884 0.629683
O O1 0.992931 0.965607 0.858547
O O2 0.082324 0.297191 0.494647
O O3 0.759742 0.321761 0.475210
O O4 0.781058 0.764201 0.908641
O O5 0.717444 0.940634 0.437008
O O6 0.000000 0.000000 0.500000
O O7 0.000000 0.500000 0.000000
O O8 0.749210 0.337958 0.187215
O O9 0.960844 0.122297 0.232169
O O10 0.970524 0.597725 0.748854
O O11 0.338139 0.414781 0.353518
O O12 0.829993 0.486098 0.439559
O O13 0.717237 0.938259 0.964358
O O14 0.055352 0.853637 0.068027
O O15 0.260592 0.432543 0.547461
O O16 0.344740 0.864895 0.035436
O O17 0.536716 0.690576 0.436324
#
# Coordination Sequence:
#
# PCOD9003230 Si02
#       8
#     2   2   2   2   2   2   2   2
#     4  10  21  37  59  80 110 142 176 223 274 318
#     4   8  14  24  43  71 103 133 163 203 257 310
#     4   9  16  28  48  76 103 134 170 211 258 311
#     4   9  16  29  47  72 108 137 163 209 265 314
#     4  11  25  41  57  78 104 145 185 227 268 313
#     4  11  22  40  59  78 107 143 183 225 274 313
#     4  10  23  36  55  84 111 142 176 222 274 320
#     4  12  26  38  57  79 109 142 185 225 265 323
#
# _framework density 24.188618999999999
#
# number of rings (size 3 to 8) (size 9 to 14) (size 15 to 20)
#    0.000    2.000    2.500    1.125    5.250    0.500 
#    0.000    0.000    0.000    0.000    0.000    1.750 
#    0.000    0.125    0.000    0.000    0.000    0.000 
#
# Total GULP energy -89357.377575 kJ/mol
# GULP energy per Si atom -5584.836098 kJ/mol
# Density = 2.413356 g / cm^3
# Si number density = 24.188619 Si / 1000 Ang^3
#
#
#
# Elastic Constant Matrix: (Units=GPa)
#
#
# Indices 1 2 3 4 5 6 
#
# 1 69.3673 31.5320 28.7478 -8.4672 29.1166 -15.1993
# 2 31.5320 110.8703 56.9663 -13.3948 25.9309 -36.3955
# 3 28.7478 56.9663 155.9966 15.0407 34.0920 -15.8462
# 4 -8.4672 -13.3948 15.0407 50.7972 -18.6962 12.4259
# 5 29.1166 25.9309 34.0920 -18.6962 49.8463 -5.6981
# 6 -15.1993 -36.3955 -15.8462 12.4259 -5.6981 27.7895
#
#
#
# Elastic Compliance Matrix: (Units=1/GPa)
#
#
# Indices 1 2 3 4 5 6 
#
# 1 0.021783 -0.000228 0.000477 -0.004134 -0.013222 0.011024
# 2 -0.000228 0.019519 -0.003324 -0.001671 -0.005732 0.023116
# 3 0.000477 -0.003324 0.010460 -0.007819 -0.008215 0.003683
# 4 -0.004134 -0.001671 -0.007819 0.032514 0.018582 -0.019636
# 5 -0.013222 -0.005732 -0.008215 0.018582 0.041149 -0.019294
# 6 0.011024 0.023116 0.003683 -0.019636 -0.019294 0.079213
#
#
# Mechanical properties :
#
#
# Convention : Reuss Voigt Hill
#
# Bulk Modulus (GPa) = 21.92458 63.41404 42.66931
# Shear Modulus (GPa) = 22.12466 40.28581 31.20524
#
# Velocity S-wave (km/s) = 3.02764 4.08546 3.59566
# Velocity P-wave (km/s) = 4.61582 6.96621 5.90906
#
# Compressibility (1/GPa) = 0.04561090
#
# Stress axis : x y z
#
# Youngs Moduli (GPa) = 45.90779 51.23113 95.60563
#
# Poissons Ratio (x) = 0.01170 -0.04561
# Poissons Ratio (y) = 0.01048 0.31780
# Poissons Ratio (z) = -0.02190 0.17030
#
# Static dielectric constant tensor:
#      x y z
#    x 1.969730 -0.055540 0.020950 
#    y -0.055540 1.987670 -0.073350 
#    z 0.020950 -0.073350 1.959800 
# 
# From -- ./inp_files/43858.got.cif
#   From: 2010.05.17/outbox.cif.g08.bks.cpg/sg2_22_cif.got.tgz:43858.got - 2010.06.03 11:33:40.
