data_PCOD9003803
_publ_section_title
;
Structure prediction by ZEFSAII (Michael W. Deem and Ramdas Pophale) SiO2 
 PCOD9003803
Probable space group: P -1
;
_chemical_formula_sum "Si O2"
_cell_formula_units_Z 14
_cell_length_a 8.162432
_cell_length_b 19.076451
_cell_length_c 14.097058
_cell_angle_alpha 21.425923
_cell_angle_beta 46.049669
_cell_angle_gamma 41.393708
_cell_volume 530.122425
_symmetry_space_group_name_H-M "P -1"
_symmetry_group_IT_number 2
_symmetry_cell_setting 'triclinic'
loop_
_space_group_symop_operation_xyz
x,y,z
-x,-y,-z
loop_
_atom_site_type_symbol
_atom_site_label
_atom_site_fract_x
_atom_site_fract_y
_atom_site_fract_z
Si Si1 0.040025 0.782271 0.475149
Si Si2 0.260011 0.444313 0.161767
Si Si3 0.880454 0.834511 0.748648
Si Si4 0.354965 0.992239 0.179610
Si Si5 0.793480 0.544147 0.612219
Si Si6 0.371502 0.748963 0.229790
Si Si7 0.531266 0.670381 0.061008
O O1 0.123073 0.943487 0.296799
O O2 0.106397 0.819056 0.295038
O O3 0.250103 0.553787 0.711824
O O4 0.778639 0.760104 0.602369
O O5 0.141875 0.473803 0.278927
O O6 0.500000 0.500000 0.000000
O O7 0.105970 0.615096 0.931664
O O8 0.751289 0.869672 0.858050
O O9 0.675641 0.812426 0.790193
O O10 0.000000 0.000000 0.500000
O O11 0.581215 0.776063 0.388911
O O12 0.486524 0.142053 0.897164
O O13 0.655280 0.385972 0.856549
O O14 0.000000 0.500000 0.500000
O O15 0.500000 0.500000 0.500000
O O16 0.370348 0.781551 0.077775
#
# Coordination Sequence:
#
# PCOD9003803 Si02
#       7
#     2   2   2   2   2   2   2
#     4   9  18  34  58  85 117 161 207 249 301 370
#     4  11  24  42  62  90 128 166 208 267 320 361
#     4  10  21  41  64  86 118 167 218 258 305 380
#     4  10  21  37  62  91 118 163 212 253 308 382
#     4  11  23  41  63  94 131 164 203 263 321 365
#     4   9  16  32  59  89 116 151 206 259 297 357
#     4   8  18  35  58  83 116 162 205 249 305 369
#
# _framework density 26.408995999999998
#
# number of rings (size 3 to 8) (size 9 to 14) (size 15 to 20)
#    0.000    2.286    0.000    3.000    0.000    8.000 
#    0.000   17.857    0.000    0.000    0.000    0.000 
#    0.000    0.000    0.000    0.000    0.000    0.000 
#
# Total GULP energy -77970.363338 kJ/mol
# GULP energy per Si atom -5569.311667 kJ/mol
# Density = 2.634889 g / cm^3
# Si number density = 26.408996 Si / 1000 Ang^3
#
#
#
# Elastic Constant Matrix: (Units=GPa)
#
#
# Indices 1 2 3 4 5 6 
#
# 1 113.2407 40.0666 67.3102 3.9622 -50.1482 12.4526
# 2 40.0666 55.4315 15.7677 3.0248 -1.1499 -5.2375
# 3 67.3102 15.7677 140.9863 5.1201 -63.7794 -15.7888
# 4 3.9622 3.0248 5.1201 41.1318 -9.6907 3.1298
# 5 -50.1482 -1.1499 -63.7794 -9.6907 78.7544 1.4385
# 6 12.4526 -5.2375 -15.7888 3.1298 1.4385 39.9541
#
#
#
# Elastic Compliance Matrix: (Units=1/GPa)
#
#
# Indices 1 2 3 4 5 6 
#
# 1 0.025385 -0.017656 -0.006772 0.003339 0.011080 -0.013563
# 2 -0.017656 0.031355 0.001743 -0.004030 -0.010069 0.010980
# 3 -0.006772 0.001743 0.014184 -0.000169 0.007039 0.007704
# 4 0.003339 -0.004030 -0.000169 0.025820 0.005177 -0.003845
# 5 0.011080 -0.010069 0.007039 0.005177 0.026005 -0.003334
# 6 -0.013563 0.010980 0.007704 -0.003845 -0.003334 0.034161
#
#
# Mechanical properties :
#
#
# Convention : Reuss Voigt Hill
#
# Bulk Modulus (GPa) = 39.13198 61.77195 50.45197
# Shear Modulus (GPa) = 23.71960 44.40232 34.06096
#
# Velocity S-wave (km/s) = 3.00019 4.10485 3.59520
# Velocity P-wave (km/s) = 5.18183 6.77552 6.03154
#
# Compressibility (1/GPa) = 0.02555454
#
# Stress axis : x y z
#
# Youngs Moduli (GPa) = 39.39405 31.89323 70.50080
#
# Poissons Ratio (x) = 0.56310 0.47745
# Poissons Ratio (y) = 0.69553 -0.12292
# Poissons Ratio (z) = 0.26678 -0.05561
#
# Static dielectric constant tensor:
#      x y z
#    x 2.107750 -0.028440 -0.082050 
#    y -0.028440 2.786360 0.511510 
#    z -0.082050 0.511510 2.504590 
# 
# From -- ./inp_files/331855.got.cif
#   From: 2010.05.17/outbox.cif.g08.bks.cpg/sg2_166_cif.got.tgz:331855.got - 2010.06.03 11:33:40.
