data_PCOD9003467
_publ_section_title
;
Structure prediction by ZEFSAII (Michael W. Deem and Ramdas Pophale) SiO2 
 PCOD9003467
Probable space group: P -1
;
_chemical_formula_sum "Si O2"
_cell_formula_units_Z 16
_cell_length_a 29.022066
_cell_length_b 8.538110
_cell_length_c 5.334001
_cell_angle_alpha 131.563467
_cell_angle_beta 48.661567
_cell_angle_gamma 136.856021
_cell_volume 634.800283
_symmetry_space_group_name_H-M "P -1"
_symmetry_group_IT_number 2
_symmetry_cell_setting 'triclinic'
loop_
_space_group_symop_operation_xyz
x,y,z
-x,-y,-z
loop_
_atom_site_type_symbol
_atom_site_label
_atom_site_fract_x
_atom_site_fract_y
_atom_site_fract_z
Si Si1 0.265147 0.574909 0.702056
Si Si2 0.353936 0.394947 0.897804
Si Si3 0.769734 0.125567 0.243269
Si Si4 0.980397 0.705573 0.766659
Si Si5 0.111844 0.373468 0.480958
Si Si6 0.484417 0.651919 0.014029
Si Si7 0.139285 0.102294 0.485687
Si Si8 0.394210 0.824966 0.827654
O O1 0.260748 0.752977 0.706478
O O2 0.185079 0.340191 0.751281
O O3 0.316164 0.746191 0.920058
O O4 0.306110 0.438207 0.315055
O O5 0.380136 0.621648 0.861968
O O6 0.298427 0.132678 0.699282
O O7 0.428142 0.447532 0.807540
O O8 0.822074 0.345791 0.473472
O O9 0.822868 0.056094 0.836469
O O10 0.938562 0.677040 0.628095
O O11 0.000000 0.500000 0.500000
O O12 0.936167 0.664095 0.136825
O O13 0.058848 0.948293 0.713564
O O14 0.141142 0.201237 0.299288
O O15 0.439619 0.776840 0.405082
O O16 0.559464 0.899311 0.945644
O O17 0.500000 0.500000 0.000000
#
# Coordination Sequence:
#
# PCOD9003467 Si02
#       8
#     2   2   2   2   2   2   2   2
#     4   9  21  41  58  86 125 161 209 257 316 378
#     4  10  21  38  60  89 122 161 209 255 315 378
#     4  10  21  43  61  90 124 164 213 264 316 389
#     4  12  24  44  70  96 131 172 221 273 333 394
#     4  11  25  46  66  97 132 174 216 277 330 392
#     4  10  21  37  60  89 123 158 202 255 311 375
#     4  10  22  42  65  91 127 169 212 268 327 386
#     4  10  21  38  60  88 121 162 201 256 312 375
#
# _framework density 25.20478
#
# number of rings (size 3 to 8) (size 9 to 14) (size 15 to 20)
#    0.000    1.750    1.250    2.250    0.000    2.500 
#   18.000    0.000    0.000    0.000    0.000    0.000 
#    0.000    0.000    0.000    0.000    0.000    0.000 
#
# Total GULP energy -89435.798162 kJ/mol
# GULP energy per Si atom -5589.737385 kJ/mol
# Density = 2.514741 g / cm^3
# Si number density = 25.204780 Si / 1000 Ang^3
#
#
#
# Elastic Constant Matrix: (Units=GPa)
#
#
# Indices 1 2 3 4 5 6 
#
# 1 195.3012 89.0335 38.1619 9.8681 11.1400 28.2998
# 2 89.0335 231.3055 31.5573 17.5145 13.7462 42.4506
# 3 38.1619 31.5573 69.1965 12.9184 -2.9026 18.6782
# 4 9.8681 17.5145 12.9184 41.6732 1.5767 -8.4163
# 5 11.1400 13.7462 -2.9026 1.5767 33.1861 -0.9498
# 6 28.2998 42.4506 18.6782 -8.4163 -0.9498 48.7630
#
#
#
# Elastic Compliance Matrix: (Units=1/GPa)
#
#
# Indices 1 2 3 4 5 6 
#
# 1 0.006792 -0.001888 -0.002533 -0.000247 -0.001748 -0.001404
# 2 -0.001888 0.006321 0.000011 -0.003146 -0.001977 -0.004992
# 3 -0.002533 0.000011 0.019120 -0.006844 0.002643 -0.006993
# 4 -0.000247 -0.003146 -0.006844 0.029655 -0.000318 0.010616
# 5 -0.001748 -0.001977 0.002643 -0.000318 0.031850 0.002288
# 6 -0.001404 -0.004992 -0.006993 0.010616 0.002288 0.030224
#
#
# Mechanical properties :
#
#
# Convention : Reuss Voigt Hill
#
# Bulk Modulus (GPa) = 42.71385 90.36762 66.54073
# Shear Modulus (GPa) = 35.56587 47.19449 41.38018
#
# Velocity S-wave (km/s) = 3.76050 4.33187 4.05626
# Velocity P-wave (km/s) = 5.98654 7.80713 6.95665
#
# Compressibility (1/GPa) = 0.02341161
#
# Stress axis : x y z
#
# Youngs Moduli (GPa) = 147.23857 158.21383 52.30240
#
# Poissons Ratio (x) = 0.29878 0.13246
# Poissons Ratio (y) = 0.27805 -0.00057
# Poissons Ratio (z) = 0.37289 -0.00173
#
# Static dielectric constant tensor:
#      x y z
#    x 2.026040 0.036740 -0.015750 
#    y 0.036740 2.013330 -0.033790 
#    z -0.015750 -0.033790 2.165020 
# 
# From -- ./inp_files/128321.got.cif
#   From: 2010.05.17/outbox.cif.g08.bks.cpg/sg2_65_cif.got.tgz:128321.got - 2010.06.03 11:33:40.
