data_PCOD9003785
_publ_section_title
;
Structure prediction by ZEFSAII (Michael W. Deem and Ramdas Pophale) SiO2 
 PCOD9003785
Probable space group: P -1
;
_chemical_formula_sum "Si O2"
_cell_formula_units_Z 15
_cell_length_a 8.391878
_cell_length_b 8.321150
_cell_length_c 11.448540
_cell_angle_alpha 114.549493
_cell_angle_beta 98.566054
_cell_angle_gamma 111.293721
_cell_volume 633.722548
_symmetry_space_group_name_H-M "P -1"
_symmetry_group_IT_number 2
_symmetry_cell_setting 'triclinic'
loop_
_space_group_symop_operation_xyz
x,y,z
-x,-y,-z
loop_
_atom_site_type_symbol
_atom_site_label
_atom_site_fract_x
_atom_site_fract_y
_atom_site_fract_z
Si Si1 0.788020 0.842529 0.272504
Si Si2 0.871255 0.683253 0.938406
Si Si3 0.500000 0.500000 0.000000
Si Si4 0.640833 0.205418 0.519863
Si Si5 0.324702 0.266964 0.519308
Si Si6 0.987596 0.570450 0.233861
Si Si7 0.805782 0.396452 0.380608
Si Si8 0.092099 0.085624 0.221148
O O1 0.592417 0.705014 0.152869
O O2 0.768314 0.866824 0.415658
O O3 0.887173 0.700152 0.232362
O O4 0.917245 0.038419 0.271360
O O5 0.940430 0.519667 0.885075
O O6 0.859707 0.750277 0.824331
O O7 0.680299 0.604620 0.961493
O O8 0.025962 0.880493 0.079766
O O9 0.539536 0.340105 0.569457
O O10 0.833218 0.293666 0.630806
O O11 0.674727 0.205754 0.385371
O O12 0.500000 0.000000 0.500000
O O13 0.274328 0.446228 0.573049
O O14 0.249011 0.147474 0.354005
O O15 0.846414 0.389681 0.247109
O O16 0.000000 0.500000 0.500000
#
# Coordination Sequence:
#
# PCOD9003785 Si02
#       8
#     2   2   1   2   2   2   2   2
#     4  10  22  39  64  91 119 159 204 252 308 367
#     4  10  22  41  63  86 120 162 204 251 302 367
#     4  10  22  40  60  88 118 154 204 246 302 370
#     4  11  22  35  56  92 129 157 200 258 309 360
#     4  11  21  37  64  93 125 161 205 256 308 362
#     4  10  21  40  61  85 120 161 201 245 307 375
#     4   9  20  37  58  86 121 162 201 245 306 370
#     4  10  21  37  62  90 118 158 205 249 299 360
#
# _framework density 23.669661000000001
#
# number of rings (size 3 to 8) (size 9 to 14) (size 15 to 20)
#    0.000    1.867    0.000    4.000    0.000    7.467 
#    0.000    2.667    0.000    8.800    0.000    0.000 
#    0.000    0.000    0.000    0.000    0.000    0.000 
#
# Total GULP energy -83582.223126 kJ/mol
# GULP energy per Si atom -5572.148208 kJ/mol
# Density = 2.361579 g / cm^3
# Si number density = 23.669661 Si / 1000 Ang^3
#
#
#
# Elastic Constant Matrix: (Units=GPa)
#
#
# Indices 1 2 3 4 5 6 
#
# 1 52.0661 43.5719 -9.4116 -9.5545 -27.9854 6.0330
# 2 43.5719 137.6331 52.3599 -31.5116 -4.0996 38.1173
# 3 -9.4116 52.3599 95.0474 -20.1104 -10.3057 11.8628
# 4 -9.5545 -31.5116 -20.1104 46.0389 9.1320 -7.6254
# 5 -27.9854 -4.0996 -10.3057 9.1320 31.6192 2.2536
# 6 6.0330 38.1173 11.8628 -7.6254 2.2536 32.7140
#
#
#
# Elastic Compliance Matrix: (Units=1/GPa)
#
#
# Indices 1 2 3 4 5 6 
#
# 1 -0.994075 0.536387 -0.450539 0.128785 -0.981450 -0.180653
# 2 0.536387 -0.275370 0.238101 -0.064179 0.529181 0.084179
# 3 -0.450539 0.238101 -0.190237 0.060586 -0.441632 -0.080812
# 4 0.128785 -0.064179 0.060586 0.010923 0.120595 0.023298
# 5 -0.981450 0.529181 -0.441632 0.120595 -0.934149 -0.182982
# 6 -0.180653 0.084179 -0.080812 0.023298 -0.182982 0.013140
#
#
# Mechanical properties :
#
#
# Convention : Reuss Voigt Hill
#
# Bulk Modulus (GPa) = -1.23186 50.86522 24.81668
# Shear Modulus (GPa) = -1.52056 35.28952 16.88448
#
# Velocity S-wave (km/s) = -0.80237 3.86543 2.67374
# Velocity P-wave (km/s) = 1.17472 6.43881 4.47651
#
# Compressibility (1/GPa) = -0.81178197
#
# Stress axis : x y z
#
# Youngs Moduli (GPa) = -1.00596 -3.63147 -5.25661
#
# Poissons Ratio (x) = 1.94788 -2.36831
# Poissons Ratio (y) = 0.53958 1.25161
# Poissons Ratio (z) = -0.45322 0.86466
#
# Static dielectric constant tensor:
#      x y z
#    x 1.950090 -0.054030 -0.022410 
#    y -0.054030 1.985780 -0.049760 
#    z -0.022410 -0.049760 1.943840 
# 
# From -- ./inp_files/285024.got.cif
#   From: 2010.05.17/outbox.cif.g08.bks.cpg/sg2_143_cif.got.tgz:285024.got - 2010.06.03 11:33:40.
