data_PCOD9003581
_publ_section_title
;
Structure prediction by ZEFSAII (Michael W. Deem and Ramdas Pophale) SiO2 
 PCOD9003581
Probable space group: P -1
;
_chemical_formula_sum "Si O2"
_cell_formula_units_Z 16
_cell_length_a 6.829316
_cell_length_b 9.971811
_cell_length_c 11.132526
_cell_angle_alpha 92.564923
_cell_angle_beta 71.771233
_cell_angle_gamma 74.387398
_cell_volume 686.592948
_symmetry_space_group_name_H-M "P -1"
_symmetry_group_IT_number 2
_symmetry_cell_setting 'triclinic'
loop_
_space_group_symop_operation_xyz
x,y,z
-x,-y,-z
loop_
_atom_site_type_symbol
_atom_site_label
_atom_site_fract_x
_atom_site_fract_y
_atom_site_fract_z
Si Si1 0.255306 0.538608 0.598460
Si Si2 0.388729 0.313123 0.740177
Si Si3 0.994373 0.322385 0.126860
Si Si4 0.141184 0.753491 0.438065
Si Si5 0.211702 0.003027 0.028858
Si Si6 0.733256 0.499381 0.995922
Si Si7 0.435086 0.977840 0.209371
Si Si8 0.734916 0.974551 0.507659
O O1 0.500000 0.500000 0.500000
O O2 0.260857 0.389768 0.651057
O O3 0.183560 0.642688 0.731725
O O4 0.113091 0.628838 0.522439
O O5 0.639568 0.311414 0.680809
O O6 0.295041 0.400442 0.878584
O O7 0.404583 0.154034 0.757320
O O8 0.873827 0.353118 0.021911
O O9 0.152977 0.165990 0.088883
O O10 0.136744 0.430904 0.117322
O O11 0.204507 0.879037 0.504581
O O12 0.927852 0.845821 0.415964
O O13 0.293500 0.924873 0.135388
O O14 0.410080 0.958271 0.895789
O O15 0.000000 0.000000 0.000000
O O16 0.500000 0.500000 0.000000
O O17 0.286526 0.060733 0.347735
O O18 0.500000 0.000000 0.500000
#
# Coordination Sequence:
#
# PCOD9003581 Si02
#       8
#     2   2   2   2   2   2   2   2
#     4   9  18  36  63  88 120 166 197 256 321 372
#     4   9  18  37  60  84 121 157 203 256 309 368
#     4  10  21  38  58  89 121 156 210 254 310 376
#     4   9  19  37  60  86 121 160 201 249 314 368
#     4  11  24  38  62  91 123 172 210 259 322 373
#     4  10  21  37  61  85 117 158 203 257 312 367
#     4  10  22  39  57  86 130 157 209 269 300 373
#     4  10  21  38  61  90 120 165 208 258 312 375
#
# _framework density 23.303471999999999
#
# number of rings (size 3 to 8) (size 9 to 14) (size 15 to 20)
#    0.000    2.250    1.250    0.750    1.750    4.000 
#    0.000    3.750    0.000   11.250    0.000    0.000 
#    0.000    0.000    0.000    0.000    0.000    0.000 
#
# Total GULP energy -89161.642067 kJ/mol
# GULP energy per Si atom -5572.602629 kJ/mol
# Density = 2.325043 g / cm^3
# Si number density = 23.303472 Si / 1000 Ang^3
#
#
#
# Elastic Constant Matrix: (Units=GPa)
#
#
# Indices 1 2 3 4 5 6 
#
# 1 131.6427 14.2122 18.9230 -5.9908 -3.3321 -18.2565
# 2 14.2122 80.6991 9.8881 -7.6590 -6.7331 -26.2674
# 3 18.9230 9.8881 101.5907 -2.6887 -15.4165 -4.3952
# 4 -5.9908 -7.6590 -2.6887 31.5309 -14.7783 1.1458
# 5 -3.3321 -6.7331 -15.4165 -14.7783 22.0218 3.6558
# 6 -18.2565 -26.2674 -4.3952 1.1458 3.6558 30.1596
#
#
#
# Elastic Compliance Matrix: (Units=1/GPa)
#
#
# Indices 1 2 3 4 5 6 
#
# 1 0.008563 0.000677 -0.001205 0.002018 0.001120 0.005386
# 2 0.000677 0.018826 0.000335 0.008500 0.009239 0.015412
# 3 -0.001205 0.000335 0.012237 0.007202 0.013412 -0.000553
# 4 0.002018 0.008500 0.007202 0.055820 0.045058 0.002092
# 5 0.001120 0.009239 0.013412 0.045058 0.088319 -0.001739
# 6 0.005386 0.015412 -0.000553 0.002092 -0.001739 0.049891
#
#
# Mechanical properties :
#
#
# Convention : Reuss Voigt Hill
#
# Bulk Modulus (GPa) = 25.48290 44.44213 34.96251
# Shear Modulus (GPa) = 20.23305 34.80307 27.51806
#
# Velocity S-wave (km/s) = 2.94979 3.86874 3.44009
# Velocity P-wave (km/s) = 4.74981 6.25049 5.55109
#
# Compressibility (1/GPa) = 0.03924201
#
# Stress axis : x y z
#
# Youngs Moduli (GPa) = 116.77561 53.11943 81.71824
#
# Poissons Ratio (x) = -0.03599 0.09845
# Poissons Ratio (y) = -0.07911 -0.02739
# Poissons Ratio (z) = 0.14068 -0.01781
#
# Static dielectric constant tensor:
#      x y z
#    x 1.891130 -0.009860 -0.003780 
#    y -0.009860 1.952520 -0.015550 
#    z -0.003780 -0.015550 1.927390 
# 
# From -- ./inp_files/364247.got.cif
#   From: 2010.05.17/outbox.cif.g08.bks.cpg/sg2_183_cif.got.tgz:364247.got - 2010.06.03 11:33:40.
