data_PCOD9003227
_publ_section_title
;
Structure prediction by ZEFSAII (Michael W. Deem and Ramdas Pophale) SiO2 
 PCOD9003227
Probable space group: P -1
;
_chemical_formula_sum "Si O2"
_cell_formula_units_Z 16
_cell_length_a 9.777862
_cell_length_b 15.919041
_cell_length_c 8.798676
_cell_angle_alpha 43.707657
_cell_angle_beta 110.806238
_cell_angle_gamma 130.153837
_cell_volume 707.159829
_symmetry_space_group_name_H-M "P -1"
_symmetry_group_IT_number 2
_symmetry_cell_setting 'triclinic'
loop_
_space_group_symop_operation_xyz
x,y,z
-x,-y,-z
loop_
_atom_site_type_symbol
_atom_site_label
_atom_site_fract_x
_atom_site_fract_y
_atom_site_fract_z
Si Si1 0.208942 0.871612 0.528676
Si Si2 0.173966 0.208015 0.540128
Si Si3 0.316728 0.358297 0.700328
Si Si4 0.468196 0.923793 0.830872
Si Si5 0.482447 0.176442 0.701050
Si Si6 0.854248 0.421972 0.176266
Si Si7 0.845603 0.508501 0.364909
Si Si8 0.434612 0.544488 0.061254
O O1 0.292483 0.859873 0.735260
O O2 0.151904 0.723888 0.599392
O O3 0.035616 0.873273 0.479181
O O4 0.368187 0.012068 0.308510
O O5 0.203292 0.224420 0.712016
O O6 0.291206 0.147545 0.623252
O O7 0.284316 0.380936 0.294085
O O8 0.500000 0.500000 0.500000
O O9 0.181857 0.393993 0.662669
O O10 0.399535 0.347520 0.901001
O O11 0.493590 0.060011 0.760215
O O12 0.479007 0.830014 0.094652
O O13 0.646559 0.346674 0.494428
O O14 0.901260 0.544177 0.164652
O O15 0.657843 0.372708 0.112639
O O16 0.000000 0.500000 0.000000
O O17 0.000000 0.500000 0.500000
O O18 0.500000 0.500000 0.000000
#
# Coordination Sequence:
#
# PCOD9003227 Si02
#       8
#     2   2   2   2   2   2   2   2
#     4  11  24  45  65  94 125 168 224 268 313 381
#     4  11  23  40  68  92 130 165 212 270 318 385
#     4  10  21  37  58  96 128 164 196 255 330 386
#     4  10  26  45  66  87 125 176 223 266 314 370
#     4  11  23  46  66  92 128 172 217 266 318 377
#     4  12  24  38  65  98 131 166 208 265 329 390
#     4  12  24  38  65  97 133 167 208 261 327 390
#     4  11  21  38  58  97 134 167 203 252 334 393
#
# _framework density 22.625720000000001
#
# number of rings (size 3 to 8) (size 9 to 14) (size 15 to 20)
#    0.000    1.000    6.250    0.750    5.250    1.000 
#    0.000    0.000    0.000    0.000    0.000    0.000 
#    0.000    0.000    0.000    0.000    0.000    0.000 
#
# Total GULP energy -89301.147631 kJ/mol
# GULP energy per Si atom -5581.321727 kJ/mol
# Density = 2.257422 g / cm^3
# Si number density = 22.625720 Si / 1000 Ang^3
#
#
#
# Elastic Constant Matrix: (Units=GPa)
#
#
# Indices 1 2 3 4 5 6 
#
# 1 146.1608 17.8220 30.1532 14.6893 -3.5525 28.6133
# 2 17.8220 50.9587 13.2357 20.3162 -9.7186 16.9980
# 3 30.1532 13.2357 66.9800 17.4624 -10.2558 11.2158
# 4 14.6893 20.3162 17.4624 30.8786 2.6311 10.0958
# 5 -3.5525 -9.7186 -10.2558 2.6311 33.2217 10.4226
# 6 28.6133 16.9980 11.2158 10.0958 10.4226 45.6423
#
#
#
# Elastic Compliance Matrix: (Units=1/GPa)
#
#
# Indices 1 2 3 4 5 6 
#
# 1 0.008453 0.000204 -0.002379 -0.001362 0.001880 -0.004919
# 2 0.000204 0.035316 0.003692 -0.022600 0.017413 -0.013165
# 3 -0.002379 0.003692 0.020707 -0.012378 0.009586 -0.004423
# 4 -0.001362 -0.022600 -0.012378 0.055026 -0.016136 0.003825
# 5 0.001880 0.017413 0.009586 -0.016136 0.044871 -0.016696
# 6 -0.004919 -0.013165 -0.004423 0.003825 -0.016696 0.033949
#
#
# Mechanical properties :
#
#
# Convention : Reuss Voigt Hill
#
# Bulk Modulus (GPa) = 14.81271 42.94680 28.87975
# Shear Modulus (GPa) = 22.95769 35.47443 29.21606
#
# Velocity S-wave (km/s) = 3.18885 3.96394 3.59733
# Velocity P-wave (km/s) = 4.48546 6.32243 5.48144
#
# Compressibility (1/GPa) = 0.06750961
#
# Stress axis : x y z
#
# Youngs Moduli (GPa) = 118.29773 28.31594 48.29338
#
# Poissons Ratio (x) = -0.00577 0.11490
# Poissons Ratio (y) = -0.02411 -0.17831
# Poissons Ratio (z) = 0.28145 -0.10455
#
# Static dielectric constant tensor:
#      x y z
#    x 1.452230 0.375330 0.094500 
#    y 0.375330 1.524790 -0.037310 
#    z 0.094500 -0.037310 1.899080 
# 
# From -- ./inp_files/214493.got.cif
#   From: 2010.05.17/outbox.cif.g08.bks.cpg/sg2_108_cif.got.tgz:214493.got - 2010.06.03 11:33:40.
