data_PCOD9003782
_publ_section_title
;
Structure prediction by ZEFSAII (Michael W. Deem and Ramdas Pophale) SiO2 
 PCOD9003782
Probable space group: P -1
;
_chemical_formula_sum "Si O2"
_cell_formula_units_Z 16
_cell_length_a 9.701901
_cell_length_b 14.845527
_cell_length_c 10.441158
_cell_angle_alpha 26.082321
_cell_angle_beta 86.219936
_cell_angle_gamma 83.290894
_cell_volume 654.027890
_symmetry_space_group_name_H-M "P -1"
_symmetry_group_IT_number 2
_symmetry_cell_setting 'triclinic'
loop_
_space_group_symop_operation_xyz
x,y,z
-x,-y,-z
loop_
_atom_site_type_symbol
_atom_site_label
_atom_site_fract_x
_atom_site_fract_y
_atom_site_fract_z
Si Si1 0.957806 0.251003 0.458169
Si Si2 0.548450 0.089115 0.638093
Si Si3 0.191857 0.108519 0.975297
Si Si4 0.220713 0.746103 0.938800
Si Si5 0.295445 0.542525 0.945572
Si Si6 0.076849 0.393833 0.805715
Si Si7 0.242408 0.044758 0.762761
Si Si8 0.309775 0.146466 0.287505
O O1 0.864358 0.376025 0.194760
O O2 0.929965 0.377553 0.429967
O O3 0.122726 0.194825 0.501756
O O4 0.900383 0.034707 0.756532
O O5 0.651597 0.962155 0.895945
O O6 0.561839 0.949010 0.687246
O O7 0.612796 0.297652 0.332325
O O8 0.393309 0.115625 0.664313
O O9 0.185012 0.056863 0.893875
O O10 0.128183 0.338991 0.728016
O O11 0.299913 0.574759 0.057278
O O12 0.262482 0.818222 0.985253
O O13 0.240141 0.954831 0.592574
O O14 0.067663 0.684605 0.046322
O O15 0.341333 0.318451 0.167640
O O16 0.197845 0.265224 0.046687
#
# Coordination Sequence:
#
# PCOD9003782 Si02
#       8
#     2   2   2   2   2   2   2   2
#     4  10  22  38  62  89 118 149 198 243 288 343
#     4   9  21  43  62  84 114 156 198 239 290 347
#     4  10  21  44  62  81 117 157 196 244 288 341
#     4  11  23  34  60  92 122 151 192 239 291 347
#     4   9  21  40  62  86 117 158 192 236 289 346
#     4  10  21  37  62  90 114 155 195 240 291 341
#     4  12  24  38  59  90 122 152 194 243 292 343
#     4   9  20  39  64  84 116 156 200 232 282 354
#
# _framework density 24.463788999999998
#
# number of rings (size 3 to 8) (size 9 to 14) (size 15 to 20)
#    0.000    2.000    1.250    1.875    3.500    3.500 
#    2.250    1.250    0.000    6.000    0.000    0.000 
#    0.000    0.000    0.000    0.000    0.000    0.000 
#
# Total GULP energy -89525.825911 kJ/mol
# GULP energy per Si atom -5595.364119 kJ/mol
# Density = 2.440811 g / cm^3
# Si number density = 24.463789 Si / 1000 Ang^3
#
#
#
# Elastic Constant Matrix: (Units=GPa)
#
#
# Indices 1 2 3 4 5 6 
#
# 1 114.6867 2.8085 25.8762 -8.8263 2.1812 -15.0903
# 2 2.8085 162.4206 35.5918 -30.4248 1.4595 10.1238
# 3 25.8762 35.5918 61.0210 -30.1584 2.6119 -8.2619
# 4 -8.8263 -30.4248 -30.1584 43.6811 4.7292 -1.7616
# 5 2.1812 1.4595 2.6119 4.7292 23.8866 0.3079
# 6 -15.0903 10.1238 -8.2619 -1.7616 0.3079 40.4784
#
#
#
# Elastic Compliance Matrix: (Units=1/GPa)
#
#
# Indices 1 2 3 4 5 6 
#
# 1 0.010029 0.000541 -0.004442 -0.000513 -0.000396 0.002678
# 2 0.000541 0.007618 -0.003464 0.003008 -0.000702 -0.002275
# 3 -0.004442 -0.003464 0.030781 0.018910 -0.006575 0.006366
# 4 -0.000513 0.003008 0.018910 0.039216 -0.010030 0.004699
# 5 -0.000396 -0.000702 -0.006575 -0.010030 0.044675 -0.002090
# 6 0.002678 -0.002275 0.006366 0.004699 -0.002090 0.027791
#
#
# Mechanical properties :
#
#
# Convention : Reuss Voigt Hill
#
# Bulk Modulus (GPa) = 29.67597 51.85349 40.76473
# Shear Modulus (GPa) = 26.87100 39.86602 33.36851
#
# Velocity S-wave (km/s) = 3.31781 4.04120 3.69724
# Velocity P-wave (km/s) = 5.18016 6.55874 5.90979
#
# Compressibility (1/GPa) = 0.03369730
#
# Stress axis : x y z
#
# Youngs Moduli (GPa) = 99.71301 131.26582 32.48733
#
# Poissons Ratio (x) = -0.07096 0.14431
# Poissons Ratio (y) = -0.05390 0.11253
# Poissons Ratio (z) = 0.44294 0.45468
#
# Static dielectric constant tensor:
#      x y z
#    x 1.949170 0.050540 0.032030 
#    y 0.050540 1.990910 -0.007350 
#    z 0.032030 -0.007350 1.928980 
# 
# From -- ./inp_files/398070.got.cif
#   From: 2010.05.17/outbox.cif.g08.bks.cpg/sg2_200_cif.got.tgz:398070.got - 2010.06.03 11:33:40.
