data_PCOD9003674
_publ_section_title
;
Structure prediction by ZEFSAII (Michael W. Deem and Ramdas Pophale) SiO2 
 PCOD9003674
Probable space group: P -1
;
_chemical_formula_sum "Si O2"
_cell_formula_units_Z 16
_cell_length_a 24.600560
_cell_length_b 11.294081
_cell_length_c 15.731484
_cell_angle_alpha 152.159118
_cell_angle_beta 19.753161
_cell_angle_gamma 149.042757
_cell_volume 680.937625
_symmetry_space_group_name_H-M "P -1"
_symmetry_group_IT_number 2
_symmetry_cell_setting 'triclinic'
loop_
_space_group_symop_operation_xyz
x,y,z
-x,-y,-z
loop_
_atom_site_type_symbol
_atom_site_label
_atom_site_fract_x
_atom_site_fract_y
_atom_site_fract_z
Si Si1 0.607659 0.836710 0.630530
Si Si2 0.758820 0.110497 0.743124
Si Si3 0.141250 0.726373 0.906478
Si Si4 0.595433 0.294201 0.361810
Si Si5 0.620901 0.062203 0.443867
Si Si6 0.264409 0.170946 0.236124
Si Si7 0.906380 0.714168 0.601481
Si Si8 0.389248 0.719019 0.220730
O O1 0.618522 0.538098 0.421762
O O2 0.732781 0.972848 0.603606
O O3 0.636055 0.016280 0.620275
O O4 0.421009 0.834640 0.934598
O O5 0.914638 0.332685 0.663678
O O6 0.802043 0.922846 0.635076
O O7 0.290391 0.643256 0.685588
O O8 0.208326 0.798673 0.758266
O O9 0.000000 0.500000 0.000000
O O10 0.113437 0.007876 0.156509
O O11 0.674453 0.070448 0.055684
O O12 0.420073 0.203168 0.608356
O O13 0.587734 0.240070 0.685887
O O14 0.500000 0.000000 0.500000
O O15 0.439798 0.341645 0.104889
O O16 0.135135 0.271116 0.428721
O O17 0.761419 0.501605 0.714521
#
# Coordination Sequence:
#
# PCOD9003674 Si02
#       8
#     2   2   2   2   2   2   2   2
#     4  10  22  41  61  88 125 168 210 245 297 368
#     4  10  22  37  58  87 120 163 205 248 303 366
#     4  10  21  37  61  92 121 152 197 257 315 358
#     4   9  19  38  62  86 116 156 203 249 296 360
#     4   9  20  38  61  90 118 156 204 249 307 365
#     4   9  20  37  61  90 115 153 204 260 315 356
#     4  11  22  38  60  90 126 158 200 262 315 358
#     4  10  22  38  60  91 127 162 203 254 306 368
#
# _framework density 23.497014
#
# number of rings (size 3 to 8) (size 9 to 14) (size 15 to 20)
#    0.000    2.250    0.000    2.250    0.000   13.000 
#    0.000    3.750    0.000    6.750    0.000    0.000 
#    0.000    0.000    0.000    0.000    0.000    0.000 
#
# Total GULP energy -89110.956751 kJ/mol
# GULP energy per Si atom -5569.434797 kJ/mol
# Density = 2.344353 g / cm^3
# Si number density = 23.497014 Si / 1000 Ang^3
#
#
#
# Elastic Constant Matrix: (Units=GPa)
#
#
# Indices 1 2 3 4 5 6 
#
# 1 107.0177 32.1560 22.1723 -8.9904 2.3888 -3.6110
# 2 32.1560 171.8315 36.9361 -14.1773 -5.5842 -4.9679
# 3 22.1723 36.9361 48.3848 -12.3125 -1.4369 9.0264
# 4 -8.9904 -14.1773 -12.3125 37.8376 0.4943 -16.1921
# 5 2.3888 -5.5842 -1.4369 0.4943 33.6300 -6.6581
# 6 -3.6110 -4.9679 9.0264 -16.1921 -6.6581 41.4728
#
#
#
# Elastic Compliance Matrix: (Units=1/GPa)
#
#
# Indices 1 2 3 4 5 6 
#
# 1 0.010741 -0.000902 -0.004221 0.001863 -0.000651 0.002368
# 2 -0.000902 0.007433 -0.005234 0.002154 0.001648 0.003057
# 3 -0.004221 -0.005234 0.028652 0.003883 -0.000551 -0.005803
# 4 0.001863 0.002154 0.003883 0.034701 0.002561 0.013534
# 5 -0.000651 0.001648 -0.000551 0.002561 0.031237 0.006275
# 6 0.002368 0.003057 -0.005803 0.013534 0.006275 0.032239
#
#
# Mechanical properties :
#
#
# Convention : Reuss Voigt Hill
#
# Bulk Modulus (GPa) = 38.29609 56.64031 47.46820
# Shear Modulus (GPa) = 28.66654 38.31938 33.49296
#
# Velocity S-wave (km/s) = 3.49665 4.04272 3.77956
# Velocity P-wave (km/s) = 5.71277 6.77858 6.26837
#
# Compressibility (1/GPa) = 0.02611233
#
# Stress axis : x y z
#
# Youngs Moduli (GPa) = 93.10479 134.53126 34.90169
#
# Poissons Ratio (x) = 0.12131 0.14731
# Poissons Ratio (y) = 0.08395 0.18269
# Poissons Ratio (z) = 0.39297 0.70418
#
# Static dielectric constant tensor:
#      x y z
#    x 1.912500 0.043910 -0.008190 
#    y 0.043910 2.049180 -0.006060 
#    z -0.008190 -0.006060 1.921520 
# 
# From -- ./inp_files/579786.got.cif
#   From: 2010.05.17/outbox.cif.g08.bks.cpg/sg2_290_cif.got.tgz:579786.got - 2010.06.03 11:33:40.
