data_PCOD9003490
_publ_section_title
;
Structure prediction by ZEFSAII (Michael W. Deem and Ramdas Pophale) SiO2 
 PCOD9003490
Probable space group: P -1
;
_chemical_formula_sum "Si O2"
_cell_formula_units_Z 14
_cell_length_a 8.087894
_cell_length_b 14.654215
_cell_length_c 8.817583
_cell_angle_alpha 81.767795
_cell_angle_beta 35.468073
_cell_angle_gamma 86.454008
_cell_volume 597.420304
_symmetry_space_group_name_H-M "P -1"
_symmetry_group_IT_number 2
_symmetry_cell_setting 'triclinic'
loop_
_space_group_symop_operation_xyz
x,y,z
-x,-y,-z
loop_
_atom_site_type_symbol
_atom_site_label
_atom_site_fract_x
_atom_site_fract_y
_atom_site_fract_z
Si Si1 0.703266 0.021438 0.140381
Si Si2 0.760724 0.509911 0.419858
Si Si3 0.188424 0.060990 0.223113
Si Si4 0.593921 0.424757 0.070890
Si Si5 0.835776 0.299701 0.439863
Si Si6 0.710928 0.143296 0.366491
Si Si7 0.531082 0.748161 0.991401
O O1 0.662984 0.118152 0.232430
O O2 0.491749 0.936302 0.379311
O O3 0.694539 0.009662 0.969171
O O4 0.000000 0.000000 0.000000
O O5 0.500000 0.500000 0.500000
O O6 0.777996 0.404686 0.485286
O O7 0.082878 0.544713 0.119874
O O8 0.649899 0.572951 0.620548
O O9 0.361069 0.147219 0.157053
O O10 0.010672 0.119040 0.220819
O O11 0.000000 0.000000 0.500000
O O12 0.500000 0.500000 0.000000
O O13 0.599585 0.323790 0.017862
O O14 0.685618 0.246997 0.418774
O O15 0.175777 0.296730 0.171283
O O16 0.692493 0.246200 0.705018
#
# Coordination Sequence:
#
# PCOD9003490 Si02
#       7
#     2   2   2   2   2   2   2
#     4   9  17  35  57  84 115 162 215 257 314 390
#     4  12  25  42  68 101 140 169 215 284 348 381
#     4  10  21  37  60  90 129 163 210 281 332 370
#     4  12  22  42  71  99 131 177 227 269 324 419
#     4  11  20  39  65  95 126 171 223 271 318 405
#     4   9  19  34  61  85 116 167 219 256 313 399
#     4  11  22  38  67  98 122 173 231 264 320 405
#
# _framework density 23.434086000000001
#
# number of rings (size 3 to 8) (size 9 to 14) (size 15 to 20)
#    0.000    1.429    4.286    1.714    0.000    0.571 
#    0.000    4.286    6.286    0.000    0.000    0.000 
#    0.000    0.000    0.000    0.000    0.000    0.000 
#
# Total GULP energy -78109.797773 kJ/mol
# GULP energy per Si atom -5579.271269 kJ/mol
# Density = 2.338075 g / cm^3
# Si number density = 23.434086 Si / 1000 Ang^3
#
#
#
# Elastic Constant Matrix: (Units=GPa)
#
#
# Indices 1 2 3 4 5 6 
#
# 1 92.7566 32.2193 7.1025 8.3298 0.1218 21.7449
# 2 32.2193 124.3771 31.1579 -2.6228 3.9153 45.4126
# 3 7.1025 31.1579 62.4861 12.5189 2.2563 18.7405
# 4 8.3298 -2.6228 12.5189 35.3398 9.1907 0.0362
# 5 0.1218 3.9153 2.2563 9.1907 42.4759 11.4181
# 6 21.7449 45.4126 18.7405 0.0362 11.4181 46.7458
#
#
#
# Elastic Compliance Matrix: (Units=1/GPa)
#
#
# Indices 1 2 3 4 5 6 
#
# 1 0.013035 -0.002055 0.002016 -0.004587 0.002512 -0.005486
# 2 -0.002055 0.013556 -0.003758 0.002471 0.001391 -0.011049
# 3 0.002016 -0.003758 0.021320 -0.009061 0.002928 -0.006543
# 4 -0.004587 0.002471 -0.009061 0.035052 -0.008792 0.005486
# 5 0.002512 0.001391 0.002928 -0.008792 0.027983 -0.010522
# 6 -0.005486 -0.011049 -0.006543 0.005486 -0.010522 0.039867
#
#
# Mechanical properties :
#
#
# Convention : Reuss Voigt Hill
#
# Bulk Modulus (GPa) = 24.80178 46.73103 35.76640
# Shear Modulus (GPa) = 29.09612 38.85499 33.97556
#
# Velocity S-wave (km/s) = 3.52748 4.07634 3.81180
# Velocity P-wave (km/s) = 5.21511 6.49154 5.88802
#
# Compressibility (1/GPa) = 0.04031969
#
# Stress axis : x y z
#
# Youngs Moduli (GPa) = 76.71759 73.76710 46.90435
#
# Poissons Ratio (x) = 0.15156 -0.09458
# Poissons Ratio (y) = 0.15762 0.17624
# Poissons Ratio (z) = -0.15469 0.27718
#
# Static dielectric constant tensor:
#      x y z
#    x 2.237320 -0.253350 -0.198980 
#    y -0.253350 2.084880 0.215390 
#    z -0.198980 0.215390 2.039240 
# 
# From -- ./inp_files/206650.got.cif
#   From: 2010.05.17/outbox.cif.g08.bks.cpg/sg2_104_cif.got.tgz:206650.got - 2010.06.03 11:33:40.
