data_PCOD9003124
_publ_section_title
;
Structure prediction by ZEFSAII (Michael W. Deem and Ramdas Pophale) SiO2 
 PCOD9003124
Probable space group: P -1
;
_chemical_formula_sum "Si O2"
_cell_formula_units_Z 14
_cell_length_a 7.793127
_cell_length_b 13.711188
_cell_length_c 13.125755
_cell_angle_alpha 126.514569
_cell_angle_beta 50.924061
_cell_angle_gamma 147.551051
_cell_volume 577.450848
_symmetry_space_group_name_H-M "P -1"
_symmetry_group_IT_number 2
_symmetry_cell_setting 'triclinic'
loop_
_space_group_symop_operation_xyz
x,y,z
-x,-y,-z
loop_
_atom_site_type_symbol
_atom_site_label
_atom_site_fract_x
_atom_site_fract_y
_atom_site_fract_z
Si Si1 0.888066 0.596078 0.100629
Si Si2 0.400221 0.259871 0.189432
Si Si3 0.183659 0.649858 0.610481
Si Si4 0.518958 0.025325 0.629655
Si Si5 0.036024 0.684509 0.887423
Si Si6 0.253928 0.284219 0.468819
Si Si7 0.621078 0.935556 0.093396
O O1 0.584755 0.460207 0.208505
O O2 0.228626 0.804753 0.132014
O O3 0.000000 0.500000 0.000000
O O4 0.795401 0.592537 0.017928
O O5 0.652879 0.265600 0.150183
O O6 0.170346 0.201289 0.333945
O O7 0.288670 0.147624 0.057011
O O8 0.950174 0.573177 0.749431
O O9 0.521745 0.722544 0.563571
O O10 0.000000 0.500000 0.500000
O O11 0.306692 0.827976 0.632778
O O12 0.400369 0.083469 0.787257
O O13 0.919703 0.178242 0.587655
O O14 0.500000 0.000000 0.500000
O O15 0.163850 0.866617 0.912581
O O16 0.500000 0.500000 0.500000
#
# Coordination Sequence:
#
# PCOD9003124 Si02
#       7
#     2   2   2   2   2   2   2
#     4   8  13  23  43  72 100 133 174 217 265 322
#     4   9  17  29  50  79 108 143 185 229 277 332
#     4  10  21  37  58  84 116 152 191 236 288 343
#     4  11  23  38  59  86 116 153 193 236 289 343
#     4   8  15  27  48  77 106 139 183 228 276 332
#     4  11  22  38  58  87 120 152 190 237 284 340
#     4   9  16  30  51  77 106 144 186 229 278 336
#
# _framework density 24.244485999999998
#
# number of rings (size 3 to 8) (size 9 to 14) (size 15 to 20)
#    0.000    2.857    0.000    3.857    0.000    4.571 
#    0.000    2.143    0.000    0.000    0.000   21.000 
#    0.000    0.000    0.000    0.000    0.000    0.000 
#
# Total GULP energy -78087.517703 kJ/mol
# GULP energy per Si atom -5577.679836 kJ/mol
# Density = 2.418930 g / cm^3
# Si number density = 24.244486 Si / 1000 Ang^3
#
#
#
# Elastic Constant Matrix: (Units=GPa)
#
#
# Indices 1 2 3 4 5 6 
#
# 1 66.0007 3.7023 28.8550 -10.8228 16.6597 1.4349
# 2 3.7023 56.6235 38.2713 -6.5421 8.0143 -2.8557
# 3 28.8550 38.2713 206.9132 -15.9572 31.6918 14.1932
# 4 -10.8228 -6.5421 -15.9572 45.4614 5.9035 2.7849
# 5 16.6597 8.0143 31.6918 5.9035 36.3922 -6.5464
# 6 1.4349 -2.8557 14.1932 2.7849 -6.5464 28.6878
#
#
#
# Elastic Compliance Matrix: (Units=1/GPa)
#
#
# Indices 1 2 3 4 5 6 
#
# 1 0.018917 0.001113 -0.000637 0.005934 -0.009917 -0.003359
# 2 0.001113 0.020796 -0.003880 0.001867 -0.001396 0.003434
# 3 -0.000637 -0.003880 0.007314 0.003093 -0.006772 -0.005819
# 4 0.005934 0.001867 0.003093 0.026659 -0.011373 -0.006825
# 5 -0.009917 -0.001396 -0.006772 -0.011373 0.042686 0.014552
# 6 -0.003359 0.003434 -0.005819 -0.006825 0.014552 0.042230
#
#
# Mechanical properties :
#
#
# Convention : Reuss Voigt Hill
#
# Bulk Modulus (GPa) = 24.86262 52.35498 38.60880
# Shear Modulus (GPa) = 27.96188 39.35553 33.65870
#
# Velocity S-wave (km/s) = 3.39975 4.03336 3.73004
# Velocity P-wave (km/s) = 5.06837 6.58272 5.87454
#
# Compressibility (1/GPa) = 0.04022102
#
# Stress axis : x y z
#
# Youngs Moduli (GPa) = 52.86348 48.08533 136.71890
#
# Poissons Ratio (x) = -0.05354 0.08709
# Poissons Ratio (y) = -0.05886 0.53041
# Poissons Ratio (z) = 0.03367 0.18655
#
# Static dielectric constant tensor:
#      x y z
#    x 1.977870 0.090440 0.003550 
#    y 0.090440 1.969610 0.055810 
#    z 0.003550 0.055810 2.062670 
# 
# From -- ./inp_files/397615.got.cif
#   From: 2010.05.17/outbox.cif.g08.bks.cpg/sg2_199_cif.got.tgz:397615.got - 2010.06.03 11:33:40.
