data_PCOD9003821
_publ_section_title
;
Structure prediction by ZEFSAII (Michael W. Deem and Ramdas Pophale) SiO2 
 PCOD9003821
Probable space group: P -1
;
_chemical_formula_sum "Si O2"
_cell_formula_units_Z 16
_cell_length_a 9.713989
_cell_length_b 14.685628
_cell_length_c 21.507349
_cell_angle_alpha 162.027319
_cell_angle_beta 53.703358
_cell_angle_gamma 123.127083
_cell_volume 761.323168
_symmetry_space_group_name_H-M "P -1"
_symmetry_group_IT_number 2
_symmetry_cell_setting 'triclinic'
loop_
_space_group_symop_operation_xyz
x,y,z
-x,-y,-z
loop_
_atom_site_type_symbol
_atom_site_label
_atom_site_fract_x
_atom_site_fract_y
_atom_site_fract_z
Si Si1 0.600365 0.442881 0.222966
Si Si2 0.216088 0.098903 0.479206
Si Si3 0.887943 0.262052 0.614733
Si Si4 0.073842 0.377894 0.334970
Si Si5 0.793083 0.945917 0.086352
Si Si6 0.420562 0.185902 0.819945
Si Si7 0.395628 0.964299 0.931769
Si Si8 0.718756 0.131703 0.457555
O O1 0.569746 0.330774 0.229180
O O2 0.456410 0.665090 0.373952
O O3 0.775791 0.605564 0.288057
O O4 0.567233 0.143340 0.000152
O O5 0.166174 0.827023 0.358885
O O6 0.410798 0.035618 0.367090
O O7 0.086645 0.152148 0.491866
O O8 0.764865 0.093029 0.491996
O O9 0.868896 0.611447 0.833619
O O10 0.126846 0.676701 0.481896
O O11 0.000000 0.500000 0.500000
O O12 0.932540 0.180228 0.214425
O O13 0.248762 0.162602 0.139405
O O14 0.688361 0.890073 0.140596
O O15 0.679258 0.058237 0.131332
O O16 0.310469 0.136553 0.754979
O O17 0.500000 0.500000 0.000000
#
# Coordination Sequence:
#
# PCOD9003821 Si02
#       8
#     2   2   2   2   2   2   2   2
#     4   9  19  38  61  87 123 156 203 258 300 356
#     4  10  23  39  63  91 125 161 205 259 304 362
#     4  11  22  41  66  92 119 165 213 251 304 367
#     4  11  21  36  59  92 127 160 198 255 307 365
#     4  12  22  37  67  93 121 167 209 249 310 362
#     4  11  23  42  63  91 129 161 204 258 308 364
#     4  10  21  37  62  92 121 158 212 254 299 371
#     4  10  22  41  64  90 122 163 205 250 311 367
#
# _framework density 21.016041999999999
#
# number of rings (size 3 to 8) (size 9 to 14) (size 15 to 20)
#    0.000    1.500    5.000    1.125    1.750    3.000 
#    0.000    6.875    0.000    0.000    0.000    0.000 
#    0.000    0.000    0.000    0.000    0.000    0.000 
#
# Total GULP energy -89104.373857 kJ/mol
# GULP energy per Si atom -5569.023366 kJ/mol
# Density = 2.096821 g / cm^3
# Si number density = 21.016042 Si / 1000 Ang^3
#
#
#
# Elastic Constant Matrix: (Units=GPa)
#
#
# Indices 1 2 3 4 5 6 
#
# 1 156.3248 19.0581 44.2495 11.6274 30.7607 -18.8155
# 2 19.0581 37.4470 15.9144 12.9886 7.2570 4.5425
# 3 44.2495 15.9144 70.1090 13.6061 32.9851 2.8903
# 4 11.6274 12.9886 13.6061 37.4261 11.0398 6.2110
# 5 30.7607 7.2570 32.9851 11.0398 32.9149 3.6631
# 6 -18.8155 4.5425 2.8903 6.2110 3.6631 33.4882
#
#
#
# Elastic Compliance Matrix: (Units=1/GPa)
#
#
# Indices 1 2 3 4 5 6 
#
# 1 0.009616 -0.003346 -0.002550 -0.000139 -0.006404 0.006803
# 2 -0.003346 0.033746 -0.006124 -0.009259 0.005465 -0.004809
# 3 -0.002550 -0.006124 0.029344 -0.000151 -0.025588 -0.000308
# 4 -0.000139 -0.009259 -0.000151 0.033166 -0.008351 -0.004047
# 5 -0.006404 0.005465 -0.025588 -0.008351 0.064454 -0.007632
# 6 0.006803 -0.004809 -0.000308 -0.004047 -0.007632 0.035948
#
#
# Mechanical properties :
#
#
# Convention : Reuss Voigt Hill
#
# Bulk Modulus (GPa) = 20.54876 46.92498 33.73687
# Shear Modulus (GPa) = 20.28098 33.07643 26.67870
#
# Velocity S-wave (km/s) = 3.10985 3.97150 3.56679
# Velocity P-wave (km/s) = 4.76380 6.58840 5.74895
#
# Compressibility (1/GPa) = 0.04866473
#
# Stress axis : x y z
#
# Youngs Moduli (GPa) = 103.99333 29.63314 34.07846
#
# Poissons Ratio (x) = 0.09916 0.08691
# Poissons Ratio (y) = 0.34797 0.20871
# Poissons Ratio (z) = 0.26521 0.18148
#
# Static dielectric constant tensor:
#      x y z
#    x 1.779150 0.003890 0.014970 
#    y 0.003890 1.788920 -0.010440 
#    z 0.014970 -0.010440 1.900400 
# 
# From -- ./inp_files/329134.got.cif
#   From: 2010.05.17/outbox.cif.g08.bks.cpg/sg2_165_cif.got.tgz:329134.got - 2010.06.03 11:33:40.
