data_PCOD9003150
_publ_section_title
;
Structure prediction by ZEFSAII (Michael W. Deem and Ramdas Pophale) SiO2 
 PCOD9003150
Probable space group: P -1
;
_chemical_formula_sum "Si O2"
_cell_formula_units_Z 16
_cell_length_a 12.752932
_cell_length_b 28.052187
_cell_length_c 28.832983
_cell_angle_alpha 9.702882
_cell_angle_beta 25.899902
_cell_angle_gamma 26.673540
_cell_volume 756.031591
_symmetry_space_group_name_H-M "P -1"
_symmetry_group_IT_number 2
_symmetry_cell_setting 'triclinic'
loop_
_space_group_symop_operation_xyz
x,y,z
-x,-y,-z
loop_
_atom_site_type_symbol
_atom_site_label
_atom_site_fract_x
_atom_site_fract_y
_atom_site_fract_z
Si Si1 0.851388 0.663660 0.212300
Si Si2 0.492779 0.339153 0.228511
Si Si3 0.147014 0.186976 0.593992
Si Si4 0.355145 0.788018 0.336055
Si Si5 0.729128 0.593615 0.187308
Si Si6 0.169887 0.143646 0.732854
Si Si7 0.675991 0.267353 0.856099
Si Si8 0.236706 0.228619 0.338934
O O1 0.589510 0.805399 0.194604
O O2 0.815951 0.420800 0.421230
O O3 0.962086 0.472449 0.394105
O O4 0.016003 0.909694 0.896704
O O5 0.343076 0.276271 0.393715
O O6 0.333810 0.291951 0.291125
O O7 0.726730 0.109572 0.354782
O O8 0.584072 0.645377 0.890398
O O9 0.226845 0.120338 0.678446
O O10 0.428028 0.606299 0.527274
O O11 0.241541 0.103728 0.089901
O O12 0.577821 0.678229 0.120638
O O13 0.977031 0.393425 0.276435
O O14 0.235390 0.441010 0.441304
O O15 0.883776 0.126430 0.873536
O O16 0.320926 0.919570 0.919952
#
# Coordination Sequence:
#
# PCOD9003150 Si02
#       8
#     2   2   2   2   2   2   2   2
#     4  11  23  36  54  87 125 156 190 233 290 367
#     4  10  22  40  61  87 117 153 201 252 299 352
#     4  12  22  38  63  84 116 162 202 241 299 355
#     4  11  23  36  54  87 125 156 190 233 290 367
#     4  12  22  38  63  84 116 162 202 241 299 355
#     4  10  21  37  58  86 118 153 198 247 293 349
#     4  10  21  37  58  86 118 153 198 247 293 349
#     4  10  22  40  61  87 117 153 201 252 299 352
#
# _framework density 21.163136000000002
#
# number of rings (size 3 to 8) (size 9 to 14) (size 15 to 20)
#    0.000    1.250    0.000    6.750    0.000    8.000 
#    0.000    0.000    0.000    4.500    0.000    0.000 
#    0.000    0.000    0.000    0.000    0.000    0.000 
#
# Total GULP energy -89447.022247 kJ/mol
# GULP energy per Si atom -5590.438890 kJ/mol
# Density = 2.111497 g / cm^3
# Si number density = 21.163136 Si / 1000 Ang^3
#
#
#
# Elastic Constant Matrix: (Units=GPa)
#
#
# Indices 1 2 3 4 5 6 
#
# 1 113.4832 44.3661 39.9755 0.9087 31.3349 -4.9849
# 2 44.3661 102.0612 26.9705 4.4680 12.5502 -7.5794
# 3 39.9755 26.9705 110.6865 -4.1398 25.9218 0.6555
# 4 0.9087 4.4680 -4.1398 30.0269 0.6165 13.4497
# 5 31.3349 12.5502 25.9218 0.6165 43.4708 -3.5465
# 6 -4.9849 -7.5794 0.6555 13.4497 -3.5465 23.5593
#
#
#
# Elastic Compliance Matrix: (Units=1/GPa)
#
#
# Indices 1 2 3 4 5 6 
#
# 1 0.013165 -0.004271 -0.002090 -0.000129 -0.006968 0.000494
# 2 -0.004271 0.012723 -0.002058 -0.004848 0.001207 0.006196
# 3 -0.002090 -0.002058 0.011720 0.004157 -0.005323 -0.004605
# 4 -0.000129 -0.004848 0.004157 0.047998 -0.004092 -0.029720
# 5 -0.006968 0.001207 -0.005323 -0.004092 0.031410 0.006126
# 6 0.000494 0.006196 -0.004605 -0.029720 0.006126 0.062561
#
#
# Mechanical properties :
#
#
# Convention : Reuss Voigt Hill
#
# Bulk Modulus (GPa) = 48.14870 60.98387 54.56629
# Shear Modulus (GPa) = 24.58966 33.73932 29.16449
#
# Velocity S-wave (km/s) = 3.41238 3.99714 3.71628
# Velocity P-wave (km/s) = 6.19083 7.08389 6.65236
#
# Compressibility (1/GPa) = 0.02076899
#
# Stress axis : x y z
#
# Youngs Moduli (GPa) = 75.96149 78.60086 85.32372
#
# Poissons Ratio (x) = 0.33572 0.17830
# Poissons Ratio (y) = 0.32445 0.17561
# Poissons Ratio (z) = 0.15874 0.16177
#
# Static dielectric constant tensor:
#      x y z
#    x 1.781740 -0.001800 0.006400 
#    y -0.001800 1.807380 0.010510 
#    z 0.006400 0.010510 1.750290 
# 
# From -- ./inp_files/618846.got.cif
#   From: 2010.05.17/outbox.cif.g08.bks.cpg/sg2_310_cif.got.tgz:618846.got - 2010.06.03 11:33:40.
