data_PCOD9003063
_publ_section_title
;
Structure prediction by ZEFSAII (Michael W. Deem and Ramdas Pophale) SiO2 
 PCOD9003063
Probable space group: P -1
;
_chemical_formula_sum "Si O2"
_cell_formula_units_Z 16
_cell_length_a 13.884529
_cell_length_b 14.432686
_cell_length_c 10.705637
_cell_angle_alpha 148.364268
_cell_angle_beta 43.393898
_cell_angle_gamma 132.940045
_cell_volume 761.319485
_symmetry_space_group_name_H-M "P -1"
_symmetry_group_IT_number 2
_symmetry_cell_setting 'triclinic'
loop_
_space_group_symop_operation_xyz
x,y,z
-x,-y,-z
loop_
_atom_site_type_symbol
_atom_site_label
_atom_site_fract_x
_atom_site_fract_y
_atom_site_fract_z
Si Si1 0.275594 0.185335 0.135811
Si Si2 0.280837 0.191407 0.607872
Si Si3 0.520904 0.475092 0.302328
Si Si4 0.285946 0.806813 0.153852
Si Si5 0.128248 0.890889 0.775912
Si Si6 0.995556 0.285666 0.062494
Si Si7 0.974985 0.312776 0.595559
Si Si8 0.235400 0.976822 0.167250
O O1 0.380812 0.372683 0.247812
O O2 0.118477 0.229450 0.363763
O O3 0.322504 0.080297 0.091036
O O4 0.256514 0.043775 0.877697
O O5 0.410899 0.344336 0.625207
O O6 0.321485 0.006584 0.407461
O O7 0.210721 0.123058 0.461200
O O8 0.158978 0.256957 0.879004
O O9 0.500000 0.500000 0.500000
O O10 0.632963 0.339137 0.034523
O O11 0.313382 0.843381 0.022193
O O12 0.117423 0.734370 0.247426
O O13 0.078836 0.752169 0.776121
O O14 0.131406 0.781000 0.520497
O O15 0.000000 0.000000 0.000000
O O16 0.989766 0.478927 0.232390
O O17 0.905589 0.134203 0.886522
#
# Coordination Sequence:
#
# PCOD9003063 Si02
#       8
#     2   2   2   2   2   2   2   2
#     4  10  22  38  59  88 121 160 200 246 300 356
#     4  10  21  37  57  85 127 157 191 241 299 360
#     4  12  23  39  59  89 128 162 196 239 299 374
#     4  10  23  39  61  87 124 163 195 244 304 349
#     4   9  20  40  61  85 117 155 200 259 300 337
#     4  11  20  35  63  93 118 150 210 250 297 354
#     4  11  22  38  65  88 116 158 207 254 295 345
#     4   9  21  34  56  87 122 158 195 241 301 352
#
# _framework density 21.016143
#
# number of rings (size 3 to 8) (size 9 to 14) (size 15 to 20)
#    0.750    1.000    2.500    3.000    3.500    2.500 
#    2.250    0.625    0.000    3.750    0.000    0.000 
#    0.000    0.000    0.000    0.000    0.000    0.000 
#
# Total GULP energy -89218.062485 kJ/mol
# GULP energy per Si atom -5576.128905 kJ/mol
# Density = 2.096831 g / cm^3
# Si number density = 21.016143 Si / 1000 Ang^3
#
#
#
# Elastic Constant Matrix: (Units=GPa)
#
#
# Indices 1 2 3 4 5 6 
#
# 1 39.2595 24.2965 -3.1194 1.6279 9.1365 4.5593
# 2 24.2965 120.2243 34.2082 39.9005 7.0961 5.6876
# 3 -3.1194 34.2082 35.5651 10.7217 -5.3225 8.2715
# 4 1.6279 39.9005 10.7217 30.2156 -1.9909 -2.1922
# 5 9.1365 7.0961 -5.3225 -1.9909 28.6379 6.7556
# 6 4.5593 5.6876 8.2715 -2.1922 6.7556 27.1259
#
#
#
# Elastic Compliance Matrix: (Units=1/GPa)
#
#
# Indices 1 2 3 4 5 6 
#
# 1 0.037214 -0.015635 0.015494 0.012523 -0.002837 -0.005983
# 2 -0.015635 0.026929 -0.020926 -0.027606 -0.008244 0.003185
# 3 0.015494 -0.020926 0.053714 0.007437 0.014920 -0.017710
# 4 0.012523 -0.027606 0.007437 0.067102 0.007733 0.004913
# 5 -0.002837 -0.008244 0.014920 0.007733 0.044178 -0.012722
# 6 -0.005983 0.003185 -0.017710 0.004913 -0.012722 0.046169
#
#
# Mechanical properties :
#
#
# Convention : Reuss Voigt Hill
#
# Bulk Modulus (GPa) = 13.20569 33.97996 23.59282
# Shear Modulus (GPa) = 14.59083 26.50676 20.54880
#
# Velocity S-wave (km/s) = 2.63775 3.55527 3.13031
# Velocity P-wave (km/s) = 3.94642 5.74951 4.93108
#
# Compressibility (1/GPa) = 0.07572495
#
# Stress axis : x y z
#
# Youngs Moduli (GPa) = 26.87128 37.13406 18.61720
#
# Poissons Ratio (x) = 0.58059 -0.28846
# Poissons Ratio (y) = 0.42013 0.38958
# Poissons Ratio (z) = -0.41635 0.77706
#
# Static dielectric constant tensor:
#      x y z
#    x 1.776630 0.001460 0.012470 
#    y 0.001460 1.781650 -0.006530 
#    z 0.012470 -0.006530 1.763050 
# 
# From -- ./inp_files/455208.got.cif
#   From: 2010.05.17/outbox.cif.g08.bks.cpg/sg2_228_cif.got.tgz:455208.got - 2010.06.03 11:33:40.
