data_PCOD9003695
_publ_section_title
;
Structure prediction by ZEFSAII (Michael W. Deem and Ramdas Pophale) SiO2 
 PCOD9003695
Probable space group: P -1
;
_chemical_formula_sum "Si O2"
_cell_formula_units_Z 14
_cell_length_a 12.283247
_cell_length_b 11.340926
_cell_length_c 7.869133
_cell_angle_alpha 108.212984
_cell_angle_beta 58.900670
_cell_angle_gamma 68.692576
_cell_volume 681.188926
_symmetry_space_group_name_H-M "P -1"
_symmetry_group_IT_number 2
_symmetry_cell_setting 'triclinic'
loop_
_space_group_symop_operation_xyz
x,y,z
-x,-y,-z
loop_
_atom_site_type_symbol
_atom_site_label
_atom_site_fract_x
_atom_site_fract_y
_atom_site_fract_z
Si Si1 0.274510 0.497908 0.405131
Si Si2 0.135939 0.811125 0.849998
Si Si3 0.064685 0.254375 0.870348
Si Si4 0.484069 0.727316 0.587859
Si Si5 0.062340 0.433798 0.694098
Si Si6 0.323066 0.368894 0.972992
Si Si7 0.628334 0.938145 0.217531
O O1 0.166382 0.687849 0.623026
O O2 0.403648 0.400132 0.411508
O O3 0.162155 0.442269 0.472399
O O4 0.357951 0.444337 0.128554
O O5 0.313811 0.759134 0.718217
O O6 0.056232 0.785797 0.061380
O O7 0.000000 0.000000 0.000000
O O8 0.197518 0.146009 0.863017
O O9 0.147653 0.262359 0.640196
O O10 0.952987 0.438992 0.109214
O O11 0.581884 0.668950 0.300421
O O12 0.431469 0.901606 0.757256
O O13 0.875732 0.506993 0.841359
O O14 0.364896 0.202868 0.929726
O O15 0.500000 0.000000 0.500000
#
# Coordination Sequence:
#
# PCOD9003695 Si02
#       7
#     2   2   2   2   2   2   2
#     4  11  23  38  64  92 120 156 203 249 301 358
#     4  11  22  39  62  85 121 168 203 241 298 360
#     4   9  16  32  58  84 112 154 197 234 293 353
#     4  11  22  39  61  88 122 164 200 244 297 358
#     4   9  17  33  57  88 119 146 191 250 301 349
#     4  10  21  37  61  94 121 154 199 253 302 355
#     4   9  17  32  58  86 118 150 191 241 301 348
#
# _framework density 20.552301
#
# number of rings (size 3 to 8) (size 9 to 14) (size 15 to 20)
#    0.000    2.000    1.429    5.143    0.000    1.143 
#    0.000    0.000    0.000    4.286    0.000    0.000 
#    0.000    0.000    0.000    0.000    0.000    0.000 
#
# Total GULP energy -77961.249896 kJ/mol
# GULP energy per Si atom -5568.660707 kJ/mol
# Density = 2.050552 g / cm^3
# Si number density = 20.552301 Si / 1000 Ang^3
#
#
#
# Elastic Constant Matrix: (Units=GPa)
#
#
# Indices 1 2 3 4 5 6 
#
# 1 84.7110 38.8680 52.7522 -4.2972 -15.6711 2.8965
# 2 38.8680 99.7801 35.2781 15.1974 7.4224 1.7230
# 3 52.7522 35.2781 79.9485 12.5111 3.2537 -6.3246
# 4 -4.2972 15.1974 12.5111 26.5425 6.0828 -3.1681
# 5 -15.6711 7.4224 3.2537 6.0828 40.4062 -3.9076
# 6 2.8965 1.7230 -6.3246 -3.1681 -3.9076 25.9321
#
#
#
# Elastic Compliance Matrix: (Units=1/GPa)
#
#
# Indices 1 2 3 4 5 6 
#
# 1 0.031954 -0.008484 -0.020753 0.016396 0.012754 -0.004142
# 2 -0.008484 0.014952 0.000508 -0.009275 -0.004855 -0.001786
# 3 -0.020753 0.000508 0.029121 -0.014863 -0.007629 0.006421
# 4 0.016396 -0.009275 -0.014863 0.052511 0.001529 0.001806
# 5 0.012754 -0.004855 -0.007629 0.001529 0.031157 0.001919
# 6 -0.004142 -0.001786 0.006421 0.001806 0.001919 0.041219
#
#
# Mechanical properties :
#
#
# Convention : Reuss Voigt Hill
#
# Bulk Modulus (GPa) = 53.85223 57.58182 55.71703
# Shear Modulus (GPa) = 18.89915 27.74558 23.32237
#
# Velocity S-wave (km/s) = 3.03572 3.67822 3.37231
# Velocity P-wave (km/s) = 6.20861 6.79096 6.50630
#
# Compressibility (1/GPa) = 0.01856933
#
# Stress axis : x y z
#
# Youngs Moduli (GPa) = 31.29511 66.88086 34.33907
#
# Poissons Ratio (x) = 0.56744 0.71263
# Poissons Ratio (y) = 0.26552 -0.01745
# Poissons Ratio (z) = 0.64946 -0.03399
#
# Static dielectric constant tensor:
#      x y z
#    x 1.877780 -0.037460 -0.047850 
#    y -0.037460 1.839880 -0.047040 
#    z -0.047850 -0.047040 1.827660 
# 
# From -- ./inp_files/254454.got.cif
#   From: 2010.05.17/outbox.cif.g08.bks.cpg/sg2_128_cif.got.tgz:254454.got - 2010.06.03 11:33:40.
