data_PCOD9003215
_publ_section_title
;
Structure prediction by ZEFSAII (Michael W. Deem and Ramdas Pophale) SiO2 
 PCOD9003215
Probable space group: P -1
;
_chemical_formula_sum "Si O2"
_cell_formula_units_Z 16
_cell_length_a 12.495254
_cell_length_b 21.061070
_cell_length_c 10.371860
_cell_angle_alpha 45.954688
_cell_angle_beta 62.435967
_cell_angle_gamma 25.504478
_cell_volume 715.159246
_symmetry_space_group_name_H-M "P -1"
_symmetry_group_IT_number 2
_symmetry_cell_setting 'triclinic'
loop_
_space_group_symop_operation_xyz
x,y,z
-x,-y,-z
loop_
_atom_site_type_symbol
_atom_site_label
_atom_site_fract_x
_atom_site_fract_y
_atom_site_fract_z
Si Si1 0.605039 0.254156 0.273822
Si Si2 0.614913 0.377097 0.478095
Si Si3 0.006033 0.296163 0.663962
Si Si4 0.787144 0.131120 0.077804
Si Si5 0.024065 0.313615 0.918459
Si Si6 0.097780 0.779778 0.723552
Si Si7 0.752577 0.041780 0.986534
Si Si8 0.165369 0.405768 0.677899
O O1 0.563603 0.273731 0.116987
O O2 0.316540 0.433630 0.261987
O O3 0.710209 0.283621 0.202857
O O4 0.832510 0.025244 0.500608
O O5 0.500000 0.500000 0.500000
O O6 0.335026 0.504584 0.416728
O O7 0.725157 0.354462 0.319410
O O8 0.913036 0.124212 0.701229
O O9 0.132615 0.219097 0.847960
O O10 0.002839 0.394180 0.461523
O O11 0.183471 0.095690 0.790505
O O12 0.656199 0.177149 0.956681
O O13 0.928681 0.134176 0.986438
O O14 0.156212 0.318831 0.881228
O O15 0.018160 0.231895 0.128159
O O16 0.512389 0.196993 0.788551
O O17 0.000000 0.500000 0.500000
#
# Coordination Sequence:
#
# PCOD9003215 Si02
#       8
#     2   2   2   2   2   2   2   2
#     4  10  21  37  58  92 125 158 200 259 316 361
#     4  11  20  37  63  97 127 158 200 261 324 362
#     4  11  22  38  63  91 124 162 205 261 306 364
#     4  10  22  36  62  95 128 158 201 268 314 366
#     4  11  23  39  61  87 123 168 207 248 305 373
#     4  10  22  36  62  93 125 161 201 262 310 366
#     4  11  22  39  62  94 124 162 212 255 314 369
#     4  10  25  42  62  89 126 169 211 257 301 369
#
# _framework density 22.372640000000001
#
# number of rings (size 3 to 8) (size 9 to 14) (size 15 to 20)
#    0.000    1.500    3.750    1.125    1.750    5.000 
#    0.000    0.625    0.000    2.250    0.000    0.000 
#    0.000    0.000    0.000    0.000    0.000    0.000 
#
# Total GULP energy -89166.665583 kJ/mol
# GULP energy per Si atom -5572.916599 kJ/mol
# Density = 2.232172 g / cm^3
# Si number density = 22.372640 Si / 1000 Ang^3
#
#
#
# Elastic Constant Matrix: (Units=GPa)
#
#
# Indices 1 2 3 4 5 6 
#
# 1 97.2703 27.3926 51.4680 8.1012 -15.9601 -5.0772
# 2 27.3926 48.2355 25.3191 10.1260 -10.4538 19.6851
# 3 51.4680 25.3191 106.9412 -1.3790 -29.8145 -4.2790
# 4 8.1012 10.1260 -1.3790 36.1884 -6.4890 -1.5173
# 5 -15.9601 -10.4538 -29.8145 -6.4890 48.9383 4.7548
# 6 -5.0772 19.6851 -4.2790 -1.5173 4.7548 23.9449
#
#
#
# Elastic Compliance Matrix: (Units=1/GPa)
#
#
# Indices 1 2 3 4 5 6 
#
# 1 0.017053 -0.012939 -0.005050 -0.000107 -0.001621 0.013666
# 2 -0.012939 0.060156 -0.008554 -0.015388 0.006825 -0.056057
# 3 -0.005050 -0.008554 0.015923 0.005574 0.006195 0.007930
# 4 -0.000107 -0.015388 0.005574 0.033353 0.003026 0.015137
# 5 -0.001621 0.006825 0.006195 0.003026 0.026502 -0.009919
# 6 0.013666 -0.056057 0.007930 0.015137 -0.009919 0.095090
#
#
# Mechanical properties :
#
#
# Convention : Reuss Voigt Hill
#
# Bulk Modulus (GPa) = 24.97142 51.20071 38.08607
# Shear Modulus (GPa) = 15.89761 31.69881 23.79821
#
# Velocity S-wave (km/s) = 2.66857 3.76820 3.26501
# Velocity P-wave (km/s) = 4.54762 6.47051 5.59233
#
# Compressibility (1/GPa) = 0.04004578
#
# Stress axis : x y z
#
# Youngs Moduli (GPa) = 58.64095 16.62332 62.80241
#
# Poissons Ratio (x) = 0.21510 0.31717
# Poissons Ratio (y) = 0.75878 0.53719
# Poissons Ratio (z) = 0.29615 0.14219
#
# Static dielectric constant tensor:
#      x y z
#    x 1.902690 -0.011120 -0.021210 
#    y -0.011120 1.803980 0.008920 
#    z -0.021210 0.008920 1.934380 
# 
# From -- ./inp_files/426848.got.cif
#   From: 2010.05.17/outbox.cif.g08.bks.cpg/sg2_214_cif.got.tgz:426848.got - 2010.06.03 11:33:40.
