data_PCOD9003593
_publ_section_title
;
Structure prediction by ZEFSAII (Michael W. Deem and Ramdas Pophale) SiO2 
 PCOD9003593
Probable space group: P -1
;
_chemical_formula_sum "Si O2"
_cell_formula_units_Z 16
_cell_length_a 6.202442
_cell_length_b 16.761831
_cell_length_c 15.765886
_cell_angle_alpha 146.788468
_cell_angle_beta 54.195357
_cell_angle_gamma 115.390452
_cell_volume 721.290539
_symmetry_space_group_name_H-M "P -1"
_symmetry_group_IT_number 2
_symmetry_cell_setting 'triclinic'
loop_
_space_group_symop_operation_xyz
x,y,z
-x,-y,-z
loop_
_atom_site_type_symbol
_atom_site_label
_atom_site_fract_x
_atom_site_fract_y
_atom_site_fract_z
Si Si1 0.768112 0.891232 0.563707
Si Si2 0.114874 0.603791 0.998515
Si Si3 0.206017 0.065451 0.899431
Si Si4 0.779660 0.903171 0.371555
Si Si5 0.192375 0.425636 0.647045
Si Si6 0.243943 0.111594 0.133591
Si Si7 0.693005 0.576626 0.637033
Si Si8 0.297531 0.368493 0.120732
O O1 0.764274 0.859771 0.435870
O O2 0.786766 0.745195 0.486354
O O3 0.500977 0.994539 0.743952
O O4 0.010126 0.985653 0.599383
O O5 0.901135 0.749475 0.163787
O O6 0.161608 0.511291 0.819750
O O7 0.407423 0.639515 0.995069
O O8 0.000000 0.500000 0.000000
O O9 0.192068 0.096809 0.031527
O O10 0.154398 0.224530 0.008458
O O11 0.006763 0.949250 0.819161
O O12 0.500000 0.000000 0.500000
O O13 0.458985 0.474951 0.584876
O O14 0.916108 0.488444 0.719710
O O15 0.301065 0.275584 0.287364
O O16 0.500000 0.000000 0.000000
O O17 0.639039 0.632518 0.795042
O O18 0.000000 0.500000 0.500000
#
# Coordination Sequence:
#
# PCOD9003593 Si02
#       8
#     2   2   2   2   2   2   2   2
#     4  11  24  42  59  94 123 156 206 251 297 362
#     4  11  23  43  61  89 126 157 204 253 295 367
#     4  10  21  39  59  85 123 153 198 253 291 359
#     4  11  26  42  63  90 123 161 203 251 307 356
#     4  11  24  38  66  91 121 166 202 243 311 356
#     4  10  21  37  61  87 114 159 200 239 304 356
#     4  10  22  40  59  90 127 154 203 254 293 362
#     4  10  23  40  62  90 122 164 202 247 305 360
#
# _framework density 22.182462000000001
#
# number of rings (size 3 to 8) (size 9 to 14) (size 15 to 20)
#    0.000    1.500    2.500    1.500    3.500    3.000 
#    0.000    0.000    0.000    0.000    0.000    0.000 
#    0.000    0.000    0.000    0.000    0.000    0.000 
#
# Total GULP energy -89362.961862 kJ/mol
# GULP energy per Si atom -5585.185116 kJ/mol
# Density = 2.213197 g / cm^3
# Si number density = 22.182462 Si / 1000 Ang^3
#
#
#
# Elastic Constant Matrix: (Units=GPa)
#
#
# Indices 1 2 3 4 5 6 
#
# 1 45.1226 41.7709 -1.0895 9.2817 -22.7002 17.3803
# 2 41.7709 145.2020 30.4498 13.5398 -15.8911 17.6322
# 3 -1.0895 30.4498 74.2899 15.4828 -23.9873 3.4472
# 4 9.2817 13.5398 15.4828 45.2177 -3.8088 -16.0361
# 5 -22.7002 -15.8911 -23.9873 -3.8088 43.8223 -8.1641
# 6 17.3803 17.6322 3.4472 -16.0361 -8.1641 22.2622
#
#
#
# Elastic Compliance Matrix: (Units=1/GPa)
#
#
# Indices 1 2 3 4 5 6 
#
# 1 0.182222 -0.025562 0.071030 -0.113052 0.079667 -0.185234
# 2 -0.025562 0.012867 -0.012091 0.009609 -0.011700 0.014269
# 3 0.071030 -0.012091 0.046010 -0.049784 0.039404 -0.074412
# 4 -0.113052 0.009609 -0.049784 0.109093 -0.044805 0.150510
# 5 0.079667 -0.011700 0.039404 -0.044805 0.064946 -0.067489
# 6 -0.185234 0.014269 -0.074412 0.150510 -0.067489 0.273421
#
#
# Mechanical properties :
#
#
# Convention : Reuss Voigt Hill
#
# Bulk Modulus (GPa) = 3.24832 45.20854 24.22843
# Shear Modulus (GPa) = 6.90205 35.15934 21.03070
#
# Velocity S-wave (km/s) = 1.76586 3.98553 3.08243
# Velocity P-wave (km/s) = 2.37175 6.45010 4.85948
#
# Compressibility (1/GPa) = 0.30785116
#
# Stress axis : x y z
#
# Youngs Moduli (GPa) = 5.48783 77.71889 21.73449
#
# Poissons Ratio (x) = 1.98664 -1.54379
# Poissons Ratio (y) = 0.14028 0.26280
# Poissons Ratio (z) = -0.38980 0.93973
#
# Static dielectric constant tensor:
#      x y z
#    x 2.044450 -0.056350 0.054060 
#    y -0.056350 1.849420 -0.018100 
#    z 0.054060 -0.018100 1.822290 
# 
# From -- ./inp_files/37294.got.cif
#   From: 2010.05.17/outbox.cif.g08.bks.cpg/sg2_19_cif.got.tgz:37294.got - 2010.06.03 11:33:40.
