data_PCOD9003603
_publ_section_title
;
Structure prediction by ZEFSAII (Michael W. Deem and Ramdas Pophale) SiO2 
 PCOD9003603
Probable space group: P -1
;
_chemical_formula_sum "Si O2"
_cell_formula_units_Z 16
_cell_length_a 11.578505
_cell_length_b 14.390784
_cell_length_c 8.664282
_cell_angle_alpha 106.292131
_cell_angle_beta 38.945008
_cell_angle_gamma 85.278731
_cell_volume 755.297364
_symmetry_space_group_name_H-M "P -1"
_symmetry_group_IT_number 2
_symmetry_cell_setting 'triclinic'
loop_
_space_group_symop_operation_xyz
x,y,z
-x,-y,-z
loop_
_atom_site_type_symbol
_atom_site_label
_atom_site_fract_x
_atom_site_fract_y
_atom_site_fract_z
Si Si1 0.318677 0.559096 0.842912
Si Si2 0.219872 0.931856 0.519369
Si Si3 0.023115 0.643872 0.628932
Si Si4 0.941812 0.283338 0.045795
Si Si5 0.725607 0.280278 0.769000
Si Si6 0.409147 0.070065 0.467870
Si Si7 0.755116 0.129073 0.173377
Si Si8 0.677061 0.587804 0.959014
O O1 0.500000 0.500000 0.500000
O O2 0.098381 0.635880 0.018249
O O3 0.343205 0.644751 0.971795
O O4 0.320816 0.463570 0.901788
O O5 0.250096 0.840923 0.318966
O O6 0.260901 0.880785 0.627969
O O7 0.368897 0.986161 0.365050
O O8 0.975514 0.028111 0.833087
O O9 0.096914 0.650542 0.725589
O O10 0.058886 0.726653 0.520674
O O11 0.175591 0.520739 0.347665
O O12 0.787024 0.663510 0.885160
O O13 0.777532 0.237585 0.175132
O O14 0.174631 0.176882 0.774647
O O15 0.549135 0.350064 0.856148
O O16 0.567596 0.115964 0.286951
O O17 0.500000 0.000000 0.500000
#
# Coordination Sequence:
#
# PCOD9003603 Si02
#       8
#     2   2   2   2   2   2   2   2
#     4  11  24  41  61  88 127 167 198 247 307 363
#     4   9  18  32  60  89 114 149 202 248 297 346
#     4  10  21  37  61  88 119 153 206 257 291 354
#     4  11  21  36  60  89 121 159 197 240 308 361
#     4  11  21  39  65  88 119 162 206 247 298 356
#     4   9  20  34  57  92 120 149 196 248 297 357
#     4   9  18  35  55  90 121 149 191 254 297 352
#     4  10  23  40  60  89 117 158 207 254 298 349
#
# _framework density 21.183710000000001
#
# number of rings (size 3 to 8) (size 9 to 14) (size 15 to 20)
#    0.000    2.000    1.250    3.750    3.500    0.500 
#    0.000    8.750    0.000    1.500    0.000    0.000 
#    0.000    0.000    0.000    0.000    0.000    0.000 
#
# Total GULP energy -89309.327965 kJ/mol
# GULP energy per Si atom -5581.832998 kJ/mol
# Density = 2.113550 g / cm^3
# Si number density = 21.183710 Si / 1000 Ang^3
#
#
#
# Elastic Constant Matrix: (Units=GPa)
#
#
# Indices 1 2 3 4 5 6 
#
# 1 92.2766 53.2537 53.5637 -11.5468 -2.0801 16.9761
# 2 53.2537 59.1847 37.5310 -9.2327 -1.3584 19.1853
# 3 53.5637 37.5310 66.7506 -3.7009 1.5278 9.2238
# 4 -11.5468 -9.2327 -3.7009 19.2673 6.0803 -10.8134
# 5 -2.0801 -1.3584 1.5278 6.0803 30.8575 0.9622
# 6 16.9761 19.1853 9.2238 -10.8134 0.9622 49.6312
#
#
#
# Elastic Compliance Matrix: (Units=1/GPa)
#
#
# Indices 1 2 3 4 5 6 
#
# 1 0.029237 -0.016598 -0.013821 0.007032 0.000523 0.000506
# 2 -0.016598 0.039751 -0.007826 0.003156 0.000632 -0.007559
# 3 -0.013821 -0.007826 0.030081 -0.005075 -0.001800 0.001091
# 4 0.007032 0.003156 -0.005075 0.067607 -0.012841 0.012296
# 5 0.000523 0.000632 -0.001800 -0.012841 0.035201 -0.003569
# 6 0.000506 -0.007559 0.001091 0.012296 -0.003569 0.025443
#
#
# Mechanical properties :
#
#
# Convention : Reuss Voigt Hill
#
# Bulk Modulus (GPa) = 44.28924 56.32319 50.30622
# Shear Modulus (GPa) = 16.05984 24.87544 20.46764
#
# Velocity S-wave (km/s) = 2.75639 3.43048 3.11174
# Velocity P-wave (km/s) = 5.57520 6.50666 6.05886
#
# Compressibility (1/GPa) = 0.02257885
#
# Stress axis : x y z
#
# Youngs Moduli (GPa) = 34.20327 25.15668 33.24355
#
# Poissons Ratio (x) = 0.41755 0.45945
# Poissons Ratio (y) = 0.56770 0.26017
# Poissons Ratio (z) = 0.47272 0.19688
#
# Static dielectric constant tensor:
#      x y z
#    x 1.767350 0.010280 -0.012260 
#    y 0.010280 1.810990 -0.001250 
#    z -0.012260 -0.001250 1.763850 
# 
# From -- ./inp_files/273540.got.cif
#   From: 2010.05.17/outbox.cif.g08.bks.cpg/sg2_137_cif.got.tgz:273540.got - 2010.06.03 11:33:40.
