data_PCOD9003116
_publ_section_title
;
Structure prediction by ZEFSAII (Michael W. Deem and Ramdas Pophale) SiO2 
 PCOD9003116
Probable space group: P -1
;
_chemical_formula_sum "Si O2"
_cell_formula_units_Z 16
_cell_length_a 12.258652
_cell_length_b 12.338813
_cell_length_c 9.001758
_cell_angle_alpha 53.843233
_cell_angle_beta 63.589336
_cell_angle_gamma 36.107485
_cell_volume 646.393614
_symmetry_space_group_name_H-M "P -1"
_symmetry_group_IT_number 2
_symmetry_cell_setting 'triclinic'
loop_
_space_group_symop_operation_xyz
x,y,z
-x,-y,-z
loop_
_atom_site_type_symbol
_atom_site_label
_atom_site_fract_x
_atom_site_fract_y
_atom_site_fract_z
Si Si1 0.119807 0.596505 0.831978
Si Si2 0.892816 0.496546 0.771831
Si Si3 0.994122 0.718619 0.497976
Si Si4 0.319542 0.681741 0.644384
Si Si5 0.320891 0.794150 0.259041
Si Si6 0.386271 0.347642 0.413185
Si Si7 0.550410 0.829945 0.197877
Si Si8 0.892238 0.947900 0.107668
O O1 0.982018 0.745511 0.660526
O O2 0.182932 0.686184 0.797301
O O3 0.280364 0.385994 0.811828
O O4 0.080289 0.532473 0.044662
O O5 0.688452 0.631935 0.719490
O O6 0.947912 0.598982 0.600027
O O7 0.015329 0.268658 0.828019
O O8 0.204442 0.568207 0.426039
O O9 0.865981 0.925681 0.313239
O O10 0.221162 0.799867 0.450390
O O11 0.493894 0.443507 0.688372
O O12 0.436095 0.702358 0.640176
O O13 0.374542 0.883150 0.239786
O O14 0.254996 0.893720 0.057332
O O15 0.414446 0.195499 0.626835
O O16 0.500000 0.000000 0.000000
O O17 0.000000 0.000000 0.000000
#
# Coordination Sequence:
#
# PCOD9003116 Si02
#       8
#     2   2   2   2   2   2   2   2
#     4  10  21  38  59  80 117 158 190 227 297 353
#     4  11  23  37  58  85 121 161 184 232 297 355
#     4  10  21  37  58  83 119 157 191 233 285 354
#     4   9  17  36  57  84 110 147 187 240 289 336
#     4   9  17  30  56  83 105 136 190 241 275 324
#     4   9  18  34  58  82 107 144 197 233 282 332
#     4   9  19  32  58  80 105 143 195 240 268 330
#     4  11  21  35  60  88 112 147 201 244 276 335
#
# _framework density 24.752723
#
# number of rings (size 3 to 8) (size 9 to 14) (size 15 to 20)
#    0.000    2.250    0.000    6.375    5.250    0.500 
#    0.000    3.125    2.750    0.000    0.000    0.000 
#    0.000    0.000    0.000    0.000    0.000    0.000 
#
# Total GULP energy -89101.422835 kJ/mol
# GULP energy per Si atom -5568.838927 kJ/mol
# Density = 2.469638 g / cm^3
# Si number density = 24.752723 Si / 1000 Ang^3
#
#
#
# Elastic Constant Matrix: (Units=GPa)
#
#
# Indices 1 2 3 4 5 6 
#
# 1 106.1832 20.0071 61.2189 0.4926 10.5515 18.4020
# 2 20.0071 58.6817 37.0594 -4.8367 -1.2619 6.9831
# 3 61.2189 37.0594 213.9145 -21.2701 24.6609 -1.1630
# 4 0.4926 -4.8367 -21.2701 30.2445 4.7739 1.2517
# 5 10.5515 -1.2619 24.6609 4.7739 61.4369 -6.6467
# 6 18.4020 6.9831 -1.1630 1.2517 -6.6467 8.3681
#
#
#
# Elastic Compliance Matrix: (Units=1/GPa)
#
#
# Indices 1 2 3 4 5 6 
#
# 1 0.025278 0.003641 -0.007348 -0.000932 -0.008405 -0.066183
# 2 0.003641 0.022303 -0.004729 0.001606 -0.001499 -0.028706
# 3 -0.007348 -0.004729 0.008163 0.004297 -0.000237 0.020409
# 4 -0.000932 0.001606 0.004297 0.037562 -0.005379 -0.008586
# 5 -0.008405 -0.001499 -0.000237 -0.005379 0.022341 0.038251
# 6 -0.066183 -0.028706 0.020409 -0.008586 0.038251 0.323501
#
#
# Mechanical properties :
#
#
# Convention : Reuss Voigt Hill
#
# Bulk Modulus (GPa) = 25.72728 68.37224 47.04976
# Shear Modulus (GPa) = 10.66151 37.37615 24.01883
#
# Velocity S-wave (km/s) = 2.07763 3.89006 3.11843
# Velocity P-wave (km/s) = 4.02140 6.91801 5.65820
#
# Compressibility (1/GPa) = 0.03886925
#
# Stress axis : x y z
#
# Youngs Moduli (GPa) = 39.56071 44.83780 122.51014
#
# Poissons Ratio (x) = -0.16324 0.90024
# Poissons Ratio (y) = -0.14403 0.57938
# Poissons Ratio (z) = 0.29070 0.21205
#
# Static dielectric constant tensor:
#      x y z
#    x 2.096390 0.000110 0.000200 
#    y 0.000110 2.008110 0.010040 
#    z 0.000200 0.010040 2.398440 
# 
# From -- ./inp_files/261555.got.cif
#   From: 2010.05.17/outbox.cif.g08.bks.cpg/sg2_131_cif.got.tgz:261555.got - 2010.06.03 11:33:40.
