data_PCOD9003096
_publ_section_title
;
Structure prediction by ZEFSAII (Michael W. Deem and Ramdas Pophale) SiO2 
 PCOD9003096
Probable space group: P -1
;
_chemical_formula_sum "Si O2"
_cell_formula_units_Z 14
_cell_length_a 9.310643
_cell_length_b 7.220913
_cell_length_c 13.663337
_cell_angle_alpha 75.956345
_cell_angle_beta 55.653636
_cell_angle_gamma 110.572383
_cell_volume 583.229768
_symmetry_space_group_name_H-M "P -1"
_symmetry_group_IT_number 2
_symmetry_cell_setting 'triclinic'
loop_
_space_group_symop_operation_xyz
x,y,z
-x,-y,-z
loop_
_atom_site_type_symbol
_atom_site_label
_atom_site_fract_x
_atom_site_fract_y
_atom_site_fract_z
Si Si1 0.076569 0.941445 0.378461
Si Si2 0.687577 0.360224 0.348599
Si Si3 0.456608 0.745384 0.166191
Si Si4 0.769000 0.028360 0.442477
Si Si5 0.769434 0.387753 0.525048
Si Si6 0.815102 0.297723 0.909729
Si Si7 0.461661 0.592206 0.902725
O O1 0.930118 0.588380 0.197882
O O2 0.965963 0.664006 0.437999
O O3 0.956306 0.009956 0.341825
O O4 0.000000 0.000000 0.500000
O O5 0.715701 0.146342 0.363476
O O6 0.656270 0.395614 0.469976
O O7 0.451251 0.232116 0.408307
O O8 0.377725 0.726170 0.308752
O O9 0.263832 0.665564 0.170219
O O10 0.530205 0.574449 0.154865
O O11 0.658412 0.013583 0.024051
O O12 0.827162 0.215430 0.483618
O O13 0.668322 0.868083 0.766840
O O14 0.747975 0.414820 0.999263
O O15 0.500000 0.500000 0.000000
#
# Coordination Sequence:
#
# PCOD9003096 Si02
#       7
#     2   2   2   2   2   2   2
#     4  12  24  36  63  95 118 154 198 252 305 345
#     4   9  21  43  63  86 115 168 198 244 296 350
#     4  10  21  37  57  91 120 155 195 248 302 347
#     4   9  22  42  61  86 123 151 209 246 291 354
#     4  10  23  37  63  89 118 156 202 254 295 341
#     4  10  22  37  60  85 123 160 192 238 305 362
#     4  10  22  36  53  89 123 150 189 239 298 360
#
# _framework density 24.004263000000002
#
# number of rings (size 3 to 8) (size 9 to 14) (size 15 to 20)
#    0.857    1.143    1.429    1.714    8.000    1.714 
#    0.000    0.714    0.000    1.714    0.000    0.000 
#    0.000    0.000    0.000    0.000    0.000    0.000 
#
# Total GULP energy -78141.847172 kJ/mol
# GULP energy per Si atom -5581.560512 kJ/mol
# Density = 2.394963 g / cm^3
# Si number density = 24.004263 Si / 1000 Ang^3
#
#
#
# Elastic Constant Matrix: (Units=GPa)
#
#
# Indices 1 2 3 4 5 6 
#
# 1 25.0829 26.5432 18.3533 3.1714 -2.1548 3.7086
# 2 26.5432 143.5605 58.2847 -11.7809 -1.5084 -1.9504
# 3 18.3533 58.2847 141.9831 -17.6469 -0.2329 3.8063
# 4 3.1714 -11.7809 -17.6469 36.2584 -4.0322 -9.5742
# 5 -2.1548 -1.5084 -0.2329 -4.0322 22.7228 -8.5853
# 6 3.7086 -1.9504 3.8063 -9.5742 -8.5853 23.4366
#
#
#
# Elastic Compliance Matrix: (Units=1/GPa)
#
#
# Indices 1 2 3 4 5 6 
#
# 1 0.058773 -0.010525 -0.004811 -0.016101 -0.004720 -0.017701
# 2 -0.010525 0.010432 -0.002455 0.005021 0.002835 0.006022
# 3 -0.004811 -0.002455 0.009200 0.004484 0.000707 0.001154
# 4 -0.016101 0.005021 0.004484 0.041031 0.015450 0.024659
# 5 -0.004720 0.002835 0.000707 0.015450 0.057116 0.028102
# 6 -0.017701 0.006022 0.001154 0.024659 0.028102 0.066151
#
#
# Mechanical properties :
#
#
# Convention : Reuss Voigt Hill
#
# Bulk Modulus (GPa) = 23.35129 57.44320 40.39725
# Shear Modulus (GPa) = 17.09056 30.31326 23.70191
#
# Velocity S-wave (km/s) = 2.67119 3.55748 3.14571
# Velocity P-wave (km/s) = 4.38894 6.39192 5.48267
#
# Compressibility (1/GPa) = 0.04282418
#
# Stress axis : x y z
#
# Youngs Moduli (GPa) = 17.01460 95.86055 108.69345
#
# Poissons Ratio (x) = 1.00891 0.52294
# Poissons Ratio (y) = 0.17907 0.26680
# Poissons Ratio (z) = 0.08186 0.23530
#
# Static dielectric constant tensor:
#      x y z
#    x 2.236170 0.015290 0.044980 
#    y 0.015290 1.939650 -0.005150 
#    z 0.044980 -0.005150 1.951590 
# 
# From -- ./inp_files/592358.got.cif
#   From: 2010.05.17/outbox.cif.g08.bks.cpg/sg2_297_cif.got.tgz:592358.got - 2010.06.03 11:33:40.
