data_PCOD9003383
_publ_section_title
;
Structure prediction by ZEFSAII (Michael W. Deem and Ramdas Pophale) SiO2 
 PCOD9003383
Probable space group: P -1
;
_chemical_formula_sum "Si O2"
_cell_formula_units_Z 14
_cell_length_a 11.592791
_cell_length_b 8.068518
_cell_length_c 9.269143
_cell_angle_alpha 102.398271
_cell_angle_beta 40.111290
_cell_angle_gamma 86.594581
_cell_volume 509.953794
_symmetry_space_group_name_H-M "P -1"
_symmetry_group_IT_number 2
_symmetry_cell_setting 'triclinic'
loop_
_space_group_symop_operation_xyz
x,y,z
-x,-y,-z
loop_
_atom_site_type_symbol
_atom_site_label
_atom_site_fract_x
_atom_site_fract_y
_atom_site_fract_z
Si Si1 0.376647 0.675402 0.459857
Si Si2 0.906530 0.517654 0.294202
Si Si3 0.354241 0.933043 0.283207
Si Si4 0.058436 0.263285 0.456714
Si Si5 0.264015 0.023912 0.960576
Si Si6 0.732634 0.738459 0.245574
Si Si7 0.662118 0.305407 0.983882
O O1 0.208436 0.612365 0.665650
O O2 0.292614 0.834361 0.454631
O O3 0.521572 0.728553 0.435075
O O4 0.518539 0.496232 0.209568
O O5 0.888392 0.574906 0.489307
O O6 0.810460 0.698515 0.324120
O O7 0.123273 0.428527 0.016464
O O8 0.816992 0.915331 0.604229
O O9 0.525534 0.985814 0.193229
O O10 0.443614 0.786482 0.042923
O O11 0.118634 0.190227 0.224756
O O12 0.839870 0.310546 0.720693
O O13 0.248439 0.088932 0.822398
O O14 0.253821 0.834690 0.989554
#
# Coordination Sequence:
#
# PCOD9003383 Si02
#       7
#     2   2   2   2   2   2   2
#     4  11  22  40  64  91 122 161 206 247 306 359
#     4  11  23  42  65  85 130 160 202 254 307 355
#     4  10  21  37  59  94 124 159 201 251 306 361
#     4  11  22  38  63  93 123 161 206 246 306 362
#     4  10  21  39  63  88 126 157 206 252 303 357
#     4  10  24  43  60  95 119 163 206 252 303 366
#     4  11  21  37  60  95 127 157 203 252 302 365
#
# _framework density 27.453471
#
# number of rings (size 3 to 8) (size 9 to 14) (size 15 to 20)
#    0.000    1.429    1.429    6.000    4.000    1.714 
#    0.000    8.571    0.000    0.000    0.000    0.000 
#    0.000    0.000    0.000    0.000    0.000    0.000 
#
# Total GULP energy -78522.161188 kJ/mol
# GULP energy per Si atom -5608.725799 kJ/mol
# Density = 2.739099 g / cm^3
# Si number density = 27.453471 Si / 1000 Ang^3
#
#
#
# Elastic Constant Matrix: (Units=GPa)
#
#
# Indices 1 2 3 4 5 6 
#
# 1 79.1938 17.0485 22.1620 -8.5879 10.7381 -11.5526
# 2 17.0485 96.3649 26.5916 -16.7687 6.2606 -12.8391
# 3 22.1620 26.5916 119.8070 1.2802 -11.7696 14.4603
# 4 -8.5879 -16.7687 1.2802 61.4933 0.5320 14.7032
# 5 10.7381 6.2606 -11.7696 0.5320 44.2019 1.6091
# 6 -11.5526 -12.8391 14.4603 14.7032 1.6091 30.8930
#
#
#
# Elastic Compliance Matrix: (Units=1/GPa)
#
#
# Indices 1 2 3 4 5 6 
#
# 1 0.015808 -0.000104 -0.004392 0.000402 -0.005291 0.008008
# 2 -0.000104 0.012889 -0.003932 0.002097 -0.003103 0.006322
# 3 -0.004392 -0.003932 0.011620 0.000198 0.005046 -0.009073
# 4 0.000402 0.002097 0.000198 0.018802 -0.000277 -0.008005
# 5 -0.005291 -0.003103 0.005046 -0.000277 0.025945 -0.006850
# 6 0.008008 0.006322 -0.009073 -0.008005 -0.006850 0.046405
#
#
# Mechanical properties :
#
#
# Convention : Reuss Voigt Hill
#
# Bulk Modulus (GPa) = 42.62130 47.44112 45.03121
# Shear Modulus (GPa) = 32.02127 42.62187 37.32157
#
# Velocity S-wave (km/s) = 3.41894 3.94447 3.69107
# Velocity P-wave (km/s) = 5.58070 6.16954 5.88249
#
# Compressibility (1/GPa) = 0.02346245
#
# Stress axis : x y z
#
# Youngs Moduli (GPa) = 63.25943 77.58301 86.05513
#
# Poissons Ratio (x) = 0.00808 0.37793
# Poissons Ratio (y) = 0.00659 0.33835
# Poissons Ratio (z) = 0.27782 0.30504
#
# Static dielectric constant tensor:
#      x y z
#    x 2.128060 0.034150 0.026800 
#    y 0.034150 2.223010 0.012060 
#    z 0.026800 0.012060 2.059430 
# 
# From -- ./inp_files/447437.got.cif
#   From: 2010.05.17/outbox.cif.g08.bks.cpg/sg2_224_cif.got.tgz:447437.got - 2010.06.03 11:33:40.
