data_PCOD9003578
_publ_section_title
;
Structure prediction by ZEFSAII (Michael W. Deem and Ramdas Pophale) SiO2 
 PCOD9003578
Probable space group: P -1
;
_chemical_formula_sum "Si O2"
_cell_formula_units_Z 14
_cell_length_a 10.295714
_cell_length_b 6.819201
_cell_length_c 21.423537
_cell_angle_alpha 125.945776
_cell_angle_beta 35.329339
_cell_angle_gamma 137.387029
_cell_volume 588.542181
_symmetry_space_group_name_H-M "P -1"
_symmetry_group_IT_number 2
_symmetry_cell_setting 'triclinic'
loop_
_space_group_symop_operation_xyz
x,y,z
-x,-y,-z
loop_
_atom_site_type_symbol
_atom_site_label
_atom_site_fract_x
_atom_site_fract_y
_atom_site_fract_z
Si Si1 0.220046 0.213608 0.700193
Si Si2 0.294125 0.643243 0.644208
Si Si3 0.156451 0.465853 0.281407
Si Si4 0.299893 0.746512 0.409562
Si Si5 0.176401 0.610026 0.890048
Si Si6 0.055678 0.281936 0.111263
Si Si7 0.488438 0.815250 0.098612
O O1 0.267378 0.400105 0.654548
O O2 0.401955 0.086358 0.433705
O O3 0.494309 0.246386 0.620108
O O4 0.167673 0.366618 0.806701
O O5 0.098075 0.516659 0.637702
O O6 0.158756 0.787398 0.763927
O O7 0.305479 0.645204 0.318087
O O8 0.367681 0.610231 0.168613
O O9 0.016086 0.121403 0.278938
O O10 0.000000 0.500000 0.500000
O O11 0.082965 0.769089 0.909873
O O12 0.467791 0.878050 0.847093
O O13 0.000000 0.500000 0.000000
O O14 0.269175 0.629565 0.097720
O O15 0.237262 0.153868 0.023868
#
# Coordination Sequence:
#
# PCOD9003578 Si02
#       7
#     2   2   2   2   2   2   2
#     4  10  24  42  61  94 128 161 206 257 308 363
#     4   9  21  43  62  89 132 159 204 258 303 366
#     4  10  22  41  67  86 127 165 206 253 309 367
#     4  11  25  43  68  94 118 159 210 260 320 371
#     4  11  24  34  56  90 127 162 202 249 297 354
#     4   9  20  37  58  84 120 165 208 240 295 355
#     4  10  21  37  61  84 121 170 205 240 298 359
#
# _framework density 23.787590000000002
#
# number of rings (size 3 to 8) (size 9 to 14) (size 15 to 20)
#    0.000    2.000    0.000    2.143   10.000    8.000 
#    0.000    1.429    0.000    0.000    0.000    0.000 
#    0.000    0.000    0.000    0.000    0.000    0.000 
#
# Total GULP energy -78221.445673 kJ/mol
# GULP energy per Si atom -5587.246119 kJ/mol
# Density = 2.373345 g / cm^3
# Si number density = 23.787590 Si / 1000 Ang^3
#
#
#
# Elastic Constant Matrix: (Units=GPa)
#
#
# Indices 1 2 3 4 5 6 
#
# 1 75.1543 37.6813 1.5919 0.6779 -0.3144 -0.2405
# 2 37.6813 142.3065 9.8724 -11.6511 -1.0533 1.0185
# 3 1.5919 9.8724 53.1507 -9.7818 -1.0941 -3.4312
# 4 0.6779 -11.6511 -9.7818 35.3830 7.9923 10.0699
# 5 -0.3144 -1.0533 -1.0941 7.9923 16.6032 -4.2955
# 6 -0.2405 1.0185 -3.4312 10.0699 -4.2955 41.0933
#
#
#
# Elastic Compliance Matrix: (Units=1/GPa)
#
#
# Indices 1 2 3 4 5 6 
#
# 1 0.015481 -0.004281 0.000000 -0.002263 0.001342 0.000892
# 2 -0.004281 0.008497 -0.000952 0.003334 -0.001544 -0.001294
# 3 0.000000 -0.000952 0.019980 0.005442 -0.001306 0.000222
# 4 -0.002263 0.003334 0.005442 0.038930 -0.021160 -0.011393
# 5 0.001342 -0.001544 -0.001306 -0.021160 0.073571 0.012813
# 6 0.000892 -0.001294 0.000222 -0.011393 0.012813 0.028522
#
#
# Mechanical properties :
#
#
# Convention : Reuss Voigt Hill
#
# Bulk Modulus (GPa) = 29.85647 40.98919 35.42283
# Shear Modulus (GPa) = 24.19993 33.38030 28.79012
#
# Velocity S-wave (km/s) = 3.19303 3.75008 3.48271
# Velocity P-wave (km/s) = 5.11590 6.00163 5.57638
#
# Compressibility (1/GPa) = 0.03349357
#
# Stress axis : x y z
#
# Youngs Moduli (GPa) = 64.59415 117.68199 50.04957
#
# Poissons Ratio (x) = 0.50380 -0.00001
# Poissons Ratio (y) = 0.27653 0.04764
# Poissons Ratio (z) = -0.00001 0.11202
#
# Static dielectric constant tensor:
#      x y z
#    x 1.879030 -0.016390 -0.009930 
#    y -0.016390 1.911960 0.017620 
#    z -0.009930 0.017620 1.964230 
# 
# From -- ./inp_files/593723.got.cif
#   From: 2010.05.17/outbox.cif.g08.bks.cpg/sg2_297_cif.got.tgz:593723.got - 2010.06.03 11:33:40.
