data_PCOD9003333
_publ_section_title
;
Structure prediction by ZEFSAII (Michael W. Deem and Ramdas Pophale) SiO2 
 PCOD9003333
Probable space group: P -1
;
_chemical_formula_sum "Si O2"
_cell_formula_units_Z 16
_cell_length_a 11.341909
_cell_length_b 10.101855
_cell_length_c 11.383528
_cell_angle_alpha 60.528460
_cell_angle_beta 53.761648
_cell_angle_gamma 39.052473
_cell_volume 661.382038
_symmetry_space_group_name_H-M "P -1"
_symmetry_group_IT_number 2
_symmetry_cell_setting 'triclinic'
loop_
_space_group_symop_operation_xyz
x,y,z
-x,-y,-z
loop_
_atom_site_type_symbol
_atom_site_label
_atom_site_fract_x
_atom_site_fract_y
_atom_site_fract_z
Si Si1 0.691608 0.018049 0.459927
Si Si2 0.246310 0.416608 0.145792
Si Si3 0.447641 0.967326 0.202600
Si Si4 0.098395 0.766015 0.427095
Si Si5 0.712232 0.657175 0.570407
Si Si6 0.490033 0.385097 0.824529
Si Si7 0.874656 0.629453 0.134939
Si Si8 0.279145 0.597534 0.631683
O O1 0.734062 0.821607 0.465642
O O2 0.899834 0.955600 0.389593
O O3 0.614472 0.043729 0.626617
O O4 0.508095 0.221935 0.406892
O O5 0.279494 0.382712 0.278937
O O6 0.019689 0.606286 0.152045
O O7 0.296523 0.211239 0.155385
O O8 0.396858 0.423140 0.989441
O O9 0.455716 0.818208 0.177174
O O10 0.674820 0.869114 0.118630
O O11 0.116438 0.569544 0.489867
O O12 0.300092 0.678184 0.282321
O O13 0.125665 0.776764 0.546046
O O14 0.316228 0.583232 0.756166
O O15 0.781285 0.537974 0.278238
O O16 0.000000 0.500000 0.000000
O O17 0.500000 0.500000 0.500000
#
# Coordination Sequence:
#
# PCOD9003333 Si02
#       8
#     2   2   2   2   2   2   2   2
#     4  10  22  40  62  89 114 155 205 250 297 350
#     4  11  22  39  61  89 120 162 196 248 304 343
#     4  10  21  38  61  87 123 148 199 255 293 354
#     4  11  22  40  62  84 122 163 197 244 307 353
#     4  10  22  38  62  85 117 157 206 250 287 353
#     4  10  21  37  59  89 124 154 198 247 299 371
#     4  11  20  35  62  90 116 156 198 237 300 366
#     4   9  18  34  57  86 119 148 187 244 297 346
#
# _framework density 24.191768
#
# number of rings (size 3 to 8) (size 9 to 14) (size 15 to 20)
#    0.000    1.750    2.500    3.750    0.000    4.000 
#    0.000    6.875    0.000    0.000    0.000    0.000 
#    0.000    0.000    0.000    0.000    0.000    0.000 
#
# Total GULP energy -89395.396098 kJ/mol
# GULP energy per Si atom -5587.212256 kJ/mol
# Density = 2.413671 g / cm^3
# Si number density = 24.191768 Si / 1000 Ang^3
#
#
#
# Elastic Constant Matrix: (Units=GPa)
#
#
# Indices 1 2 3 4 5 6 
#
# 1 104.9213 33.1696 20.1357 -2.3120 -0.7766 -28.4117
# 2 33.1696 77.0579 -2.9895 -3.3021 3.4362 -19.4488
# 3 20.1357 -2.9895 101.0779 -1.2999 8.6908 -11.4390
# 4 -2.3120 -3.3021 -1.2999 23.2569 -8.7321 0.1798
# 5 -0.7766 3.4362 8.6908 -8.7321 36.3463 -0.6828
# 6 -28.4117 -19.4488 -11.4390 0.1798 -0.6828 53.8757
#
#
#
# Elastic Compliance Matrix: (Units=1/GPa)
#
#
# Indices 1 2 3 4 5 6 
#
# 1 0.012633 -0.004383 -0.002244 0.001059 0.001562 0.004620
# 2 -0.004383 0.016047 0.001948 0.001285 -0.001695 0.003869
# 3 -0.002244 0.001948 0.010844 -0.000442 -0.002898 0.001787
# 4 0.001059 0.001285 -0.000442 0.047552 0.011448 0.000915
# 5 0.001562 -0.001695 -0.002898 0.011448 0.031149 -0.000047
# 6 0.004620 0.003869 0.001787 0.000915 -0.000047 0.022770
#
#
# Mechanical properties :
#
#
# Convention : Reuss Voigt Hill
#
# Bulk Modulus (GPa) = 33.15157 42.63210 37.89184
# Shear Modulus (GPa) = 31.17027 38.21187 34.69107
#
# Velocity S-wave (km/s) = 3.59341 3.97865 3.79093
# Velocity P-wave (km/s) = 5.56329 6.22632 5.90412
#
# Compressibility (1/GPa) = 0.03016448
#
# Stress axis : x y z
#
# Youngs Moduli (GPa) = 79.15623 62.31767 92.21943
#
# Poissons Ratio (x) = 0.27316 0.20696
# Poissons Ratio (y) = 0.34697 -0.17964
# Poissons Ratio (z) = 0.17764 -0.12139
#
# Static dielectric constant tensor:
#      x y z
#    x 1.975010 0.034690 -0.024330 
#    y 0.034690 2.003240 -0.017670 
#    z -0.024330 -0.017670 1.914300 
# 
# From -- ./inp_files/425442.got.cif
#   From: 2010.05.17/outbox.cif.g08.bks.cpg/sg2_213_cif.got.tgz:425442.got - 2010.06.03 11:33:40.
