data_PCOD9003675
_publ_section_title
;
Structure prediction by ZEFSAII (Michael W. Deem and Ramdas Pophale) SiO2 
 PCOD9003675
Probable space group: P -1
;
_chemical_formula_sum "Si O2"
_cell_formula_units_Z 12
_cell_length_a 5.373468
_cell_length_b 9.178319
_cell_length_c 13.484097
_cell_angle_alpha 120.782300
_cell_angle_beta 117.838777
_cell_angle_gamma 65.646803
_cell_volume 491.882061
_symmetry_space_group_name_H-M "P -1"
_symmetry_group_IT_number 2
_symmetry_cell_setting 'triclinic'
loop_
_space_group_symop_operation_xyz
x,y,z
-x,-y,-z
loop_
_atom_site_type_symbol
_atom_site_label
_atom_site_fract_x
_atom_site_fract_y
_atom_site_fract_z
Si Si1 0.862809 0.414555 0.853034
Si Si2 0.688800 0.405471 0.375630
Si Si3 0.848186 0.772481 0.770147
Si Si4 0.703414 0.440582 0.112653
Si Si5 0.186325 0.240587 0.531727
Si Si6 0.343330 0.927718 0.298224
O O1 0.531362 0.521201 0.830835
O O2 0.843351 0.217399 0.794009
O O3 0.063382 0.441083 0.809237
O O4 0.000000 0.500000 0.000000
O O5 0.409143 0.325157 0.294661
O O6 0.647901 0.613574 0.427407
O O7 0.935113 0.317177 0.309349
O O8 0.855031 0.341696 0.488953
O O9 0.075501 0.745514 0.895322
O O10 0.694285 0.965372 0.773414
O O11 0.500000 0.500000 0.000000
O O12 0.337833 0.167231 0.637243
O O13 0.231605 0.069597 0.411931
#
# Coordination Sequence:
#
# PCOD9003675 Si02
#       6
#     2   2   2   2   2   2
#     4  10  22  42  64  85 115 160 203 245 299 355
#     4  10  22  39  60  86 123 163 196 232 298 370
#     4  11  22  38  61  89 121 158 198 246 297 354
#     4  10  21  40  63  85 113 157 204 244 297 356
#     4   9  20  38  60  91 124 159 197 242 297 355
#     4  10  21  37  61  92 124 154 199 252 295 348
#
# _framework density 24.396093
#
# number of rings (size 3 to 8) (size 9 to 14) (size 15 to 20)
#    0.000    2.000    0.000    3.000    0.000    9.333 
#    0.000   13.333    0.000    0.000    0.000    0.000 
#    0.000    0.000    0.000    0.000    0.000    0.000 
#
# Total GULP energy -66883.669171 kJ/mol
# GULP energy per Si atom -5573.639098 kJ/mol
# Density = 2.434057 g / cm^3
# Si number density = 24.396093 Si / 1000 Ang^3
#
#
#
# Elastic Constant Matrix: (Units=GPa)
#
#
# Indices 1 2 3 4 5 6 
#
# 1 151.3239 33.8406 23.5633 -5.3235 38.4199 3.6229
# 2 33.8406 209.5460 68.6407 -33.3038 29.0276 2.9825
# 3 23.5633 68.6407 93.1775 -11.8056 24.6599 -3.2142
# 4 -5.3235 -33.3038 -11.8056 46.7557 -4.4812 6.6310
# 5 38.4199 29.0276 24.6599 -4.4812 42.5767 3.6615
# 6 3.6229 2.9825 -3.2142 6.6310 3.6615 21.4707
#
#
#
# Elastic Compliance Matrix: (Units=1/GPa)
#
#
# Indices 1 2 3 4 5 6 
#
# 1 0.008596 -0.000367 0.000095 0.000033 -0.007549 -0.000108
# 2 -0.000367 0.007159 -0.004386 0.004199 -0.001339 -0.002658
# 3 0.000095 -0.004386 0.015797 -0.000357 -0.006644 0.004202
# 4 0.000033 0.004199 -0.000357 0.025595 0.000754 -0.008676
# 5 -0.007549 -0.001339 -0.006644 0.000754 0.035642 -0.005846
# 6 -0.000108 -0.002658 0.004202 -0.008676 -0.005846 0.051268
#
#
# Mechanical properties :
#
#
# Convention : Reuss Voigt Hill
#
# Bulk Modulus (GPa) = 44.97327 78.45962 61.71645
# Shear Modulus (GPa) = 31.09747 44.02748 37.56248
#
# Velocity S-wave (km/s) = 3.57415 4.25278 3.92815
# Velocity P-wave (km/s) = 5.95881 7.50636 6.77690
#
# Compressibility (1/GPa) = 0.02223543
#
# Stress axis : x y z
#
# Youngs Moduli (GPa) = 116.33419 139.68742 63.30140
#
# Poissons Ratio (x) = 0.05122 -0.00599
# Poissons Ratio (y) = 0.04265 0.27766
# Poissons Ratio (z) = -0.01101 0.61272
#
# Static dielectric constant tensor:
#      x y z
#    x 3.421970 1.366690 -1.688020 
#    y 1.366690 3.258760 -1.610300 
#    z -1.688020 -1.610300 3.830620 
# 
# From -- ./inp_files/41467.got.cif
#   From: 2010.05.17/outbox.cif.g08.bks.cpg/sg2_21_cif.got.tgz:41467.got - 2010.06.03 11:33:40.
