data_PCOD9003495
_publ_section_title
;
Structure prediction by ZEFSAII (Michael W. Deem and Ramdas Pophale) SiO2 
 PCOD9003495
Probable space group: P -1
;
_chemical_formula_sum "Si O2"
_cell_formula_units_Z 16
_cell_length_a 10.026803
_cell_length_b 6.667338
_cell_length_c 17.933621
_cell_angle_alpha 77.916463
_cell_angle_beta 144.851341
_cell_angle_gamma 96.702063
_cell_volume 671.748198
_symmetry_space_group_name_H-M "P -1"
_symmetry_group_IT_number 2
_symmetry_cell_setting 'triclinic'
loop_
_space_group_symop_operation_xyz
x,y,z
-x,-y,-z
loop_
_atom_site_type_symbol
_atom_site_label
_atom_site_fract_x
_atom_site_fract_y
_atom_site_fract_z
Si Si1 0.845759 0.825288 0.469063
Si Si2 0.532449 0.990266 0.613777
Si Si3 0.118630 0.576735 0.748119
Si Si4 0.019629 0.889318 0.131810
Si Si5 0.656530 0.717428 0.243056
Si Si6 0.494457 0.129014 0.064002
Si Si7 0.656431 0.652850 0.602232
Si Si8 0.159610 0.682150 0.062700
O O1 0.799097 0.688968 0.386549
O O2 0.981178 0.700695 0.607485
O O3 0.600860 0.941882 0.376588
O O4 0.000000 0.000000 0.500000
O O5 0.561313 0.744638 0.630438
O O6 0.371423 0.129433 0.471668
O O7 0.787481 0.072303 0.721801
O O8 0.217138 0.370507 0.766687
O O9 0.330517 0.694998 0.867080
O O10 0.922355 0.563067 0.722686
O O11 0.154059 0.753357 0.140272
O O12 0.776279 0.805170 0.048428
O O13 0.946713 0.117427 0.047213
O O14 0.414857 0.619656 0.152079
O O15 0.588644 0.960948 0.181876
O O16 0.500000 0.000000 0.000000
O O17 0.500000 0.500000 0.500000
O O18 0.000000 0.500000 0.000000
#
# Coordination Sequence:
#
# PCOD9003495 Si02
#       8
#     2   2   2   2   2   2   2   2
#     4  11  22  40  67  94 126 167 202 257 320 367
#     4  10  22  42  63  89 124 160 207 253 302 367
#     4  11  24  41  65  95 126 162 212 255 311 376
#     4  10  21  39  61  87 120 158 202 248 302 359
#     4  11  23  41  64  95 130 161 206 259 314 372
#     4  11  24  42  65  90 123 171 210 256 310 366
#     4  10  24  41  62  91 122 164 206 251 304 360
#     4  10  21  37  60  91 123 158 196 247 307 363
#
# _framework density 23.818446999999999
#
# number of rings (size 3 to 8) (size 9 to 14) (size 15 to 20)
#    0.000    1.500    2.500    1.875    1.750    4.500 
#    0.000    0.000    0.000    0.000    0.000    0.000 
#    0.000    0.000    0.000    0.000    0.000    0.000 
#
# Total GULP energy -89453.757053 kJ/mol
# GULP energy per Si atom -5590.859816 kJ/mol
# Density = 2.376424 g / cm^3
# Si number density = 23.818447 Si / 1000 Ang^3
#
#
#
# Elastic Constant Matrix: (Units=GPa)
#
#
# Indices 1 2 3 4 5 6 
#
# 1 69.8601 26.3024 25.8693 -5.6821 24.0365 -18.9606
# 2 26.3024 98.6339 44.9523 6.9083 18.9484 -21.6906
# 3 25.8693 44.9523 114.6823 14.2207 16.7650 -8.7393
# 4 -5.6821 6.9083 14.2207 38.9822 2.2096 4.1867
# 5 24.0365 18.9484 16.7650 2.2096 50.6309 1.4183
# 6 -18.9606 -21.6906 -8.7393 4.1867 1.4183 37.7479
#
#
#
# Elastic Compliance Matrix: (Units=1/GPa)
#
#
# Indices 1 2 3 4 5 6 
#
# 1 0.022014 -0.000766 -0.002995 0.003925 -0.009620 0.009850
# 2 -0.000766 0.014806 -0.004274 -0.001759 -0.003895 0.007475
# 3 -0.002995 -0.004274 0.011565 -0.003773 -0.000620 -0.000841
# 4 0.003925 -0.001759 -0.003773 0.028299 -0.001107 -0.003010
# 5 -0.009620 -0.003895 -0.000620 -0.001107 0.026255 -0.008077
# 6 0.009850 0.007475 -0.000841 -0.003010 -0.008077 0.036177
#
#
# Mechanical properties :
#
#
# Convention : Reuss Voigt Hill
#
# Bulk Modulus (GPa) = 30.94541 53.04714 41.99627
# Shear Modulus (GPa) = 30.12826 37.87569 34.00197
#
# Velocity S-wave (km/s) = 3.56042 3.99204 3.78239
# Velocity P-wave (km/s) = 5.47015 6.60063 6.06180
#
# Compressibility (1/GPa) = 0.03231497
#
# Stress axis : x y z
#
# Youngs Moduli (GPa) = 45.42476 67.54198 86.46891
#
# Poissons Ratio (x) = 0.05174 0.25900
# Poissons Ratio (y) = 0.03480 0.36953
# Poissons Ratio (z) = 0.13606 0.28864
#
# Static dielectric constant tensor:
#      x y z
#    x 1.967940 -0.038050 -0.061640 
#    y -0.038050 1.912490 -0.012090 
#    z -0.061640 -0.012090 1.924740 
# 
# From -- ./inp_files/70598.got.cif
#   From: 2010.05.17/outbox.cif.g08.bks.cpg/sg2_36_cif.got.tgz:70598.got - 2010.06.03 11:33:40.
