data_PCOD9003042
_publ_section_title
;
Structure prediction by ZEFSAII (Michael W. Deem and Ramdas Pophale) SiO2 
 PCOD9003042
Probable space group: P -1
;
_chemical_formula_sum "Si O2"
_cell_formula_units_Z 14
_cell_length_a 18.666980
_cell_length_b 18.135307
_cell_length_c 20.823984
_cell_angle_alpha 18.880936
_cell_angle_beta 19.519264
_cell_angle_gamma 29.149024
_cell_volume 751.033468
_symmetry_space_group_name_H-M "P -1"
_symmetry_group_IT_number 2
_symmetry_cell_setting 'triclinic'
loop_
_space_group_symop_operation_xyz
x,y,z
-x,-y,-z
loop_
_atom_site_type_symbol
_atom_site_label
_atom_site_fract_x
_atom_site_fract_y
_atom_site_fract_z
Si Si1 0.098860 0.816228 0.384205
Si Si2 0.341245 0.571033 0.236270
Si Si3 0.544014 0.928716 0.217860
Si Si4 0.159056 0.084522 0.354006
Si Si5 0.453150 0.505558 0.336507
Si Si6 0.139883 0.399007 0.359186
Si Si7 0.474732 0.235572 0.293365
O O1 0.274886 0.656290 0.387350
O O2 0.979670 0.892187 0.483941
O O3 0.926159 0.674269 0.597606
O O4 0.243875 0.013681 0.054894
O O5 0.374747 0.445856 0.378867
O O6 0.428523 0.427252 0.225783
O O7 0.088810 0.585055 0.428120
O O8 0.451809 0.836976 0.936293
O O9 0.542513 0.711831 0.443219
O O10 0.330048 0.914959 0.366220
O O11 0.314610 0.326270 0.004821
O O12 0.000000 0.000000 0.500000
O O13 0.275819 0.219417 0.424809
O O14 0.298397 0.644556 0.027987
O O15 0.500000 0.000000 0.500000
#
# Coordination Sequence:
#
# PCOD9003042 Si02
#       7
#     2   2   2   2   2   2   2
#     4   9  20  39  57  77 109 145 182 224 271 324
#     4   9  20  37  54  76 110 143 180 227 269 313
#     4   9  20  37  58  81 107 145 186 224 267 320
#     4  10  21  37  57  84 116 143 173 222 277 326
#     4   9  20  36  58  84 107 144 189 221 263 323
#     4   9  20  36  52  74 105 143 182 220 269 318
#     4  11  22  33  51  81 109 139 181 225 267 319
#
# _framework density 18.640979000000002
#
# number of rings (size 3 to 8) (size 9 to 14) (size 15 to 20)
#    0.000    3.143    0.000    2.143    0.000   12.571 
#    0.000    1.429    0.000    0.000    0.000    0.000 
#    0.000    0.000    0.000    0.000    0.000    0.000 
#
# Total GULP energy -78041.292045 kJ/mol
# GULP energy per Si atom -5574.378003 kJ/mol
# Density = 1.859855 g / cm^3
# Si number density = 18.640979 Si / 1000 Ang^3
#
#
#
# Elastic Constant Matrix: (Units=GPa)
#
#
# Indices 1 2 3 4 5 6 
#
# 1 103.3513 44.8465 62.5479 -6.2556 1.0395 -24.7959
# 2 44.8465 51.6428 51.0891 4.0740 8.0316 -10.9760
# 3 62.5479 51.0891 84.7266 2.4602 8.9838 -21.7863
# 4 -6.2556 4.0740 2.4602 25.0042 -18.0442 12.0031
# 5 1.0395 8.0316 8.9838 -18.0442 37.0614 -6.5721
# 6 -24.7959 -10.9760 -21.7863 12.0031 -6.5721 34.5497
#
#
#
# Elastic Compliance Matrix: (Units=1/GPa)
#
#
# Indices 1 2 3 4 5 6 
#
# 1 0.023165 -0.012073 -0.011234 0.017719 0.013699 0.002156
# 2 -0.012073 0.057140 -0.023255 -0.022195 -0.017349 -0.000765
# 3 -0.011234 -0.023255 0.038864 -0.015829 -0.009513 0.012746
# 4 0.017719 -0.022195 -0.015829 0.101635 0.052373 -0.029663
# 5 0.013699 -0.017349 -0.009513 0.052373 0.056546 -0.009117
# 6 0.002156 -0.000765 0.012746 -0.029663 -0.009117 0.046857
#
#
# Mechanical properties :
#
#
# Convention : Reuss Voigt Hill
#
# Bulk Modulus (GPa) = 38.39412 61.85421 50.12416
# Shear Modulus (GPa) = 11.73676 24.73885 18.23780
#
# Velocity S-wave (km/s) = 2.51195 3.64692 3.13129
# Velocity P-wave (km/s) = 5.39022 7.14054 6.32621
#
# Compressibility (1/GPa) = 0.02604566
#
# Stress axis : x y z
#
# Youngs Moduli (GPa) = 43.16787 17.50092 25.73069
#
# Poissons Ratio (x) = 0.21129 0.28906
# Poissons Ratio (y) = 0.52117 0.59836
# Poissons Ratio (z) = 0.48495 0.40698
#
# Static dielectric constant tensor:
#      x y z
#    x 1.660700 0.007810 -0.001390 
#    y 0.007810 1.641650 0.024450 
#    z -0.001390 0.024450 1.656360 
# 
# From -- ./inp_files/600395.got.cif
#   From: 2010.05.17/outbox.cif.g08.bks.cpg/sg2_301_cif.got.tgz:600395.got - 2010.06.03 11:33:40.
