data_PCOD9003414
_publ_section_title
;
Structure prediction by ZEFSAII (Michael W. Deem and Ramdas Pophale) SiO2 
 PCOD9003414
Probable space group: P -1
;
_chemical_formula_sum "Si O2"
_cell_formula_units_Z 16
_cell_length_a 23.398057
_cell_length_b 5.043132
_cell_length_c 7.640446
_cell_angle_alpha 62.837876
_cell_angle_beta 86.048695
_cell_angle_gamma 71.145921
_cell_volume 755.786793
_symmetry_space_group_name_H-M "P -1"
_symmetry_group_IT_number 2
_symmetry_cell_setting 'triclinic'
loop_
_space_group_symop_operation_xyz
x,y,z
-x,-y,-z
loop_
_atom_site_type_symbol
_atom_site_label
_atom_site_fract_x
_atom_site_fract_y
_atom_site_fract_z
Si Si1 0.864900 0.598348 0.803503
Si Si2 0.672222 0.803226 0.478035
Si Si3 0.234441 0.024252 0.796869
Si Si4 0.041485 0.211541 0.465898
Si Si5 0.405935 0.618531 0.479080
Si Si6 0.788158 0.240632 0.749571
Si Si7 0.501530 0.348086 0.851698
Si Si8 0.841903 0.327932 0.256364
O O1 0.929422 0.634731 0.738632
O O2 0.842804 0.371913 0.749937
O O3 0.814668 0.946359 0.703968
O O4 0.862581 0.467743 0.036529
O O5 0.700305 0.965073 0.273403
O O6 0.622322 0.657151 0.465846
O O7 0.730043 0.516872 0.615370
O O8 0.645421 0.053399 0.561632
O O9 0.184404 0.376090 0.697756
O O10 0.213356 0.793494 0.746634
O O11 0.231742 0.898338 0.029376
O O12 0.000000 0.500000 0.500000
O O13 0.101564 0.969838 0.612933
O O14 0.000000 0.000000 0.500000
O O15 0.441733 0.657160 0.284198
O O16 0.552892 0.469794 0.326344
O O17 0.500000 0.500000 0.000000
O O18 0.500000 0.000000 0.000000
#
# Coordination Sequence:
#
# PCOD9003414 Si02
#       8
#     2   2   2   2   2   2   2   2
#     4  10  21  39  58  79 113 154 195 237 291 366
#     4  12  22  38  62  94 134 152 192 267 302 353
#     4  10  21  37  60  86 116 159 196 231 300 372
#     4  12  24  36  56  83 108 143 194 247 302 351
#     4  11  26  41  64 101 126 163 216 255 310 365
#     4  10  21  37  60  86 116 159 196 231 300 372
#     4  11  24  47  70  88 126 177 216 255 304 362
#     4  10  21  39  58  79 113 154 195 237 291 366
#
# _framework density 21.169989999999999
#
# number of rings (size 3 to 8) (size 9 to 14) (size 15 to 20)
#    0.000    1.250    0.000    6.000    0.000    6.000 
#    0.000    0.000    0.000    0.000    0.000    0.000 
#    0.000    0.000    0.000    0.000    0.000    0.000 
#
# Total GULP energy -89416.629074 kJ/mol
# GULP energy per Si atom -5588.539317 kJ/mol
# Density = 2.112181 g / cm^3
# Si number density = 21.169990 Si / 1000 Ang^3
#
#
#
# Elastic Constant Matrix: (Units=GPa)
#
#
# Indices 1 2 3 4 5 6 
#
# 1 112.2580 24.6180 55.0298 15.5363 -52.0060 9.9963
# 2 24.6180 98.8969 45.3765 2.7634 -24.5586 13.6121
# 3 55.0298 45.3765 130.0518 20.5063 -26.0737 1.6363
# 4 15.5363 2.7634 20.5063 28.1306 -2.3832 -0.5527
# 5 -52.0060 -24.5586 -26.0737 -2.3832 33.6020 -9.6088
# 6 9.9963 13.6121 1.6363 -0.5527 -9.6088 30.7121
#
#
#
# Elastic Compliance Matrix: (Units=1/GPa)
#
#
# Indices 1 2 3 4 5 6 
#
# 1 0.043879 0.008825 -0.005179 -0.015291 0.070351 0.003818
# 2 0.008825 0.015688 -0.004910 -0.001179 0.020307 -0.003232
# 3 -0.005179 -0.004910 0.012052 -0.005557 -0.001926 0.002517
# 4 -0.015291 -0.001179 -0.005557 0.045926 -0.026016 -0.001517
# 5 0.070351 0.020307 -0.001926 -0.026016 0.154764 0.016157
# 6 0.003818 -0.003232 0.002517 -0.001517 0.016157 0.037644
#
#
# Mechanical properties :
#
#
# Convention : Reuss Voigt Hill
#
# Bulk Modulus (GPa) = 14.47355 65.69506 40.08430
# Shear Modulus (GPa) = 14.90263 32.90110 23.90187
#
# Velocity S-wave (km/s) = 2.65609 3.94653 3.36377
# Velocity P-wave (km/s) = 4.03213 7.20183 5.83628
#
# Compressibility (1/GPa) = 0.06909157
#
# Stress axis : x y z
#
# Youngs Moduli (GPa) = 22.78990 63.74261 82.97303
#
# Poissons Ratio (x) = -0.56253 0.42969
# Poissons Ratio (y) = -0.20112 0.40742
# Poissons Ratio (z) = 0.11802 0.31299
#
# Static dielectric constant tensor:
#      x y z
#    x 1.767590 -0.005860 -0.010990 
#    y -0.005860 1.743550 -0.005740 
#    z -0.010990 -0.005740 1.783130 
# 
# From -- ./inp_files/350957.got.cif
#   From: 2010.05.17/outbox.cif.g08.bks.cpg/sg2_176_cif.got.tgz:350957.got - 2010.06.03 11:33:40.
