data_PCOD9003094
_publ_section_title
;
Structure prediction by ZEFSAII (Michael W. Deem and Ramdas Pophale) SiO2 
 PCOD9003094
Probable space group: P -1
;
_chemical_formula_sum "Si O2"
_cell_formula_units_Z 14
_cell_length_a 22.093035
_cell_length_b 6.978090
_cell_length_c 5.539103
_cell_angle_alpha 134.150301
_cell_angle_beta 117.288150
_cell_angle_gamma 60.955512
_cell_volume 525.723231
_symmetry_space_group_name_H-M "P -1"
_symmetry_group_IT_number 2
_symmetry_cell_setting 'triclinic'
loop_
_space_group_symop_operation_xyz
x,y,z
-x,-y,-z
loop_
_atom_site_type_symbol
_atom_site_label
_atom_site_fract_x
_atom_site_fract_y
_atom_site_fract_z
Si Si1 0.406365 0.983025 0.555835
Si Si2 0.457938 0.368257 0.613544
Si Si3 0.188946 0.756220 0.354562
Si Si4 0.728135 0.978104 0.884017
Si Si5 0.865402 0.580571 0.678335
Si Si6 0.924753 0.022641 0.996109
Si Si7 0.674778 0.585910 0.823655
O O1 0.430503 0.140051 0.511861
O O2 0.343757 0.857386 0.233592
O O3 0.480334 0.777391 0.588305
O O4 0.368066 0.211552 0.875931
O O5 0.385015 0.544822 0.519538
O O6 0.500000 0.500000 0.000000
O O7 0.147753 0.541712 0.193333
O O8 0.129375 0.992849 0.331642
O O9 0.252115 0.633464 0.175566
O O10 0.229816 0.845011 0.732461
O O11 0.786914 0.775791 0.647079
O O12 0.702840 0.776622 0.849801
O O13 0.918612 0.775447 0.944114
O O14 0.894543 0.317613 0.329712
O O15 0.000000 0.000000 0.000000
#
# Coordination Sequence:
#
# PCOD9003094 Si02
#       7
#     2   2   2   2   2   2   2
#     4  10  21  37  60  90 134 174 230 293 347 415
#     4  10  21  37  57  89 133 179 229 288 356 413
#     4  11  25  44  73 101 144 184 241 292 359 424
#     4  10  22  41  65  99 133 183 233 290 353 415
#     4  11  25  48  71 105 147 185 234 296 353 419
#     4  12  28  47  75 109 143 189 238 286 360 433
#     4  10  22  38  63  96 129 183 237 289 354 420
#
# _framework density 26.629981000000001
#
# number of rings (size 3 to 8) (size 9 to 14) (size 15 to 20)
#    0.000    1.429    1.429    2.571    6.000    2.857 
#    0.000    0.000    0.000    0.000    0.000    0.000 
#    0.000    0.000    0.000    0.000    0.000    0.000 
#
# Total GULP energy -78407.325264 kJ/mol
# GULP energy per Si atom -5600.523233 kJ/mol
# Density = 2.656937 g / cm^3
# Si number density = 26.629981 Si / 1000 Ang^3
#
#
#
# Elastic Constant Matrix: (Units=GPa)
#
#
# Indices 1 2 3 4 5 6 
#
# 1 248.0842 47.3195 55.1685 15.7096 -3.9298 -13.8610
# 2 47.3195 65.3746 12.7732 5.8280 1.2556 -9.7260
# 3 55.1685 12.7732 126.5152 22.0317 -8.7944 -23.7517
# 4 15.7096 5.8280 22.0317 35.5855 -3.9282 3.4614
# 5 -3.9298 1.2556 -8.7944 -3.9282 37.1776 18.6010
# 6 -13.8610 -9.7260 -23.7517 3.4614 18.6010 47.6373
#
#
#
# Elastic Compliance Matrix: (Units=1/GPa)
#
#
# Indices 1 2 3 4 5 6 
#
# 1 0.005094 -0.003312 -0.001802 -0.000550 0.000239 -0.000146
# 2 -0.003312 0.018585 0.000720 -0.002877 -0.003495 0.004763
# 3 -0.001802 0.000720 0.010839 -0.006778 -0.001403 0.006067
# 4 -0.000550 -0.002877 -0.006778 0.034658 0.006739 -0.009277
# 5 0.000239 -0.003495 -0.001403 0.006739 0.035219 -0.015585
# 6 -0.000146 0.004763 0.006067 -0.009277 -0.015585 0.031707
#
#
# Mechanical properties :
#
#
# Convention : Reuss Voigt Hill
#
# Bulk Modulus (GPa) = 38.86383 74.49961 56.68172
# Shear Modulus (GPa) = 32.58035 45.72760 39.15398
#
# Velocity S-wave (km/s) = 3.50157 4.14834 3.83860
# Velocity P-wave (km/s) = 5.56540 7.14014 6.40138
#
# Compressibility (1/GPa) = 0.02573086
#
# Stress axis : x y z
#
# Youngs Moduli (GPa) = 196.31673 53.80560 92.25874
#
# Poissons Ratio (x) = 0.17821 0.16623
# Poissons Ratio (y) = 0.65024 -0.06645
# Poissons Ratio (z) = 0.35371 -0.03875
#
# Static dielectric constant tensor:
#      x y z
#    x 2.016070 0.023640 -0.017570 
#    y 0.023640 2.179820 0.001170 
#    z -0.017570 0.001170 2.131180 
# 
# From -- ./inp_files/7837.got.cif
#   From: 2010.05.17/outbox.cif.g08.bks.cpg/sg2_4_cif.got.tgz:7837.got - 2010.06.03 11:33:40.
