data_PCOD9003912
_publ_section_title
;
Structure prediction by ZEFSAII (Michael W. Deem and Ramdas Pophale) SiO2 
 PCOD9003912
Probable space group: P -1
;
_chemical_formula_sum "Si O2"
_cell_formula_units_Z 14
_cell_length_a 12.477788
_cell_length_b 5.257385
_cell_length_c 11.028184
_cell_angle_alpha 100.867673
_cell_angle_beta 57.633925
_cell_angle_gamma 120.709321
_cell_volume 521.775016
_symmetry_space_group_name_H-M "P -1"
_symmetry_group_IT_number 2
_symmetry_cell_setting 'triclinic'
loop_
_space_group_symop_operation_xyz
x,y,z
-x,-y,-z
loop_
_atom_site_type_symbol
_atom_site_label
_atom_site_fract_x
_atom_site_fract_y
_atom_site_fract_z
Si Si1 0.455527 0.734757 0.097245
Si Si2 0.066120 0.999001 0.591669
Si Si3 0.461508 0.483310 0.761820
Si Si4 0.247237 0.681902 0.849573
Si Si5 0.714671 0.143066 0.628851
Si Si6 0.039802 0.884969 0.089642
Si Si7 0.366426 0.620041 0.526963
O O1 0.538882 0.775325 0.178313
O O2 0.297550 0.651723 0.239816
O O3 0.500000 0.500000 0.000000
O O4 0.500000 0.000000 0.000000
O O5 0.221032 0.297871 0.559311
O O6 0.968492 0.958298 0.766464
O O7 0.126716 0.776783 0.503820
O O8 0.000000 0.000000 0.500000
O O9 0.321660 0.525813 0.870898
O O10 0.489501 0.394538 0.604266
O O11 0.607170 0.809214 0.718116
O O12 0.350362 0.744981 0.675570
O O13 0.095274 0.448734 0.854861
O O14 0.184517 0.859387 0.981019
O O15 0.648958 0.176131 0.546974
O O16 0.000000 0.000000 0.000000
#
# Coordination Sequence:
#
# PCOD9003912 Si02
#       7
#     2   2   2   2   2   2   2
#     4  11  22  41  64  91 138 181 221 281 349 408
#     4  10  22  41  62  91 127 178 236 281 342 413
#     4  10  21  37  62  99 128 175 225 278 348 419
#     4  10  21  39  62  95 133 173 229 280 345 414
#     4  10  21  39  62  91 133 172 221 283 346 407
#     4  10  22  41  63  90 134 180 224 291 341 403
#     4   9  20  38  63  91 133 171 221 289 349 406
#
# _framework density 26.831489000000001
#
# number of rings (size 3 to 8) (size 9 to 14) (size 15 to 20)
#    0.000    2.000    1.429    1.286    0.000    4.571 
#    2.571    0.000    0.000    0.000    0.000    0.000 
#    0.000    0.000    0.000    0.000    0.000    0.000 
#
# Total GULP energy -77934.156489 kJ/mol
# GULP energy per Si atom -5566.725463 kJ/mol
# Density = 2.677042 g / cm^3
# Si number density = 26.831489 Si / 1000 Ang^3
#
#
#
# Elastic Constant Matrix: (Units=GPa)
#
#
# Indices 1 2 3 4 5 6 
#
# 1 83.4263 24.3454 81.7349 26.5126 -29.5258 -34.6868
# 2 24.3454 86.1316 51.2305 11.3700 -14.0616 -7.9788
# 3 81.7349 51.2305 290.8721 66.5982 -24.3970 -37.6787
# 4 26.5126 11.3700 66.5982 40.7441 -14.8201 0.4881
# 5 -29.5258 -14.0616 -24.3970 -14.8201 54.1748 2.3676
# 6 -34.6868 -7.9788 -37.6787 0.4881 2.3676 64.2255
#
#
#
# Elastic Compliance Matrix: (Units=1/GPa)
#
#
# Indices 1 2 3 4 5 6 
#
# 1 0.026589 -0.002021 -0.002645 -0.009006 0.009776 0.012266
# 2 -0.002021 0.013471 -0.002150 0.001788 0.001949 -0.000765
# 3 -0.002645 -0.002150 0.006970 -0.009693 -0.001622 0.002527
# 4 -0.009006 0.001788 -0.009693 0.047581 0.004682 -0.010863
# 5 0.009776 0.001949 -0.001622 0.004682 0.024684 0.003625
# 6 0.012266 -0.000765 0.002527 -0.010863 0.003625 0.023531
#
#
# Mechanical properties :
#
#
# Convention : Reuss Voigt Hill
#
# Bulk Modulus (GPa) = 29.94033 86.11685 58.02859
# Shear Modulus (GPa) = 29.83420 52.03684 40.93552
#
# Velocity S-wave (km/s) = 3.33815 4.40863 3.91020
# Velocity P-wave (km/s) = 5.10299 7.62101 6.48538
#
# Compressibility (1/GPa) = 0.03339977
#
# Stress axis : x y z
#
# Youngs Moduli (GPa) = 37.60887 74.23100 143.46632
#
# Poissons Ratio (x) = 0.15005 0.37943
# Poissons Ratio (y) = 0.07602 0.30839
# Poissons Ratio (z) = 0.09946 0.15956
#
# Static dielectric constant tensor:
#      x y z
#    x 2.316600 0.007100 0.070190 
#    y 0.007100 2.591740 0.076810 
#    z 0.070190 0.076810 2.201750 
# 
# From -- ./inp_files/409423.got.cif
#   From: 2010.05.17/outbox.cif.g08.bks.cpg/sg2_205_cif.got.tgz:409423.got - 2010.06.03 11:33:40.
