data_PCOD9003990
_publ_section_title
;
Structure prediction by ZEFSAII (Michael W. Deem and Ramdas Pophale) SiO2 
 PCOD9003990
Probable space group: P -1
;
_chemical_formula_sum "Si O2"
_cell_formula_units_Z 16
_cell_length_a 10.414453
_cell_length_b 10.584497
_cell_length_c 18.932674
_cell_angle_alpha 147.594407
_cell_angle_beta 40.152643
_cell_angle_gamma 122.689379
_cell_volume 686.950373
_symmetry_space_group_name_H-M "P -1"
_symmetry_group_IT_number 2
_symmetry_cell_setting 'triclinic'
loop_
_space_group_symop_operation_xyz
x,y,z
-x,-y,-z
loop_
_atom_site_type_symbol
_atom_site_label
_atom_site_fract_x
_atom_site_fract_y
_atom_site_fract_z
Si Si1 0.535251 0.789873 0.687115
Si Si2 0.098045 0.260161 0.393051
Si Si3 0.385521 0.810958 0.988415
Si Si4 0.255143 0.624380 0.289491
Si Si5 0.589832 0.880364 0.283226
Si Si6 0.193717 0.431518 0.831236
Si Si7 0.673823 0.645875 0.996478
Si Si8 0.333802 0.377938 0.596100
O O1 0.687874 0.720110 0.655537
O O2 0.367905 0.642633 0.694454
O O3 0.681251 0.710816 0.519236
O O4 0.423396 0.081283 0.865990
O O5 0.000000 0.500000 0.500000
O O6 0.928904 0.277408 0.532148
O O7 0.176381 0.987970 0.197093
O O8 0.556409 0.609357 0.868772
O O9 0.300984 0.650621 0.893129
O O10 0.500000 0.000000 0.000000
O O11 0.369622 0.834684 0.334062
O O12 0.173584 0.525901 0.206104
O O13 0.653839 0.792891 0.293677
O O14 0.554907 0.169987 0.426288
O O15 0.732879 0.707136 0.079934
O O16 0.187384 0.376686 0.724628
O O17 0.000000 0.500000 0.000000
O O18 0.500000 0.500000 0.000000
#
# Coordination Sequence:
#
# PCOD9003990 Si02
#       8
#     2   2   2   2   2   2   2   2
#     4  10  22  41  66  98 129 175 221 278 333 401
#     4  12  24  36  65 102 128 165 223 273 335 391
#     4  11  22  42  62  91 137 170 219 281 334 394
#     4  10  21  37  63  92 126 171 208 273 330 387
#     4   9  21  40  62  88 125 176 215 265 332 395
#     4  11  25  39  63  94 131 179 222 278 329 397
#     4   9  18  39  65  89 129 170 214 265 343 390
#     4  10  22  42  66  88 133 178 220 268 334 401
#
# _framework density 23.291346999999998
#
# number of rings (size 3 to 8) (size 9 to 14) (size 15 to 20)
#    0.000    1.750    2.500    1.125    3.500    2.000 
#    0.000    5.625    0.000    5.250    0.000    0.000 
#    0.000    0.000    0.000    0.000    0.000    0.000 
#
# Total GULP energy -89204.458124 kJ/mol
# GULP energy per Si atom -5575.278633 kJ/mol
# Density = 2.323834 g / cm^3
# Si number density = 23.291347 Si / 1000 Ang^3
#
#
#
# Elastic Constant Matrix: (Units=GPa)
#
#
# Indices 1 2 3 4 5 6 
#
# 1 31.3449 3.1946 10.3910 -5.3066 11.0950 -20.1024
# 2 3.1946 95.1785 34.1348 7.8813 4.9253 -11.0791
# 3 10.3910 34.1348 127.1429 -15.9449 17.8884 -10.0025
# 4 -5.3066 7.8813 -15.9449 53.3534 -7.6107 11.6852
# 5 11.0950 4.9253 17.8884 -7.6107 24.4863 -5.8756
# 6 -20.1024 -11.0791 -10.0025 11.6852 -5.8756 22.8317
#
#
#
# Elastic Compliance Matrix: (Units=1/GPa)
#
#
# Indices 1 2 3 4 5 6 
#
# 1 0.096815 0.010769 -0.001766 -0.016390 -0.028034 0.090867
# 2 0.010769 0.014151 -0.003716 -0.006306 -0.002840 0.017217
# 3 -0.001766 -0.003716 0.009977 0.003018 -0.005255 -0.001884
# 4 -0.016390 -0.006306 0.003018 0.026105 0.008013 -0.027466
# 5 -0.028034 -0.002840 -0.005255 0.008013 0.056118 -0.018023
# 6 0.090867 0.017217 -0.001884 -0.027466 -0.018023 0.140752
#
#
# Mechanical properties :
#
#
# Convention : Reuss Voigt Hill
#
# Bulk Modulus (GPa) = 7.60359 38.78969 23.19664
# Shear Modulus (GPa) = 13.25616 33.86401 23.56009
#
# Velocity S-wave (km/s) = 2.38826 3.81718 3.18392
# Velocity P-wave (km/s) = 3.29799 6.00983 4.84741
#
# Compressibility (1/GPa) = 0.13151677
#
# Stress axis : x y z
#
# Youngs Moduli (GPa) = 10.32895 70.66596 100.23278
#
# Poissons Ratio (x) = -0.76101 0.17702
# Poissons Ratio (y) = -0.11123 0.37248
# Poissons Ratio (z) = 0.01824 0.26260
#
# Static dielectric constant tensor:
#      x y z
#    x 1.888220 -0.014810 0.007690 
#    y -0.014810 1.856830 -0.031680 
#    z 0.007690 -0.031680 1.932580 
# 
# From -- ./inp_files/594994.got.cif
#   From: 2010.05.17/outbox.cif.g08.bks.cpg/sg2_298_cif.got.tgz:594994.got - 2010.06.03 11:33:40.
