data_PCOD9003890
_publ_section_title
;
Structure prediction by ZEFSAII (Michael W. Deem and Ramdas Pophale) SiO2 
 PCOD9003890
Probable space group: P -1
;
_chemical_formula_sum "Si O2"
_cell_formula_units_Z 16
_cell_length_a 8.303705
_cell_length_b 13.851246
_cell_length_c 7.419457
_cell_angle_alpha 64.272919
_cell_angle_beta 105.287566
_cell_angle_gamma 73.846412
_cell_volume 661.541966
_symmetry_space_group_name_H-M "P -1"
_symmetry_group_IT_number 2
_symmetry_cell_setting 'triclinic'
loop_
_space_group_symop_operation_xyz
x,y,z
-x,-y,-z
loop_
_atom_site_type_symbol
_atom_site_label
_atom_site_fract_x
_atom_site_fract_y
_atom_site_fract_z
Si Si1 0.843128 0.222136 0.232491
Si Si2 0.987374 0.609869 0.672105
Si Si3 0.563521 0.988969 0.821616
Si Si4 0.584221 0.459466 0.815941
Si Si5 0.815921 0.381338 0.604385
Si Si6 0.405573 0.872083 0.603617
Si Si7 0.277246 0.375537 0.122545
Si Si8 0.008923 0.117665 0.987205
O O1 0.933703 0.300883 0.289521
O O2 0.775300 0.148802 0.403866
O O3 0.650797 0.324673 0.007461
O O4 0.961993 0.140447 0.168244
O O5 0.015832 0.617029 0.462387
O O6 0.793877 0.646760 0.686473
O O7 0.106587 0.470538 0.879334
O O8 0.416285 0.965961 0.672964
O O9 0.577108 0.095076 0.624185
O O10 0.783107 0.894167 0.964653
O O11 0.500000 0.000000 0.000000
O O12 0.752299 0.434209 0.741580
O O13 0.375153 0.531034 0.625204
O O14 0.602587 0.551996 0.881129
O O15 0.863989 0.241529 0.748553
O O16 0.593995 0.754407 0.806623
O O17 0.000000 0.000000 0.000000
#
# Coordination Sequence:
#
# PCOD9003890 Si02
#       8
#     2   2   2   2   2   2   2   2
#     4  10  21  42  67  95 128 169 216 272 327 399
#     4  10  21  37  62  96 128 165 216 265 331 399
#     4  11  27  48  65  97 133 174 231 270 325 395
#     4   9  20  39  63  94 129 165 217 261 333 397
#     4  10  21  38  60  92 129 169 212 273 320 387
#     4  11  24  44  72  93 129 182 214 278 334 381
#     4  10  21  38  62  94 129 169 213 268 331 395
#     4  11  25  42  64  96 132 173 221 275 324 385
#
# _framework density 24.185918000000001
#
# number of rings (size 3 to 8) (size 9 to 14) (size 15 to 20)
#    0.000    1.750    0.000    3.000    5.250    4.000 
#    4.500    0.000    0.000    0.000    0.000    0.000 
#    0.000    0.000    0.000    0.000    0.000    0.000 
#
# Total GULP energy -89299.698501 kJ/mol
# GULP energy per Si atom -5581.231156 kJ/mol
# Density = 2.413087 g / cm^3
# Si number density = 24.185918 Si / 1000 Ang^3
#
#
#
# Elastic Constant Matrix: (Units=GPa)
#
#
# Indices 1 2 3 4 5 6 
#
# 1 104.5501 43.5642 31.7697 4.7867 -37.5673 -15.3298
# 2 43.5642 106.8705 42.5509 2.3730 -14.5545 -15.3388
# 3 31.7697 42.5509 92.3351 1.3918 -30.6159 -8.5018
# 4 4.7867 2.3730 1.3918 34.1398 -11.6772 -9.3753
# 5 -37.5673 -14.5545 -30.6159 -11.6772 43.1314 11.1498
# 6 -15.3298 -15.3388 -8.5018 -9.3753 11.1498 39.6187
#
#
#
# Elastic Compliance Matrix: (Units=1/GPa)
#
#
# Indices 1 2 3 4 5 6 
#
# 1 0.016424 -0.005247 0.001535 0.003226 0.014125 0.001441
# 2 -0.005247 0.013614 -0.005891 -0.000869 -0.005232 0.003243
# 3 0.001535 -0.005891 0.017089 0.003625 0.012647 -0.000721
# 4 0.003226 -0.000869 0.003625 0.034901 0.012906 0.006316
# 5 0.014125 -0.005232 0.012647 0.012906 0.047251 -0.004090
# 6 0.001441 0.003243 -0.000721 0.006316 -0.004090 0.029545
#
#
# Mechanical properties :
#
#
# Convention : Reuss Voigt Hill
#
# Bulk Modulus (GPa) = 35.81752 59.94726 47.88239
# Shear Modulus (GPa) = 26.68980 35.76938 31.22959
#
# Velocity S-wave (km/s) = 3.32554 3.84986 3.59727
# Velocity P-wave (km/s) = 5.43940 6.67845 6.09052
#
# Compressibility (1/GPa) = 0.02791930
#
# Stress axis : x y z
#
# Youngs Moduli (GPa) = 60.88736 73.45420 58.51556
#
# Poissons Ratio (x) = 0.38542 -0.08979
# Poissons Ratio (y) = 0.31948 0.34474
# Poissons Ratio (z) = -0.09343 0.43275
#
# Static dielectric constant tensor:
#      x y z
#    x 1.946840 0.000160 -0.003200 
#    y 0.000160 1.918920 0.013510 
#    z -0.003200 0.013510 2.012470 
# 
# From -- ./inp_files/199578.got.cif
#   From: 2010.05.17/outbox.cif.g08.bks.cpg/sg2_100_cif.got.tgz:199578.got - 2010.06.03 11:33:40.
