data_PCOD9003388
_publ_section_title
;
Structure prediction by ZEFSAII (Michael W. Deem and Ramdas Pophale) SiO2 
 PCOD9003388
Probable space group: P -1
;
_chemical_formula_sum "Si O2"
_cell_formula_units_Z 12
_cell_length_a 12.291121
_cell_length_b 9.643440
_cell_length_c 10.006296
_cell_angle_alpha 75.373184
_cell_angle_beta 75.697872
_cell_angle_gamma 141.401464
_cell_volume 484.534397
_symmetry_space_group_name_H-M "P -1"
_symmetry_group_IT_number 2
_symmetry_cell_setting 'triclinic'
loop_
_space_group_symop_operation_xyz
x,y,z
-x,-y,-z
loop_
_atom_site_type_symbol
_atom_site_label
_atom_site_fract_x
_atom_site_fract_y
_atom_site_fract_z
Si Si1 0.318788 0.915479 0.137370
Si Si2 0.863079 0.214358 0.498808
Si Si3 0.254453 0.471818 0.483227
Si Si4 0.698252 0.862347 0.373497
Si Si5 0.552083 0.474963 0.818126
Si Si6 0.110474 0.123824 0.119011
O O1 0.334775 0.964347 0.281696
O O2 0.022161 0.524684 0.303850
O O3 0.500000 0.000000 0.000000
O O4 0.403570 0.158926 0.981640
O O5 0.092997 0.402364 0.468413
O O6 0.756459 0.986656 0.473929
O O7 0.551981 0.824628 0.350908
O O8 0.270454 0.360336 0.399059
O O9 0.100053 0.243715 0.716166
O O10 0.500000 0.500000 0.500000
O O11 0.964563 0.106888 0.171508
O O12 0.734565 0.719587 0.827104
O O13 0.330301 0.338073 0.894789
#
# Coordination Sequence:
#
# PCOD9003388 Si02
#       6
#     2   2   2   2   2   2
#     4  11  22  41  69  92 121 175 219 255 318 374
#     4  11  23  43  67  91 130 167 214 265 308 382
#     4  11  21  39  65  91 129 165 207 262 318 370
#     4  10  23  39  66  99 128 166 210 257 325 382
#     4  11  21  35  68  91 124 171 211 258 316 374
#     4  10  21  37  59  98 127 162 213 258 314 378
#
# _framework density 24.766043
#
# number of rings (size 3 to 8) (size 9 to 14) (size 15 to 20)
#    0.000    1.333    5.000    0.500    2.333    0.667 
#    0.000    9.167    0.000    0.000    0.000    0.000 
#    0.000    0.000    0.000    0.000    0.000    0.000 
#
# Total GULP energy -66958.684561 kJ/mol
# GULP energy per Si atom -5579.890380 kJ/mol
# Density = 2.470967 g / cm^3
# Si number density = 24.766043 Si / 1000 Ang^3
#
#
#
# Elastic Constant Matrix: (Units=GPa)
#
#
# Indices 1 2 3 4 5 6 
#
# 1 92.5751 50.3630 35.8581 -2.7184 -27.8782 8.8228
# 2 50.3630 102.3967 39.4695 15.9728 -11.3439 -5.0695
# 3 35.8581 39.4695 129.8823 -1.8314 -35.0244 -7.7049
# 4 -2.7184 15.9728 -1.8314 39.2073 -9.4788 -0.7885
# 5 -27.8782 -11.3439 -35.0244 -9.4788 57.8041 -8.8603
# 6 8.8228 -5.0695 -7.7049 -0.7885 -8.8603 50.1198
#
#
#
# Elastic Compliance Matrix: (Units=1/GPa)
#
#
# Indices 1 2 3 4 5 6 
#
# 1 0.018959 -0.009589 -0.000286 0.007037 0.007804 -0.002861
# 2 -0.009589 0.016882 -0.003786 -0.008837 -0.004774 0.001831
# 3 -0.000286 -0.003786 0.010962 0.003724 0.006772 0.002608
# 4 0.007037 -0.008837 0.003724 0.032017 0.009255 0.000580
# 5 0.007804 -0.004774 0.006772 0.009255 0.026359 0.003990
# 6 -0.002861 0.001831 0.002608 0.000580 0.003990 0.021756
#
#
# Mechanical properties :
#
#
# Convention : Reuss Voigt Hill
#
# Bulk Modulus (GPa) = 51.33612 64.02612 57.68112
# Shear Modulus (GPa) = 31.10388 42.70382 36.90385
#
# Velocity S-wave (km/s) = 3.54772 4.15696 3.86437
# Velocity P-wave (km/s) = 6.12823 6.99635 6.57663
#
# Compressibility (1/GPa) = 0.01947946
#
# Stress axis : x y z
#
# Youngs Moduli (GPa) = 52.74522 59.23497 91.22260
#
# Poissons Ratio (x) = 0.56802 0.02612
# Poissons Ratio (y) = 0.50579 0.34539
# Poissons Ratio (z) = 0.01510 0.22428
#
# Static dielectric constant tensor:
#      x y z
#    x 2.119550 0.017420 0.011970 
#    y 0.017420 1.992510 0.006720 
#    z 0.011970 0.006720 1.998940 
# 
# From -- ./inp_files/250565.got.cif
#   From: 2010.05.17/outbox.cif.g08.bks.cpg/sg2_126_cif.got.tgz:250565.got - 2010.06.03 11:33:40.
