data_PCOD9003321
_publ_section_title
;
Structure prediction by ZEFSAII (Michael W. Deem and Ramdas Pophale) SiO2 
 PCOD9003321
Probable space group: P -1
;
_chemical_formula_sum "Si O2"
_cell_formula_units_Z 16
_cell_length_a 5.374649
_cell_length_b 6.030099
_cell_length_c 23.091098
_cell_angle_alpha 89.650286
_cell_angle_beta 123.777793
_cell_angle_gamma 87.015571
_cell_volume 620.651399
_symmetry_space_group_name_H-M "P -1"
_symmetry_group_IT_number 2
_symmetry_cell_setting 'triclinic'
loop_
_space_group_symop_operation_xyz
x,y,z
-x,-y,-z
loop_
_atom_site_type_symbol
_atom_site_label
_atom_site_fract_x
_atom_site_fract_y
_atom_site_fract_z
Si Si1 0.116060 0.878824 0.457414
Si Si2 0.649893 0.387333 0.857838
Si Si3 0.354183 0.003271 0.890561
Si Si4 0.259082 0.925016 0.234230
Si Si5 0.719337 0.280052 0.266264
Si Si6 0.569660 0.601855 0.357420
Si Si7 0.266223 0.319566 0.987170
Si Si8 0.283334 0.265049 0.399595
O O1 0.443806 0.783670 0.518314
O O2 0.892860 0.689728 0.414273
O O3 0.095582 0.071180 0.406514
O O4 0.000000 0.000000 0.500000
O O5 0.489040 0.194840 0.870117
O O6 0.765588 0.283046 0.812076
O O7 0.417727 0.582285 0.806053
O O8 0.932552 0.431881 0.934695
O O9 0.265546 0.119904 0.940062
O O10 0.054950 0.938775 0.819048
O O11 0.602235 0.808507 0.939021
O O12 0.352674 0.808282 0.306844
O O13 0.534018 0.064192 0.249712
O O14 0.646686 0.429569 0.315151
O O15 0.078718 0.248498 0.313700
O O16 0.420901 0.492646 0.393184
O O17 0.500000 0.500000 0.000000
#
# Coordination Sequence:
#
# PCOD9003321 Si02
#       8
#     2   2   2   2   2   2   2   2
#     4  11  25  45  66  97 129 163 213 264 315 386
#     4  10  22  38  61  90 124 163 212 257 313 380
#     4  10  21  38  59  88 123 166 206 259 313 369
#     4  10  22  41  60  89 129 161 207 267 308 371
#     4  11  23  42  63  94 126 164 214 262 317 381
#     4  11  24  43  65  92 130 164 210 267 315 379
#     4  10  21  37  59  88 124 163 208 259 314 365
#     4  11  24  41  68  93 121 171 206 254 329 373
#
# _framework density 25.779368999999999
#
# number of rings (size 3 to 8) (size 9 to 14) (size 15 to 20)
#    0.000    1.500    1.250    3.000    0.000    5.500 
#    0.000    0.000    0.000    0.000    0.000    0.000 
#    0.000    0.000    0.000    0.000    0.000    0.000 
#
# Total GULP energy -89173.700249 kJ/mol
# GULP energy per Si atom -5573.356266 kJ/mol
# Density = 2.572069 g / cm^3
# Si number density = 25.779369 Si / 1000 Ang^3
#
#
#
# Elastic Constant Matrix: (Units=GPa)
#
#
# Indices 1 2 3 4 5 6 
#
# 1 37.4411 32.2632 39.0836 -0.9055 14.8059 12.0874
# 2 32.2632 103.5762 70.0232 -29.4647 4.8401 19.0487
# 3 39.0836 70.0232 228.6523 -18.1257 32.6076 13.9610
# 4 -0.9055 -29.4647 -18.1257 67.7871 13.0118 -8.2412
# 5 14.8059 4.8401 32.6076 13.0118 41.3193 1.1262
# 6 12.0874 19.0487 13.9610 -8.2412 1.1262 63.4518
#
#
#
# Elastic Compliance Matrix: (Units=1/GPa)
#
#
# Indices 1 2 3 4 5 6 
#
# 1 0.045962 -0.012309 -0.002397 -0.003687 -0.011844 -0.004802
# 2 -0.012309 0.017361 -0.003096 0.005790 0.003037 -0.001488
# 3 -0.002397 -0.003096 0.006413 0.001170 -0.004213 0.000202
# 4 -0.003687 0.005790 0.001170 0.018889 -0.006263 0.001271
# 5 -0.011844 0.003037 -0.004213 -0.006263 0.033363 0.000866
# 6 -0.004802 -0.001488 0.000202 0.001271 0.000866 0.017227
#
#
# Mechanical properties :
#
#
# Convention : Reuss Voigt Hill
#
# Bulk Modulus (GPa) = 29.29833 72.48997 50.89415
# Shear Modulus (GPa) = 26.85363 49.73162 38.29263
#
# Velocity S-wave (km/s) = 3.23099 4.39695 3.85827
# Velocity P-wave (km/s) = 5.03079 7.34561 6.29550
#
# Compressibility (1/GPa) = 0.03413164
#
# Stress axis : x y z
#
# Youngs Moduli (GPa) = 21.75724 57.60172 155.94512
#
# Poissons Ratio (x) = 0.70900 0.37378
# Poissons Ratio (y) = 0.26780 0.48280
# Poissons Ratio (z) = 0.05215 0.17833
#
# Static dielectric constant tensor:
#      x y z
#    x 2.108710 -0.076440 0.019180 
#    y -0.076440 1.930110 0.010180 
#    z 0.019180 0.010180 1.993640 
# 
# From -- ./inp_files/114503.got.cif
#   From: 2010.05.17/outbox.cif.g08.bks.cpg/sg2_58_cif.got.tgz:114503.got - 2010.06.03 11:33:40.
