data_PCOD9003461
_publ_section_title
;
Structure prediction by ZEFSAII (Michael W. Deem and Ramdas Pophale) SiO2 
 PCOD9003461
Probable space group: P -1
;
_chemical_formula_sum "Si O2"
_cell_formula_units_Z 14
_cell_length_a 5.530097
_cell_length_b 6.801853
_cell_length_c 16.140718
_cell_angle_alpha 75.460733
_cell_angle_beta 90.908313
_cell_angle_gamma 100.242573
_cell_volume 578.059004
_symmetry_space_group_name_H-M "P -1"
_symmetry_group_IT_number 2
_symmetry_cell_setting 'triclinic'
loop_
_space_group_symop_operation_xyz
x,y,z
-x,-y,-z
loop_
_atom_site_type_symbol
_atom_site_label
_atom_site_fract_x
_atom_site_fract_y
_atom_site_fract_z
Si Si1 0.325550 0.645707 0.024878
Si Si2 0.493639 0.997097 0.116875
Si Si3 0.437637 0.331862 0.299259
Si Si4 0.259858 0.967931 0.716338
Si Si5 0.530306 0.346453 0.591784
Si Si6 0.764008 0.028397 0.548286
Si Si7 0.148316 0.261015 0.144030
O O1 0.455352 0.792574 0.084089
O O2 0.106228 0.476398 0.080363
O O3 0.500000 0.500000 0.000000
O O4 0.293012 0.824271 0.939189
O O5 0.534749 0.964666 0.217439
O O6 0.257839 0.109882 0.098283
O O7 0.438685 0.523386 0.337996
O O8 0.361752 0.355143 0.202276
O O9 0.687900 0.238256 0.307064
O O10 0.259238 0.147911 0.364189
O O11 0.305525 0.158014 0.632961
O O12 0.032218 0.890526 0.781795
O O13 0.500000 0.500000 0.500000
O O14 0.756981 0.239636 0.575245
O O15 0.500000 0.000000 0.500000
O O16 0.000000 0.000000 0.500000
#
# Coordination Sequence:
#
# PCOD9003461 Si02
#       7
#     2   2   2   2   2   2   2
#     4   9  18  36  62  86 124 161 207 255 325 389
#     4   9  19  39  59  87 123 165 202 261 323 394
#     4  10  23  40  62  89 128 167 216 270 335 398
#     4  10  23  39  61  90 128 162 218 272 327 394
#     4  11  23  43  65  93 127 175 222 277 343 403
#     4  11  25  45  68  96 134 174 227 288 346 411
#     4  10  21  37  60  89 120 166 209 267 320 394
#
# _framework density 24.218979000000001
#
# number of rings (size 3 to 8) (size 9 to 14) (size 15 to 20)
#    0.000    2.000    1.429    0.857    4.000    2.286 
#    2.571    6.429    0.000    0.000    0.000    0.000 
#    0.000    0.000    0.000    0.000    0.000    0.000 
#
# Total GULP energy -78043.664370 kJ/mol
# GULP energy per Si atom -5574.547455 kJ/mol
# Density = 2.416386 g / cm^3
# Si number density = 24.218979 Si / 1000 Ang^3
#
#
#
# Elastic Constant Matrix: (Units=GPa)
#
#
# Indices 1 2 3 4 5 6 
#
# 1 61.1517 37.0035 31.8184 -5.7399 -22.3017 -12.7195
# 2 37.0035 190.7099 62.7818 7.2458 -17.9532 -23.3209
# 3 31.8184 62.7818 125.1017 -16.0617 -6.4929 -4.4171
# 4 -5.7399 7.2458 -16.0617 74.1862 0.9667 -13.3863
# 5 -22.3017 -17.9532 -6.4929 0.9667 49.7551 1.5181
# 6 -12.7195 -23.3209 -4.4171 -13.3863 1.5181 18.9041
#
#
#
# Elastic Compliance Matrix: (Units=1/GPa)
#
#
# Indices 1 2 3 4 5 6 
#
# 1 0.027569 -0.000551 -0.004938 0.004397 0.010850 0.018958
# 2 -0.000551 0.007593 -0.003302 -0.000075 0.001819 0.008026
# 3 -0.004938 -0.003302 0.010902 0.001695 -0.001909 -0.003496
# 4 0.004397 -0.000075 0.001695 0.016905 0.001375 0.015123
# 5 0.010850 0.001819 -0.001909 0.001375 0.025096 0.008056
# 6 0.018958 0.008026 -0.003496 0.015123 0.008056 0.084801
#
#
# Mechanical properties :
#
#
# Convention : Reuss Voigt Hill
#
# Bulk Modulus (GPa) = 35.11146 71.13007 53.12077
# Shear Modulus (GPa) = 25.00728 44.92638 34.96683
#
# Velocity S-wave (km/s) = 3.21682 4.31165 3.80383
# Velocity P-wave (km/s) = 5.32223 7.36345 6.42443
#
# Compressibility (1/GPa) = 0.02848073
#
# Stress axis : x y z
#
# Youngs Moduli (GPa) = 36.27312 131.69981 91.72750
#
# Poissons Ratio (x) = 0.07254 0.45298
# Poissons Ratio (y) = 0.01998 0.30291
# Poissons Ratio (z) = 0.17913 0.43491
#
# Static dielectric constant tensor:
#      x y z
#    x 2.130470 0.073530 0.049630 
#    y 0.073530 1.939680 -0.010590 
#    z 0.049630 -0.010590 1.979080 
# 
# From -- ./inp_files/10067.got.cif
#   From: 2010.05.17/outbox.cif.g08.bks.cpg/sg2_6_cif.got.tgz:10067.got - 2010.06.03 11:33:40.
