data_PCOD9003954
_publ_section_title
;
Structure prediction by ZEFSAII (Michael W. Deem and Ramdas Pophale) SiO2 
 PCOD9003954
Probable space group: P -1
;
_chemical_formula_sum "Si O2"
_cell_formula_units_Z 10
_cell_length_a 9.870774
_cell_length_b 12.176297
_cell_length_c 6.891110
_cell_angle_alpha 138.051086
_cell_angle_beta 120.273654
_cell_angle_gamma 51.065491
_cell_volume 429.589229
_symmetry_space_group_name_H-M "P -1"
_symmetry_group_IT_number 2
_symmetry_cell_setting 'triclinic'
loop_
_space_group_symop_operation_xyz
x,y,z
-x,-y,-z
loop_
_atom_site_type_symbol
_atom_site_label
_atom_site_fract_x
_atom_site_fract_y
_atom_site_fract_z
Si Si1 0.373484 0.627645 0.870909
Si Si2 0.420724 0.760599 0.693558
Si Si3 0.731196 0.841192 0.988893
Si Si4 0.906417 0.447789 0.189773
Si Si5 0.387878 0.198491 0.589832
O O1 0.315503 0.746533 0.786929
O O2 0.504414 0.428726 0.617751
O O3 0.222227 0.618812 0.879604
O O4 0.479751 0.710286 0.179669
O O5 0.594672 0.781352 0.914970
O O6 0.313535 0.946477 0.741697
O O7 0.678189 0.826813 0.705389
O O8 0.931613 0.712234 0.009084
O O9 0.789998 0.634957 0.237940
O O10 0.000000 0.500000 0.500000
O O11 0.500000 0.000000 0.500000
#
# Coordination Sequence:
#
# PCOD9003954 Si02
#       5
#     2   2   2   2   2
#     4  11  21  37  65  87 118 155 207 231 299 345
#     4  10  21  37  63  89 118 158 190 246 301 351
#     4  10  21  42  64  83 123 155 200 235 305 340
#     4  10  21  39  62  88 116 159 198 245 279 364
#     4  11  21  39  61  90 114 162 197 243 284 364
#
# _framework density 23.27805
#
# number of rings (size 3 to 8) (size 9 to 14) (size 15 to 20)
#    0.000    1.600    6.000    0.600    0.000    0.800 
#    0.000    2.000    0.000    0.000    0.000    0.000 
#    0.000    0.000    0.000    0.000    0.000    0.000 
#
# Total GULP energy -55783.115436 kJ/mol
# GULP energy per Si atom -5578.311544 kJ/mol
# Density = 2.322507 g / cm^3
# Si number density = 23.278050 Si / 1000 Ang^3
#
#
#
# Elastic Constant Matrix: (Units=GPa)
#
#
# Indices 1 2 3 4 5 6 
#
# 1 104.0111 55.8130 21.4865 14.4025 5.9061 -15.2076
# 2 55.8130 163.5754 35.7202 26.0838 1.4690 -25.0216
# 3 21.4865 35.7202 112.6360 22.6121 8.5576 -5.7237
# 4 14.4025 26.0838 22.6121 36.5026 -2.3016 -7.5693
# 5 5.9061 1.4690 8.5576 -2.3016 30.7801 1.0388
# 6 -15.2076 -25.0216 -5.7237 -7.5693 1.0388 43.8407
#
#
#
# Elastic Compliance Matrix: (Units=1/GPa)
#
#
# Indices 1 2 3 4 5 6 
#
# 1 0.012243 -0.003448 -0.000632 -0.001709 -0.002202 0.001953
# 2 -0.003448 0.008543 -0.001250 -0.003346 0.000252 0.002933
# 3 -0.000632 -0.001250 0.010791 -0.005841 -0.003240 -0.000456
# 4 -0.001709 -0.003346 -0.005841 0.034921 0.004633 0.002655
# 5 -0.002202 0.000252 -0.003240 0.004633 0.034182 -0.001053
# 6 0.001953 0.002933 -0.000456 0.002655 -0.001053 0.025585
#
#
# Mechanical properties :
#
#
# Convention : Reuss Voigt Hill
#
# Bulk Modulus (GPa) = 47.81168 67.36244 57.58706
# Shear Modulus (GPa) = 34.74725 40.03820 37.39272
#
# Velocity S-wave (km/s) = 3.86774 4.15178 4.01228
# Velocity P-wave (km/s) = 6.36631 7.21000 6.80125
#
# Compressibility (1/GPa) = 0.02091539
#
# Stress axis : x y z
#
# Youngs Moduli (GPa) = 81.68256 117.05918 92.67209
#
# Poissons Ratio (x) = 0.40363 0.05859
# Poissons Ratio (y) = 0.28165 0.11583
# Poissons Ratio (z) = 0.05165 0.14631
#
# Static dielectric constant tensor:
#      x y z
#    x 1.991170 0.042020 -0.088460 
#    y 0.042020 1.982210 0.018840 
#    z -0.088460 0.018840 1.900100 
# 
# From -- ./inp_files/144343.got.cif
#   From: 2010.05.17/outbox.cif.g08.bks.cpg/sg2_73_cif.got.tgz:144343.got - 2010.06.03 11:33:40.
