data_PCOD9003796
_publ_section_title
;
Structure prediction by ZEFSAII (Michael W. Deem and Ramdas Pophale) SiO2 
 PCOD9003796
Probable space group: P -1
;
_chemical_formula_sum "Si O2"
_cell_formula_units_Z 16
_cell_length_a 9.176547
_cell_length_b 9.556838
_cell_length_c 13.400052
_cell_angle_alpha 134.637658
_cell_angle_beta 119.190104
_cell_angle_gamma 82.721438
_cell_volume 684.470547
_symmetry_space_group_name_H-M "P -1"
_symmetry_group_IT_number 2
_symmetry_cell_setting 'triclinic'
loop_
_space_group_symop_operation_xyz
x,y,z
-x,-y,-z
loop_
_atom_site_type_symbol
_atom_site_label
_atom_site_fract_x
_atom_site_fract_y
_atom_site_fract_z
Si Si1 0.658774 0.917983 0.234798
Si Si2 0.455126 0.113616 0.412101
Si Si3 0.887523 0.651040 0.120505
Si Si4 0.261798 0.706897 0.258263
Si Si5 0.119998 0.138148 0.969239
Si Si6 0.804378 0.368531 0.405841
Si Si7 0.174620 0.260223 0.274553
Si Si8 0.484528 0.771239 0.916364
O O1 0.579100 0.999717 0.342912
O O2 0.762822 0.131583 0.313263
O O3 0.787226 0.779131 0.214062
O O4 0.490103 0.776337 0.040163
O O5 0.586440 0.299832 0.616665
O O6 0.331498 0.176263 0.321784
O O7 0.329525 0.946315 0.363440
O O8 0.071304 0.639437 0.218041
O O9 0.759907 0.434595 0.920031
O O10 0.964686 0.778188 0.107410
O O11 0.125844 0.224979 0.125125
O O12 0.324245 0.227865 0.050463
O O13 0.011014 0.890673 0.813274
O O14 0.768841 0.503159 0.552079
O O15 0.677066 0.375463 0.274316
O O16 0.000000 0.500000 0.500000
O O17 0.500000 0.000000 0.000000
#
# Coordination Sequence:
#
# PCOD9003796 Si02
#       8
#     2   2   2   2   2   2   2   2
#     4  10  23  39  65  92 131 162 213 262 321 376
#     4  11  24  42  63  99 123 168 216 272 308 372
#     4  10  21  45  66  90 122 176 209 265 316 381
#     4  10  24  43  69  84 127 171 223 261 315 367
#     4  10  21  37  62  90 126 165 203 256 324 377
#     4  11  23  37  58  96 131 171 204 254 326 389
#     4  11  22  36  64  94 132 161 207 263 316 390
#     4   9  18  35  54  81 124 162 192 245 309 380
#
# _framework density 23.375730999999998
#
# number of rings (size 3 to 8) (size 9 to 14) (size 15 to 20)
#    0.000    1.750    1.250    3.750    5.250    3.000 
#    0.000    0.000    0.000    0.000    0.000    0.000 
#    0.000    0.000    0.000    0.000    0.000    0.000 
#
# Total GULP energy -89239.049990 kJ/mol
# GULP energy per Si atom -5577.440624 kJ/mol
# Density = 2.332253 g / cm^3
# Si number density = 23.375731 Si / 1000 Ang^3
#
#
#
# Elastic Constant Matrix: (Units=GPa)
#
#
# Indices 1 2 3 4 5 6 
#
# 1 82.3279 9.1123 47.4844 -6.5836 5.1891 -20.6610
# 2 9.1123 34.0883 8.4435 0.5995 7.0151 -10.1877
# 3 47.4844 8.4435 141.3598 5.1620 20.4556 -9.7638
# 4 -6.5836 0.5995 5.1620 29.5949 -10.7478 -8.1658
# 5 5.1891 7.0151 20.4556 -10.7478 40.5127 -3.9191
# 6 -20.6610 -10.1877 -9.7638 -8.1658 -3.9191 30.0144
#
#
#
# Elastic Compliance Matrix: (Units=1/GPa)
#
#
# Indices 1 2 3 4 5 6 
#
# 1 0.021079 -0.000441 -0.007256 0.012595 0.005949 0.016204
# 2 -0.000441 0.033612 -0.000533 0.000665 -0.004297 0.010552
# 3 -0.007256 -0.000533 0.010436 -0.007065 -0.006563 -0.004560
# 4 0.012595 0.000665 -0.007065 0.050348 0.017379 0.022564
# 5 0.005949 -0.004297 -0.006563 0.017379 0.033519 0.009606
# 6 0.016204 0.010552 -0.004560 0.022564 0.009606 0.053963
#
#
# Mechanical properties :
#
#
# Convention : Reuss Voigt Hill
#
# Bulk Modulus (GPa) = 20.54775 43.09516 31.82146
# Shear Modulus (GPa) = 21.21892 32.87346 27.04619
#
# Velocity S-wave (km/s) = 3.01613 3.75414 3.40519
# Velocity P-wave (km/s) = 4.57588 6.10470 5.39472
#
# Compressibility (1/GPa) = 0.04866713
#
# Stress axis : x y z
#
# Youngs Moduli (GPa) = 47.44038 29.75171 95.82090
#
# Poissons Ratio (x) = 0.01311 0.69527
# Poissons Ratio (y) = 0.02090 0.05110
# Poissons Ratio (z) = 0.34423 0.01587
#
# Static dielectric constant tensor:
#      x y z
#    x 1.842190 0.058210 -0.035450 
#    y 0.058210 1.850990 0.004450 
#    z -0.035450 0.004450 1.910530 
# 
# From -- ./inp_files/493649.got.cif
#   From: 2010.05.17/outbox.cif.g08.bks.cpg/sg2_247_cif.got.tgz:493649.got - 2010.06.03 11:33:40.
