data_PCOD9003178
_publ_section_title
;
Structure prediction by ZEFSAII (Michael W. Deem and Ramdas Pophale) SiO2 
 PCOD9003178
Probable space group: P -1
;
_chemical_formula_sum "Si O2"
_cell_formula_units_Z 14
_cell_length_a 17.569016
_cell_length_b 16.837211
_cell_length_c 9.135876
_cell_angle_alpha 63.017182
_cell_angle_beta 138.282017
_cell_angle_gamma 151.548885
_cell_volume 659.110860
_symmetry_space_group_name_H-M "P -1"
_symmetry_group_IT_number 2
_symmetry_cell_setting 'triclinic'
loop_
_space_group_symop_operation_xyz
x,y,z
-x,-y,-z
loop_
_atom_site_type_symbol
_atom_site_label
_atom_site_fract_x
_atom_site_fract_y
_atom_site_fract_z
Si Si1 0.945462 0.059101 0.305927
Si Si2 0.071950 0.135890 0.893291
Si Si3 0.883988 0.117851 0.880297
Si Si4 0.934862 0.592594 0.897268
Si Si5 0.664268 0.526818 0.353435
Si Si6 0.612182 0.186632 0.795799
Si Si7 0.782435 0.043948 0.345194
O O1 0.232456 0.315840 0.533739
O O2 0.732528 0.965920 0.179948
O O3 0.000000 0.000000 0.500000
O O4 0.863381 0.024684 0.051036
O O5 0.345344 0.315211 0.038323
O O6 0.093700 0.231414 0.961778
O O7 0.822266 0.985957 0.554611
O O8 0.000000 0.000000 0.000000
O O9 0.599672 0.937562 0.535891
O O10 0.986667 0.279567 0.974791
O O11 0.701627 0.469579 0.560984
O O12 0.822364 0.417957 0.935031
O O13 0.204087 0.764718 0.038210
O O14 0.906110 0.692770 0.440133
O O15 0.432586 0.048209 0.800885
#
# Coordination Sequence:
#
# PCOD9003178 Si02
#       7
#     2   2   2   2   2   2   2
#     4   9  19  33  51  81 119 151 180 235 293 339
#     4  11  20  34  59  86 118 154 192 234 288 351
#     4  10  21  37  58  88 114 151 193 240 288 341
#     4  10  21  38  61  86 112 151 201 246 280 341
#     4   9  20  34  53  84 115 148 192 229 289 346
#     4  10  21  39  64  81 112 155 201 240 289 336
#     4   9  20  35  53  83 114 154 185 232 292 339
#
# _framework density 21.240735999999998
#
# number of rings (size 3 to 8) (size 9 to 14) (size 15 to 20)
#    0.857    1.429    0.000    3.429    0.000    4.000 
#    0.000    0.000    0.000    1.714    0.000    0.000 
#    0.000    0.000    0.000    0.000    0.000    0.000 
#
# Total GULP energy -77959.899815 kJ/mol
# GULP energy per Si atom -5568.564272 kJ/mol
# Density = 2.119239 g / cm^3
# Si number density = 21.240736 Si / 1000 Ang^3
#
#
#
# Elastic Constant Matrix: (Units=GPa)
#
#
# Indices 1 2 3 4 5 6 
#
# 1 134.2360 32.2146 18.7354 10.2391 1.8995 12.4040
# 2 32.2146 44.7387 -1.0312 -2.6503 6.9888 1.1446
# 3 18.7354 -1.0312 58.7350 -3.8033 2.6853 2.8511
# 4 10.2391 -2.6503 -3.8033 27.7347 8.1635 5.1141
# 5 1.8995 6.9888 2.6853 8.1635 30.9959 -0.2331
# 6 12.4040 1.1446 2.8511 5.1141 -0.2331 43.0986
#
#
#
# Elastic Compliance Matrix: (Units=1/GPa)
#
#
# Indices 1 2 3 4 5 6 
#
# 1 0.010627 -0.008536 -0.003974 -0.005869 0.003149 -0.001856
# 2 -0.008536 0.030581 0.004274 0.009329 -0.009198 0.000205
# 3 -0.003974 0.004274 0.018967 0.005796 -0.003897 -0.000933
# 4 -0.005869 0.009329 0.005796 0.044857 -0.014093 -0.004341
# 5 0.003149 -0.009198 -0.003897 -0.014093 0.038204 0.001475
# 6 -0.001856 0.000205 -0.000933 -0.004341 0.001475 0.024316
#
#
# Mechanical properties :
#
#
# Convention : Reuss Voigt Hill
#
# Bulk Modulus (GPa) = 22.88075 37.50526 30.19300
# Shear Modulus (GPa) = 25.17733 32.88523 29.03128
#
# Velocity S-wave (km/s) = 3.44660 3.93901 3.70100
# Velocity P-wave (km/s) = 5.16084 6.19542 5.70164
#
# Compressibility (1/GPa) = 0.04370486
#
# Stress axis : x y z
#
# Youngs Moduli (GPa) = 94.09772 32.69975 52.72330
#
# Poissons Ratio (x) = 0.27913 0.20951
# Poissons Ratio (y) = 0.80322 -0.22536
# Poissons Ratio (z) = 0.37392 -0.13977
#
# Static dielectric constant tensor:
#      x y z
#    x 1.802650 0.015990 0.017130 
#    y 0.015990 1.808890 -0.029780 
#    z 0.017130 -0.029780 1.767350 
# 
# From -- ./inp_files/253490.got.cif
#   From: 2010.05.17/outbox.cif.g08.bks.cpg/sg2_127_cif.got.tgz:253490.got - 2010.06.03 11:33:40.
