data_PCOD9003300
_publ_section_title
;
Structure prediction by ZEFSAII (Michael W. Deem and Ramdas Pophale) SiO2 
 PCOD9003300
Probable space group: P -1
;
_chemical_formula_sum "Si O2"
_cell_formula_units_Z 14
_cell_length_a 15.236494
_cell_length_b 9.466153
_cell_length_c 11.652824
_cell_angle_alpha 79.999802
_cell_angle_beta 25.607955
_cell_angle_gamma 92.202355
_cell_volume 635.870989
_symmetry_space_group_name_H-M "P -1"
_symmetry_group_IT_number 2
_symmetry_cell_setting 'triclinic'
loop_
_space_group_symop_operation_xyz
x,y,z
-x,-y,-z
loop_
_atom_site_type_symbol
_atom_site_label
_atom_site_fract_x
_atom_site_fract_y
_atom_site_fract_z
Si Si1 0.809558 0.093833 0.181271
Si Si2 0.522017 0.244605 0.260211
Si Si3 0.653080 0.342301 0.420152
Si Si4 0.696616 0.874405 0.702549
Si Si5 0.576383 0.145304 0.750306
Si Si6 0.732620 0.685075 0.267799
Si Si7 0.839069 0.115610 0.875757
O O1 0.727100 0.231608 0.271660
O O2 0.619713 0.931855 0.486075
O O3 0.843334 0.071259 0.010962
O O4 0.043460 0.165913 0.967823
O O5 0.412369 0.230597 0.267319
O O6 0.463402 0.356438 0.396968
O O7 0.774510 0.263637 0.939636
O O8 0.683405 0.298169 0.520091
O O9 0.779488 0.532191 0.221893
O O10 0.389442 0.292608 0.704009
O O11 0.926602 0.862933 0.457766
O O12 0.731730 0.055768 0.605735
O O13 0.522046 0.823050 0.021139
O O14 0.363324 0.015061 0.944942
#
# Coordination Sequence:
#
# PCOD9003300 Si02
#       7
#     2   2   2   2   2   2   2
#     4  12  21  36  61  87 115 150 194 239 288 336
#     4  11  21  35  59  90 116 146 196 238 284 340
#     4  11  23  40  56  87 120 152 187 237 287 353
#     4  10  21  37  59  88 112 151 191 246 281 328
#     4  10  22  38  58  88 116 147 198 235 286 340
#     4  11  24  37  58  86 122 153 185 235 296 341
#     4  11  20  34  61  84 118 143 193 241 286 330
#
# _framework density 22.017046000000001
#
# number of rings (size 3 to 8) (size 9 to 14) (size 15 to 20)
#    0.000    1.143    5.714    2.571    2.000    0.000 
#    0.000    0.714    0.000    0.857    0.000    0.000 
#    0.000    0.000    0.000    0.000    0.000    0.000 
#
# Total GULP energy -78215.354250 kJ/mol
# GULP energy per Si atom -5586.811018 kJ/mol
# Density = 2.196693 g / cm^3
# Si number density = 22.017046 Si / 1000 Ang^3
#
#
#
# Elastic Constant Matrix: (Units=GPa)
#
#
# Indices 1 2 3 4 5 6 
#
# 1 54.9192 8.1732 8.3090 -0.8104 -0.1998 6.3576
# 2 8.1732 87.5630 18.8070 20.0502 2.3485 -1.2647
# 3 8.3090 18.8070 54.5612 27.8229 -12.0826 -4.4488
# 4 -0.8104 20.0502 27.8229 35.7221 0.7886 -5.5324
# 5 -0.1998 2.3485 -12.0826 0.7886 43.1063 13.2909
# 6 6.3576 -1.2647 -4.4488 -5.5324 13.2909 33.6756
#
#
#
# Elastic Compliance Matrix: (Units=1/GPa)
#
#
# Indices 1 2 3 4 5 6 
#
# 1 0.019785 -0.001922 -0.005320 0.005127 -0.000293 -0.003552
# 2 -0.001922 0.013393 -0.001137 -0.006656 -0.000932 -0.000010
# 3 -0.005320 -0.001137 0.036551 -0.028780 0.011934 -0.003648
# 4 0.005127 -0.006656 -0.028780 0.055851 -0.011367 0.008642
# 5 -0.000293 -0.000932 0.011934 -0.011367 0.030609 -0.012351
# 6 -0.003552 -0.000010 -0.003648 0.008642 -0.012351 0.036178
#
#
# Mechanical properties :
#
#
# Convention : Reuss Voigt Hill
#
# Bulk Modulus (GPa) = 18.87756 29.73577 24.30666
# Shear Modulus (GPa) = 22.04763 33.28442 27.66602
#
# Velocity S-wave (km/s) = 3.16791 3.89235 3.54866
# Velocity P-wave (km/s) = 4.68759 5.80824 5.27774
#
# Compressibility (1/GPa) = 0.05297295
#
# Stress axis : x y z
#
# Youngs Moduli (GPa) = 50.54286 74.66635 27.35883
#
# Poissons Ratio (x) = 0.14348 0.14554
# Poissons Ratio (y) = 0.09712 0.03110
# Poissons Ratio (z) = 0.26888 0.08488
#
# Static dielectric constant tensor:
#      x y z
#    x 1.832910 -0.018780 -0.046820 
#    y -0.018780 1.860630 0.029910 
#    z -0.046820 0.029910 1.852960 
# 
# From -- ./inp_files/436968.got.cif
#   From: 2010.05.17/outbox.cif.g08.bks.cpg/sg2_219_cif.got.tgz:436968.got - 2010.06.03 11:33:40.
