data_PCOD9003852
_publ_section_title
;
Structure prediction by ZEFSAII (Michael W. Deem and Ramdas Pophale) SiO2 
 PCOD9003852
Probable space group: P -1
;
_chemical_formula_sum "Si O2"
_cell_formula_units_Z 14
_cell_length_a 7.240853
_cell_length_b 11.372163
_cell_length_c 7.578789
_cell_angle_alpha 106.557139
_cell_angle_beta 79.044974
_cell_angle_gamma 124.165264
_cell_volume 494.602960
_symmetry_space_group_name_H-M "P -1"
_symmetry_group_IT_number 2
_symmetry_cell_setting 'triclinic'
loop_
_space_group_symop_operation_xyz
x,y,z
-x,-y,-z
loop_
_atom_site_type_symbol
_atom_site_label
_atom_site_fract_x
_atom_site_fract_y
_atom_site_fract_z
Si Si1 0.722679 0.557655 0.372220
Si Si2 0.722440 0.201911 0.968080
Si Si3 0.669723 0.428748 0.940834
Si Si4 0.982780 0.836894 0.622378
Si Si5 0.821812 0.732182 0.962927
Si Si6 0.569051 0.897917 0.348689
Si Si7 0.729743 0.300211 0.387812
O O1 0.500000 0.500000 0.500000
O O2 0.675870 0.501614 0.158070
O O3 0.821701 0.467670 0.400917
O O4 0.852643 0.731941 0.438357
O O5 0.519678 0.099113 0.831528
O O6 0.806541 0.352288 0.907351
O O7 0.637508 0.223177 0.179953
O O8 0.933792 0.187434 0.955250
O O9 0.405100 0.302997 0.913695
O O10 0.772042 0.569586 0.861142
O O11 0.110728 0.756924 0.622155
O O12 0.835946 0.810350 0.810673
O O13 0.163547 0.006484 0.641404
O O14 0.437988 0.755871 0.438520
O O15 0.500000 0.000000 0.500000
#
# Coordination Sequence:
#
# PCOD9003852 Si02
#       7
#     2   2   2   2   2   2   2
#     4  11  21  38  64  89 129 159 206 267 315 371
#     4  10  22  41  66  89 127 167 212 259 313 379
#     4  10  22  38  61  97 124 162 211 263 317 373
#     4  10  21  39  60  92 124 161 210 260 312 376
#     4  10  21  37  62  94 124 162 208 260 324 362
#     4  10  23  41  66  92 126 166 214 257 313 382
#     4   9  22  39  65  94 119 165 212 257 316 371
#
# _framework density 28.305530999999998
#
# number of rings (size 3 to 8) (size 9 to 14) (size 15 to 20)
#    0.000    2.000    1.429    0.857    6.000    5.143 
#    0.000    1.429    6.286    0.000    0.000    0.000 
#    0.000    0.000    0.000    0.000    0.000    0.000 
#
# Total GULP energy -78227.480753 kJ/mol
# GULP energy per Si atom -5587.677197 kJ/mol
# Density = 2.824111 g / cm^3
# Si number density = 28.305531 Si / 1000 Ang^3
#
#
#
# Elastic Constant Matrix: (Units=GPa)
#
#
# Indices 1 2 3 4 5 6 
#
# 1 112.5510 -10.7989 15.5716 -0.8255 9.4791 6.9366
# 2 -10.7989 124.9995 20.0955 -8.5775 10.1239 16.7789
# 3 15.5716 20.0955 159.1085 -1.9098 15.4636 32.4346
# 4 -0.8255 -8.5775 -1.9098 48.9534 18.3328 0.7524
# 5 9.4791 10.1239 15.4636 18.3328 30.5507 -3.5832
# 6 6.9366 16.7789 32.4346 0.7524 -3.5832 42.3539
#
#
#
# Elastic Compliance Matrix: (Units=1/GPa)
#
#
# Indices 1 2 3 4 5 6 
#
# 1 0.009721 0.001843 -0.000052 0.002578 -0.005475 -0.002791
# 2 0.001843 0.009695 0.000417 0.004577 -0.007348 -0.005165
# 3 -0.000052 0.000417 0.008463 0.003206 -0.007186 -0.007303
# 4 0.002578 0.004577 0.003206 0.030051 -0.022811 -0.007154
# 5 -0.005475 -0.007348 -0.007186 -0.022811 0.055886 0.014444
# 6 -0.002791 -0.005165 -0.007303 -0.007154 0.014444 0.033055
#
#
# Mechanical properties :
#
#
# Convention : Reuss Voigt Hill
#
# Bulk Modulus (GPa) = 30.96428 49.59949 40.28189
# Shear Modulus (GPa) = 32.63297 49.15766 40.89531
#
# Velocity S-wave (km/s) = 3.39910 4.17187 3.80515
# Velocity P-wave (km/s) = 5.13500 6.38490 5.79375
#
# Compressibility (1/GPa) = 0.03229527
#
# Stress axis : x y z
#
# Youngs Moduli (GPa) = 102.87030 103.14863 118.16245
#
# Poissons Ratio (x) = -0.19013 0.00615
# Poissons Ratio (y) = -0.18961 -0.04929
# Poissons Ratio (z) = 0.00536 -0.04303
#
# Static dielectric constant tensor:
#      x y z
#    x 2.331060 -0.017910 0.021820 
#    y -0.017910 2.393330 0.113740 
#    z 0.021820 0.113740 2.285270 
# 
# From -- ./inp_files/175299.got.cif
#   From: 2010.05.17/outbox.cif.g08.bks.cpg/sg2_88_cif.got.tgz:175299.got - 2010.06.03 11:33:40.
