data_PCOD9003157
_publ_section_title
;
Structure prediction by ZEFSAII (Michael W. Deem and Ramdas Pophale) SiO2 
 PCOD9003157
Probable space group: P -1
;
_chemical_formula_sum "Si O2"
_cell_formula_units_Z 16
_cell_length_a 27.092926
_cell_length_b 25.361618
_cell_length_c 5.211032
_cell_angle_alpha 107.033864
_cell_angle_beta 73.042038
_cell_angle_gamma 169.360556
_cell_volume 631.935687
_symmetry_space_group_name_H-M "P -1"
_symmetry_group_IT_number 2
_symmetry_cell_setting 'triclinic'
loop_
_space_group_symop_operation_xyz
x,y,z
-x,-y,-z
loop_
_atom_site_type_symbol
_atom_site_label
_atom_site_fract_x
_atom_site_fract_y
_atom_site_fract_z
Si Si1 0.434541 0.113584 0.732534
Si Si2 0.874388 0.783011 0.338609
Si Si3 0.579786 0.376394 0.074968
Si Si4 0.087002 0.444802 0.499679
Si Si5 0.672195 0.212689 0.753212
Si Si6 0.466789 0.318620 0.649431
Si Si7 0.408615 0.353494 0.099767
Si Si8 0.189638 0.764011 0.975589
O O1 0.659801 0.328102 0.499115
O O2 0.315472 0.937623 0.822700
O O3 0.566227 0.296751 0.979210
O O4 0.168693 0.857983 0.636162
O O5 0.855134 0.697647 0.168810
O O6 0.742218 0.640185 0.615375
O O7 0.652462 0.582294 0.217258
O O8 0.166175 0.112201 0.317592
O O9 0.400287 0.216244 0.343486
O O10 0.503367 0.314385 0.816672
O O11 0.203090 0.603917 0.321388
O O12 0.962225 0.356527 0.764837
O O13 0.945958 0.472610 0.810393
O O14 0.500000 0.000000 0.500000
O O15 0.452401 0.004470 0.994615
O O16 0.296332 0.189454 0.838430
O O17 0.500000 0.500000 0.000000
#
# Coordination Sequence:
#
# PCOD9003157 Si02
#       8
#     2   2   2   2   2   2   2   2
#     4  10  22  39  58  88 115 159 203 252 315 373
#     4   9  23  40  62  94 128 163 214 262 316 380
#     4   9  21  44  64  93 129 171 211 272 320 388
#     4  10  22  38  59  86 122 154 208 256 307 382
#     4  10  21  37  58  86 121 158 205 254 308 371
#     4   9  22  44  62  98 129 166 216 268 316 389
#     4  11  22  42  68  95 130 172 213 266 326 384
#     4  10  21  38  57  87 120 155 203 255 306 375
#
# _framework density 25.319030999999999
#
# number of rings (size 3 to 8) (size 9 to 14) (size 15 to 20)
#    0.750    1.500    0.000    1.500    1.750    6.000 
#    0.000    0.000    0.000    0.000    0.000    0.000 
#    0.000    0.000    0.000    0.000    0.000    0.000 
#
# Total GULP energy -89261.531629 kJ/mol
# GULP energy per Si atom -5578.845727 kJ/mol
# Density = 2.526140 g / cm^3
# Si number density = 25.319031 Si / 1000 Ang^3
#
#
#
# Elastic Constant Matrix: (Units=GPa)
#
#
# Indices 1 2 3 4 5 6 
#
# 1 54.9129 40.6957 18.0958 -2.4044 3.1245 12.9314
# 2 40.6957 130.9314 34.1955 -23.6801 -9.2220 26.2584
# 3 18.0958 34.1955 111.4578 -24.7144 -7.8239 8.0981
# 4 -2.4044 -23.6801 -24.7144 34.9950 -3.0342 -7.3518
# 5 3.1245 -9.2220 -7.8239 -3.0342 37.7302 -0.7416
# 6 12.9314 26.2584 8.0981 -7.3518 -0.7416 32.8168
#
#
#
# Elastic Compliance Matrix: (Units=1/GPa)
#
#
# Indices 1 2 3 4 5 6 
#
# 1 0.026553 -0.008125 -0.003567 -0.007719 -0.005642 -0.004939
# 2 -0.008125 0.012927 -0.000372 0.007169 0.004227 -0.005349
# 3 -0.003567 -0.000372 0.011656 0.008174 0.003293 0.000733
# 4 -0.007719 0.007169 0.008174 0.040252 0.007412 0.004473
# 5 -0.005642 0.004227 0.003293 0.007412 0.029290 0.000351
# 6 -0.004939 -0.005349 0.000733 0.004473 0.000351 0.037527
#
#
# Mechanical properties :
#
#
# Convention : Reuss Voigt Hill
#
# Bulk Modulus (GPa) = 37.02552 53.69736 45.36144
# Shear Modulus (GPa) = 26.13203 34.72941 30.43072
#
# Velocity S-wave (km/s) = 3.21613 3.70763 3.47059
# Velocity P-wave (km/s) = 5.33354 6.29150 5.83222
#
# Compressibility (1/GPa) = 0.02700840
#
# Stress axis : x y z
#
# Youngs Moduli (GPa) = 37.65985 77.35751 85.79418
#
# Poissons Ratio (x) = 0.62850 0.30606
# Poissons Ratio (y) = 0.30597 0.03191
# Poissons Ratio (z) = 0.13435 0.02877
#
# Static dielectric constant tensor:
#      x y z
#    x 2.074330 0.019450 -0.004650 
#    y 0.019450 2.018430 0.035100 
#    z -0.004650 0.035100 2.082480 
# 
# From -- ./inp_files/128890.got.cif
#   From: 2010.05.17/outbox.cif.g08.bks.cpg/sg2_65_cif.got.tgz:128890.got - 2010.06.03 11:33:40.
