data_PCOD9003861
_publ_section_title
;
Structure prediction by ZEFSAII (Michael W. Deem and Ramdas Pophale) SiO2 
 PCOD9003861
Probable space group: P -1
;
_chemical_formula_sum "Si O2"
_cell_formula_units_Z 12
_cell_length_a 9.517916
_cell_length_b 9.479376
_cell_length_c 12.688630
_cell_angle_alpha 50.053685
_cell_angle_beta 109.543593
_cell_angle_gamma 138.479170
_cell_volume 557.205228
_symmetry_space_group_name_H-M "P -1"
_symmetry_group_IT_number 2
_symmetry_cell_setting 'triclinic'
loop_
_space_group_symop_operation_xyz
x,y,z
-x,-y,-z
loop_
_atom_site_type_symbol
_atom_site_label
_atom_site_fract_x
_atom_site_fract_y
_atom_site_fract_z
Si Si1 0.312433 0.081051 0.632832
Si Si2 0.820355 0.179272 0.483968
Si Si3 0.251521 0.533542 0.547440
Si Si4 0.849327 0.793178 0.731981
Si Si5 0.518408 0.819010 0.142761
Si Si6 0.064732 0.038617 0.877188
O O1 0.220332 0.849045 0.637086
O O2 0.098929 0.009680 0.641837
O O3 0.527900 0.358452 0.494547
O O4 0.413650 0.099276 0.757382
O O5 0.704485 0.233822 0.494768
O O6 0.078438 0.423015 0.464589
O O7 0.756894 0.913353 0.630293
O O8 0.134953 0.294996 0.717010
O O9 0.697940 0.501788 0.780008
O O10 0.882692 0.796009 0.864563
O O11 0.722845 0.897232 0.105446
O O12 0.500000 0.000000 0.000000
O O13 0.000000 0.000000 0.000000
#
# Coordination Sequence:
#
# PCOD9003861 Si02
#       6
#     2   2   2   2   2   2
#     4  11  22  39  65  92 125 163 207 259 308 366
#     4  10  21  37  62  94 127 159 200 256 311 366
#     4  10  22  40  64  97 127 159 205 257 313 366
#     4  10  23  41  63  94 125 160 208 260 313 366
#     4  11  26  43  62  90 126 168 210 256 310 369
#     4  10  24  43  64  91 128 167 206 253 307 374
#
# _framework density 21.536051
#
# number of rings (size 3 to 8) (size 9 to 14) (size 15 to 20)
#    0.000    1.667    0.000    3.000    0.000   19.333 
#    0.000    0.000    0.000    0.000    0.000    0.000 
#    0.000    0.000    0.000    0.000    0.000    0.000 
#
# Total GULP energy -67036.729455 kJ/mol
# GULP energy per Si atom -5586.394121 kJ/mol
# Density = 2.148703 g / cm^3
# Si number density = 21.536051 Si / 1000 Ang^3
#
#
#
# Elastic Constant Matrix: (Units=GPa)
#
#
# Indices 1 2 3 4 5 6 
#
# 1 90.6735 49.4497 56.9609 10.1968 3.0280 -8.1587
# 2 49.4497 180.5556 74.7740 30.5818 2.4583 -6.5673
# 3 56.9609 74.7740 112.6882 26.7034 -9.6460 -0.4473
# 4 10.1968 30.5818 26.7034 37.3051 -17.5775 4.3862
# 5 3.0280 2.4583 -9.6460 -17.5775 37.8004 2.5499
# 6 -8.1587 -6.5673 -0.4473 4.3862 2.5499 29.2333
#
#
#
# Elastic Compliance Matrix: (Units=1/GPa)
#
#
# Indices 1 2 3 4 5 6 
#
# 1 0.017471 -0.001008 -0.008388 -0.000407 -0.003996 0.004931
# 2 -0.001008 0.008852 -0.004198 -0.006622 -0.004852 0.003060
# 3 -0.008388 -0.004198 0.017308 -0.004792 0.003308 -0.002589
# 4 -0.000407 -0.006622 -0.004792 0.047404 0.022006 -0.010707
# 5 -0.003996 -0.004852 0.003308 0.022006 0.038764 -0.008838
# 6 0.004931 0.003060 -0.002589 -0.010707 -0.008838 0.038609
#
#
# Mechanical properties :
#
#
# Convention : Reuss Voigt Hill
#
# Bulk Modulus (GPa) = 60.81920 82.92072 71.86996
# Shear Modulus (GPa) = 24.86618 34.38327 29.62473
#
# Velocity S-wave (km/s) = 3.40167 4.00001 3.71292
# Velocity P-wave (km/s) = 6.61290 7.74082 7.19898
#
# Compressibility (1/GPa) = 0.01644218
#
# Stress axis : x y z
#
# Youngs Moduli (GPa) = 57.23882 112.96678 57.77688
#
# Poissons Ratio (x) = 0.11391 0.48462
# Poissons Ratio (y) = 0.05772 0.24255
# Poissons Ratio (z) = 0.48011 0.47425
#
# Static dielectric constant tensor:
#      x y z
#    x 1.778970 0.008130 -0.022860 
#    y 0.008130 1.870720 -0.013020 
#    z -0.022860 -0.013020 1.787690 
# 
# From -- ./inp_files/381381.got.cif
#   From: 2010.05.17/outbox.cif.g08.bks.cpg/sg2_191_cif.got.tgz:381381.got - 2010.06.03 11:33:40.
