data_PCOD9003082
_publ_section_title
;
Structure prediction by ZEFSAII (Michael W. Deem and Ramdas Pophale) SiO2 
 PCOD9003082
Probable space group: P -1
;
_chemical_formula_sum "Si O2"
_cell_formula_units_Z 16
_cell_length_a 8.823279
_cell_length_b 22.289819
_cell_length_c 11.231776
_cell_angle_alpha 150.389828
_cell_angle_beta 38.197263
_cell_angle_gamma 138.068823
_cell_volume 661.459672
_symmetry_space_group_name_H-M "P -1"
_symmetry_group_IT_number 2
_symmetry_cell_setting 'triclinic'
loop_
_space_group_symop_operation_xyz
x,y,z
-x,-y,-z
loop_
_atom_site_type_symbol
_atom_site_label
_atom_site_fract_x
_atom_site_fract_y
_atom_site_fract_z
Si Si1 0.628953 0.640446 0.698010
Si Si2 0.669764 0.116023 0.969761
Si Si3 0.284742 0.385159 0.891076
Si Si4 0.320103 0.287541 0.452347
Si Si5 0.304159 0.846549 0.245948
Si Si6 0.154034 0.517595 0.553711
Si Si7 0.433207 0.836776 0.629184
Si Si8 0.212345 0.931863 0.701622
O O1 0.500000 0.500000 0.500000
O O2 0.789954 0.696574 0.581260
O O3 0.784736 0.612491 0.666120
O O4 0.431362 0.728358 0.988769
O O5 0.805377 0.157756 0.830440
O O6 0.625589 0.968679 0.750150
O O7 0.400386 0.156397 0.190102
O O8 0.734857 0.170846 0.157794
O O9 0.215612 0.343480 0.726295
O O10 0.406741 0.270279 0.661328
O O11 0.500000 0.500000 0.000000
O O12 0.032233 0.427925 0.154703
O O13 0.595422 0.380278 0.439169
O O14 0.155472 0.870219 0.498528
O O15 0.536185 0.963468 0.293186
O O16 0.000000 0.500000 0.500000
O O17 0.284216 0.846499 0.616283
O O18 0.000000 0.000000 0.000000
#
# Coordination Sequence:
#
# PCOD9003082 Si02
#       8
#     2   2   2   2   2   2   2   2
#     4   9  20  38  61  84 117 157 190 241 291 339
#     4   8  16  38  58  79 108 150 187 232 288 341
#     4  11  22  36  56  85 119 155 190 242 291 337
#     4   9  19  40  59  81 118 147 193 246 286 341
#     4   9  19  38  60  80 116 151 185 235 296 339
#     4  11  22  36  56  87 116 150 199 232 283 352
#     4   9  19  35  59  81 115 153 189 237 292 338
#     4  10  21  37  57  88 114 146 193 238 288 351
#
# _framework density 24.188925999999999
#
# number of rings (size 3 to 8) (size 9 to 14) (size 15 to 20)
#    0.000    2.500    1.250    0.000    1.750    1.500 
#    0.000   23.750    0.000    0.000    0.000    0.000 
#    0.000    0.000    0.000    0.000    0.000    0.000 
#
# Total GULP energy -89240.245160 kJ/mol
# GULP energy per Si atom -5577.515322 kJ/mol
# Density = 2.413387 g / cm^3
# Si number density = 24.188926 Si / 1000 Ang^3
#
#
#
# Elastic Constant Matrix: (Units=GPa)
#
#
# Indices 1 2 3 4 5 6 
#
# 1 114.5696 33.8677 30.9780 3.2229 -3.6514 -25.9671
# 2 33.8677 44.8049 38.5979 12.4160 -9.5055 -20.9974
# 3 30.9780 38.5979 146.7775 -1.7543 0.3879 -33.5882
# 4 3.2229 12.4160 -1.7543 53.2574 -13.3061 7.5499
# 5 -3.6514 -9.5055 0.3879 -13.3061 34.9233 2.2309
# 6 -25.9671 -20.9974 -33.5882 7.5499 2.2309 49.3024
#
#
#
# Elastic Compliance Matrix: (Units=1/GPa)
#
#
# Indices 1 2 3 4 5 6 
#
# 1 0.011635 -0.008099 0.000340 0.000547 -0.000967 0.002870
# 2 -0.008099 0.044108 -0.007616 -0.009831 0.006825 0.010527
# 3 0.000340 -0.007616 0.009528 0.001112 -0.001933 0.003344
# 4 0.000547 -0.009831 0.001112 0.023800 0.006890 -0.007098
# 5 -0.000967 0.006825 -0.001933 0.006890 0.033132 -0.001474
# 6 0.002870 0.010527 0.003344 -0.007098 -0.001474 0.029710
#
#
# Mechanical properties :
#
#
# Convention : Reuss Voigt Hill
#
# Bulk Modulus (GPa) = 28.96877 57.00437 42.98657
# Shear Modulus (GPa) = 25.75079 41.01050 33.38065
#
# Velocity S-wave (km/s) = 3.26631 4.12202 3.71886
# Velocity P-wave (km/s) = 5.12124 6.80237 6.02077
#
# Compressibility (1/GPa) = 0.03451994
#
# Stress axis : x y z
#
# Youngs Moduli (GPa) = 85.94809 22.67169 104.95842
#
# Poissons Ratio (x) = 0.18363 -0.03571
# Poissons Ratio (y) = 0.69612 0.79938
# Poissons Ratio (z) = -0.02924 0.17267
#
# Static dielectric constant tensor:
#      x y z
#    x 2.104280 0.008030 0.162470 
#    y 0.008030 2.094930 0.001220 
#    z 0.162470 0.001220 2.036660 
# 
# From -- ./inp_files/406737.got.cif
#   From: 2010.05.17/outbox.cif.g08.bks.cpg/sg2_204_cif.got.tgz:406737.got - 2010.06.03 11:33:40.
