data_PCOD9003051
_publ_section_title
;
Structure prediction by ZEFSAII (Michael W. Deem and Ramdas Pophale) SiO2 
 PCOD9003051
Probable space group: P -1
;
_chemical_formula_sum "Si O2"
_cell_formula_units_Z 14
_cell_length_a 9.240022
_cell_length_b 19.768779
_cell_length_c 13.180959
_cell_angle_alpha 28.549963
_cell_angle_beta 31.640000
_cell_angle_gamma 36.925642
_cell_volume 590.718041
_symmetry_space_group_name_H-M "P -1"
_symmetry_group_IT_number 2
_symmetry_cell_setting 'triclinic'
loop_
_space_group_symop_operation_xyz
x,y,z
-x,-y,-z
loop_
_atom_site_type_symbol
_atom_site_label
_atom_site_fract_x
_atom_site_fract_y
_atom_site_fract_z
Si Si1 0.033388 0.663733 0.276342
Si Si2 0.804981 0.393181 0.966484
Si Si3 0.491562 0.113572 0.709429
Si Si4 0.151277 0.175637 0.178947
Si Si5 0.323503 0.840440 0.244567
Si Si6 0.618043 0.631833 0.064106
Si Si7 0.937463 0.413219 0.312354
O O1 0.115955 0.692434 0.072796
O O2 0.293034 0.680450 0.169240
O O3 0.000000 0.500000 0.500000
O O4 0.738441 0.757476 0.367264
O O5 0.008100 0.504389 0.727725
O O6 0.500000 0.500000 0.000000
O O7 0.858742 0.270247 0.185584
O O8 0.650926 0.166552 0.640363
O O9 0.725631 0.997179 0.663505
O O10 0.287705 0.008487 0.014761
O O11 0.368859 0.218504 0.908967
O O12 0.238071 0.243014 0.141602
O O13 0.116324 0.748161 0.441071
O O14 0.683472 0.505487 0.275334
O O15 0.787799 0.580341 0.928440
#
# Coordination Sequence:
#
# PCOD9003051 Si02
#       7
#     2   2   2   2   2   2   2
#     4  12  23  36  62  88 115 146 194 247 289 335
#     4  11  21  38  59  86 117 155 191 236 287 339
#     4   9  19  39  60  84 112 149 200 239 275 344
#     4   9  20  38  63  78 113 161 187 236 280 343
#     4   9  17  36  64  78 108 158 202 221 278 349
#     4  10  22  35  53  90 122 145 186 245 290 327
#     4  10  21  37  57  84 121 155 188 233 289 348
#
# _framework density 23.699968999999999
#
# number of rings (size 3 to 8) (size 9 to 14) (size 15 to 20)
#    0.857    1.143    2.857    0.857    2.000    1.714 
#    0.000    1.429    3.143    0.000    0.000    0.000 
#    0.000    0.000    0.000    0.000    0.000    0.000 
#
# Total GULP energy -78122.448662 kJ/mol
# GULP energy per Si atom -5580.174904 kJ/mol
# Density = 2.364603 g / cm^3
# Si number density = 23.699969 Si / 1000 Ang^3
#
#
#
# Elastic Constant Matrix: (Units=GPa)
#
#
# Indices 1 2 3 4 5 6 
#
# 1 91.9597 43.7696 21.6719 -2.6491 -23.8820 -9.5811
# 2 43.7696 150.8559 33.3968 -5.0365 -19.0011 -24.7503
# 3 21.6719 33.3968 71.6484 -12.3593 -19.7167 -18.1593
# 4 -2.6491 -5.0365 -12.3593 30.4830 0.8206 -4.4606
# 5 -23.8820 -19.0011 -19.7167 0.8206 29.3429 6.6893
# 6 -9.5811 -24.7503 -18.1593 -4.4606 6.6893 44.1036
#
#
#
# Elastic Compliance Matrix: (Units=1/GPa)
#
#
# Indices 1 2 3 4 5 6 
#
# 1 0.014997 -0.003011 -0.000309 0.000404 0.010047 -0.000042
# 2 -0.003011 0.008624 -0.001786 0.000901 0.001141 0.003368
# 3 -0.000309 -0.001786 0.021218 0.008995 0.011024 0.006905
# 4 0.000404 0.000901 0.008995 0.037615 0.004203 0.007464
# 5 0.010047 0.001141 0.011024 0.004203 0.050248 0.000166
# 6 -0.000042 0.003368 0.006905 0.007464 0.000166 0.028128
#
#
# Mechanical properties :
#
#
# Convention : Reuss Voigt Hill
#
# Bulk Modulus (GPa) = 28.87876 56.90450 42.89163
# Shear Modulus (GPa) = 27.38476 35.16094 31.27285
#
# Velocity S-wave (km/s) = 3.40292 3.85591 3.63648
# Velocity P-wave (km/s) = 5.25846 6.62469 5.98072
#
# Compressibility (1/GPa) = 0.03462753
#
# Stress axis : x y z
#
# Youngs Moduli (GPa) = 66.68210 115.95250 47.12945
#
# Poissons Ratio (x) = 0.34910 0.01456
# Poissons Ratio (y) = 0.20076 0.08418
# Poissons Ratio (z) = 0.02060 0.20710
#
# Static dielectric constant tensor:
#      x y z
#    x 1.935490 0.035370 0.080630 
#    y 0.035370 1.944860 0.011760 
#    z 0.080630 0.011760 2.048960 
# 
# From -- ./inp_files/507852.got.cif
#   From: 2010.05.17/outbox.cif.g08.bks.cpg/sg2_254_cif.got.tgz:507852.got - 2010.06.03 11:33:40.
