data_PCOD9003113
_publ_section_title
;
Structure prediction by ZEFSAII (Michael W. Deem and Ramdas Pophale) SiO2 
 PCOD9003113
Probable space group: P -1
;
_chemical_formula_sum "Si O2"
_cell_formula_units_Z 16
_cell_length_a 8.373321
_cell_length_b 16.695496
_cell_length_c 18.937094
_cell_angle_alpha 21.185891
_cell_angle_beta 53.512828
_cell_angle_gamma 64.907991
_cell_volume 687.418595
_symmetry_space_group_name_H-M "P -1"
_symmetry_group_IT_number 2
_symmetry_cell_setting 'triclinic'
loop_
_space_group_symop_operation_xyz
x,y,z
-x,-y,-z
loop_
_atom_site_type_symbol
_atom_site_label
_atom_site_fract_x
_atom_site_fract_y
_atom_site_fract_z
Si Si1 0.567332 0.826640 0.757706
Si Si2 0.392778 0.903526 0.933203
Si Si3 0.013771 0.059878 0.030737
Si Si4 0.502387 0.772281 0.230373
Si Si5 0.713995 0.689666 0.690443
Si Si6 0.187136 0.144661 0.200754
Si Si7 0.728827 0.550530 0.561421
Si Si8 0.424033 0.643895 0.667185
O O1 0.600535 0.788135 0.698742
O O2 0.761926 0.806579 0.769411
O O3 0.591241 0.099832 0.539886
O O4 0.345017 0.588208 0.038839
O O5 0.600233 0.886821 0.857273
O O6 0.194454 0.882149 0.952007
O O7 0.490409 0.147955 0.756133
O O8 0.276613 0.670135 0.208415
O O9 0.949346 0.804745 0.299333
O O10 0.000000 0.000000 0.000000
O O11 0.265242 0.238023 0.836373
O O12 0.311727 0.535146 0.438769
O O13 0.500000 0.000000 0.000000
O O14 0.599363 0.669206 0.662084
O O15 0.966978 0.894775 0.451189
O O16 0.206346 0.392192 0.953322
O O17 0.526780 0.597745 0.606290
#
# Coordination Sequence:
#
# PCOD9003113 Si02
#       8
#     2   2   2   2   2   2   2   2
#     4  10  21  40  61  90 124 156 198 250 304 364
#     4   9  20  38  57  83 118 153 198 249 295 350
#     4  10  21  37  58  83 112 153 200 242 294 353
#     4   9  20  37  58  83 113 153 196 238 289 348
#     4  10  22  39  63  89 121 161 200 245 305 367
#     4  10  21  39  60  89 121 157 203 250 300 361
#     4  10  21  39  57  82 119 154 194 249 297 346
#     4  10  22  38  59  88 123 155 200 253 300 358
#
# _framework density 23.275483000000001
#
# number of rings (size 3 to 8) (size 9 to 14) (size 15 to 20)
#    0.000    2.250    0.000    1.500    0.000   11.000 
#    0.000   16.250    0.000    0.000    0.000    0.000 
#    0.000    0.000    0.000    0.000    0.000    0.000 
#
# Total GULP energy -89366.596920 kJ/mol
# GULP energy per Si atom -5585.412307 kJ/mol
# Density = 2.322251 g / cm^3
# Si number density = 23.275483 Si / 1000 Ang^3
#
#
#
# Elastic Constant Matrix: (Units=GPa)
#
#
# Indices 1 2 3 4 5 6 
#
# 1 53.3613 0.6545 30.0736 2.8170 6.7073 -2.9699
# 2 0.6545 69.5231 21.3679 -14.8380 15.8623 5.3846
# 3 30.0736 21.3679 153.7879 -4.3749 8.8435 -19.3704
# 4 2.8170 -14.8380 -4.3749 30.2497 -6.0802 3.3730
# 5 6.7073 15.8623 8.8435 -6.0802 28.1042 -2.6835
# 6 -2.9699 5.3846 -19.3704 3.3730 -2.6835 27.4472
#
#
#
# Elastic Compliance Matrix: (Units=1/GPa)
#
#
# Indices 1 2 3 4 5 6 
#
# 1 0.022042 0.002014 -0.004519 -0.002704 -0.005696 -0.001424
# 2 0.002014 0.019963 -0.003392 0.008059 -0.009704 -0.008032
# 3 -0.004519 -0.003392 0.008602 -0.000556 0.000776 0.006391
# 4 -0.002704 0.008059 -0.000556 0.038730 0.004017 -0.006633
# 5 -0.005696 -0.009704 0.000776 0.004017 0.043578 0.005602
# 6 -0.001424 -0.008032 0.006391 -0.006633 0.005602 0.043729
#
#
# Mechanical properties :
#
#
# Convention : Reuss Voigt Hill
#
# Bulk Modulus (GPa) = 25.76407 42.31826 34.04117
# Shear Modulus (GPa) = 24.82926 32.13199 28.48062
#
# Velocity S-wave (km/s) = 3.26967 3.71955 3.50184
# Velocity P-wave (km/s) = 5.03463 6.05538 5.56845
#
# Compressibility (1/GPa) = 0.03881374
#
# Stress axis : x y z
#
# Youngs Moduli (GPa) = 45.36845 50.09150 116.25180
#
# Poissons Ratio (x) = -0.10089 0.52533
# Poissons Ratio (y) = -0.09138 0.39432
# Poissons Ratio (z) = 0.20501 0.16991
#
# Static dielectric constant tensor:
#      x y z
#    x 1.859030 -0.013330 0.038580 
#    y -0.013330 1.916750 -0.008890 
#    z 0.038580 -0.008890 1.904860 
# 
# From -- ./inp_files/52580.got.cif
#   From: 2010.05.17/outbox.cif.g08.bks.cpg/sg2_27_cif.got.tgz:52580.got - 2010.06.03 11:33:40.
