data_PCOD9003442
_publ_section_title
;
Structure prediction by ZEFSAII (Michael W. Deem and Ramdas Pophale) SiO2 
 PCOD9003442
Probable space group: P -1
;
_chemical_formula_sum "Si O2"
_cell_formula_units_Z 16
_cell_length_a 8.902874
_cell_length_b 14.662632
_cell_length_c 17.619098
_cell_angle_alpha 141.828132
_cell_angle_beta 145.203673
_cell_angle_gamma 55.724139
_cell_volume 788.709798
_symmetry_space_group_name_H-M "P -1"
_symmetry_group_IT_number 2
_symmetry_cell_setting 'triclinic'
loop_
_space_group_symop_operation_xyz
x,y,z
-x,-y,-z
loop_
_atom_site_type_symbol
_atom_site_label
_atom_site_fract_x
_atom_site_fract_y
_atom_site_fract_z
Si Si1 0.819999 0.372262 0.169846
Si Si2 0.318118 0.621526 0.321397
Si Si3 0.154074 0.365654 0.533890
Si Si4 0.408477 0.326008 0.374663
Si Si5 0.489364 0.825503 0.394101
Si Si6 0.254762 0.127278 0.041901
Si Si7 0.327428 0.804162 0.873553
Si Si8 0.845691 0.337875 0.986563
O O1 0.876898 0.533799 0.341010
O O2 0.606137 0.258960 0.059389
O O3 0.090681 0.307655 0.247177
O O4 0.753363 0.378331 0.057962
O O5 0.569875 0.561508 0.350576
O O6 0.426461 0.692195 0.493682
O O7 0.295249 0.748908 0.333438
O O8 0.060865 0.484428 0.138775
O O9 0.221922 0.207660 0.485812
O O10 0.898772 0.325440 0.346825
O O11 0.500000 0.500000 0.500000
O O12 0.432439 0.219550 0.244395
O O13 0.383473 0.725578 0.210923
O O14 0.500000 0.000000 0.500000
O O15 0.419393 0.152572 0.048635
O O16 0.002141 0.203313 0.977237
O O17 0.203308 0.951442 0.926244
#
# Coordination Sequence:
#
# PCOD9003442 Si02
#       8
#     2   2   2   2   2   2   2   2
#     4  11  21  32  60  85 118 145 189 244 287 340
#     4  10  21  37  60  88 110 155 192 238 282 342
#     4  10  22  35  61  82 113 152 193 235 290 338
#     4  11  19  35  56  90 115 145 189 234 289 345
#     4  10  23  41  61  81 113 155 200 239 280 343
#     4  10  23  34  59  81 126 151 191 232 294 345
#     4  11  21  37  53  90 118 157 182 239 293 350
#     4  11  22  38  60  87 113 152 198 237 281 339
#
# _framework density 20.286294999999999
#
# number of rings (size 3 to 8) (size 9 to 14) (size 15 to 20)
#    0.750    0.750    3.750    3.000    0.000    3.500 
#    0.000    0.000    0.000    0.750    0.000    0.000 
#    0.000    0.000    0.000    0.000    0.000    0.000 
#
# Total GULP energy -89280.090035 kJ/mol
# GULP energy per Si atom -5580.005627 kJ/mol
# Density = 2.024012 g / cm^3
# Si number density = 20.286295 Si / 1000 Ang^3
#
#
#
# Elastic Constant Matrix: (Units=GPa)
#
#
# Indices 1 2 3 4 5 6 
#
# 1 60.3671 26.7037 16.1581 5.2919 -14.7703 25.2958
# 2 26.7037 87.1720 27.2927 11.1376 -16.2899 22.0207
# 3 16.1581 27.2927 81.3001 -3.6394 -16.5994 22.4561
# 4 5.2919 11.1376 -3.6394 33.9469 1.0131 -3.0955
# 5 -14.7703 -16.2899 -16.5994 1.0131 24.6123 -5.7290
# 6 25.2958 22.0207 22.4561 -3.0955 -5.7290 31.6397
#
#
#
# Elastic Compliance Matrix: (Units=1/GPa)
#
#
# Indices 1 2 3 4 5 6 
#
# 1 0.030294 -0.000632 0.003639 -0.006787 0.014829 -0.024342
# 2 -0.000632 0.016834 -0.001684 -0.006681 0.007745 -0.009267
# 3 0.003639 -0.001684 0.017639 0.000446 0.010063 -0.012391
# 4 -0.006787 -0.006681 0.000446 0.034041 -0.006837 0.011852
# 5 0.014829 0.007745 0.010063 -0.006837 0.058351 -0.014492
# 6 -0.024342 -0.009267 -0.012391 0.011852 -0.014492 0.064846
#
#
# Mechanical properties :
#
#
# Convention : Reuss Voigt Hill
#
# Bulk Modulus (GPa) = 14.83384 41.01648 27.92516
# Shear Modulus (GPa) = 20.67561 28.61875 24.64718
#
# Velocity S-wave (km/s) = 3.19594 3.76006 3.48942
# Velocity P-wave (km/s) = 4.57677 6.25407 5.47998
#
# Compressibility (1/GPa) = 0.06741343
#
# Stress axis : x y z
#
# Youngs Moduli (GPa) = 33.00967 59.40235 56.69168
#
# Poissons Ratio (x) = 0.03755 -0.20628
# Poissons Ratio (y) = 0.02087 0.09545
# Poissons Ratio (z) = -0.12011 0.10002
#
# Static dielectric constant tensor:
#      x y z
#    x 1.758800 0.016120 0.002310 
#    y 0.016120 1.744950 0.004480 
#    z 0.002310 0.004480 1.707540 
# 
# From -- ./inp_files/292953.got.cif
#   From: 2010.05.17/outbox.cif.g08.bks.cpg/sg2_147_cif.got.tgz:292953.got - 2010.06.03 11:33:40.
