data_PCOD9003109
_publ_section_title
;
Structure prediction by ZEFSAII (Michael W. Deem and Ramdas Pophale) SiO2 
 PCOD9003109
Probable space group: P -1
;
_chemical_formula_sum "Si O2"
_cell_formula_units_Z 14
_cell_length_a 15.026400
_cell_length_b 8.456558
_cell_length_c 17.768306
_cell_angle_alpha 140.032419
_cell_angle_beta 23.830657
_cell_angle_gamma 128.335719
_cell_volume 556.865737
_symmetry_space_group_name_H-M "P -1"
_symmetry_group_IT_number 2
_symmetry_cell_setting 'triclinic'
loop_
_space_group_symop_operation_xyz
x,y,z
-x,-y,-z
loop_
_atom_site_type_symbol
_atom_site_label
_atom_site_fract_x
_atom_site_fract_y
_atom_site_fract_z
Si Si1 0.879765 0.267083 0.649522
Si Si2 0.997367 0.696913 0.186966
Si Si3 0.336270 0.233320 0.662528
Si Si4 0.664745 0.535673 0.499977
Si Si5 0.685071 0.997784 0.968682
Si Si6 0.123731 0.660541 0.590214
Si Si7 0.444343 0.513864 0.156425
O O1 0.709424 0.296002 0.719867
O O2 0.074012 0.387176 0.516524
O O3 0.710782 0.460327 0.911085
O O4 0.000000 0.000000 0.500000
O O5 0.833312 0.827517 0.290351
O O6 0.828487 0.630434 0.353085
O O7 0.161172 0.864875 0.150021
O O8 0.173291 0.436676 0.921095
O O9 0.484016 0.390407 0.560349
O O10 0.500000 0.000000 0.500000
O O11 0.821107 0.328575 0.362019
O O12 0.515675 0.780348 0.754329
O O13 0.594313 0.769390 0.924610
O O14 0.880860 0.858010 0.826478
O O15 0.343331 0.632472 0.356832
#
# Coordination Sequence:
#
# PCOD9003109 Si02
#       7
#     2   2   2   2   2   2   2
#     4  10  21  37  58  81 110 156 206 249 294 340
#     4  10  23  41  64  91 120 153 196 246 298 360
#     4  10  22  43  67  91 119 153 192 243 304 362
#     4  11  24  39  62  94 121 156 199 242 299 358
#     4  10  22  40  59  86 123 160 201 248 294 346
#     4  11  24  38  58  88 123 163 204 247 295 347
#     4  10  23  40  58  85 122 163 207 249 292 345
#
# _framework density 25.140709000000001
#
# number of rings (size 3 to 8) (size 9 to 14) (size 15 to 20)
#    0.000    1.714    0.000    3.857    0.000   14.286 
#    0.000    0.000    0.000    0.000    0.000    0.000 
#    0.000    0.000    0.000    0.000    0.000    0.000 
#
# Total GULP energy -78349.133739 kJ/mol
# GULP energy per Si atom -5596.366696 kJ/mol
# Density = 2.508349 g / cm^3
# Si number density = 25.140709 Si / 1000 Ang^3
#
#
#
# Elastic Constant Matrix: (Units=GPa)
#
#
# Indices 1 2 3 4 5 6 
#
# 1 57.8455 16.7274 23.3303 0.6977 -5.6827 -12.3881
# 2 16.7274 129.7956 52.7550 -14.6352 15.9615 -2.6193
# 3 23.3303 52.7550 123.7885 -15.4523 8.2042 -27.3795
# 4 0.6977 -14.6352 -15.4523 44.6674 -15.4228 -0.5571
# 5 -5.6827 15.9615 8.2042 -15.4228 14.0198 2.4539
# 6 -12.3881 -2.6193 -27.3795 -0.5571 2.4539 45.1687
#
#
#
# Elastic Compliance Matrix: (Units=1/GPa)
#
#
# Indices 1 2 3 4 5 6 
#
# 1 0.021754 -0.003445 -0.002620 0.003866 0.017957 0.003250
# 2 -0.003445 0.011172 -0.003911 -0.002629 -0.014383 -0.001919
# 3 -0.002620 -0.003911 0.012127 0.002193 -0.002442 0.006565
# 4 0.003866 -0.002629 0.002193 0.037640 0.044634 0.000277
# 5 0.017957 -0.014383 -0.002442 0.044634 0.146349 -0.004790
# 6 0.003250 -0.001919 0.006565 0.000277 -0.004790 0.027162
#
#
# Mechanical properties :
#
#
# Convention : Reuss Voigt Hill
#
# Bulk Modulus (GPa) = 39.84237 55.22835 47.53536
# Shear Modulus (GPa) = 17.57324 35.34562 26.45943
#
# Velocity S-wave (km/s) = 2.64672 3.75362 3.24767
# Velocity P-wave (km/s) = 5.02218 6.38761 5.74560
#
# Compressibility (1/GPa) = 0.02509891
#
# Stress axis : x y z
#
# Youngs Moduli (GPa) = 45.96826 89.51259 82.46354
#
# Poissons Ratio (x) = 0.30840 0.21609
# Poissons Ratio (y) = 0.15838 0.32252
# Poissons Ratio (z) = 0.12045 0.35008
#
# Static dielectric constant tensor:
#      x y z
#    x 2.073010 0.001840 -0.033900 
#    y 0.001840 2.080590 0.031880 
#    z -0.033900 0.031880 1.935180 
# 
# From -- ./inp_files/599596.got.cif
#   From: 2010.05.17/outbox.cif.g08.bks.cpg/sg2_300_cif.got.tgz:599596.got - 2010.06.03 11:33:40.
