data_PCOD9003345
_publ_section_title
;
Structure prediction by ZEFSAII (Michael W. Deem and Ramdas Pophale) SiO2 
 PCOD9003345
Probable space group: P -1
;
_chemical_formula_sum "Si O2"
_cell_formula_units_Z 16
_cell_length_a 8.204628
_cell_length_b 8.301493
_cell_length_c 17.113986
_cell_angle_alpha 53.208369
_cell_angle_beta 113.327922
_cell_angle_gamma 126.307664
_cell_volume 750.689184
_symmetry_space_group_name_H-M "P -1"
_symmetry_group_IT_number 2
_symmetry_cell_setting 'triclinic'
loop_
_space_group_symop_operation_xyz
x,y,z
-x,-y,-z
loop_
_atom_site_type_symbol
_atom_site_label
_atom_site_fract_x
_atom_site_fract_y
_atom_site_fract_z
Si Si1 0.385710 0.065318 0.348942
Si Si2 0.975396 0.804950 0.434323
Si Si3 0.446446 0.548935 0.603239
Si Si4 0.269724 0.062942 0.553551
Si Si5 0.490844 0.229511 0.157095
Si Si6 0.514582 0.841249 0.179204
Si Si7 0.780194 0.583797 0.013933
Si Si8 0.232561 0.788779 0.001685
O O1 0.499703 0.237968 0.391206
O O2 0.405956 0.205140 0.234245
O O3 0.526492 0.950745 0.391825
O O4 0.151654 0.904326 0.374101
O O5 0.782197 0.562740 0.443192
O O6 0.856095 0.947940 0.390231
O O7 0.112768 0.865187 0.522312
O O8 0.634398 0.678147 0.540303
O O9 0.462917 0.356454 0.714333
O O10 0.343135 0.279841 0.060224
O O11 0.503499 0.010453 0.192485
O O12 0.710622 0.448615 0.121609
O O13 0.324402 0.769320 0.107165
O O14 0.682776 0.987309 0.102896
O O15 0.733289 0.386884 0.996664
O O16 0.012733 0.739336 0.998259
#
# Coordination Sequence:
#
# PCOD9003345 Si02
#       8
#     2   2   2   2   2   2   2   2
#     4  11  24  42  63  93 130 161 209 259 303 371
#     4  10  22  41  66  88 117 172 198 255 317 360
#     4  11  22  40  65  92 125 162 205 258 305 368
#     4  10  23  44  64  92 125 162 210 259 304 372
#     4  10  21  38  57  90 124 158 201 255 300 365
#     4  10  21  37  59  90 124 156 203 256 301 362
#     4   9  19  38  62  83 120 162 200 246 310 362
#     4   9  19  38  61  86 117 162 202 246 307 368
#
# _framework density 21.313749000000001
#
# number of rings (size 3 to 8) (size 9 to 14) (size 15 to 20)
#    0.000    2.000    0.000    3.375    1.750    3.500 
#   18.000    0.000    0.000    0.000    0.000    0.000 
#    0.000    0.000    0.000    0.000    0.000    0.000 
#
# Total GULP energy -89074.268379 kJ/mol
# GULP energy per Si atom -5567.141774 kJ/mol
# Density = 2.126524 g / cm^3
# Si number density = 21.313749 Si / 1000 Ang^3
#
#
#
# Elastic Constant Matrix: (Units=GPa)
#
#
# Indices 1 2 3 4 5 6 
#
# 1 136.6892 16.2689 25.3751 -17.1333 -12.7217 22.5190
# 2 16.2689 67.1447 18.7693 -3.9516 -9.6297 24.5002
# 3 25.3751 18.7693 70.2044 -7.5376 7.2646 1.6940
# 4 -17.1333 -3.9516 -7.5376 24.4567 -9.9472 -1.2273
# 5 -12.7217 -9.6297 7.2646 -9.9472 29.4034 -0.6474
# 6 22.5190 24.5002 1.6940 -1.2273 -0.6474 35.6396
#
#
#
# Elastic Compliance Matrix: (Units=1/GPa)
#
#
# Indices 1 2 3 4 5 6 
#
# 1 0.011911 0.004494 -0.005220 0.011716 0.011664 -0.009752
# 2 0.004494 0.026360 -0.008732 0.010109 0.015716 -0.019911
# 3 -0.005220 -0.008732 0.019040 -0.003150 -0.010710 0.008093
# 4 0.011716 0.010109 -0.003150 0.061225 0.029616 -0.011556
# 5 0.011664 0.015716 -0.010710 0.029616 0.056524 -0.015618
# 6 -0.009752 -0.019911 0.008093 -0.011556 -0.015618 0.046842
#
#
# Mechanical properties :
#
#
# Convention : Reuss Voigt Hill
#
# Bulk Modulus (GPa) = 26.04593 43.87386 34.95990
# Shear Modulus (GPa) = 19.71484 32.14161 25.92823
#
# Velocity S-wave (km/s) = 3.04465 3.88754 3.49162
# Velocity P-wave (km/s) = 4.96051 6.38593 5.71781
#
# Compressibility (1/GPa) = 0.03839371
#
# Stress axis : x y z
#
# Youngs Moduli (GPa) = 83.95823 37.93690 52.52031
#
# Poissons Ratio (x) = -0.17048 0.27417
# Poissons Ratio (y) = -0.37729 0.45861
# Poissons Ratio (z) = 0.43828 0.33126
#
# Static dielectric constant tensor:
#      x y z
#    x 1.788720 -0.006960 -0.014460 
#    y -0.006960 1.837890 -0.011150 
#    z -0.014460 -0.011150 1.803360 
# 
# From -- ./inp_files/555962.got.cif
#   From: 2010.05.17/outbox.cif.g08.bks.cpg/sg2_278_cif.got.tgz:555962.got - 2010.06.03 11:33:40.
