data_PCOD9003086
_publ_section_title
;
Structure prediction by ZEFSAII (Michael W. Deem and Ramdas Pophale) SiO2 
 PCOD9003086
Probable space group: P -1
;
_chemical_formula_sum "Si O2"
_cell_formula_units_Z 14
_cell_length_a 8.567880
_cell_length_b 13.595438
_cell_length_c 6.489386
_cell_angle_alpha 74.986298
_cell_angle_beta 125.241302
_cell_angle_gamma 117.727630
_cell_volume 546.434046
_symmetry_space_group_name_H-M "P -1"
_symmetry_group_IT_number 2
_symmetry_cell_setting 'triclinic'
loop_
_space_group_symop_operation_xyz
x,y,z
-x,-y,-z
loop_
_atom_site_type_symbol
_atom_site_label
_atom_site_fract_x
_atom_site_fract_y
_atom_site_fract_z
Si Si1 0.643516 0.308952 0.666517
Si Si2 0.185462 0.914909 0.748171
Si Si3 0.156459 0.596744 0.821325
Si Si4 0.448864 0.067976 0.238449
Si Si5 0.977307 0.656609 0.297375
Si Si6 0.763055 0.876522 0.588295
Si Si7 0.454210 0.377546 0.119179
O O1 0.797014 0.272171 0.664514
O O2 0.445783 0.202647 0.645889
O O3 0.536071 0.375768 0.413686
O O4 0.794382 0.381846 0.916523
O O5 0.339323 0.870398 0.769359
O O6 0.953765 0.842473 0.695230
O O7 0.167202 0.000119 0.516019
O O8 0.300912 0.984080 0.000447
O O9 0.001401 0.641915 0.567198
O O10 0.386538 0.656877 0.867031
O O11 0.078242 0.468149 0.765287
O O12 0.319854 0.126029 0.238269
O O13 0.500000 0.000000 0.500000
O O14 0.789727 0.687823 0.071308
O O15 0.500000 0.500000 0.000000
#
# Coordination Sequence:
#
# PCOD9003086 Si02
#       7
#     2   2   2   2   2   2   2
#     4  11  22  36  56  90 119 153 201 249 302 356
#     4   9  19  38  62  85 116 163 198 235 300 364
#     4   9  19  36  59  81 114 154 199 244 299 362
#     4   9  18  37  62  87 111 158 202 235 296 370
#     4   9  19  37  56  81 113 155 198 246 298 352
#     4  10  21  37  57  88 124 152 198 251 297 354
#     4   9  20  38  57  82 113 151 202 246 297 360
#
# _framework density 25.620660000000001
#
# number of rings (size 3 to 8) (size 9 to 14) (size 15 to 20)
#    0.000    2.571    0.000    1.714    0.000    5.714 
#   10.286    0.000    0.000    0.000    0.000    0.000 
#    0.000    0.000    0.000    0.000    0.000    0.000 
#
# Total GULP energy -78152.699908 kJ/mol
# GULP energy per Si atom -5582.335708 kJ/mol
# Density = 2.556235 g / cm^3
# Si number density = 25.620660 Si / 1000 Ang^3
#
#
#
# Elastic Constant Matrix: (Units=GPa)
#
#
# Indices 1 2 3 4 5 6 
#
# 1 191.9498 52.5896 73.9422 5.1601 11.0080 29.0404
# 2 52.5896 58.5110 16.4296 1.1957 8.5093 3.1463
# 3 73.9422 16.4296 165.8619 0.2931 3.0787 -8.0269
# 4 5.1601 1.1957 0.2931 33.9208 0.0548 2.3466
# 5 11.0080 8.5093 3.0787 0.0548 37.7007 13.9944
# 6 29.0404 3.1463 -8.0269 2.3466 13.9944 41.8351
#
#
#
# Elastic Compliance Matrix: (Units=1/GPa)
#
#
# Indices 1 2 3 4 5 6 
#
# 1 0.009967 -0.007673 -0.004096 -0.000676 0.002042 -0.007773
# 2 -0.007673 0.024076 0.001407 -0.000072 -0.005384 0.005591
# 3 -0.004096 0.001407 0.007975 0.000177 -0.001545 0.004775
# 4 -0.000676 -0.000072 0.000177 0.029679 0.000668 -0.001380
# 5 0.002042 -0.005384 -0.001545 0.000668 0.031706 -0.011953
# 6 -0.007773 0.005591 0.004775 -0.001380 -0.011953 0.033870
#
#
# Mechanical properties :
#
#
# Convention : Reuss Voigt Hill
#
# Bulk Modulus (GPa) = 46.96421 78.02729 62.49575
# Shear Modulus (GPa) = 30.28529 40.91541 35.60035
#
# Velocity S-wave (km/s) = 3.44185 4.00055 3.73167
# Velocity P-wave (km/s) = 5.84512 7.20140 6.55841
#
# Compressibility (1/GPa) = 0.02129281
#
# Stress axis : x y z
#
# Youngs Moduli (GPa) = 100.33243 41.53443 125.38723
#
# Poissons Ratio (x) = 0.31871 0.51360
# Poissons Ratio (y) = 0.76988 -0.17636
# Poissons Ratio (z) = 0.41097 -0.05842
#
# Static dielectric constant tensor:
#      x y z
#    x 2.054900 0.027940 -0.029750 
#    y 0.027940 2.086990 -0.011730 
#    z -0.029750 -0.011730 2.053460 
# 
# From -- ./inp_files/47555.got.cif
#   From: 2010.05.17/outbox.cif.g08.bks.cpg/sg2_24_cif.got.tgz:47555.got - 2010.06.03 11:33:40.
