data_PCOD9003889
_publ_section_title
;
Structure prediction by ZEFSAII (Michael W. Deem and Ramdas Pophale) SiO2 
 PCOD9003889
Probable space group: P -1
;
_chemical_formula_sum "Si O2"
_cell_formula_units_Z 16
_cell_length_a 9.634873
_cell_length_b 9.737981
_cell_length_c 11.028545
_cell_angle_alpha 110.594874
_cell_angle_beta 118.573937
_cell_angle_gamma 41.574285
_cell_volume 602.981031
_symmetry_space_group_name_H-M "P -1"
_symmetry_group_IT_number 2
_symmetry_cell_setting 'triclinic'
loop_
_space_group_symop_operation_xyz
x,y,z
-x,-y,-z
loop_
_atom_site_type_symbol
_atom_site_label
_atom_site_fract_x
_atom_site_fract_y
_atom_site_fract_z
Si Si1 0.392983 0.646345 0.673564
Si Si2 0.798317 0.180200 0.599973
Si Si3 0.786407 0.780398 0.683803
Si Si4 0.898357 0.029411 0.837293
Si Si5 0.582533 0.554567 0.156414
Si Si6 0.741768 0.872218 0.442667
Si Si7 0.267289 0.248649 0.837861
Si Si8 0.334464 0.236548 0.128559
O O1 0.597553 0.419231 0.631543
O O2 0.201907 0.787733 0.535465
O O3 0.310137 0.610146 0.742790
O O4 0.501526 0.729704 0.787330
O O5 0.964355 0.074082 0.754597
O O6 0.742815 0.042488 0.532059
O O7 0.833190 0.714961 0.542746
O O8 0.804005 0.665929 0.773104
O O9 0.916535 0.843434 0.782559
O O10 0.521096 0.988932 0.634196
O O11 0.638593 0.235419 0.809474
O O12 0.000000 0.000000 0.000000
O O13 0.709905 0.607116 0.168065
O O14 0.500000 0.500000 0.000000
O O15 0.845569 0.775135 0.323037
O O16 0.511269 0.010309 0.878429
O O17 0.203079 0.308088 0.969832
#
# Coordination Sequence:
#
# PCOD9003889 Si02
#       8
#     2   2   2   2   2   2   2   2
#     4  10  18  28  48  79 111 131 165 229 276 304
#     4   9  18  30  48  78 105 137 172 223 274 306
#     4   9  16  27  48  74  99 129 178 216 262 298
#     4  10  20  35  53  75 109 146 179 214 262 332
#     4  11  20  32  50  82 109 137 176 222 276 310
#     4   9  15  27  47  73 107 124 171 228 263 303
#     4  10  18  28  45  77 109 133 167 217 279 316
#     4  10  17  28  46  75 109 134 165 221 277 311
#
# _framework density 26.534832000000002
#
# number of rings (size 3 to 8) (size 9 to 14) (size 15 to 20)
#    0.000    2.250    6.250    0.000    1.750    0.000 
#    0.000    0.000    0.000    3.750    0.000    3.500 
#    0.000    0.000    0.000    0.000    0.000    0.000 
#
# Total GULP energy -89351.992190 kJ/mol
# GULP energy per Si atom -5584.499512 kJ/mol
# Density = 2.647444 g / cm^3
# Si number density = 26.534832 Si / 1000 Ang^3
#
#
#
# Elastic Constant Matrix: (Units=GPa)
#
#
# Indices 1 2 3 4 5 6 
#
# 1 70.8197 39.0600 35.8445 -8.1690 -20.9660 11.7298
# 2 39.0600 140.3171 49.9427 -13.2504 -12.6771 12.1043
# 3 35.8445 49.9427 214.4295 -34.3672 -48.2566 26.1974
# 4 -8.1690 -13.2504 -34.3672 55.8420 22.0556 -17.2279
# 5 -20.9660 -12.6771 -48.2566 22.0556 51.8903 -8.9897
# 6 11.7298 12.1043 26.1974 -17.2279 -8.9897 41.6042
#
#
#
# Elastic Compliance Matrix: (Units=1/GPa)
#
#
# Indices 1 2 3 4 5 6 
#
# 1 0.019064 -0.004419 -0.000686 -0.002176 0.006358 -0.003184
# 2 -0.004419 0.008866 -0.001451 0.001051 -0.001468 -0.000302
# 3 -0.000686 -0.001451 0.006601 0.001139 0.004665 -0.002061
# 4 -0.002176 0.001051 0.001139 0.024328 -0.008549 0.007817
# 5 0.006358 -0.001468 0.004665 -0.008549 0.029188 -0.001536
# 6 -0.003184 -0.000302 -0.002061 0.007817 -0.001536 0.029224
#
#
# Mechanical properties :
#
#
# Convention : Reuss Voigt Hill
#
# Bulk Modulus (GPa) = 46.69221 75.02896 60.86059
# Shear Modulus (GPa) = 36.35775 49.91524 43.13649
#
# Velocity S-wave (km/s) = 3.70562 4.34190 4.03632
# Velocity P-wave (km/s) = 5.99530 7.31253 6.68643
#
# Compressibility (1/GPa) = 0.02141685
#
# Stress axis : x y z
#
# Youngs Moduli (GPa) = 52.45616 112.79053 151.50255
#
# Poissons Ratio (x) = 0.49840 0.10399
# Poissons Ratio (y) = 0.23179 0.21989
# Poissons Ratio (z) = 0.03601 0.16371
#
# Static dielectric constant tensor:
#      x y z
#    x 2.126700 -0.054830 -0.087980 
#    y -0.054830 2.073520 -0.045080 
#    z -0.087980 -0.045080 2.220490 
# 
# From -- ./inp_files/419626.got.cif
#   From: 2010.05.17/outbox.cif.g08.bks.cpg/sg2_210_cif.got.tgz:419626.got - 2010.06.03 11:33:40.
