data_PCOD9003956
_publ_section_title
;
Structure prediction by ZEFSAII (Michael W. Deem and Ramdas Pophale) SiO2 
 PCOD9003956
Probable space group: P -1
;
_chemical_formula_sum "Si O2"
_cell_formula_units_Z 14
_cell_length_a 8.147721
_cell_length_b 6.465721
_cell_length_c 16.748207
_cell_angle_alpha 124.518720
_cell_angle_beta 44.847957
_cell_angle_gamma 121.895339
_cell_volume 500.363040
_symmetry_space_group_name_H-M "P -1"
_symmetry_group_IT_number 2
_symmetry_cell_setting 'triclinic'
loop_
_space_group_symop_operation_xyz
x,y,z
-x,-y,-z
loop_
_atom_site_type_symbol
_atom_site_label
_atom_site_fract_x
_atom_site_fract_y
_atom_site_fract_z
Si Si1 0.668081 0.203696 0.426910
Si Si2 0.908259 0.220676 0.743286
Si Si3 0.215359 0.966387 0.820147
Si Si4 0.829636 0.239999 0.965269
Si Si5 0.154333 0.336329 0.363226
Si Si6 0.531243 0.487181 0.891446
Si Si7 0.408652 0.511040 0.675534
O O1 0.646308 0.098595 0.321590
O O2 0.607776 0.477031 0.532715
O O3 0.951224 0.227062 0.345004
O O4 0.500000 0.000000 0.500000
O O5 0.855035 0.225531 0.857304
O O6 0.791044 0.424234 0.780581
O O7 0.190175 0.310909 0.667344
O O8 0.811825 0.940443 0.676699
O O9 0.261511 0.724585 0.800746
O O10 0.354795 0.225923 0.867903
O O11 0.947252 0.010644 0.909044
O O12 0.556930 0.280386 0.071537
O O13 0.000000 0.500000 0.000000
O O14 0.423135 0.507807 0.309428
O O15 0.000000 0.500000 0.500000
O O16 0.500000 0.500000 0.000000
#
# Coordination Sequence:
#
# PCOD9003956 Si02
#       7
#     2   2   2   2   2   2   2
#     4  11  21  40  63  91 126 166 202 243 306 377
#     4  11  19  42  65  88 123 166 203 250 313 362
#     4  11  20  37  63  93 126 159 201 260 309 360
#     4   9  19  37  64  87 117 163 205 256 309 356
#     4  10  21  37  63  89 123 167 203 244 302 365
#     4   9  20  38  64  88 119 163 208 256 306 355
#     4  11  23  37  62  96 123 158 205 250 305 378
#
# _framework density 27.979682
#
# number of rings (size 3 to 8) (size 9 to 14) (size 15 to 20)
#    0.000    1.714    4.286    0.429    0.000    0.000 
#    0.000   17.143    0.000    0.000    0.000    0.000 
#    0.000    0.000    0.000    0.000    0.000    0.000 
#
# Total GULP energy -77967.882436 kJ/mol
# GULP energy per Si atom -5569.134460 kJ/mol
# Density = 2.791600 g / cm^3
# Si number density = 27.979682 Si / 1000 Ang^3
#
#
#
# Elastic Constant Matrix: (Units=GPa)
#
#
# Indices 1 2 3 4 5 6 
#
# 1 140.1260 34.1106 70.6499 -3.2717 -54.6328 27.9882
# 2 34.1106 87.0289 32.3389 20.2621 -16.9564 5.3014
# 3 70.6499 32.3389 172.3475 36.4099 -33.2803 -6.5919
# 4 -3.2717 20.2621 36.4099 58.9505 2.8943 1.1173
# 5 -54.6328 -16.9564 -33.2803 2.8943 81.6814 -1.1396
# 6 27.9882 5.3014 -6.5919 1.1173 -1.1396 31.9347
#
#
#
# Elastic Compliance Matrix: (Units=1/GPa)
#
#
# Indices 1 2 3 4 5 6 
#
# 1 0.018444 -0.003408 -0.007420 0.006703 0.008130 -0.017075
# 2 -0.003408 0.014123 0.000027 -0.005118 0.000856 0.000858
# 3 -0.007420 0.000027 0.010645 -0.007153 -0.000242 0.008938
# 4 0.006703 -0.005118 -0.007153 0.023673 -0.000435 -0.007345
# 5 0.008130 0.000856 -0.000242 -0.000435 0.017682 -0.006671
# 6 -0.017075 0.000858 0.008938 -0.007345 -0.006671 0.048000
#
#
# Mechanical properties :
#
#
# Convention : Reuss Voigt Hill
#
# Bulk Modulus (GPa) = 46.27930 74.85567 60.56749
# Shear Modulus (GPa) = 30.98394 52.00686 41.49540
#
# Velocity S-wave (km/s) = 3.33133 4.31598 3.85522
# Velocity P-wave (km/s) = 5.60118 7.18670 6.44290
#
# Compressibility (1/GPa) = 0.02160793
#
# Stress axis : x y z
#
# Youngs Moduli (GPa) = 54.21828 70.80878 93.93708
#
# Poissons Ratio (x) = 0.24132 0.69705
# Poissons Ratio (y) = 0.18478 -0.00249
# Poissons Ratio (z) = 0.40232 -0.00188
#
# Static dielectric constant tensor:
#      x y z
#    x 2.454040 -0.119580 -0.050240 
#    y -0.119580 2.350250 0.057590 
#    z -0.050240 0.057590 2.286420 
# 
# From -- ./inp_files/586187.got.cif
#   From: 2010.05.17/outbox.cif.g08.bks.cpg/sg2_294_cif.got.tgz:586187.got - 2010.06.03 11:33:40.
