data_PCOD9003446
_publ_section_title
;
Structure prediction by ZEFSAII (Michael W. Deem and Ramdas Pophale) SiO2 
 PCOD9003446
Probable space group: P -1
;
_chemical_formula_sum "Si O2"
_cell_formula_units_Z 13
_cell_length_a 21.766623
_cell_length_b 12.016903
_cell_length_c 4.895083
_cell_angle_alpha 80.822498
_cell_angle_beta 103.413866
_cell_angle_gamma 158.016873
_cell_volume 460.747323
_symmetry_space_group_name_H-M "P -1"
_symmetry_group_IT_number 2
_symmetry_cell_setting 'triclinic'
loop_
_space_group_symop_operation_xyz
x,y,z
-x,-y,-z
loop_
_atom_site_type_symbol
_atom_site_label
_atom_site_fract_x
_atom_site_fract_y
_atom_site_fract_z
Si Si1 0.474934 0.619232 0.000923
Si Si2 0.202379 0.952076 0.585468
Si Si3 0.277497 0.877015 0.311273
Si Si4 0.000000 0.500000 0.000000
Si Si5 0.876197 0.978941 0.927291
Si Si6 0.140663 0.279944 0.319355
Si Si7 0.503015 0.109615 0.754718
O O1 0.553913 0.775876 0.727744
O O2 0.282255 0.265411 0.939313
O O3 0.483025 0.753805 0.103173
O O4 0.603529 0.748311 0.239720
O O5 0.164739 0.787961 0.383498
O O6 0.153461 0.980979 0.356855
O O7 0.088309 0.748778 0.811684
O O8 0.161873 0.682824 0.002972
O O9 0.329792 0.851501 0.520477
O O10 0.851921 0.813106 0.842960
O O11 0.057092 0.257000 0.136067
O O12 0.342351 0.637960 0.403497
O O13 0.000000 0.000000 0.500000
O O14 0.500000 0.000000 0.000000
#
# Coordination Sequence:
#
# PCOD9003446 Si02
#       7
#     2   2   2   1   2   2   2
#     4   9  20  39  59  88 120 152 196 252 293 359
#     4  10  21  37  60  88 117 158 197 248 301 354
#     4  10  21  39  59  84 121 153 197 251 298 357
#     4  10  22  38  56  84 124 154 196 248 294 350
#     4  10  21  38  61  86 122 155 199 244 298 356
#     4  10  22  40  58  89 124 157 201 248 292 358
#     4  10  22  39  61  87 120 160 203 243 300 357
#
# _framework density 28.215033999999999
#
# number of rings (size 3 to 8) (size 9 to 14) (size 15 to 20)
#    0.000    2.154    0.000    1.846    2.154    3.692 
#    8.308    0.000    0.000    0.000    0.000    0.000 
#    0.000    0.000    0.000    0.000    0.000    0.000 
#
# Total GULP energy -72552.369153 kJ/mol
# GULP energy per Si atom -5580.951473 kJ/mol
# Density = 2.815082 g / cm^3
# Si number density = 28.215034 Si / 1000 Ang^3
#
#
#
# Elastic Constant Matrix: (Units=GPa)
#
#
# Indices 1 2 3 4 5 6 
#
# 1 142.0499 49.4544 59.1960 9.9465 44.6464 18.8596
# 2 49.4544 160.9978 66.6260 -0.7010 27.7220 46.4566
# 3 59.1960 66.6260 174.9534 2.2991 63.0405 28.9588
# 4 9.9465 -0.7010 2.2991 58.1908 23.4297 -1.5218
# 5 44.6464 27.7220 63.0405 23.4297 77.6715 11.6606
# 6 18.8596 46.4566 28.9588 -1.5218 11.6606 49.0605
#
#
#
# Elastic Compliance Matrix: (Units=1/GPa)
#
#
# Indices 1 2 3 4 5 6 
#
# 1 0.009321 -0.001611 -0.001080 -0.000048 -0.003815 -0.000515
# 2 -0.001611 0.009615 -0.001938 0.000235 0.000101 -0.007358
# 3 -0.001080 -0.001938 0.009576 0.002549 -0.006979 -0.001664
# 4 -0.000048 0.000235 0.002549 0.020525 -0.008458 0.000938
# 5 -0.003815 0.000101 -0.006979 -0.008458 0.023293 -0.000309
# 6 -0.000515 -0.007358 -0.001664 0.000938 -0.000309 0.028633
#
#
# Mechanical properties :
#
#
# Convention : Reuss Voigt Hill
#
# Bulk Modulus (GPa) = 51.93721 92.06152 71.99937
# Shear Modulus (GPa) = 42.86690 57.16621 50.01655
#
# Velocity S-wave (km/s) = 3.90204 4.50609 4.21490
# Velocity P-wave (km/s) = 6.22485 7.73127 7.01860
#
# Compressibility (1/GPa) = 0.01925402
#
# Stress axis : x y z
#
# Youngs Moduli (GPa) = 107.27949 104.00395 104.42942
#
# Poissons Ratio (x) = 0.16756 0.11277
# Poissons Ratio (y) = 0.17284 0.20240
# Poissons Ratio (z) = 0.11585 0.20157
#
# Static dielectric constant tensor:
#      x y z
#    x 2.112680 0.159250 0.233410 
#    y 0.159250 1.832280 -0.618430 
#    z 0.233410 -0.618430 1.302770 
# 
# From -- ./inp_files/24753.got.cif
#   From: 2010.05.17/outbox.cif.g08.bks.cpg/sg2_13_cif.got.tgz:24753.got - 2010.06.03 11:33:40.
