data_PCOD9003103
_publ_section_title
;
Structure prediction by ZEFSAII (Michael W. Deem and Ramdas Pophale) SiO2 
 PCOD9003103
Probable space group: P -1
;
_chemical_formula_sum "Si O2"
_cell_formula_units_Z 14
_cell_length_a 14.662832
_cell_length_b 24.616416
_cell_length_c 25.268375
_cell_angle_alpha 11.928635
_cell_angle_beta 159.031183
_cell_angle_gamma 156.153773
_cell_volume 674.555331
_symmetry_space_group_name_H-M "P -1"
_symmetry_group_IT_number 2
_symmetry_cell_setting 'triclinic'
loop_
_space_group_symop_operation_xyz
x,y,z
-x,-y,-z
loop_
_atom_site_type_symbol
_atom_site_label
_atom_site_fract_x
_atom_site_fract_y
_atom_site_fract_z
Si Si1 0.119721 0.104045 0.791447
Si Si2 0.565865 0.144130 0.488676
Si Si3 0.416581 0.226851 0.937303
Si Si4 0.027163 0.790967 0.760640
Si Si5 0.760023 0.471963 0.634668
Si Si6 0.470985 0.809993 0.458439
Si Si7 0.676460 0.412922 0.129048
O O1 0.234028 0.323847 0.605135
O O2 0.215164 0.821011 0.095227
O O3 0.813038 0.110393 0.617688
O O4 0.202160 0.167261 0.835510
O O5 0.660245 0.151492 0.593394
O O6 0.383899 0.892540 0.621676
O O7 0.426302 0.411066 0.142746
O O8 0.680834 0.185111 0.087144
O O9 0.414600 0.028145 0.175523
O O10 0.415585 0.523615 0.676286
O O11 0.772747 0.828595 0.620207
O O12 0.000000 0.000000 0.500000
O O13 0.000000 0.500000 0.000000
O O14 0.500000 0.500000 0.500000
O O15 0.024337 0.531906 0.752190
O O16 0.500000 0.500000 0.000000
#
# Coordination Sequence:
#
# PCOD9003103 Si02
#       7
#     2   2   2   2   2   2   2
#     4  12  24  43  66  95 131 175 214 258 338 390
#     4  12  24  40  70  97 125 175 220 259 319 400
#     4  10  21  37  60  86 132 171 198 263 316 372
#     4   8  16  32  52  75 113 162 203 245 300 354
#     4  12  27  45  68  99 129 163 222 281 324 388
#     4  10  21  37  57  94 125 163 218 255 302 383
#     4  12  23  45  69  91 127 172 215 267 334 376
#
# _framework density 20.754415000000002
#
# number of rings (size 3 to 8) (size 9 to 14) (size 15 to 20)
#    0.000    1.143    2.857    3.429    0.000    3.429 
#    0.000    2.857    0.000    0.000    0.000    0.000 
#    0.000    0.000    0.000    0.000    0.000    0.000 
#
# Total GULP energy -78191.966767 kJ/mol
# GULP energy per Si atom -5585.140483 kJ/mol
# Density = 2.070718 g / cm^3
# Si number density = 20.754415 Si / 1000 Ang^3
#
#
#
# Elastic Constant Matrix: (Units=GPa)
#
#
# Indices 1 2 3 4 5 6 
#
# 1 102.3533 54.6377 31.7073 -10.2342 -7.2880 19.0177
# 2 54.6377 143.9408 31.8616 -26.9443 1.8158 11.3853
# 3 31.7073 31.8616 100.2770 -18.2429 -23.5430 16.7836
# 4 -10.2342 -26.9443 -18.2429 76.2823 1.5694 5.3670
# 5 -7.2880 1.8158 -23.5430 1.5694 34.0387 4.6764
# 6 19.0177 11.3853 16.7836 5.3670 4.6764 33.4691
#
#
#
# Elastic Compliance Matrix: (Units=1/GPa)
#
#
# Indices 1 2 3 4 5 6 
#
# 1 0.013989 -0.004539 -0.001038 0.000408 0.003383 -0.006423
# 2 -0.004539 0.009545 -0.001925 0.002340 -0.002966 0.000337
# 3 -0.001038 -0.001925 0.015789 0.003336 0.011865 -0.008866
# 4 0.000408 0.002340 0.003336 0.015124 0.002322 -0.005450
# 5 0.003383 -0.002966 0.011865 0.002322 0.040125 -0.012842
# 6 -0.006423 0.000337 -0.008866 -0.005450 -0.012842 0.040528
#
#
# Mechanical properties :
#
#
# Convention : Reuss Voigt Hill
#
# Bulk Modulus (GPa) = 41.11798 64.77602 52.94700
# Shear Modulus (GPa) = 31.60386 43.98233 37.79310
#
# Velocity S-wave (km/s) = 3.90648 4.60845 4.27191
# Velocity P-wave (km/s) = 6.34052 7.71981 7.06391
#
# Compressibility (1/GPa) = 0.02432026
#
# Stress axis : x y z
#
# Youngs Moduli (GPa) = 71.48221 104.76750 63.33682
#
# Poissons Ratio (x) = 0.47552 0.06573
# Poissons Ratio (y) = 0.32444 0.12191
# Poissons Ratio (z) = 0.07419 0.20165
#
# Static dielectric constant tensor:
#      x y z
#    x 1.731620 0.049020 0.006440 
#    y 0.049020 1.769350 0.034920 
#    z 0.006440 0.034920 1.706850 
# 
# From -- ./inp_files/118599.got.cif
#   From: 2010.05.17/outbox.cif.g08.bks.cpg/sg2_60_cif.got.tgz:118599.got - 2010.06.03 11:33:40.
