data_PCOD9003665
_publ_section_title
;
Structure prediction by ZEFSAII (Michael W. Deem and Ramdas Pophale) SiO2 
 PCOD9003665
Probable space group: P -1
;
_chemical_formula_sum "Si O2"
_cell_formula_units_Z 14
_cell_length_a 11.996079
_cell_length_b 13.589684
_cell_length_c 10.518506
_cell_angle_alpha 42.498003
_cell_angle_beta 111.424719
_cell_angle_gamma 141.831664
_cell_volume 614.278480
_symmetry_space_group_name_H-M "P -1"
_symmetry_group_IT_number 2
_symmetry_cell_setting 'triclinic'
loop_
_space_group_symop_operation_xyz
x,y,z
-x,-y,-z
loop_
_atom_site_type_symbol
_atom_site_label
_atom_site_fract_x
_atom_site_fract_y
_atom_site_fract_z
Si Si1 0.882574 0.483098 0.571471
Si Si2 0.326372 0.965043 0.926540
Si Si3 0.360605 0.839574 0.791420
Si Si4 0.309300 0.985950 0.387980
Si Si5 0.118413 0.042663 0.363188
Si Si6 0.977094 0.744839 0.836815
Si Si7 0.665539 0.529036 0.538390
O O1 0.768468 0.529176 0.464032
O O2 0.000000 0.500000 0.500000
O O3 0.068501 0.699620 0.541443
O O4 0.727534 0.217596 0.828135
O O5 0.359946 0.928623 0.835421
O O6 0.119810 0.855130 0.913826
O O7 0.508813 0.247235 0.791997
O O8 0.379734 0.974073 0.555775
O O9 0.555295 0.928636 0.756410
O O10 0.155882 0.531164 0.989987
O O11 0.287597 0.135319 0.256254
O O12 0.113151 0.944392 0.585585
O O13 0.876092 0.787029 0.454676
O O14 0.168410 0.261350 0.192155
O O15 0.500000 0.500000 0.500000
#
# Coordination Sequence:
#
# PCOD9003665 Si02
#       7
#     2   2   2   2   2   2   2
#     4  11  24  42  64  93 128 169 215 264 315 374
#     4  12  22  41  68  93 124 169 214 258 316 381
#     4  11  21  37  64  98 119 164 208 261 315 371
#     4  10  21  37  61  91 130 156 209 262 309 373
#     4  10  22  40  62  93 127 168 206 261 313 377
#     4  11  21  38  65  92 125 162 216 257 313 373
#     4  11  23  41  65  95 129 169 211 256 318 384
#
# _framework density 22.790966999999998
#
# number of rings (size 3 to 8) (size 9 to 14) (size 15 to 20)
#    0.000    1.143    4.286    3.429    0.000    1.714 
#    0.000    0.714    6.286    0.000    0.000    0.000 
#    0.000    0.000    0.000    0.000    0.000    0.000 
#
# Total GULP energy -77960.713136 kJ/mol
# GULP energy per Si atom -5568.622367 kJ/mol
# Density = 2.273909 g / cm^3
# Si number density = 22.790967 Si / 1000 Ang^3
#
#
#
# Elastic Constant Matrix: (Units=GPa)
#
#
# Indices 1 2 3 4 5 6 
#
# 1 200.4101 1.1613 26.0430 15.3594 2.0782 1.5603
# 2 1.1613 43.0412 5.0529 -2.8392 4.4757 5.2413
# 3 26.0430 5.0529 46.3679 -4.3666 6.2938 -7.2222
# 4 15.3594 -2.8392 -4.3666 29.2838 -3.6585 0.3193
# 5 2.0782 4.4757 6.2938 -3.6585 28.5256 -0.0747
# 6 1.5603 5.2413 -7.2222 0.3193 -0.0747 36.5021
#
#
#
# Elastic Compliance Matrix: (Units=1/GPa)
#
#
# Indices 1 2 3 4 5 6 
#
# 1 0.005754 0.000175 -0.003727 -0.003556 -0.000083 -0.000978
# 2 0.000175 0.024480 -0.002850 0.001521 -0.003041 -0.004106
# 3 -0.003727 -0.002850 0.025904 0.004936 -0.004349 0.005642
# 4 -0.003556 0.001521 0.004936 0.037356 0.003724 0.000591
# 5 -0.000083 -0.003041 -0.004349 0.003724 0.036975 -0.000377
# 6 -0.000978 -0.004106 0.005642 0.000591 -0.000377 0.029137
#
#
# Mechanical properties :
#
#
# Convention : Reuss Voigt Hill
#
# Bulk Modulus (GPa) = 23.07553 39.37039 31.22296
# Shear Modulus (GPa) = 26.75869 36.03311 31.39590
#
# Velocity S-wave (km/s) = 3.43022 3.98053 3.71557
# Velocity P-wave (km/s) = 5.08285 6.19985 5.66893
#
# Compressibility (1/GPa) = 0.04333594
#
# Stress axis : x y z
#
# Youngs Moduli (GPa) = 173.78934 40.84987 38.60356
#
# Poissons Ratio (x) = -0.00716 0.14387
# Poissons Ratio (y) = -0.03048 0.11001
# Poissons Ratio (z) = 0.64769 0.11641
#
# Static dielectric constant tensor:
#      x y z
#    x 2.048860 0.027070 -0.009310 
#    y 0.027070 1.910670 -0.012720 
#    z -0.009310 -0.012720 1.810970 
# 
# From -- ./inp_files/154939.got.cif
#   From: 2010.05.17/outbox.cif.g08.bks.cpg/sg2_78_cif.got.tgz:154939.got - 2010.06.03 11:33:40.
