data_PCOD9003369
_publ_section_title
;
Structure prediction by ZEFSAII (Michael W. Deem and Ramdas Pophale) SiO2 
 PCOD9003369
Probable space group: P -1
;
_chemical_formula_sum "Si O2"
_cell_formula_units_Z 14
_cell_length_a 4.855525
_cell_length_b 21.576803
_cell_length_c 5.678774
_cell_angle_alpha 103.346658
_cell_angle_beta 80.462058
_cell_angle_gamma 106.031495
_cell_volume 553.048965
_symmetry_space_group_name_H-M "P -1"
_symmetry_group_IT_number 2
_symmetry_cell_setting 'triclinic'
loop_
_space_group_symop_operation_xyz
x,y,z
-x,-y,-z
loop_
_atom_site_type_symbol
_atom_site_label
_atom_site_fract_x
_atom_site_fract_y
_atom_site_fract_z
Si Si1 0.874498 0.854437 0.101600
Si Si2 0.905922 0.357775 0.453207
Si Si3 0.369821 0.816088 0.510712
Si Si4 0.864318 0.387849 0.969981
Si Si5 0.752229 0.519045 0.293691
Si Si6 0.465678 0.923689 0.974226
Si Si7 0.778009 0.747371 0.637648
O O1 0.756838 0.905335 0.997264
O O2 0.197337 0.892413 0.158478
O O3 0.870926 0.788593 0.899027
O O4 0.621762 0.834936 0.306220
O O5 0.819825 0.347730 0.183007
O O6 0.180841 0.325516 0.407225
O O7 0.993070 0.437210 0.538850
O O8 0.740553 0.344840 0.719432
O O9 0.372996 0.881581 0.714010
O O10 0.043990 0.781609 0.456058
O O11 0.483061 0.764493 0.618291
O O12 0.758097 0.452897 0.098812
O O13 0.195434 0.423747 0.869780
O O14 0.500000 0.500000 0.500000
O O15 0.500000 0.000000 0.000000
#
# Coordination Sequence:
#
# PCOD9003369 Si02
#       7
#     2   2   2   2   2   2   2
#     4  10  21  38  60  85 124 162 201 256 311 365
#     4  10  21  40  58  85 123 161 209 264 317 388
#     4  10  22  41  61  87 123 162 204 258 312 369
#     4   9  21  39  55  85 121 154 203 268 315 378
#     4   9  20  37  60  84 119 159 206 258 330 376
#     4  10  21  37  59  92 123 158 206 253 305 376
#     4  10  23  40  59  88 120 159 210 256 311 378
#
# _framework density 25.314215999999998
#
# number of rings (size 3 to 8) (size 9 to 14) (size 15 to 20)
#    0.857    1.429    0.000    1.714    2.000    2.857 
#    2.571    0.000    0.000    0.000    0.000    0.000 
#    0.000    0.000    0.000    0.000    0.000    0.000 
#
# Total GULP energy -77985.093176 kJ/mol
# GULP energy per Si atom -5570.363798 kJ/mol
# Density = 2.525660 g / cm^3
# Si number density = 25.314216 Si / 1000 Ang^3
#
#
#
# Elastic Constant Matrix: (Units=GPa)
#
#
# Indices 1 2 3 4 5 6 
#
# 1 102.0432 15.0991 17.9434 3.5319 -10.9325 -6.6997
# 2 15.0991 133.7415 56.4382 23.6017 -4.2714 -18.3068
# 3 17.9434 56.4382 158.1140 -9.2653 -20.3370 10.3463
# 4 3.5319 23.6017 -9.2653 39.1279 1.8820 -13.2846
# 5 -10.9325 -4.2714 -20.3370 1.8820 39.5524 -2.5346
# 6 -6.6997 -18.3068 10.3463 -13.2846 -2.5346 33.5876
#
#
#
# Elastic Compliance Matrix: (Units=1/GPa)
#
#
# Indices 1 2 3 4 5 6 
#
# 1 0.010440 -0.000363 -0.000892 -0.000299 0.002545 0.002233
# 2 -0.000363 0.011288 -0.004772 -0.006153 -0.000718 0.005062
# 3 -0.000892 -0.004772 0.009040 0.003619 0.003466 -0.003871
# 4 -0.000299 -0.006153 0.003619 0.033051 0.000089 0.008551
# 5 0.002545 -0.000718 0.003466 0.000089 0.027763 0.001179
# 6 0.002233 0.005062 -0.003871 0.008551 0.001179 0.037641
#
#
# Mechanical properties :
#
#
# Convention : Reuss Voigt Hill
#
# Bulk Modulus (GPa) = 53.43240 63.65112 58.54176
# Shear Modulus (GPa) = 33.89516 42.74812 38.32164
#
# Velocity S-wave (km/s) = 3.66317 4.11384 3.89503
# Velocity P-wave (km/s) = 6.24862 6.91114 6.58822
#
# Compressibility (1/GPa) = 0.01871524
#
# Stress axis : x y z
#
# Youngs Moduli (GPa) = 95.78657 88.59295 110.61643
#
# Poissons Ratio (x) = 0.03213 0.09862
# Poissons Ratio (y) = 0.03474 0.52786
# Poissons Ratio (z) = 0.08540 0.42277
#
# Static dielectric constant tensor:
#      x y z
#    x 2.120850 0.005360 0.054810 
#    y 0.005360 2.020080 -0.107650 
#    z 0.054810 -0.107650 2.109430 
# 
# From -- ./inp_files/9841.got.cif
#   From: 2010.05.17/outbox.cif.g08.bks.cpg/sg2_5_cif.got.tgz:9841.got - 2010.06.03 11:33:40.
