data_PCOD9003514
_publ_section_title
;
Structure prediction by ZEFSAII (Michael W. Deem and Ramdas Pophale) SiO2 
 PCOD9003514
Probable space group: P -1
;
_chemical_formula_sum "Si O2"
_cell_formula_units_Z 13
_cell_length_a 7.045430
_cell_length_b 7.159636
_cell_length_c 12.917716
_cell_angle_alpha 56.119690
_cell_angle_beta 70.439786
_cell_angle_gamma 82.287821
_cell_volume 508.599214
_symmetry_space_group_name_H-M "P -1"
_symmetry_group_IT_number 2
_symmetry_cell_setting 'triclinic'
loop_
_space_group_symop_operation_xyz
x,y,z
-x,-y,-z
loop_
_atom_site_type_symbol
_atom_site_label
_atom_site_fract_x
_atom_site_fract_y
_atom_site_fract_z
Si Si1 0.119258 0.550027 0.294011
Si Si2 0.025223 0.260741 0.947976
Si Si3 0.388700 0.789050 0.867376
Si Si4 0.456468 0.873801 0.437316
Si Si5 0.000000 0.000000 0.500000
Si Si6 0.514552 0.672837 0.094242
Si Si7 0.847341 0.767911 0.445987
O O1 0.342031 0.671519 0.212039
O O2 0.134495 0.292348 0.412056
O O3 0.025047 0.586826 0.188539
O O4 0.987087 0.658605 0.371991
O O5 0.256186 0.296820 0.925103
O O6 0.849579 0.283780 0.057433
O O7 0.000000 0.000000 0.000000
O O8 0.509409 0.583352 0.866216
O O9 0.435423 0.992499 0.719194
O O10 0.459561 0.830055 0.960021
O O11 0.619339 0.686082 0.483538
O O12 0.500000 0.000000 0.500000
O O13 0.220368 0.870628 0.465162
O O14 0.067832 0.980998 0.621992
#
# Coordination Sequence:
#
# PCOD9003514 Si02
#       7
#     2   2   2   2   1   2   2
#     4  10  23  41  60  89 127 165 207 255 313 375
#     4  11  24  40  62  91 123 165 213 263 318 369
#     4  10  22  40  63  90 121 163 211 260 314 371
#     4  10  21  37  60  92 124 153 199 255 309 369
#     4  10  22  38  64  92 118 160 204 250 308 370
#     4  10  22  41  63  88 122 164 212 263 311 369
#     4  10  22  40  61  90 127 162 204 255 309 374
#
# _framework density 25.560403000000001
#
# number of rings (size 3 to 8) (size 9 to 14) (size 15 to 20)
#    0.000    1.846    0.000    3.231    0.000   12.308 
#    0.000    3.077    0.000    0.000    0.000    0.000 
#    0.000    0.000    0.000    0.000    0.000    0.000 
#
# Total GULP energy -72432.289663 kJ/mol
# GULP energy per Si atom -5571.714589 kJ/mol
# Density = 2.550223 g / cm^3
# Si number density = 25.560403 Si / 1000 Ang^3
#
#
#
# Elastic Constant Matrix: (Units=GPa)
#
#
# Indices 1 2 3 4 5 6 
#
# 1 244.7011 8.9832 79.4990 4.1676 -25.5296 -13.6580
# 2 8.9832 65.9916 3.9958 12.4726 -12.8975 -12.0748
# 3 79.4990 3.9958 145.5216 -0.7033 -6.0964 -6.9461
# 4 4.1676 12.4726 -0.7033 34.7454 -19.1405 -11.6818
# 5 -25.5296 -12.8975 -6.0964 -19.1405 37.0068 9.4560
# 6 -13.6580 -12.0748 -6.9461 -11.6818 9.4560 39.0526
#
#
#
# Elastic Compliance Matrix: (Units=1/GPa)
#
#
# Indices 1 2 3 4 5 6 
#
# 1 0.005414 0.000048 -0.002736 0.001806 0.003980 0.000998
# 2 0.000048 0.017054 -0.000196 -0.003038 0.003478 0.003504
# 3 -0.002736 -0.000196 0.008391 0.000560 -0.000477 0.000758
# 4 0.001806 -0.003038 0.000560 0.043843 0.020954 0.007833
# 5 0.003980 0.003478 -0.000477 0.020954 0.042136 -0.001552
# 6 0.000998 0.003504 0.000758 0.007833 -0.001552 0.029893
#
#
# Mechanical properties :
#
#
# Convention : Reuss Voigt Hill
#
# Bulk Modulus (GPa) = 39.85639 71.24113 55.54876
# Shear Modulus (GPa) = 31.08274 46.41004 38.74639
#
# Velocity S-wave (km/s) = 3.49097 4.26573 3.89765
# Velocity P-wave (km/s) = 5.64589 7.22455 6.48345
#
# Compressibility (1/GPa) = 0.02509008
#
# Stress axis : x y z
#
# Youngs Moduli (GPa) = 184.71124 58.63807 119.17947
#
# Poissons Ratio (x) = -0.00280 0.32605
# Poissons Ratio (y) = -0.00883 0.02337
# Poissons Ratio (z) = 0.50534 0.01150
#
# Static dielectric constant tensor:
#      x y z
#    x 2.217450 -0.035350 0.012250 
#    y -0.035350 2.296420 -0.090130 
#    z 0.012250 -0.090130 2.032570 
# 
# From -- ./inp_files/86557.got.cif
#   From: 2010.05.17/outbox.cif.g08.bks.cpg/sg2_44_cif.got.tgz:86557.got - 2010.06.03 11:33:40.
