data_PCOD9003206
_publ_section_title
;
Structure prediction by ZEFSAII (Michael W. Deem and Ramdas Pophale) SiO2 
 PCOD9003206
Probable space group: P -1
;
_chemical_formula_sum "Si O2"
_cell_formula_units_Z 16
_cell_length_a 12.298825
_cell_length_b 11.183503
_cell_length_c 6.749757
_cell_angle_alpha 100.400120
_cell_angle_beta 58.787660
_cell_angle_gamma 109.816412
_cell_volume 746.974838
_symmetry_space_group_name_H-M "P -1"
_symmetry_group_IT_number 2
_symmetry_cell_setting 'triclinic'
loop_
_space_group_symop_operation_xyz
x,y,z
-x,-y,-z
loop_
_atom_site_type_symbol
_atom_site_label
_atom_site_fract_x
_atom_site_fract_y
_atom_site_fract_z
Si Si1 0.679489 0.025435 0.783439
Si Si2 0.308967 0.526469 0.336156
Si Si3 0.821807 0.861549 0.715088
Si Si4 0.623423 0.663104 0.084254
Si Si5 0.261005 0.770281 0.541232
Si Si6 0.214888 0.310975 0.679878
Si Si7 0.537409 0.098220 0.313090
Si Si8 0.006107 0.857808 0.890642
O O1 0.682684 0.143780 0.677436
O O2 0.817561 0.001866 0.706462
O O3 0.594600 0.907166 0.690185
O O4 0.615015 0.046405 0.055899
O O5 0.465239 0.607059 0.209427
O O6 0.225325 0.627453 0.449698
O O7 0.260465 0.441862 0.552767
O O8 0.306646 0.432407 0.123608
O O9 0.813129 0.790600 0.497759
O O10 0.938478 0.844804 0.735324
O O11 0.686834 0.794837 0.947907
O O12 0.668136 0.683578 0.274211
O O13 0.364782 0.782282 0.629880
O O14 0.148608 0.833149 0.740134
O O15 0.084840 0.256183 0.922978
O O16 0.500000 0.000000 0.500000
O O17 0.000000 0.000000 0.000000
#
# Coordination Sequence:
#
# PCOD9003206 Si02
#       8
#     2   2   2   2   2   2   2   2
#     4  10  21  37  58  90 129 160 199 256 316 366
#     4  10  22  40  62  93 125 159 213 255 315 373
#     4  10  22  38  66  91 121 167 208 252 312 373
#     4   9  21  40  64  91 126 158 206 262 311 375
#     4  11  24  38  61  93 125 167 207 256 305 372
#     4  10  22  42  64  88 121 169 209 259 310 360
#     4   9  21  36  54  88 127 159 198 248 316 366
#     4  11  24  43  64  90 127 164 215 258 302 372
#
# _framework density 21.419729
#
# number of rings (size 3 to 8) (size 9 to 14) (size 15 to 20)
#    0.000    2.000    0.000    1.875    7.000    6.500 
#    0.000    5.625    0.000    0.000    0.000    0.000 
#    0.000    0.000    0.000    0.000    0.000    0.000 
#
# Total GULP energy -89123.974861 kJ/mol
# GULP energy per Si atom -5570.248429 kJ/mol
# Density = 2.137098 g / cm^3
# Si number density = 21.419729 Si / 1000 Ang^3
#
#
#
# Elastic Constant Matrix: (Units=GPa)
#
#
# Indices 1 2 3 4 5 6 
#
# 1 46.2761 12.1254 40.5783 1.3158 18.4735 -5.9743
# 2 12.1254 54.8889 38.5208 2.9541 -1.1813 -5.3852
# 3 40.5783 38.5208 109.0035 -12.6019 17.3013 -7.8334
# 4 1.3158 2.9541 -12.6019 34.9794 3.5583 -4.7750
# 5 18.4735 -1.1813 17.3013 3.5583 39.5724 -2.1700
# 6 -5.9743 -5.3852 -7.8334 -4.7750 -2.1700 24.9139
#
#
#
# Elastic Compliance Matrix: (Units=1/GPa)
#
#
# Indices 1 2 3 4 5 6 
#
# 1 0.037745 0.001046 -0.012902 -0.004543 -0.011356 0.003361
# 2 0.001046 0.026670 -0.011436 -0.006799 0.006009 0.001640
# 3 -0.012902 -0.011436 0.019830 0.009262 -0.003704 0.002121
# 4 -0.004543 -0.006799 0.009262 0.034044 -0.004839 0.006456
# 5 -0.011356 0.006009 -0.003704 -0.004839 0.032769 -0.000662
# 6 0.003361 0.001640 0.002121 0.006456 -0.000662 0.043145
#
#
# Mechanical properties :
#
#
# Convention : Reuss Voigt Hill
#
# Bulk Modulus (GPa) = 26.55326 43.62418 35.08872
# Shear Modulus (GPa) = 19.73632 27.82275 23.77954
#
# Velocity S-wave (km/s) = 3.03876 3.60798 3.33554
# Velocity P-wave (km/s) = 4.97350 6.14551 5.59030
#
# Compressibility (1/GPa) = 0.03766016
#
# Stress axis : x y z
#
# Youngs Moduli (GPa) = 26.49345 37.49595 50.42941
#
# Poissons Ratio (x) = -0.03924 0.65065
# Poissons Ratio (y) = -0.02772 0.57672
# Poissons Ratio (z) = 0.34183 0.42881
#
# Static dielectric constant tensor:
#      x y z
#    x 1.824060 0.061890 -0.041480 
#    y 0.061890 1.865960 -0.001470 
#    z -0.041480 -0.001470 1.779810 
# 
# From -- ./inp_files/71014.got.cif
#   From: 2010.05.17/outbox.cif.g08.bks.cpg/sg2_36_cif.got.tgz:71014.got - 2010.06.03 11:33:40.
