data_PCOD9003052
_publ_section_title
;
Structure prediction by ZEFSAII (Michael W. Deem and Ramdas Pophale) SiO2 
 PCOD9003052
Probable space group: P -1
;
_chemical_formula_sum "Si O2"
_cell_formula_units_Z 16
_cell_length_a 9.519119
_cell_length_b 11.346843
_cell_length_c 20.795511
_cell_angle_alpha 20.366141
_cell_angle_beta 62.082782
_cell_angle_gamma 62.320389
_cell_volume 688.337099
_symmetry_space_group_name_H-M "P -1"
_symmetry_group_IT_number 2
_symmetry_cell_setting 'triclinic'
loop_
_space_group_symop_operation_xyz
x,y,z
-x,-y,-z
loop_
_atom_site_type_symbol
_atom_site_label
_atom_site_fract_x
_atom_site_fract_y
_atom_site_fract_z
Si Si1 0.040025 0.508864 0.780065
Si Si2 0.783908 0.290921 0.192537
Si Si3 0.482731 0.776022 0.808842
Si Si4 0.259959 0.139823 0.769363
Si Si5 0.386374 0.284182 0.415205
Si Si6 0.004689 0.769062 0.948725
Si Si7 0.224157 0.773579 0.094862
Si Si8 0.327214 0.733093 0.543887
O O1 0.173640 0.760901 0.608638
O O2 0.918533 0.455339 0.776578
O O3 0.949364 0.536468 0.853378
O O4 0.146311 0.140768 0.948329
O O5 0.616379 0.361948 0.157213
O O6 0.910697 0.226644 0.140500
O O7 0.757244 0.935062 0.416469
O O8 0.830425 0.638268 0.038555
O O9 0.377684 0.075719 0.716488
O O10 0.635878 0.914986 0.674579
O O11 0.500000 0.500000 0.000000
O O12 0.281585 0.491295 0.619586
O O13 0.084604 0.077132 0.810496
O O14 0.293177 0.876949 0.957145
O O15 0.328770 0.581379 0.225999
O O16 0.507548 0.394601 0.388995
O O17 0.500000 0.000000 0.500000
#
# Coordination Sequence:
#
# PCOD9003052 Si02
#       8
#     2   2   2   2   2   2   2   2
#     4   9  18  38  61  86 116 158 202 250 292 354
#     4   9  20  37  57  82 118 159 196 241 305 360
#     4  10  21  37  57  84 121 156 200 245 301 365
#     4   9  19  36  62  82 114 159 199 249 296 353
#     4  11  23  38  58  90 129 157 199 255 305 364
#     4   9  17  38  62  79 116 155 196 249 295 352
#     4   9  20  37  60  87 120 157 202 243 302 358
#     4  10  21  38  61  89 118 157 202 251 304 360
#
# _framework density 23.244423999999999
#
# number of rings (size 3 to 8) (size 9 to 14) (size 15 to 20)
#    0.000    2.500    0.000    1.875    3.500    2.000 
#    9.000    2.500    0.000    0.000    0.000    0.000 
#    0.000    0.000    0.000    0.000    0.000    0.000 
#
# Total GULP energy -89069.379844 kJ/mol
# GULP energy per Si atom -5566.836240 kJ/mol
# Density = 2.319152 g / cm^3
# Si number density = 23.244424 Si / 1000 Ang^3
#
#
#
# Elastic Constant Matrix: (Units=GPa)
#
#
# Indices 1 2 3 4 5 6 
#
# 1 86.5765 26.6385 51.2463 -8.7554 -22.5805 33.1940
# 2 26.6385 78.3009 9.1799 9.3156 -7.4116 20.9381
# 3 51.2463 9.1799 97.4925 13.3047 -12.6665 10.4987
# 4 -8.7554 9.3156 13.3047 40.3303 -5.1635 -10.8876
# 5 -22.5805 -7.4116 -12.6665 -5.1635 51.6344 -0.0314
# 6 33.1940 20.9381 10.4987 -10.8876 -0.0314 40.1905
#
#
#
# Elastic Compliance Matrix: (Units=1/GPa)
#
#
# Indices 1 2 3 4 5 6 
#
# 1 0.032011 -0.004539 -0.014357 0.009306 0.010745 -0.017794
# 2 -0.004539 0.017131 0.002778 -0.007991 0.000351 -0.008066
# 3 -0.014357 0.002778 0.018149 -0.009188 -0.002344 0.003179
# 4 0.009306 -0.007991 -0.009188 0.034436 0.004117 0.008209
# 5 0.010745 0.000351 -0.002344 0.004117 0.023949 -0.007311
# 6 -0.017794 -0.008066 0.003179 0.008209 -0.007311 0.045168
#
#
# Mechanical properties :
#
#
# Convention : Reuss Voigt Hill
#
# Bulk Modulus (GPa) = 28.52698 48.49992 38.51345
# Shear Modulus (GPa) = 23.28134 38.11806 30.69970
#
# Velocity S-wave (km/s) = 3.16822 4.05394 3.63813
# Velocity P-wave (km/s) = 5.06782 6.54393 5.85260
#
# Compressibility (1/GPa) = 0.03505453
#
# Stress axis : x y z
#
# Youngs Moduli (GPa) = 31.23897 58.37509 55.09890
#
# Poissons Ratio (x) = 0.26497 0.79105
# Poissons Ratio (y) = 0.14180 -0.15305
# Poissons Ratio (z) = 0.44849 -0.16215
#
# Static dielectric constant tensor:
#      x y z
#    x 1.848540 -0.076560 0.295750 
#    y -0.076560 1.996710 0.252530 
#    z 0.295750 0.252530 0.861660 
# 
# From -- ./inp_files/215863.got.cif
#   From: 2010.05.17/outbox.cif.g08.bks.cpg/sg2_108_cif.got.tgz:215863.got - 2010.06.03 11:33:40.
