data_PCOD9003278
_publ_section_title
;
Structure prediction by ZEFSAII (Michael W. Deem and Ramdas Pophale) SiO2 
 PCOD9003278
Probable space group: P -1
;
_chemical_formula_sum "Si O2"
_cell_formula_units_Z 14
_cell_length_a 8.750670
_cell_length_b 18.712773
_cell_length_c 5.980977
_cell_angle_alpha 104.362831
_cell_angle_beta 135.882226
_cell_angle_gamma 63.637324
_cell_volume 606.937257
_symmetry_space_group_name_H-M "P -1"
_symmetry_group_IT_number 2
_symmetry_cell_setting 'triclinic'
loop_
_space_group_symop_operation_xyz
x,y,z
-x,-y,-z
loop_
_atom_site_type_symbol
_atom_site_label
_atom_site_fract_x
_atom_site_fract_y
_atom_site_fract_z
Si Si1 0.330301 0.664655 0.118382
Si Si2 0.983115 0.380339 0.886130
Si Si3 0.198350 0.477865 0.499517
Si Si4 0.320100 0.051655 0.662321
Si Si5 0.623856 0.096653 0.643245
Si Si6 0.156374 0.811020 0.749648
Si Si7 0.448596 0.238220 0.256496
O O1 0.542316 0.583045 0.194282
O O2 0.455721 0.712804 0.431581
O O3 0.167351 0.641324 0.100471
O O4 0.181295 0.726983 0.820465
O O5 0.819526 0.440100 0.573157
O O6 0.119924 0.428971 0.191774
O O7 0.189116 0.298814 0.951082
O O8 0.000000 0.500000 0.500000
O O9 0.466121 0.080015 0.657161
O O10 0.097709 0.130250 0.567670
O O11 0.240143 0.986315 0.407260
O O12 0.500000 0.000000 0.000000
O O13 0.453882 0.161760 0.340102
O O14 0.789392 0.136538 0.958426
O O15 0.363954 0.790672 0.769506
#
# Coordination Sequence:
#
# PCOD9003278 Si02
#       7
#     2   2   2   2   2   2   2
#     4  10  22  38  59  87 118 156 197 239 292 351
#     4  10  21  38  58  85 121 153 192 242 289 345
#     4  10  21  37  59  87 118 153 195 241 288 343
#     4  11  24  40  62  89 117 156 201 246 300 356
#     4  10  23  41  60  86 121 154 197 247 297 352
#     4  11  23  40  62  87 119 158 199 245 298 354
#     4  10  22  38  59  87 118 155 196 241 293 349
#
# _framework density 23.066637
#
# number of rings (size 3 to 8) (size 9 to 14) (size 15 to 20)
#    0.000    1.714    0.000    3.429    0.000   10.857 
#    0.000    0.000    0.000    0.000    0.000    0.000 
#    0.000    0.000    0.000    0.000    0.000    0.000 
#
# Total GULP energy -78336.854996 kJ/mol
# GULP energy per Si atom -5595.489643 kJ/mol
# Density = 2.301414 g / cm^3
# Si number density = 23.066637 Si / 1000 Ang^3
#
#
#
# Elastic Constant Matrix: (Units=GPa)
#
#
# Indices 1 2 3 4 5 6 
#
# 1 129.9267 73.5938 38.5818 -58.1968 -14.5720 -4.7358
# 2 73.5938 164.6585 74.5002 -63.6390 -2.1265 -3.1323
# 3 38.5818 74.5002 108.7186 -40.7472 -1.4056 -3.5310
# 4 -58.1968 -63.6390 -40.7472 52.0962 1.1501 2.7219
# 5 -14.5720 -2.1265 -1.4056 1.1501 28.5312 -12.1731
# 6 -4.7358 -3.1323 -3.5310 2.7219 -12.1731 53.1262
#
#
#
# Elastic Compliance Matrix: (Units=1/GPa)
#
#
# Indices 1 2 3 4 5 6 
#
# 1 0.017669 -0.001015 0.002035 0.019734 0.009450 0.002805
# 2 -0.001015 0.012725 -0.004193 0.011152 -0.000341 -0.000268
# 3 0.002035 -0.004193 0.014569 0.008474 0.001444 0.000799
# 4 0.019734 0.011152 0.008474 0.061167 0.009750 0.002080
# 5 0.009450 -0.000341 0.001444 0.009750 0.044010 0.010503
# 6 0.002805 -0.000268 0.000799 0.002080 0.010503 0.021410
#
#
# Mechanical properties :
#
#
# Convention : Reuss Voigt Hill
#
# Bulk Modulus (GPa) = 25.89548 86.29503 56.09526
# Shear Modulus (GPa) = 26.20982 41.19259 33.70120
#
# Velocity S-wave (km/s) = 3.37451 4.23047 3.82650
# Velocity P-wave (km/s) = 5.14139 7.83294 6.62528
#
# Compressibility (1/GPa) = 0.03861678
#
# Stress axis : x y z
#
# Youngs Moduli (GPa) = 56.59662 78.58811 68.63677
#
# Poissons Ratio (x) = 0.07980 -0.13968
# Poissons Ratio (y) = 0.05747 0.28778
# Poissons Ratio (z) = -0.11518 0.32950
#
# Static dielectric constant tensor:
#      x y z
#    x 1.777990 -0.000230 0.011470 
#    y -0.000230 1.886880 0.021200 
#    z 0.011470 0.021200 1.900590 
# 
# From -- ./inp_files/7374.got.cif
#   From: 2010.05.17/outbox.cif.g08.bks.cpg/sg2_4_cif.got.tgz:7374.got - 2010.06.03 11:33:40.
