data_PCOD9003815
_publ_section_title
;
Structure prediction by ZEFSAII (Michael W. Deem and Ramdas Pophale) SiO2 
 PCOD9003815
Probable space group: P -1
;
_chemical_formula_sum "Si O2"
_cell_formula_units_Z 14
_cell_length_a 14.425782
_cell_length_b 28.860124
_cell_length_c 12.756699
_cell_angle_alpha 162.470741
_cell_angle_beta 20.386442
_cell_angle_gamma 157.413695
_cell_volume 534.806846
_symmetry_space_group_name_H-M "P -1"
_symmetry_group_IT_number 2
_symmetry_cell_setting 'triclinic'
loop_
_space_group_symop_operation_xyz
x,y,z
-x,-y,-z
loop_
_atom_site_type_symbol
_atom_site_label
_atom_site_fract_x
_atom_site_fract_y
_atom_site_fract_z
Si Si1 0.385056 0.242387 0.173961
Si Si2 0.530452 0.326554 0.621051
Si Si3 0.912599 0.462982 0.678622
Si Si4 0.190367 0.187893 0.484421
Si Si5 0.358537 0.414013 0.252773
Si Si6 0.238976 0.042429 0.421757
Si Si7 0.053432 0.694507 0.375505
O O1 0.313557 0.152115 0.166176
O O2 0.523606 0.426299 0.457744
O O3 0.103863 0.239776 0.407823
O O4 0.622060 0.215082 0.787127
O O5 0.830966 0.364733 0.443070
O O6 0.422351 0.223714 0.409161
O O7 0.332448 0.233632 0.724619
O O8 0.500000 0.500000 0.000000
O O9 0.195657 0.476194 0.466062
O O10 0.885666 0.642916 0.081423
O O11 0.651700 0.376321 0.841759
O O12 0.911853 0.053269 0.524863
O O13 0.117619 0.290400 0.306059
O O14 0.000000 0.000000 0.500000
O O15 0.500000 0.000000 0.000000
O O16 0.000000 0.500000 0.000000
#
# Coordination Sequence:
#
# PCOD9003815 Si02
#       7
#     2   2   2   2   2   2   2
#     4  10  18  28  47  74 103 139 173 218 275 318
#     4   9  20  38  57  82 113 147 184 224 272 329
#     4  10  20  32  52  78 108 145 179 218 271 321
#     4   9  19  35  53  78 110 140 179 225 267 323
#     4  10  18  31  48  75 108 140 177 224 269 320
#     4  10  22  38  57  79 108 148 187 228 273 319
#     4  10  17  28  46  72 105 137 172 221 274 318
#
# _framework density 26.177674
#
# number of rings (size 3 to 8) (size 9 to 14) (size 15 to 20)
#    0.000    2.286    0.000    6.000    0.000   10.286 
#    0.000   10.714    0.000    0.000    0.000    6.000 
#    0.000    0.000    0.000    0.286    0.000    0.000 
#
# Total GULP energy -78085.811975 kJ/mol
# GULP energy per Si atom -5577.557998 kJ/mol
# Density = 2.611809 g / cm^3
# Si number density = 26.177674 Si / 1000 Ang^3
#
#
#
# Elastic Constant Matrix: (Units=GPa)
#
#
# Indices 1 2 3 4 5 6 
#
# 1 64.8082 17.3068 13.2094 -7.0016 -14.5171 -24.6024
# 2 17.3068 138.6619 11.8622 -18.0960 15.6111 -51.9175
# 3 13.2094 11.8622 63.8861 -18.4688 -3.6958 -2.9877
# 4 -7.0016 -18.0960 -18.4688 42.8131 -5.4365 6.5616
# 5 -14.5171 15.6111 -3.6958 -5.4365 31.4019 -20.1444
# 6 -24.6024 -51.9175 -2.9877 6.5616 -20.1444 63.9017
#
#
#
# Elastic Compliance Matrix: (Units=1/GPa)
#
#
# Indices 1 2 3 4 5 6 
#
# 1 0.029915 0.001930 -0.002636 0.004768 0.026808 0.020924
# 2 0.001930 0.010963 -0.000866 0.003339 0.002335 0.010003
# 3 -0.002636 -0.000866 0.018652 0.007665 0.002114 -0.000968
# 4 0.004768 0.003339 0.007665 0.029328 0.009702 0.004954
# 5 0.026808 0.002335 0.002114 0.009702 0.065519 0.031975
# 6 0.020924 0.010003 -0.000968 0.004954 0.031975 0.041358
#
#
# Mechanical properties :
#
#
# Convention : Reuss Voigt Hill
#
# Bulk Modulus (GPa) = 17.73508 39.12367 28.42937
# Shear Modulus (GPa) = 22.97008 42.62187 32.79597
#
# Velocity S-wave (km/s) = 2.96542 4.03944 3.54336
# Velocity P-wave (km/s) = 4.30286 6.06086 5.25588
#
# Compressibility (1/GPa) = 0.05638544
#
# Stress axis : x y z
#
# Youngs Moduli (GPa) = 33.42764 91.21450 53.61415
#
# Poissons Ratio (x) = -0.17604 0.14132
# Poissons Ratio (y) = -0.06452 0.04646
# Poissons Ratio (z) = 0.08811 0.07904
#
# Static dielectric constant tensor:
#      x y z
#    x 2.122640 -0.035170 0.142110 
#    y -0.035170 2.155110 0.057300 
#    z 0.142110 0.057300 2.191650 
# 
# From -- ./inp_files/535829.got.cif
#   From: 2010.05.17/outbox.cif.g08.bks.cpg/sg2_268_cif.got.tgz:535829.got - 2010.06.03 11:33:40.
