data_PCOD9003200
_publ_section_title
;
Structure prediction by ZEFSAII (Michael W. Deem and Ramdas Pophale) SiO2 
 PCOD9003200
Probable space group: P -1
;
_chemical_formula_sum "Si O2"
_cell_formula_units_Z 16
_cell_length_a 12.820705
_cell_length_b 9.708081
_cell_length_c 9.780980
_cell_angle_alpha 89.817015
_cell_angle_beta 74.361713
_cell_angle_gamma 33.207963
_cell_volume 582.208636
_symmetry_space_group_name_H-M "P -1"
_symmetry_group_IT_number 2
_symmetry_cell_setting 'triclinic'
loop_
_space_group_symop_operation_xyz
x,y,z
-x,-y,-z
loop_
_atom_site_type_symbol
_atom_site_label
_atom_site_fract_x
_atom_site_fract_y
_atom_site_fract_z
Si Si1 0.913384 0.521034 0.190639
Si Si2 0.670089 0.143876 0.967300
Si Si3 0.172044 0.356072 0.323665
Si Si4 0.681197 0.177819 0.437171
Si Si5 0.907034 0.980950 0.625663
Si Si6 0.335916 0.344025 0.493515
Si Si7 0.779430 0.222123 0.156411
Si Si8 0.398241 0.294213 0.868773
O O1 0.714698 0.710676 0.369765
O O2 0.775377 0.636316 0.101636
O O3 0.035823 0.509657 0.230391
O O4 0.122557 0.188544 0.093757
O O5 0.354186 0.739693 0.888426
O O6 0.328960 0.505841 0.803046
O O7 0.749670 0.153754 0.812022
O O8 0.292043 0.350071 0.353080
O O9 0.000000 0.500000 0.500000
O O10 0.365830 0.031994 0.242512
O O11 0.500000 0.500000 0.500000
O O12 0.557658 0.180330 0.429560
O O13 0.840161 0.072620 0.272503
O O14 0.783235 0.037855 0.547692
O O15 0.127189 0.668909 0.599294
O O16 0.000000 0.000000 0.500000
O O17 0.547763 0.696870 0.002882
O O18 0.000000 0.000000 0.000000
#
# Coordination Sequence:
#
# PCOD9003200 Si02
#       8
#     2   2   2   2   2   2   2   2
#     4   9  18  36  60  90 127 160 212 268 308 371
#     4  10  21  38  59  95 127 164 213 258 310 385
#     4   9  21  37  59  91 124 165 218 268 311 370
#     4  12  24  39  62  97 133 164 205 263 325 382
#     4  11  21  36  61  90 130 165 199 259 325 372
#     4  10  21  37  58  89 127 165 209 260 321 377
#     4  12  24  41  64  98 135 167 212 260 319 392
#     4  11  21  36  62  89 124 167 211 264 315 366
#
# _framework density 27.481556000000001
#
# number of rings (size 3 to 8) (size 9 to 14) (size 15 to 20)
#    0.000    1.500    2.500    4.125    0.000    3.000 
#    2.250    0.000    0.000    3.750    0.000    0.000 
#    0.000    0.000    0.000    0.000    0.000    0.000 
#
# Total GULP energy -89338.216668 kJ/mol
# GULP energy per Si atom -5583.638542 kJ/mol
# Density = 2.741901 g / cm^3
# Si number density = 27.481556 Si / 1000 Ang^3
#
#
#
# Elastic Constant Matrix: (Units=GPa)
#
#
# Indices 1 2 3 4 5 6 
#
# 1 138.3923 25.6909 -11.0149 -6.7000 6.3703 -49.9729
# 2 25.6909 84.4741 31.4609 10.1081 -4.3001 -28.2184
# 3 -11.0149 31.4609 53.8165 -17.4645 0.1921 -1.2337
# 4 -6.7000 10.1081 -17.4645 54.4254 -2.4314 8.0933
# 5 6.3703 -4.3001 0.1921 -2.4314 29.7009 5.7048
# 6 -49.9729 -28.2184 -1.2337 8.0933 5.7048 56.1886
#
#
#
# Elastic Compliance Matrix: (Units=1/GPa)
#
#
# Indices 1 2 3 4 5 6 
#
# 1 0.011842 -0.002711 0.004861 0.001906 -0.004627 0.009472
# 2 -0.002711 0.025337 -0.019294 -0.012913 0.001082 0.011640
# 3 0.004861 -0.019294 0.036134 0.016732 -0.001386 -0.006843
# 4 0.001906 -0.012913 0.016732 0.027719 0.001529 -0.008571
# 5 -0.004627 0.001082 -0.001386 0.001529 0.036396 -0.007518
# 6 0.009472 0.011640 -0.006843 -0.008571 -0.007518 0.033915
#
#
# Mechanical properties :
#
#
# Convention : Reuss Voigt Hill
#
# Bulk Modulus (GPa) = 25.62595 40.99519 33.31057
# Shear Modulus (GPa) = 22.86879 43.43271 33.15075
#
# Velocity S-wave (km/s) = 2.88783 3.97978 3.47694
# Velocity P-wave (km/s) = 4.52377 6.00566 5.31659
#
# Compressibility (1/GPa) = 0.03902294
#
# Stress axis : x y z
#
# Youngs Moduli (GPa) = 84.44824 39.46840 27.67482
#
# Poissons Ratio (x) = 0.10700 -0.13452
# Poissons Ratio (y) = 0.22894 0.53397
# Poissons Ratio (z) = -0.41048 0.76151
#
# Static dielectric constant tensor:
#      x y z
#    x 2.348080 0.048690 -0.010790 
#    y 0.048690 2.088630 -0.095330 
#    z -0.010790 -0.095330 2.252010 
# 
# From -- ./inp_files/531835.got.cif
#   From: 2010.05.17/outbox.cif.g08.bks.cpg/sg2_266_cif.got.tgz:531835.got - 2010.06.03 11:33:40.
