data_PCOD9003002
_publ_section_title
;
Structure prediction by ZEFSAII (Michael W. Deem and Ramdas Pophale) SiO2 
 PCOD9003002
Probable space group: P -1
;
_chemical_formula_sum "Si O2"
_cell_formula_units_Z 16
_cell_length_a 5.260108
_cell_length_b 19.498982
_cell_length_c 16.995972
_cell_angle_alpha 155.878753
_cell_angle_beta 84.114935
_cell_angle_gamma 89.028084
_cell_volume 681.942498
_symmetry_space_group_name_H-M "P -1"
_symmetry_group_IT_number 2
_symmetry_cell_setting 'triclinic'
loop_
_space_group_symop_operation_xyz
x,y,z
-x,-y,-z
loop_
_atom_site_type_symbol
_atom_site_label
_atom_site_fract_x
_atom_site_fract_y
_atom_site_fract_z
Si Si1 0.146355 0.433869 0.844403
Si Si2 0.061362 0.807210 0.202000
Si Si3 0.295671 0.750246 0.912048
Si Si4 0.103390 0.626999 0.364936
Si Si5 0.703722 0.912722 0.468361
Si Si6 0.699322 0.118789 0.124396
Si Si7 0.247366 0.213078 0.959542
Si Si8 0.448524 0.336573 0.511152
O O1 0.952768 0.374484 0.727320
O O2 0.365065 0.254137 0.666760
O O3 0.216179 0.600922 0.977318
O O4 0.000000 0.500000 0.000000
O O5 0.964318 0.835611 0.324773
O O6 0.232501 0.943080 0.326304
O O7 0.818879 0.842693 0.184902
O O8 0.328756 0.775684 0.845621
O O9 0.988919 0.827992 0.025934
O O10 0.366576 0.544191 0.713820
O O11 0.484674 0.834564 0.047836
O O12 0.185497 0.422689 0.171908
O O13 0.821842 0.709459 0.503677
O O14 0.338632 0.702170 0.465467
O O15 0.500000 0.000000 0.500000
O O16 0.599126 0.241360 0.330633
O O17 0.500000 0.000000 0.000000
O O18 0.000000 0.000000 0.000000
#
# Coordination Sequence:
#
# PCOD9003002 Si02
#       8
#     2   2   2   2   2   2   2   2
#     4   9  19  41  61  87 124 167 209 257 321 369
#     4   9  20  39  57  82 124 158 204 264 311 371
#     4  10  21  40  65  90 115 161 213 242 309 376
#     4   9  19  39  62  96 118 158 210 260 309 369
#     4  10  21  37  56  88 118 159 215 253 311 382
#     4  12  25  42  60  92 130 162 200 254 317 376
#     4   9  19  36  64  90 117 155 206 261 305 365
#     4  10  21  42  67  87 124 159 210 260 301 375
#
# _framework density 23.462389999999999
#
# number of rings (size 3 to 8) (size 9 to 14) (size 15 to 20)
#    0.000    2.250    0.000    1.875    1.750    0.500 
#   20.250    5.000    0.000    0.000    0.000    0.000 
#    0.000    0.000    0.000    0.000    0.000    0.000 
#
# Total GULP energy -89362.923905 kJ/mol
# GULP energy per Si atom -5585.182744 kJ/mol
# Density = 2.340899 g / cm^3
# Si number density = 23.462390 Si / 1000 Ang^3
#
#
#
# Elastic Constant Matrix: (Units=GPa)
#
#
# Indices 1 2 3 4 5 6 
#
# 1 107.8945 14.5675 33.9494 0.9259 1.0404 -10.0980
# 2 14.5675 96.0433 42.4147 -20.6438 -9.1907 -9.2736
# 3 33.9494 42.4147 87.0437 -2.8180 14.4160 -4.4601
# 4 0.9259 -20.6438 -2.8180 50.0243 2.5396 -4.3063
# 5 1.0404 -9.1907 14.4160 2.5396 19.5479 -7.5136
# 6 -10.0980 -9.2736 -4.4601 -4.3063 -7.5136 31.2304
#
#
#
# Elastic Compliance Matrix: (Units=1/GPa)
#
#
# Indices 1 2 3 4 5 6 
#
# 1 0.011447 0.002567 -0.006666 0.000555 0.007515 0.005396
# 2 0.002567 0.021843 -0.014864 0.007926 0.024772 0.012246
# 3 -0.006666 -0.014864 0.025452 -0.004008 -0.028895 -0.010438
# 4 0.000555 0.007926 -0.004008 0.023284 0.006188 0.006660
# 5 0.007515 0.024772 -0.028895 0.006188 0.094115 0.029155
# 6 0.005396 0.012246 -0.010438 0.006660 0.029155 0.043843
#
#
# Mechanical properties :
#
#
# Convention : Reuss Voigt Hill
#
# Bulk Modulus (GPa) = 48.03647 52.53830 50.28739
# Shear Modulus (GPa) = 18.87877 33.49719 26.18798
#
# Velocity S-wave (km/s) = 2.83969 3.78259 3.34454
# Velocity P-wave (km/s) = 5.59197 6.44348 6.03277
#
# Compressibility (1/GPa) = 0.02081752
#
# Stress axis : x y z
#
# Youngs Moduli (GPa) = 87.35989 45.78070 39.28988
#
# Poissons Ratio (x) = -0.11752 0.26189
# Poissons Ratio (y) = -0.22425 0.58399
# Poissons Ratio (z) = 0.58231 0.68046
#
# Static dielectric constant tensor:
#      x y z
#    x 1.900040 0.017960 -0.042090 
#    y 0.017960 1.897070 -0.006170 
#    z -0.042090 -0.006170 1.985670 
# 
# From -- ./inp_files/80146.got.cif
#   From: 2010.05.17/outbox.cif.g08.bks.cpg/sg2_41_cif.got.tgz:80146.got - 2010.06.03 11:33:40.
