data_PCOD9003892
_publ_section_title
;
Structure prediction by ZEFSAII (Michael W. Deem and Ramdas Pophale) SiO2 
 PCOD9003892
Probable space group: P -1
;
_chemical_formula_sum "Si O2"
_cell_formula_units_Z 16
_cell_length_a 19.772684
_cell_length_b 5.272030
_cell_length_c 7.583452
_cell_angle_alpha 75.767285
_cell_angle_beta 85.712521
_cell_angle_gamma 54.910766
_cell_volume 624.778137
_symmetry_space_group_name_H-M "P -1"
_symmetry_group_IT_number 2
_symmetry_cell_setting 'triclinic'
loop_
_space_group_symop_operation_xyz
x,y,z
-x,-y,-z
loop_
_atom_site_type_symbol
_atom_site_label
_atom_site_fract_x
_atom_site_fract_y
_atom_site_fract_z
Si Si1 0.134066 0.879825 0.020031
Si Si2 0.645880 0.050794 0.939427
Si Si3 0.763109 0.727675 0.658077
Si Si4 0.295463 0.655008 0.846906
Si Si5 0.072956 0.542665 0.490470
Si Si6 0.484650 0.393247 0.332790
Si Si7 0.016702 0.790051 0.822040
Si Si8 0.362775 0.289333 0.554731
O O1 0.194499 0.615383 0.195483
O O2 0.197082 0.858297 0.869374
O O3 0.077636 0.785274 0.952789
O O4 0.060958 0.200741 0.079466
O O5 0.670553 0.181499 0.073724
O O6 0.664712 0.706504 0.030785
O O7 0.553622 0.314352 0.843955
O O8 0.707560 0.983098 0.775114
O O9 0.839830 0.721261 0.568748
O O10 0.706791 0.737243 0.512738
O O11 0.323115 0.579916 0.650997
O O12 0.078327 0.561421 0.695896
O O13 0.000000 0.500000 0.500000
O O14 0.036502 0.872528 0.334975
O O15 0.500000 0.500000 0.500000
O O16 0.414052 0.331142 0.389263
O O17 0.566301 0.055977 0.318023
#
# Coordination Sequence:
#
# PCOD9003892 Si02
#       8
#     2   2   2   2   2   2   2   2
#     4   9  19  40  64  86 129 173 222 278 340 406
#     4  11  25  46  69 101 141 184 229 287 353 413
#     4  10  21  43  67  92 136 180 230 275 343 411
#     4  11  26  44  69 105 139 181 231 290 347 410
#     4  10  21  37  62  96 129 171 223 280 327 399
#     4  11  24  45  73  99 137 181 231 282 353 419
#     4   9  19  39  59  89 126 173 222 273 342 397
#     4  11  25  45  71 102 136 184 232 288 343 420
#
# _framework density 25.609090999999999
#
# number of rings (size 3 to 8) (size 9 to 14) (size 15 to 20)
#    0.000    1.750    1.250    2.250    5.250    1.000 
#   11.250    1.875    0.000    0.000    0.000    0.000 
#    0.000    0.000    0.000    0.000    0.000    0.000 
#
# Total GULP energy -89559.256925 kJ/mol
# GULP energy per Si atom -5597.453558 kJ/mol
# Density = 2.555080 g / cm^3
# Si number density = 25.609091 Si / 1000 Ang^3
#
#
#
# Elastic Constant Matrix: (Units=GPa)
#
#
# Indices 1 2 3 4 5 6 
#
# 1 79.8036 14.8960 27.3365 9.1236 6.8904 -15.5631
# 2 14.8960 142.7881 33.0183 -7.6019 0.4179 -22.3607
# 3 27.3365 33.0183 104.7828 22.2848 0.2773 -16.0278
# 4 9.1236 -7.6019 22.2848 39.1765 -9.4851 4.1251
# 5 6.8904 0.4179 0.2773 -9.4851 36.7418 7.4860
# 6 -15.5631 -22.3607 -16.0278 4.1251 7.4860 38.6034
#
#
#
# Elastic Compliance Matrix: (Units=1/GPa)
#
#
# Indices 1 2 3 4 5 6 
#
# 1 0.015596 -0.000345 -0.001901 -0.004676 -0.005513 0.006867
# 2 -0.000345 0.008313 -0.002641 0.002869 0.000066 0.003260
# 3 -0.001901 -0.002641 0.013546 -0.009025 -0.003040 0.004882
# 4 -0.004676 0.002869 -0.009025 0.036387 0.012397 -0.010263
# 5 -0.005513 0.000066 -0.003040 0.012397 0.033780 -0.011322
# 6 0.006867 0.003260 0.004882 -0.010263 -0.011322 0.035881
#
#
# Mechanical properties :
#
#
# Convention : Reuss Voigt Hill
#
# Bulk Modulus (GPa) = 36.12484 53.09734 44.61109
# Shear Modulus (GPa) = 30.76851 39.71258 35.24054
#
# Velocity S-wave (km/s) = 3.46998 3.94219 3.71360
# Velocity P-wave (km/s) = 5.49465 6.44205 5.98712
#
# Compressibility (1/GPa) = 0.02768178
#
# Stress axis : x y z
#
# Youngs Moduli (GPa) = 64.11901 120.29057 73.82262
#
# Poissons Ratio (x) = 0.04148 0.14031
# Poissons Ratio (y) = 0.02211 0.19498
# Poissons Ratio (z) = 0.12187 0.31771
#
# Static dielectric constant tensor:
#      x y z
#    x 1.935140 -0.113620 -0.237960 
#    y -0.113620 1.760720 -0.250140 
#    z -0.237960 -0.250140 1.859110 
# 
# From -- ./inp_files/339861.got.cif
#   From: 2010.05.17/outbox.cif.g08.bks.cpg/sg2_170_cif.got.tgz:339861.got - 2010.06.03 11:33:40.
