data_PCOD9003070
_publ_section_title
;
Structure prediction by ZEFSAII (Michael W. Deem and Ramdas Pophale) SiO2 
 PCOD9003070
Probable space group: P -1
;
_chemical_formula_sum "Si O2"
_cell_formula_units_Z 16
_cell_length_a 14.637540
_cell_length_b 10.337755
_cell_length_c 21.151608
_cell_angle_alpha 144.564700
_cell_angle_beta 149.960062
_cell_angle_gamma 54.026528
_cell_volume 848.839254
_symmetry_space_group_name_H-M "P -1"
_symmetry_group_IT_number 2
_symmetry_cell_setting 'triclinic'
loop_
_space_group_symop_operation_xyz
x,y,z
-x,-y,-z
loop_
_atom_site_type_symbol
_atom_site_label
_atom_site_fract_x
_atom_site_fract_y
_atom_site_fract_z
Si Si1 0.117740 0.996895 0.196401
Si Si2 0.114285 0.704692 0.835320
Si Si3 0.044736 0.848522 0.523261
Si Si4 0.562155 0.063910 0.267779
Si Si5 0.699777 0.166856 0.651129
Si Si6 0.083891 0.398576 0.188403
Si Si7 0.815376 0.072569 0.549762
Si Si8 0.471362 0.541935 0.407519
O O1 0.328595 0.209378 0.382384
O O2 0.976964 0.127906 0.188565
O O3 0.140419 0.832954 0.201935
O O4 0.021575 0.822078 0.010004
O O5 0.056968 0.439367 0.666030
O O6 0.998577 0.672681 0.819710
O O7 0.348780 0.843461 0.043329
O O8 0.280998 0.926573 0.689015
O O9 0.000000 0.000000 0.500000
O O10 0.945494 0.920299 0.551988
O O11 0.664457 0.045955 0.389439
O O12 0.526132 0.311767 0.340299
O O13 0.711634 0.031632 0.539240
O O14 0.676472 0.413381 0.714997
O O15 0.500000 0.000000 0.500000
O O16 0.043838 0.639020 0.247020
O O17 0.322735 0.486210 0.356918
#
# Coordination Sequence:
#
# PCOD9003070 Si02
#       8
#     2   2   2   2   2   2   2   2
#     4  11  22  38  58  88 124 152 194 243 294 359
#     4  12  23  35  61  93 117 156 196 243 303 346
#     4  10  21  43  59  84 121 155 199 243 293 346
#     4  11  22  37  62  88 121 152 195 250 292 350
#     4   9  22  38  61  89 117 160 196 236 296 351
#     4  11  22  35  58  94 118 150 194 244 305 351
#     4  10  22  41  61  86 121 158 195 244 295 346
#     4  10  21  37  57  86 122 155 191 240 301 343
#
# _framework density 18.849269
#
# number of rings (size 3 to 8) (size 9 to 14) (size 15 to 20)
#    0.000    1.500    5.000    0.375    5.250    6.500 
#    0.000    0.625    0.000    0.750    0.000    0.000 
#    0.000    0.000    0.000    0.000    0.000    0.000 
#
# Total GULP energy -89164.871983 kJ/mol
# GULP energy per Si atom -5572.804499 kJ/mol
# Density = 1.880637 g / cm^3
# Si number density = 18.849269 Si / 1000 Ang^3
#
#
#
# Elastic Constant Matrix: (Units=GPa)
#
#
# Indices 1 2 3 4 5 6 
#
# 1 110.8339 51.9683 28.1641 -6.5214 9.8309 -18.4912
# 2 51.9683 112.8129 34.3432 5.2591 -2.6448 -29.0901
# 3 28.1641 34.3432 95.6479 6.0761 14.1907 -14.2543
# 4 -6.5214 5.2591 6.0761 19.5627 -7.5414 2.0280
# 5 9.8309 -2.6448 14.1907 -7.5414 26.7411 2.4856
# 6 -18.4912 -29.0901 -14.2543 2.0280 2.4856 30.4763
#
#
#
# Elastic Compliance Matrix: (Units=1/GPa)
#
#
# Indices 1 2 3 4 5 6 
#
# 1 0.012721 -0.005198 -0.001351 0.004533 -0.003390 0.002099
# 2 -0.005198 0.014863 -0.002287 -0.005229 0.002178 0.010134
# 3 -0.001351 -0.002287 0.014583 -0.008953 -0.010483 0.005269
# 4 0.004533 -0.005229 -0.008953 0.066847 0.022601 -0.012720
# 5 -0.003390 0.002178 -0.010483 0.022601 0.051780 -0.010608
# 6 0.002099 0.010134 0.005269 -0.012720 -0.010608 0.047935
#
#
# Mechanical properties :
#
#
# Convention : Reuss Voigt Hill
#
# Bulk Modulus (GPa) = 40.82546 60.91620 50.87083
# Shear Modulus (GPa) = 21.31596 29.01063 25.16329
#
# Velocity S-wave (km/s) = 3.36648 3.92737 3.65769
# Velocity P-wave (km/s) = 6.06769 7.27691 6.69964
#
# Compressibility (1/GPa) = 0.02449452
#
# Stress axis : x y z
#
# Youngs Moduli (GPa) = 78.61077 67.28186 68.57201
#
# Poissons Ratio (x) = 0.34973 0.09267
# Poissons Ratio (y) = 0.40862 0.15681
# Poissons Ratio (z) = 0.10624 0.15386
#
# Static dielectric constant tensor:
#      x y z
#    x 1.679450 0.030150 0.014360 
#    y 0.030150 1.747470 -0.031390 
#    z 0.014360 -0.031390 1.665230 
# 
# From -- ./inp_files/612000.got.cif
#   From: 2010.05.17/outbox.cif.g08.bks.cpg/sg2_306_cif.got.tgz:612000.got - 2010.06.03 11:33:40.
