data_PCOD9003855
_publ_section_title
;
Structure prediction by ZEFSAII (Michael W. Deem and Ramdas Pophale) SiO2 
 PCOD9003855
Probable space group: P -1
;
_chemical_formula_sum "Si O2"
_cell_formula_units_Z 16
_cell_length_a 5.551418
_cell_length_b 13.508111
_cell_length_c 11.196402
_cell_angle_alpha 120.733987
_cell_angle_beta 87.373548
_cell_angle_gamma 104.522928
_cell_volume 695.197203
_symmetry_space_group_name_H-M "P -1"
_symmetry_group_IT_number 2
_symmetry_cell_setting 'triclinic'
loop_
_space_group_symop_operation_xyz
x,y,z
-x,-y,-z
loop_
_atom_site_type_symbol
_atom_site_label
_atom_site_fract_x
_atom_site_fract_y
_atom_site_fract_z
Si Si1 0.589935 0.925958 0.182116
Si Si2 0.873684 0.171835 0.238113
Si Si3 0.760093 0.404997 0.496224
Si Si4 0.275684 0.254260 0.455023
Si Si5 0.972544 0.200746 0.974130
Si Si6 0.451370 0.184591 0.650670
Si Si7 0.931387 0.361179 0.699433
Si Si8 0.256750 0.393743 0.915899
O O1 0.614675 0.927188 0.327495
O O2 0.657878 0.053611 0.196506
O O3 0.812979 0.868731 0.097871
O O4 0.305190 0.854436 0.110217
O O5 0.798301 0.281119 0.368554
O O6 0.930284 0.197931 0.115028
O O7 0.120276 0.167977 0.305408
O O8 0.463659 0.369252 0.457845
O O9 0.000000 0.500000 0.500000
O O10 0.772928 0.419919 0.649605
O O11 0.380547 0.180800 0.509933
O O12 0.109902 0.317795 0.578201
O O13 0.098637 0.330207 0.993318
O O14 0.340054 0.285471 0.779682
O O15 0.747195 0.242613 0.683807
O O16 0.081942 0.434782 0.848484
O O17 0.500000 0.500000 0.000000
#
# Coordination Sequence:
#
# PCOD9003855 Si02
#       8
#     2   2   2   2   2   2   2   2
#     4  11  24  44  69  96 135 178 218 275 328 391
#     4  11  25  40  67  94 129 173 223 265 332 400
#     4  10  23  41  63  91 126 169 213 278 331 389
#     4   9  21  39  63  91 121 165 215 267 326 386
#     4  11  25  43  66  99 138 176 218 273 329 390
#     4   9  19  40  63  87 130 164 213 273 329 382
#     4   9  18  39  59  85 124 161 209 269 325 384
#     4  10  21  37  62  94 124 170 218 268 331 392
#
# _framework density 23.015051
#
# number of rings (size 3 to 8) (size 9 to 14) (size 15 to 20)
#    0.000    2.000    1.250    0.750    3.500    7.000 
#    2.250    5.625    0.000    0.000    0.000    0.000 
#    0.000    0.000    0.000    0.000    0.000    0.000 
#
# Total GULP energy -89194.032573 kJ/mol
# GULP energy per Si atom -5574.627036 kJ/mol
# Density = 2.296267 g / cm^3
# Si number density = 23.015051 Si / 1000 Ang^3
#
#
#
# Elastic Constant Matrix: (Units=GPa)
#
#
# Indices 1 2 3 4 5 6 
#
# 1 84.4652 23.7174 20.3136 5.3034 5.5638 23.9764
# 2 23.7174 145.0034 52.8018 -15.7377 0.5065 37.7244
# 3 20.3136 52.8018 89.0817 -27.3801 26.5810 13.1153
# 4 5.3034 -15.7377 -27.3801 35.4229 2.0507 -5.9745
# 5 5.5638 0.5065 26.5810 2.0507 41.8220 7.1344
# 6 23.9764 37.7244 13.1153 -5.9745 7.1344 35.7406
#
#
#
# Elastic Compliance Matrix: (Units=1/GPa)
#
#
# Indices 1 2 3 4 5 6 
#
# 1 0.017628 0.002999 -0.008910 -0.011065 0.006355 -0.014840
# 2 0.002999 0.013873 -0.011451 -0.006298 0.009652 -0.015433
# 3 -0.008910 -0.011451 0.032491 0.025224 -0.023118 0.014972
# 4 -0.011065 -0.006298 0.025224 0.050649 -0.019911 0.017255
# 5 0.006355 0.009652 -0.023118 -0.019911 0.041621 -0.017605
# 6 -0.014840 -0.015433 0.014972 0.017255 -0.017605 0.055128
#
#
# Mechanical properties :
#
#
# Convention : Reuss Voigt Hill
#
# Bulk Modulus (GPa) = 34.16505 56.91290 45.53897
# Shear Modulus (GPa) = 19.54107 37.37827 28.45967
#
# Velocity S-wave (km/s) = 2.91702 4.03436 3.52030
# Velocity P-wave (km/s) = 5.12076 6.81789 6.02934
#
# Compressibility (1/GPa) = 0.02926968
#
# Stress axis : x y z
#
# Youngs Moduli (GPa) = 56.72653 72.08050 30.77744
#
# Poissons Ratio (x) = -0.21614 0.27421
# Poissons Ratio (y) = -0.17010 0.35243
# Poissons Ratio (z) = 0.50541 0.82538
#
# Static dielectric constant tensor:
#      x y z
#    x 2.129070 -0.067530 0.047340 
#    y -0.067530 1.903680 -0.021390 
#    z 0.047340 -0.021390 1.845070 
# 
# From -- ./inp_files/367011.got.cif
#   From: 2010.05.17/outbox.cif.g08.bks.cpg/sg2_184_cif.got.tgz:367011.got - 2010.06.03 11:33:40.
