data_PCOD9003749
_publ_section_title
;
Structure prediction by ZEFSAII (Michael W. Deem and Ramdas Pophale) SiO2 
 PCOD9003749
Probable space group: P -1
;
_chemical_formula_sum "Si O2"
_cell_formula_units_Z 16
_cell_length_a 6.200420
_cell_length_b 16.165842
_cell_length_c 11.910535
_cell_angle_alpha 88.418074
_cell_angle_beta 127.451990
_cell_angle_gamma 117.021473
_cell_volume 790.380656
_symmetry_space_group_name_H-M "P -1"
_symmetry_group_IT_number 2
_symmetry_cell_setting 'triclinic'
loop_
_space_group_symop_operation_xyz
x,y,z
-x,-y,-z
loop_
_atom_site_type_symbol
_atom_site_label
_atom_site_fract_x
_atom_site_fract_y
_atom_site_fract_z
Si Si1 0.844960 0.046545 0.377309
Si Si2 0.071849 0.398503 0.596158
Si Si3 0.891241 0.113753 0.787728
Si Si4 0.850045 0.548172 0.874011
Si Si5 0.793647 0.250206 0.894500
Si Si6 0.884610 0.786971 0.380593
Si Si7 0.335949 0.052533 0.897174
Si Si8 0.136755 0.474795 0.374568
O O1 0.995555 0.156289 0.465515
O O2 0.463442 0.976849 0.286806
O O3 0.897881 0.027271 0.267902
O O4 0.000000 0.000000 0.500000
O O5 0.458561 0.477286 0.739896
O O6 0.026565 0.293627 0.600257
O O7 0.973667 0.408503 0.437221
O O8 0.882087 0.429507 0.616326
O O9 0.947189 0.214300 0.853099
O O10 0.944412 0.134287 0.670325
O O11 0.137666 0.084143 0.907555
O O12 0.983332 0.565794 0.787223
O O13 0.000000 0.500000 0.000000
O O14 0.956848 0.650357 0.964716
O O15 0.500887 0.258055 0.752126
O O16 0.608412 0.155659 0.921788
O O17 0.500000 0.000000 0.000000
O O18 0.500000 0.500000 0.500000
#
# Coordination Sequence:
#
# PCOD9003749 Si02
#       8
#     2   2   2   2   2   2   2   2
#     4  11  20  38  60  89 118 148 196 248 293 357
#     4  10  22  40  62  89 119 163 200 242 303 354
#     4  10  21  37  62  85 123 151 194 250 301 343
#     4  11  22  38  63  91 124 158 199 250 299 353
#     4  10  22  38  57  92 123 151 199 246 296 357
#     4  11  21  35  61  91 116 152 201 245 295 356
#     4  10  23  41  60  86 122 159 194 243 299 357
#     4   9  22  43  59  81 126 158 198 249 293 349
#
# _framework density 20.243410999999998
#
# number of rings (size 3 to 8) (size 9 to 14) (size 15 to 20)
#    0.000    1.750    5.000    0.375    1.750    5.500 
#    0.000    6.250    0.000    0.000    0.000    0.000 
#    0.000    0.000    0.000    0.000    0.000    0.000 
#
# Total GULP energy -89222.142210 kJ/mol
# GULP energy per Si atom -5576.383888 kJ/mol
# Density = 2.019734 g / cm^3
# Si number density = 20.243411 Si / 1000 Ang^3
#
#
#
# Elastic Constant Matrix: (Units=GPa)
#
#
# Indices 1 2 3 4 5 6 
#
# 1 69.7412 21.1184 16.6919 -1.6770 -2.2581 -35.1145
# 2 21.1184 111.6911 37.7429 -0.3485 3.1622 -41.0132
# 3 16.6919 37.7429 90.5044 -0.7224 -13.4927 -17.5209
# 4 -1.6770 -0.3485 -0.7224 40.3400 -9.5539 4.5246
# 5 -2.2581 3.1622 -13.4927 -9.5539 24.1049 0.8674
# 6 -35.1145 -41.0132 -17.5209 4.5246 0.8674 39.1031
#
#
#
# Elastic Compliance Matrix: (Units=1/GPa)
#
#
# Indices 1 2 3 4 5 6 
#
# 1 0.029535 0.007760 -0.002437 -0.003043 -0.002043 0.033967
# 2 0.007760 0.018599 -0.005546 -0.004116 -0.007335 0.024630
# 3 -0.002437 -0.005546 0.014971 0.002696 0.010014 -0.001830
# 4 -0.003043 -0.004116 0.002696 0.028957 0.013583 -0.009493
# 5 -0.002043 -0.007335 0.010014 0.013583 0.053526 -0.007800
# 6 0.033967 0.024630 -0.001830 -0.009493 -0.007800 0.082361
#
#
# Mechanical properties :
#
#
# Convention : Reuss Voigt Hill
#
# Bulk Modulus (GPa) = 15.95876 47.00479 31.48178
# Shear Modulus (GPa) = 20.05771 33.80181 26.92976
#
# Velocity S-wave (km/s) = 3.15115 4.09071 3.65128
# Velocity P-wave (km/s) = 4.59785 6.75145 5.77591
#
# Compressibility (1/GPa) = 0.06266150
#
# Stress axis : x y z
#
# Youngs Moduli (GPa) = 33.85789 53.76589 66.79428
#
# Poissons Ratio (x) = -0.41723 0.16275
# Poissons Ratio (y) = -0.26274 0.37042
# Poissons Ratio (z) = 0.08250 0.29817
#
# Static dielectric constant tensor:
#      x y z
#    x 1.684740 0.002910 -0.142430 
#    y 0.002910 1.741670 0.018380 
#    z -0.142430 0.018380 1.624310 
# 
# From -- ./inp_files/38875.got.cif
#   From: 2010.05.17/outbox.cif.g08.bks.cpg/sg2_20_cif.got.tgz:38875.got - 2010.06.03 11:33:40.
