data_PCOD9003061
_publ_section_title
;
Structure prediction by ZEFSAII (Michael W. Deem and Ramdas Pophale) SiO2 
 PCOD9003061
Probable space group: P -1
;
_chemical_formula_sum "Si O2"
_cell_formula_units_Z 16
_cell_length_a 14.516803
_cell_length_b 7.955356
_cell_length_c 16.085102
_cell_angle_alpha 83.997715
_cell_angle_beta 142.159434
_cell_angle_gamma 68.044951
_cell_volume 751.979300
_symmetry_space_group_name_H-M "P -1"
_symmetry_group_IT_number 2
_symmetry_cell_setting 'triclinic'
loop_
_space_group_symop_operation_xyz
x,y,z
-x,-y,-z
loop_
_atom_site_type_symbol
_atom_site_label
_atom_site_fract_x
_atom_site_fract_y
_atom_site_fract_z
Si Si1 0.600849 0.641665 0.342817
Si Si2 0.196857 0.028865 0.568955
Si Si3 0.407405 0.902658 0.473071
Si Si4 0.396075 0.446844 0.222144
Si Si5 0.952715 0.999786 0.869975
Si Si6 0.826352 0.902030 0.088454
Si Si7 0.060613 0.099056 0.647690
Si Si8 0.122085 0.345965 0.367877
O O1 0.507224 0.538336 0.308089
O O2 0.835394 0.404057 0.475600
O O3 0.667951 0.703103 0.464102
O O4 0.413724 0.883629 0.138841
O O5 0.442833 0.785183 0.716541
O O6 0.034286 0.009853 0.428223
O O7 0.090534 0.283748 0.437690
O O8 0.205304 0.026530 0.674357
O O9 0.202785 0.129591 0.376902
O O10 0.292954 0.870359 0.329110
O O11 0.500000 0.000000 0.500000
O O12 0.590913 0.659800 0.675521
O O13 0.143717 0.698044 0.000513
O O14 0.006753 0.117012 0.845230
O O15 0.000000 0.000000 0.000000
O O16 0.822089 0.977472 0.175515
O O17 0.923841 0.630942 0.178388
#
# Coordination Sequence:
#
# PCOD9003061 Si02
#       8
#     2   2   2   2   2   2   2   2
#     4   9  19  36  59  83 117 162 190 242 294 355
#     4   9  18  37  62  86 117 159 189 254 297 345
#     4  11  25  39  62  90 116 155 204 253 303 350
#     4   9  21  42  60  82 123 156 202 243 301 358
#     4  11  25  42  63  87 119 164 205 242 298 365
#     4  10  21  38  60  85 121 157 199 239 299 355
#     4   9  18  38  62  84 117 156 207 232 294 365
#     4  10  21  37  57  85 122 148 193 252 302 343
#
# _framework density 21.277182
#
# number of rings (size 3 to 8) (size 9 to 14) (size 15 to 20)
#    0.000    2.250    0.000    3.000    5.250    5.000 
#    0.000   16.250    0.000    0.000    0.000    0.000 
#    0.000    0.000    0.000    0.000    0.000    0.000 
#
# Total GULP energy -89351.000070 kJ/mol
# GULP energy per Si atom -5584.437504 kJ/mol
# Density = 2.122875 g / cm^3
# Si number density = 21.277182 Si / 1000 Ang^3
#
#
#
# Elastic Constant Matrix: (Units=GPa)
#
#
# Indices 1 2 3 4 5 6 
#
# 1 85.5214 9.5189 16.1677 -10.9302 -22.3264 0.5231
# 2 9.5189 56.1170 16.7720 -9.1099 -15.3939 9.2844
# 3 16.1677 16.7720 72.5786 -12.3164 -7.1906 5.5626
# 4 -10.9302 -9.1099 -12.3164 37.7570 5.4855 -15.0191
# 5 -22.3264 -15.3939 -7.1906 5.4855 29.1579 -3.9255
# 6 0.5231 9.2844 5.5626 -15.0191 -3.9255 26.1193
#
#
#
# Elastic Compliance Matrix: (Units=1/GPa)
#
#
# Indices 1 2 3 4 5 6 
#
# 1 0.015512 0.001275 -0.002215 0.003828 0.011779 0.003679
# 2 0.001275 0.022840 -0.003900 0.000960 0.011209 -0.005077
# 3 -0.002215 -0.003900 0.015733 0.003674 -0.000552 0.000109
# 4 0.003828 0.000960 0.003674 0.037002 0.000087 0.020090
# 5 0.011779 0.011209 -0.000552 0.000087 0.049537 0.003392
# 6 0.003679 -0.005077 0.000109 0.020090 0.003392 0.052055
#
#
# Mechanical properties :
#
#
# Convention : Reuss Voigt Hill
#
# Bulk Modulus (GPa) = 22.52028 33.23712 27.87870
# Shear Modulus (GPa) = 23.02442 30.05741 26.54091
#
# Velocity S-wave (km/s) = 3.29312 3.76261 3.53567
# Velocity P-wave (km/s) = 5.00667 5.87633 5.45885
#
# Compressibility (1/GPa) = 0.04440442
#
# Stress axis : x y z
#
# Youngs Moduli (GPa) = 64.46730 43.78348 63.55988
#
# Poissons Ratio (x) = -0.05582 0.14081
# Poissons Ratio (y) = -0.08219 0.24785
# Poissons Ratio (z) = 0.14283 0.17073
#
# Static dielectric constant tensor:
#      x y z
#    x 1.803590 -0.030040 0.010280 
#    y -0.030040 1.801260 0.007350 
#    z 0.010280 0.007350 1.756380 
# 
# From -- ./inp_files/276281.got.cif
#   From: 2010.05.17/outbox.cif.g08.bks.cpg/sg2_139_cif.got.tgz:276281.got - 2010.06.03 11:33:40.
