data_PCOD9003830
_publ_section_title
;
Structure prediction by ZEFSAII (Michael W. Deem and Ramdas Pophale) SiO2 
 PCOD9003830
Probable space group: P -1
;
_chemical_formula_sum "Si O2"
_cell_formula_units_Z 16
_cell_length_a 11.172232
_cell_length_b 9.440870
_cell_length_c 15.955598
_cell_angle_alpha 59.190896
_cell_angle_beta 114.058085
_cell_angle_gamma 65.096102
_cell_volume 786.330343
_symmetry_space_group_name_H-M "P -1"
_symmetry_group_IT_number 2
_symmetry_cell_setting 'triclinic'
loop_
_space_group_symop_operation_xyz
x,y,z
-x,-y,-z
loop_
_atom_site_type_symbol
_atom_site_label
_atom_site_fract_x
_atom_site_fract_y
_atom_site_fract_z
Si Si1 0.110673 0.248954 0.547700
Si Si2 0.140044 0.709791 0.666372
Si Si3 0.303015 0.397701 0.309711
Si Si4 0.486983 0.002495 0.357884
Si Si5 0.236836 0.791770 0.825830
Si Si6 0.395449 0.745960 0.335311
Si Si7 0.479457 0.538520 0.254645
Si Si8 0.964974 0.987884 0.113792
O O1 0.343086 0.078403 0.629768
O O2 0.000000 0.500000 0.500000
O O3 0.954995 0.352302 0.392229
O O4 0.170118 0.023960 0.685108
O O5 0.142096 0.733744 0.760210
O O6 0.379787 0.525392 0.759651
O O7 0.000000 0.000000 0.500000
O O8 0.372281 0.200026 0.460713
O O9 0.496064 0.337949 0.360570
O O10 0.097707 0.698251 0.201665
O O11 0.291276 0.312732 0.244574
O O12 0.404215 0.916960 0.322111
O O13 0.128712 0.926040 0.845172
O O14 0.500000 0.500000 0.000000
O O15 0.500000 0.500000 0.500000
O O16 0.522013 0.611180 0.324239
O O17 0.149112 0.941961 0.184531
O O18 0.234444 0.777797 0.076159
#
# Coordination Sequence:
#
# PCOD9003830 Si02
#       8
#     2   2   2   2   2   2   2   2
#     4  11  24  41  68  98 134 173 216 273 332 385
#     4  10  22  38  68  97 122 171 223 263 320 391
#     4  10  21  37  62  92 126 166 204 264 332 367
#     4  11  22  38  63  96 131 158 214 275 319 376
#     4  11  23  43  69  97 130 172 221 270 326 394
#     4  11  22  38  67  96 119 167 220 263 313 389
#     4  11  21  41  63  91 130 162 215 261 321 390
#     4  11  23  40  66  90 130 169 214 261 327 387
#
# _framework density 20.347681000000001
#
# number of rings (size 3 to 8) (size 9 to 14) (size 15 to 20)
#    0.000    1.250    3.750    4.500    3.500    2.000 
#    0.000    3.125    8.250    0.000    0.000    0.000 
#    0.000    0.000    0.000    0.000    0.000    0.000 
#
# Total GULP energy -89149.419459 kJ/mol
# GULP energy per Si atom -5571.838716 kJ/mol
# Density = 2.030137 g / cm^3
# Si number density = 20.347681 Si / 1000 Ang^3
#
#
#
# Elastic Constant Matrix: (Units=GPa)
#
#
# Indices 1 2 3 4 5 6 
#
# 1 61.9237 45.7135 10.2735 3.6191 -1.7715 -7.7069
# 2 45.7135 188.8817 29.4836 16.3915 -2.1657 -1.0484
# 3 10.2735 29.4836 57.1714 14.7878 8.4475 -4.7710
# 4 3.6191 16.3915 14.7878 29.9414 -2.3297 2.4261
# 5 -1.7715 -2.1657 8.4475 -2.3297 23.8751 7.3724
# 6 -7.7069 -1.0484 -4.7710 2.4261 7.3724 32.3626
#
#
#
# Elastic Compliance Matrix: (Units=1/GPa)
#
#
# Indices 1 2 3 4 5 6 
#
# 1 0.020384 -0.004792 -0.000869 0.000219 0.000000 0.004555
# 2 -0.004792 0.007029 -0.002678 -0.001703 0.001536 -0.001530
# 3 -0.000869 -0.002678 0.024572 -0.012098 -0.012360 0.007051
# 4 0.000219 -0.001703 -0.012098 0.041684 0.010462 -0.007295
# 5 0.000000 0.001536 -0.012360 0.010462 0.051855 -0.014369
# 6 0.004555 -0.001530 0.007051 -0.007295 -0.014369 0.036795
#
#
# Mechanical properties :
#
#
# Convention : Reuss Voigt Hill
#
# Bulk Modulus (GPa) = 28.32139 53.21310 40.76724
# Shear Modulus (GPa) = 23.72299 32.06959 27.89629
#
# Velocity S-wave (km/s) = 3.41821 3.97430 3.70669
# Velocity P-wave (km/s) = 5.43395 6.87523 6.19663
#
# Compressibility (1/GPa) = 0.03530900
#
# Stress axis : x y z
#
# Youngs Moduli (GPa) = 49.05731 142.26963 40.69617
#
# Poissons Ratio (x) = 0.68170 0.03535
# Poissons Ratio (y) = 0.23506 0.10899
# Poissons Ratio (z) = 0.04261 0.38101
#
# Static dielectric constant tensor:
#      x y z
#    x 1.714710 0.000310 -0.011320 
#    y 0.000310 1.880880 0.001540 
#    z -0.011320 0.001540 1.724390 
# 
# From -- ./inp_files/277801.got.cif
#   From: 2010.05.17/outbox.cif.g08.bks.cpg/sg2_139_cif.got.tgz:277801.got - 2010.06.03 11:33:40.
