data_PCOD9003373
_publ_section_title
;
Structure prediction by ZEFSAII (Michael W. Deem and Ramdas Pophale) SiO2 
 PCOD9003373
Probable space group: P -1
;
_chemical_formula_sum "Si O2"
_cell_formula_units_Z 16
_cell_length_a 15.626696
_cell_length_b 18.481296
_cell_length_c 9.592560
_cell_angle_alpha 41.590517
_cell_angle_beta 43.131775
_cell_angle_gamma 22.666068
_cell_volume 700.102066
_symmetry_space_group_name_H-M "P -1"
_symmetry_group_IT_number 2
_symmetry_cell_setting 'triclinic'
loop_
_space_group_symop_operation_xyz
x,y,z
-x,-y,-z
loop_
_atom_site_type_symbol
_atom_site_label
_atom_site_fract_x
_atom_site_fract_y
_atom_site_fract_z
Si Si1 0.157396 0.400792 0.087472
Si Si2 0.606228 0.965561 0.776746
Si Si3 0.893995 0.321885 0.308994
Si Si4 0.894627 0.966535 0.102580
Si Si5 0.479394 0.360873 0.143625
Si Si6 0.154523 0.340897 0.667283
Si Si7 0.291920 0.579312 0.314202
Si Si8 0.977379 0.233119 0.036054
O O1 0.344410 0.175329 0.175115
O O2 0.982826 0.508449 0.260806
O O3 0.217806 0.484045 0.892066
O O4 0.000000 0.500000 0.000000
O O5 0.849401 0.843180 0.701885
O O6 0.417294 0.172176 0.623815
O O7 0.500000 0.000000 0.000000
O O8 0.740637 0.399493 0.511495
O O9 0.921533 0.234630 0.257773
O O10 0.036733 0.765641 0.290804
O O11 0.938442 0.919472 0.953274
O O12 0.636777 0.156674 0.180520
O O13 0.000000 0.000000 0.000000
O O14 0.439098 0.390501 0.316456
O O15 0.239791 0.551152 0.083658
O O16 0.600423 0.385606 0.916119
O O17 0.000000 0.500000 0.500000
O O18 0.142157 0.217843 0.869345
#
# Coordination Sequence:
#
# PCOD9003373 Si02
#       8
#     2   2   2   2   2   2   2   2
#     4   9  19  37  60  84 119 166 206 250 310 374
#     4  11  20  42  65  83 128 180 202 255 327 377
#     4  10  21  38  60  94 123 162 218 264 307 383
#     4   9  19  39  62  84 119 165 206 255 321 379
#     4   9  19  38  60  80 118 166 198 258 324 365
#     4  11  24  40  62  95 130 163 217 268 307 374
#     4   9  19  38  60  86 118 156 211 256 313 387
#     4  10  21  37  59  92 125 159 209 263 314 377
#
# _framework density 22.853809999999999
#
# number of rings (size 3 to 8) (size 9 to 14) (size 15 to 20)
#    0.000    2.250    3.750    0.750    0.000    8.000 
#    2.250    2.500    0.000    0.000    0.000    0.000 
#    0.000    0.000    0.000    0.000    0.000    0.000 
#
# Total GULP energy -89078.929473 kJ/mol
# GULP energy per Si atom -5567.433092 kJ/mol
# Density = 2.280179 g / cm^3
# Si number density = 22.853810 Si / 1000 Ang^3
#
#
#
# Elastic Constant Matrix: (Units=GPa)
#
#
# Indices 1 2 3 4 5 6 
#
# 1 83.9612 50.5105 41.9910 20.3634 29.3018 28.8559
# 2 50.5105 132.9585 39.8052 25.6382 9.8588 28.7151
# 3 41.9910 39.8052 102.1778 34.5386 33.4659 21.7115
# 4 20.3634 25.6382 34.5386 34.7420 10.9393 12.9374
# 5 29.3018 9.8588 33.4659 10.9393 45.4275 13.4838
# 6 28.8559 28.7151 21.7115 12.9374 13.4838 40.0897
#
#
#
# Elastic Compliance Matrix: (Units=1/GPa)
#
#
# Indices 1 2 3 4 5 6 
#
# 1 0.022210 -0.005238 -0.001987 -0.001472 -0.009109 -0.007620
# 2 -0.005238 0.011130 -0.001539 -0.003545 0.004012 -0.003573
# 3 -0.001987 -0.001539 0.018684 -0.013381 -0.008839 -0.000295
# 4 -0.001472 -0.003545 -0.013381 0.046823 0.001741 -0.004850
# 5 -0.009109 0.004012 -0.008839 0.001741 0.034175 -0.003586
# 6 -0.007620 -0.003573 -0.000295 -0.004850 -0.003586 0.035919
#
#
# Mechanical properties :
#
#
# Convention : Reuss Voigt Hill
#
# Bulk Modulus (GPa) = 28.98948 64.85677 46.92313
# Shear Modulus (GPa) = 25.25679 36.50456 30.88067
#
# Velocity S-wave (km/s) = 3.32798 4.00097 3.67989
# Velocity P-wave (km/s) = 5.24209 7.05580 6.21546
#
# Compressibility (1/GPa) = 0.03449527
#
# Stress axis : x y z
#
# Youngs Moduli (GPa) = 45.02547 89.84943 53.52257
#
# Poissons Ratio (x) = 0.47060 0.10633
# Poissons Ratio (y) = 0.23583 0.08240
# Poissons Ratio (z) = 0.08945 0.13832
#
# Static dielectric constant tensor:
#      x y z
#    x 2.137140 -0.009110 -0.113190 
#    y -0.009110 1.954190 0.017350 
#    z -0.113190 0.017350 1.938080 
# 
# From -- ./inp_files/338122.got.cif
#   From: 2010.05.17/outbox.cif.g08.bks.cpg/sg2_170_cif.got.tgz:338122.got - 2010.06.03 11:33:40.
