data_PCOD9003090
_publ_section_title
;
Structure prediction by ZEFSAII (Michael W. Deem and Ramdas Pophale) SiO2 
 PCOD9003090
Probable space group: P -1
;
_chemical_formula_sum "Si O2"
_cell_formula_units_Z 14
_cell_length_a 11.691571
_cell_length_b 5.710862
_cell_length_c 11.381085
_cell_angle_alpha 116.138443
_cell_angle_beta 115.940371
_cell_angle_gamma 58.960057
_cell_volume 562.239968
_symmetry_space_group_name_H-M "P -1"
_symmetry_group_IT_number 2
_symmetry_cell_setting 'triclinic'
loop_
_space_group_symop_operation_xyz
x,y,z
-x,-y,-z
loop_
_atom_site_type_symbol
_atom_site_label
_atom_site_fract_x
_atom_site_fract_y
_atom_site_fract_z
Si Si1 0.133688 0.811084 0.380104
Si Si2 0.579660 0.303688 0.600632
Si Si3 0.805284 0.729474 0.588333
Si Si4 0.144913 0.183327 0.852611
Si Si5 0.423079 0.634514 0.819575
Si Si6 0.672370 0.523233 0.028534
Si Si7 0.866139 0.923760 0.912868
O O1 0.270939 0.663497 0.327240
O O2 0.163976 0.604472 0.462008
O O3 0.994318 0.825707 0.260655
O O4 0.126892 0.135228 0.450777
O O5 0.500000 0.500000 0.500000
O O6 0.475257 0.443081 0.688520
O O7 0.645324 0.957400 0.555376
O O8 0.857329 0.787354 0.753797
O O9 0.190653 0.422396 0.876230
O O10 0.277239 0.900776 0.812703
O O11 0.134993 0.231673 0.999338
O O12 0.402596 0.450699 0.876073
O O13 0.554285 0.711124 0.927490
O O14 0.728210 0.210202 0.929094
O O15 0.000000 0.000000 0.000000
#
# Coordination Sequence:
#
# PCOD9003090 Si02
#       7
#     2   2   2   2   2   2   2
#     4  10  23  41  64  95 128 166 221 266 318 383
#     4  10  23  45  70  92 125 170 223 275 319 373
#     4  10  22  38  62  92 128 161 215 265 313 370
#     4  11  23  34  63  92 132 174 206 263 326 393
#     4  10  22  40  57  94 128 171 215 258 326 391
#     4  10  21  37  57  88 134 172 206 254 327 395
#     4  11  19  32  55  91 130 167 208 252 318 382
#
# _framework density 24.900399
#
# number of rings (size 3 to 8) (size 9 to 14) (size 15 to 20)
#    0.857    0.857    2.857    1.286    6.000    2.857 
#    0.000    0.714    0.000    1.714    0.000    0.000 
#    0.000    0.000    0.000    0.000    0.000    0.000 
#
# Total GULP energy -78068.962679 kJ/mol
# GULP energy per Si atom -5576.354477 kJ/mol
# Density = 2.484372 g / cm^3
# Si number density = 24.900399 Si / 1000 Ang^3
#
#
#
# Elastic Constant Matrix: (Units=GPa)
#
#
# Indices 1 2 3 4 5 6 
#
# 1 126.4527 30.5032 24.7443 -2.3310 3.8887 -23.8723
# 2 30.5032 128.8955 24.0595 -22.4974 -4.2802 -6.7265
# 3 24.7443 24.0595 39.5174 -0.2282 -6.7254 -15.6279
# 4 -2.3310 -22.4974 -0.2282 22.3305 -4.7480 5.8442
# 5 3.8887 -4.2802 -6.7254 -4.7480 39.5633 -13.8988
# 6 -23.8723 -6.7265 -15.6279 5.8442 -13.8988 49.1251
#
#
#
# Elastic Compliance Matrix: (Units=1/GPa)
#
#
# Indices 1 2 3 4 5 6 
#
# 1 0.009690 -0.001743 -0.003911 -0.001810 -0.000904 0.003186
# 2 -0.001743 0.011426 -0.006699 0.012119 0.000799 -0.002629
# 3 -0.003911 -0.006699 0.038727 -0.008124 0.009933 0.013279
# 4 -0.001810 0.012119 -0.008124 0.059687 0.004600 -0.007604
# 5 -0.000904 0.000799 0.009933 0.004600 0.031639 0.011234
# 6 0.003186 -0.002629 0.013279 -0.007604 0.011234 0.029852
#
#
# Mechanical properties :
#
#
# Convention : Reuss Voigt Hill
#
# Bulk Modulus (GPa) = 28.45880 50.38662 39.42271
# Shear Modulus (GPa) = 22.99519 36.57435 29.78477
#
# Velocity S-wave (km/s) = 3.04219 3.83668 3.46230
# Velocity P-wave (km/s) = 4.87788 6.31712 5.64357
#
# Compressibility (1/GPa) = 0.03513852
#
# Stress axis : x y z
#
# Youngs Moduli (GPa) = 103.20400 87.52341 25.82145
#
# Poissons Ratio (x) = 0.15254 0.10098
# Poissons Ratio (y) = 0.17986 0.17297
# Poissons Ratio (z) = 0.40359 0.58628
#
# Static dielectric constant tensor:
#      x y z
#    x 1.996040 0.058240 0.072020 
#    y 0.058240 2.096890 -0.038080 
#    z 0.072020 -0.038080 2.019560 
# 
# From -- ./inp_files/119381.got.cif
#   From: 2010.05.17/outbox.cif.g08.bks.cpg/sg2_60_cif.got.tgz:119381.got - 2010.06.03 11:33:40.
