data_PCOD9003757
_publ_section_title
;
Structure prediction by ZEFSAII (Michael W. Deem and Ramdas Pophale) SiO2 
 PCOD9003757
Probable space group: P -1
;
_chemical_formula_sum "Si O2"
_cell_formula_units_Z 16
_cell_length_a 9.837147
_cell_length_b 6.792615
_cell_length_c 30.520732
_cell_angle_alpha 109.880407
_cell_angle_beta 39.091298
_cell_angle_gamma 132.919373
_cell_volume 859.711201
_symmetry_space_group_name_H-M "P -1"
_symmetry_group_IT_number 2
_symmetry_cell_setting 'triclinic'
loop_
_space_group_symop_operation_xyz
x,y,z
-x,-y,-z
loop_
_atom_site_type_symbol
_atom_site_label
_atom_site_fract_x
_atom_site_fract_y
_atom_site_fract_z
Si Si1 0.662052 0.274172 0.948614
Si Si2 0.286267 0.285585 0.975443
Si Si3 0.795504 0.183304 0.723028
Si Si4 0.296717 0.725299 0.472139
Si Si5 0.338991 0.614372 0.551584
Si Si6 0.169175 0.175688 0.697956
Si Si7 0.783784 0.388950 0.225348
Si Si8 0.842589 0.624108 0.800890
O O1 0.420934 0.207055 0.969682
O O2 0.940390 0.371757 0.858668
O O3 0.783701 0.553174 0.967657
O O4 0.500000 0.000000 0.000000
O O5 0.558819 0.517847 0.890972
O O6 0.000000 0.000000 0.000000
O O7 0.733536 0.352716 0.778469
O O8 0.055800 0.409622 0.639533
O O9 0.934797 0.110453 0.716470
O O10 0.500465 0.893602 0.751132
O O11 0.237628 0.616123 0.528640
O O12 0.562294 0.760879 0.389051
O O13 0.000000 0.500000 0.500000
O O14 0.425126 0.049090 0.465320
O O15 0.500000 0.500000 0.500000
O O16 0.292506 0.456821 0.716089
O O17 0.999121 0.900872 0.751998
O O18 0.916937 0.306951 0.219386
#
# Coordination Sequence:
#
# PCOD9003757 Si02
#       8
#     2   2   2   2   2   2   2   2
#     4  10  21  39  59  89 122 152 201 245 284 354
#     4  10  21  37  62  87 118 158 196 242 295 344
#     4  11  23  40  61  86 123 155 196 246 293 347
#     4  11  26  41  64  89 117 156 199 239 296 353
#     4  11  24  43  61  88 120 152 196 247 290 349
#     4  11  23  40  58  89 119 153 198 243 289 354
#     4  10  24  38  61  89 118 160 195 239 301 345
#     4  10  22  41  58  87 124 153 198 245 289 353
#
# _framework density 18.610901999999999
#
# number of rings (size 3 to 8) (size 9 to 14) (size 15 to 20)
#    0.000    1.500    2.500    1.500    3.500    3.000 
#    0.000    0.000    0.000    0.000    0.000    0.000 
#    0.000    0.000    0.000    0.000    0.000    0.000 
#
# Total GULP energy -89442.228551 kJ/mol
# GULP energy per Si atom -5590.139284 kJ/mol
# Density = 1.856854 g / cm^3
# Si number density = 18.610902 Si / 1000 Ang^3
#
#
#
# Elastic Constant Matrix: (Units=GPa)
#
#
# Indices 1 2 3 4 5 6 
#
# 1 95.4872 71.4526 24.1800 -20.9504 15.3842 19.4524
# 2 71.4526 85.0399 11.4174 -3.9077 -6.4560 22.2202
# 3 24.1800 11.4174 51.5181 7.6711 21.8938 -5.9407
# 4 -20.9504 -3.9077 7.6711 36.5565 -9.2622 6.9525
# 5 15.3842 -6.4560 21.8938 -9.2622 28.3694 -8.4968
# 6 19.4524 22.2202 -5.9407 6.9525 -8.4968 41.1119
#
#
#
# Elastic Compliance Matrix: (Units=1/GPa)
#
#
# Indices 1 2 3 4 5 6 
#
# 1 0.071323 -0.054442 -0.013031 0.032255 -0.036213 -0.019144
# 2 -0.054442 0.059113 -0.002414 -0.014750 0.041373 0.004507
# 3 -0.013031 -0.002414 0.046756 -0.028752 -0.035430 0.011767
# 4 0.032255 -0.014750 -0.028752 0.057462 0.014672 -0.018130
# 5 -0.036213 0.041373 -0.035430 0.014672 0.098703 0.007572
# 6 -0.019144 0.004507 0.011767 -0.018130 0.007572 0.037277
#
#
# Mechanical properties :
#
#
# Convention : Reuss Voigt Hill
#
# Bulk Modulus (GPa) = 26.72579 49.57168 38.14874
# Shear Modulus (GPa) = 9.56240 29.54056 19.55148
#
# Velocity S-wave (km/s) = 2.26919 3.98838 3.24472
# Velocity P-wave (km/s) = 4.61054 6.92122 5.88049
#
# Compressibility (1/GPa) = 0.03741704
#
# Stress axis : x y z
#
# Youngs Moduli (GPa) = 14.02080 16.91683 21.38742
#
# Poissons Ratio (x) = 0.92099 0.27869
# Poissons Ratio (y) = 0.76333 0.05163
# Poissons Ratio (z) = 0.18270 0.04084
#
# Static dielectric constant tensor:
#      x y z
#    x 1.614610 -0.005890 0.011330 
#    y -0.005890 1.611300 0.019340 
#    z 0.011330 0.019340 1.616210 
# 
# From -- ./inp_files/10754.got.cif
#   From: 2010.05.17/outbox.cif.g08.bks.cpg/sg2_6_cif.got.tgz:10754.got - 2010.06.03 11:33:40.
