data_PCOD9003506
_publ_section_title
;
Structure prediction by ZEFSAII (Michael W. Deem and Ramdas Pophale) SiO2 
 PCOD9003506
Probable space group: P -1
;
_chemical_formula_sum "Si O2"
_cell_formula_units_Z 14
_cell_length_a 17.403058
_cell_length_b 9.105356
_cell_length_c 10.847906
_cell_angle_alpha 118.885900
_cell_angle_beta 37.841531
_cell_angle_gamma 143.285088
_cell_volume 575.323243
_symmetry_space_group_name_H-M "P -1"
_symmetry_group_IT_number 2
_symmetry_cell_setting 'triclinic'
loop_
_space_group_symop_operation_xyz
x,y,z
-x,-y,-z
loop_
_atom_site_type_symbol
_atom_site_label
_atom_site_fract_x
_atom_site_fract_y
_atom_site_fract_z
Si Si1 0.917812 0.271044 0.699801
Si Si2 0.550044 0.817314 0.110798
Si Si3 0.080314 0.900256 0.621064
Si Si4 0.170299 0.269007 0.474153
Si Si5 0.410874 0.041892 0.412608
Si Si6 0.153140 0.419349 0.997351
Si Si7 0.158203 0.808229 0.879608
O O1 0.884117 0.428674 0.841399
O O2 0.075303 0.355540 0.630830
O O3 0.987813 0.292255 0.483599
O O4 0.697695 0.954066 0.863475
O O5 0.380307 0.507874 0.235391
O O6 0.444598 0.888171 0.260002
O O7 0.708640 0.993524 0.094045
O O8 0.169142 0.163435 0.557623
O O9 0.251090 0.978662 0.510339
O O10 0.897495 0.740403 0.882218
O O11 0.000000 0.000000 0.500000
O O12 0.325795 0.938194 0.616578
O O13 0.627351 0.355806 0.248129
O O14 0.987322 0.218263 0.020729
O O15 0.000000 0.500000 0.000000
#
# Coordination Sequence:
#
# PCOD9003506 Si02
#       7
#     2   2   2   2   2   2   2
#     4  10  21  38  61  87 118 155 203 243 287 349
#     4  11  23  36  64  93 112 156 203 243 294 341
#     4  10  22  37  57  86 124 159 192 241 293 355
#     4  10  23  40  58  83 122 163 199 237 286 351
#     4  10  22  37  63  91 121 148 196 250 300 344
#     4  10  21  37  60  92 116 157 189 249 301 336
#     4  11  20  37  62  93 118 147 197 250 294 347
#
# _framework density 24.334147000000002
#
# number of rings (size 3 to 8) (size 9 to 14) (size 15 to 20)
#    0.000    1.714    2.857    2.571    0.000    9.143 
#    0.000    2.857    0.000    5.143    0.000    0.000 
#    0.000    0.000    0.000    0.000    0.000    0.000 
#
# Total GULP energy -78245.066013 kJ/mol
# GULP energy per Si atom -5588.933287 kJ/mol
# Density = 2.427876 g / cm^3
# Si number density = 24.334147 Si / 1000 Ang^3
#
#
#
# Elastic Constant Matrix: (Units=GPa)
#
#
# Indices 1 2 3 4 5 6 
#
# 1 92.1778 16.1684 37.3845 -11.2309 14.1518 0.5693
# 2 16.1684 70.5408 39.1194 -26.8756 1.2330 3.6544
# 3 37.3845 39.1194 173.5562 -39.7836 14.6693 -5.3526
# 4 -11.2309 -26.8756 -39.7836 49.7167 1.9691 6.0807
# 5 14.1518 1.2330 14.6693 1.9691 35.2533 -11.3712
# 6 0.5693 3.6544 -5.3526 6.0807 -11.3712 25.3837
#
#
#
# Elastic Compliance Matrix: (Units=1/GPa)
#
#
# Indices 1 2 3 4 5 6 
#
# 1 0.012824 -0.001103 -0.001812 0.001477 -0.005514 -0.003335
# 2 -0.001103 0.019558 -0.002001 0.009586 -0.002012 -0.006411
# 3 -0.001812 -0.002001 0.008010 0.005104 -0.002997 -0.000548
# 4 0.001477 0.009586 0.005104 0.031489 -0.008595 -0.011730
# 5 -0.005514 -0.002012 -0.002997 -0.008595 0.038539 0.019105
# 6 -0.003335 -0.006411 -0.000548 -0.011730 0.019105 0.051646
#
#
# Mechanical properties :
#
#
# Convention : Reuss Voigt Hill
#
# Bulk Modulus (GPa) = 32.72234 57.95771 45.34003
# Shear Modulus (GPa) = 27.45984 38.31090 32.88537
#
# Velocity S-wave (km/s) = 3.36288 3.97213 3.68014
# Velocity P-wave (km/s) = 5.34368 6.70122 6.06058
#
# Compressibility (1/GPa) = 0.03056016
#
# Stress axis : x y z
#
# Youngs Moduli (GPa) = 77.97918 51.12952 124.85033
#
# Poissons Ratio (x) = 0.05637 0.22623
# Poissons Ratio (y) = 0.08597 0.24985
# Poissons Ratio (z) = 0.14130 0.10232
#
# Static dielectric constant tensor:
#      x y z
#    x 1.976250 -0.058510 0.036610 
#    y -0.058510 2.040990 0.018530 
#    z 0.036610 0.018530 1.994050 
# 
# From -- ./inp_files/346021.got.cif
#   From: 2010.05.17/outbox.cif.g08.bks.cpg/sg2_174_cif.got.tgz:346021.got - 2010.06.03 11:33:40.
