data_PCOD9003196
_publ_section_title
;
Structure prediction by ZEFSAII (Michael W. Deem and Ramdas Pophale) SiO2 
 PCOD9003196
Probable space group: P -1
;
_chemical_formula_sum "Si O2"
_cell_formula_units_Z 14
_cell_length_a 9.813787
_cell_length_b 11.303496
_cell_length_c 12.196432
_cell_angle_alpha 38.161115
_cell_angle_beta 125.160901
_cell_angle_gamma 138.367006
_cell_volume 555.142627
_symmetry_space_group_name_H-M "P -1"
_symmetry_group_IT_number 2
_symmetry_cell_setting 'triclinic'
loop_
_space_group_symop_operation_xyz
x,y,z
-x,-y,-z
loop_
_atom_site_type_symbol
_atom_site_label
_atom_site_fract_x
_atom_site_fract_y
_atom_site_fract_z
Si Si1 0.998044 0.242967 0.447220
Si Si2 0.821771 0.090779 0.100742
Si Si3 0.442475 0.769217 0.003867
Si Si4 0.827024 0.754960 0.694387
Si Si5 0.539086 0.900704 0.703762
Si Si6 0.012721 0.277462 0.662238
Si Si7 0.831868 0.570429 0.150522
O O1 0.107702 0.286211 0.583811
O O2 0.912218 0.401345 0.299494
O O3 0.153220 0.312152 0.370086
O O4 0.805595 0.968837 0.538995
O O5 0.938958 0.099009 0.257969
O O6 0.644401 0.890499 0.085163
O O7 0.718051 0.213816 0.011179
O O8 0.021516 0.235386 0.010567
O O9 0.334338 0.490351 0.142748
O O10 0.482344 0.899757 0.809184
O O11 0.408524 0.622487 0.827630
O O12 0.500000 0.000000 0.500000
O O13 0.782667 0.046593 0.718068
O O14 0.000000 0.500000 0.500000
O O15 0.124079 0.300594 0.807635
#
# Coordination Sequence:
#
# PCOD9003196 Si02
#       7
#     2   2   2   2   2   2   2
#     4  10  22  39  63  89 123 162 196 246 307 353
#     4  11  22  38  66  91 116 160 205 250 301 348
#     4  11  23  37  63  92 119 155 206 254 292 360
#     4  11  22  42  61  88 128 159 194 248 307 362
#     4  12  21  33  63  92 115 155 204 244 306 344
#     4  10  21  37  58  89 122 151 202 253 284 354
#     4  11  20  40  64  89 119 155 206 257 289 353
#
# _framework density 25.218745999999999
#
# number of rings (size 3 to 8) (size 9 to 14) (size 15 to 20)
#    0.000    1.143    7.143    1.286    0.000    0.000 
#    0.000    8.571    0.000    0.000    0.000    0.000 
#    0.000    0.000    0.000    0.000    0.000    0.000 
#
# Total GULP energy -78077.378908 kJ/mol
# GULP energy per Si atom -5576.955636 kJ/mol
# Density = 2.516135 g / cm^3
# Si number density = 25.218746 Si / 1000 Ang^3
#
#
#
# Elastic Constant Matrix: (Units=GPa)
#
#
# Indices 1 2 3 4 5 6 
#
# 1 84.3961 40.8096 42.3313 3.7690 -16.7070 -24.0007
# 2 40.8096 159.4441 38.1956 19.8696 -16.2214 6.9203
# 3 42.3313 38.1956 111.9632 11.8163 -20.7891 -2.8704
# 4 3.7690 19.8696 11.8163 41.4164 -9.2958 -16.3167
# 5 -16.7070 -16.2214 -20.7891 -9.2958 36.2416 9.3284
# 6 -24.0007 6.9203 -2.8704 -16.3167 9.3284 45.7618
#
#
#
# Elastic Compliance Matrix: (Units=1/GPa)
#
#
# Indices 1 2 3 4 5 6 
#
# 1 0.022100 -0.005582 -0.006562 0.008870 0.002419 0.014693
# 2 -0.005582 0.008949 -0.000197 -0.006053 0.001506 -0.006758
# 3 -0.006562 -0.000197 0.012571 -0.003837 0.004370 -0.004882
# 4 0.008870 -0.006053 -0.003837 0.034875 0.003748 0.016998
# 5 0.002419 0.001506 0.004370 0.003748 0.033949 -0.004269
# 6 0.014693 -0.006758 -0.004882 0.016998 -0.004269 0.037205
#
#
# Mechanical properties :
#
#
# Convention : Reuss Voigt Hill
#
# Bulk Modulus (GPa) = 52.80285 66.49738 59.65011
# Shear Modulus (GPa) = 27.67890 40.31510 33.99700
#
# Velocity S-wave (km/s) = 3.31653 4.00261 3.67561
# Velocity P-wave (km/s) = 5.97069 6.91279 6.45894
#
# Compressibility (1/GPa) = 0.01893837
#
# Stress axis : x y z
#
# Youngs Moduli (GPa) = 45.24800 111.74958 79.54809
#
# Poissons Ratio (x) = 0.62375 0.52199
# Poissons Ratio (y) = 0.25256 0.01569
# Poissons Ratio (z) = 0.29692 0.02204
#
# Static dielectric constant tensor:
#      x y z
#    x 2.046380 -0.024110 0.097600 
#    y -0.024110 1.965160 0.023750 
#    z 0.097600 0.023750 2.177080 
# 
# From -- ./inp_files/423051.got.cif
#   From: 2010.05.17/outbox.cif.g08.bks.cpg/sg2_212_cif.got.tgz:423051.got - 2010.06.03 11:33:40.
