data_PCOD9003639
_publ_section_title
;
Structure prediction by ZEFSAII (Michael W. Deem and Ramdas Pophale) SiO2 
 PCOD9003639
Probable space group: P -1
;
_chemical_formula_sum "Si O2"
_cell_formula_units_Z 16
_cell_length_a 9.080734
_cell_length_b 13.018624
_cell_length_c 12.847146
_cell_angle_alpha 133.212591
_cell_angle_beta 63.221287
_cell_angle_gamma 130.506822
_cell_volume 841.568424
_symmetry_space_group_name_H-M "P -1"
_symmetry_group_IT_number 2
_symmetry_cell_setting 'triclinic'
loop_
_space_group_symop_operation_xyz
x,y,z
-x,-y,-z
loop_
_atom_site_type_symbol
_atom_site_label
_atom_site_fract_x
_atom_site_fract_y
_atom_site_fract_z
Si Si1 0.294670 0.920077 0.061257
Si Si2 0.941946 0.777760 0.917601
Si Si3 0.795984 0.428893 0.068329
Si Si4 0.823064 0.018729 0.198779
Si Si5 0.938204 0.977091 0.674517
Si Si6 0.343158 0.547309 0.093995
Si Si7 0.978821 0.767010 0.343209
Si Si8 0.430538 0.894914 0.343044
O O1 0.264394 0.751901 0.001655
O O2 0.132059 0.875155 0.995522
O O3 0.500000 0.000000 0.000000
O O4 0.256053 0.034528 0.229512
O O5 0.827981 0.597449 0.882150
O O6 0.030086 0.816874 0.800238
O O7 0.817954 0.866604 0.032918
O O8 0.844640 0.568778 0.236523
O O9 0.682471 0.427290 0.002122
O O10 0.000000 0.500000 0.000000
O O11 0.925047 0.021671 0.277207
O O12 0.609814 0.986639 0.267114
O O13 0.908708 0.838484 0.506391
O O14 0.039058 0.151565 0.701384
O O15 0.412016 0.720010 0.246620
O O16 0.500000 0.500000 0.000000
O O17 0.211224 0.841702 0.340047
O O18 0.500000 0.000000 0.500000
#
# Coordination Sequence:
#
# PCOD9003639 Si02
#       8
#     2   2   2   2   2   2   2   2
#     4  11  23  38  63  93 124 161 210 253 310 373
#     4  10  21  38  61  89 125 163 201 259 309 361
#     4  12  21  40  64  92 121 161 212 259 301 361
#     4  10  21  37  61  90 126 158 205 252 310 367
#     4  10  21  39  61  90 123 165 200 251 316 361
#     4  12  24  39  66  93 124 160 215 259 305 366
#     4  11  22  38  66  90 128 161 208 262 308 358
#     4  12  23  38  64  97 123 162 211 257 306 376
#
# _framework density 19.012119999999999
#
# number of rings (size 3 to 8) (size 9 to 14) (size 15 to 20)
#    0.000    1.000    6.250    0.750    3.500    1.000 
#    0.000    1.250    0.000    0.000    0.000    0.000 
#    0.000    0.000    0.000    0.000    0.000    0.000 
#
# Total GULP energy -89133.435215 kJ/mol
# GULP energy per Si atom -5570.839701 kJ/mol
# Density = 1.896885 g / cm^3
# Si number density = 19.012120 Si / 1000 Ang^3
#
#
#
# Elastic Constant Matrix: (Units=GPa)
#
#
# Indices 1 2 3 4 5 6 
#
# 1 96.8803 35.8910 40.4309 -3.6953 -9.8903 -12.5264
# 2 35.8910 105.6455 50.1791 -11.9433 -9.0512 4.9091
# 3 40.4309 50.1791 125.0301 2.1727 -20.8266 9.5504
# 4 -3.6953 -11.9433 2.1727 29.9125 1.0910 -2.6098
# 5 -9.8903 -9.0512 -20.8266 1.0910 29.6170 -7.8801
# 6 -12.5264 4.9091 9.5504 -2.6098 -7.8801 30.3172
#
#
#
# Elastic Compliance Matrix: (Units=1/GPa)
#
#
# Indices 1 2 3 4 5 6 
#
# 1 0.014516 -0.003210 -0.003481 0.001388 0.003680 0.008690
# 2 -0.003210 0.013208 -0.004336 0.005058 -0.000766 -0.001863
# 3 -0.003481 -0.004336 0.012057 -0.003531 0.005193 -0.003488
# 4 0.001388 0.005058 -0.003531 0.036237 -0.000803 0.003778
# 5 0.003680 -0.000766 0.005193 -0.000803 0.041279 0.010669
# 6 0.008690 -0.001863 -0.003488 0.003778 0.010669 0.041074
#
#
# Mechanical properties :
#
#
# Convention : Reuss Voigt Hill
#
# Bulk Modulus (GPa) = 56.41013 64.50644 60.45829
# Shear Modulus (GPa) = 26.83362 31.37301 29.10331
#
# Velocity S-wave (km/s) = 3.76093 4.06662 3.91676
# Velocity P-wave (km/s) = 6.97097 7.48683 7.23350
#
# Compressibility (1/GPa) = 0.01772731
#
# Stress axis : x y z
#
# Youngs Moduli (GPa) = 68.88968 75.70944 82.94126
#
# Poissons Ratio (x) = 0.24301 0.28870
# Poissons Ratio (y) = 0.22112 0.35966
# Poissons Ratio (z) = 0.23979 0.32830
#
# Static dielectric constant tensor:
#      x y z
#    x 1.662100 0.030600 -0.008180 
#    y 0.030600 1.728750 0.002080 
#    z -0.008180 0.002080 1.689280 
# 
# From -- ./inp_files/259965.got.cif
#   From: 2010.05.17/outbox.cif.g08.bks.cpg/sg2_130_cif.got.tgz:259965.got - 2010.06.03 11:33:40.
