data_PCOD9003568
_publ_section_title
;
Structure prediction by ZEFSAII (Michael W. Deem and Ramdas Pophale) SiO2 
 PCOD9003568
Probable space group: P -1
;
_chemical_formula_sum "Si O2"
_cell_formula_units_Z 14
_cell_length_a 8.694769
_cell_length_b 14.149403
_cell_length_c 14.439567
_cell_angle_alpha 159.610482
_cell_angle_beta 71.692443
_cell_angle_gamma 109.721015
_cell_volume 582.598363
_symmetry_space_group_name_H-M "P -1"
_symmetry_group_IT_number 2
_symmetry_cell_setting 'triclinic'
loop_
_space_group_symop_operation_xyz
x,y,z
-x,-y,-z
loop_
_atom_site_type_symbol
_atom_site_label
_atom_site_fract_x
_atom_site_fract_y
_atom_site_fract_z
Si Si1 0.617862 0.900492 0.135270
Si Si2 0.655794 0.338621 0.812230
Si Si3 0.604762 0.622238 0.363468
Si Si4 0.817929 0.042182 0.044700
Si Si5 0.194146 0.373022 0.493929
Si Si6 0.127460 0.859630 0.545810
Si Si7 0.789228 0.814331 0.340387
O O1 0.516598 0.154576 0.397094
O O2 0.704323 0.923298 0.040465
O O3 0.755714 0.937270 0.222939
O O4 0.487883 0.629620 0.907950
O O5 0.750930 0.347158 0.704897
O O6 0.643872 0.015335 0.541693
O O7 0.500000 0.500000 0.000000
O O8 0.775633 0.514522 0.022588
O O9 0.666504 0.547761 0.383712
O O10 0.764902 0.747047 0.390386
O O11 0.815769 0.363232 0.324864
O O12 0.773341 0.878663 0.808104
O O13 0.000000 0.000000 0.000000
O O14 0.024195 0.280301 0.495551
O O15 0.088768 0.010995 0.594982
#
# Coordination Sequence:
#
# PCOD9003568 Si02
#       7
#     2   2   2   2   2   2   2
#     4  12  27  45  76 108 139 188 248 295 364 410
#     4  10  21  37  61 102 138 184 231 296 330 401
#     4  12  28  46  71 111 149 191 229 296 362 441
#     4  12  27  50  79 108 136 183 247 311 348 427
#     4  12  28  50  74 106 150 186 239 293 371 425
#     4  10  27  41  76 105 141 194 240 292 343 422
#     4  10  24  40  66 103 148 185 236 282 353 412
#
# _framework density 24.030279
#
# number of rings (size 3 to 8) (size 9 to 14) (size 15 to 20)
#    0.857    0.000    1.429    4.286   10.000    4.000 
#    0.000    0.714    0.000    0.000    0.000    0.000 
#    0.000    0.000    0.000    0.000    0.000    0.000 
#
# Total GULP energy -78164.526905 kJ/mol
# GULP energy per Si atom -5583.180493 kJ/mol
# Density = 2.397559 g / cm^3
# Si number density = 24.030279 Si / 1000 Ang^3
#
#
#
# Elastic Constant Matrix: (Units=GPa)
#
#
# Indices 1 2 3 4 5 6 
#
# 1 -6.6069 -21.9431 9.7864 46.2643 -31.6926 38.4401
# 2 -21.9431 98.5168 2.0155 14.3526 -44.1473 45.1637
# 3 9.7864 2.0155 123.4030 2.9666 -9.6495 8.8424
# 4 46.2643 14.3526 2.9666 16.6615 38.7164 -23.7629
# 5 -31.6926 -44.1473 -9.6495 38.7164 -40.1445 23.6142
# 6 38.4401 45.1637 8.8424 -23.7629 23.6142 18.7022
#
#
#
# Elastic Compliance Matrix: (Units=1/GPa)
#
#
# Indices 1 2 3 4 5 6 
#
# 1 -0.642496 0.045317 0.086735 0.227285 0.868711 0.362048
# 2 0.045317 0.005058 -0.006618 -0.011861 -0.068965 -0.030223
# 3 0.086735 -0.006618 -0.003659 -0.030008 -0.118281 -0.049342
# 4 0.227285 -0.011861 -0.030008 -0.059661 -0.293166 -0.129968
# 5 0.868711 -0.068965 -0.118281 -0.293166 -1.163549 -0.466416
# 6 0.362048 -0.030223 -0.049342 -0.129968 -0.466416 -0.170586
#
#
# Mechanical properties :
#
#
# Convention : Reuss Voigt Hill
#
# Bulk Modulus (GPa) = -2.56260 21.67004 9.55372
# Shear Modulus (GPa) = -2.06968 14.07411 6.00222
#
# Velocity S-wave (km/s) = -0.92906 2.42271 1.58215
# Velocity P-wave (km/s) = 1.48983 4.10651 2.70591
#
# Compressibility (1/GPa) = -0.39022892
#
# Stress axis : x y z
#
# Youngs Moduli (GPa) = -1.55643 197.70061 -273.30638
#
# Poissons Ratio (x) = -8.95928 23.70528
# Poissons Ratio (y) = 0.07053 -1.80888
# Poissons Ratio (z) = 0.13500 1.30848
#
# Static dielectric constant tensor:
#      x y z
#    x 1.996150 0.004370 0.034500 
#    y 0.004370 1.927490 -0.000300 
#    z 0.034500 -0.000300 1.874440 
# 
# From -- ./inp_files/503432.got.cif
#   From: 2010.05.17/outbox.cif.g08.bks.cpg/sg2_252_cif.got.tgz:503432.got - 2010.06.03 11:33:40.
