data_PCOD9003305
_publ_section_title
;
Structure prediction by ZEFSAII (Michael W. Deem and Ramdas Pophale) SiO2 
 PCOD9003305
Probable space group: P -1
;
_chemical_formula_sum "Si O2"
_cell_formula_units_Z 16
_cell_length_a 15.362140
_cell_length_b 13.271895
_cell_length_c 12.406578
_cell_angle_alpha 120.711449
_cell_angle_beta 44.447450
_cell_angle_gamma 155.566449
_cell_volume 642.463419
_symmetry_space_group_name_H-M "P -1"
_symmetry_group_IT_number 2
_symmetry_cell_setting 'triclinic'
loop_
_space_group_symop_operation_xyz
x,y,z
-x,-y,-z
loop_
_atom_site_type_symbol
_atom_site_label
_atom_site_fract_x
_atom_site_fract_y
_atom_site_fract_z
Si Si1 0.983673 0.397034 0.113533
Si Si2 0.145281 0.453082 0.763633
Si Si3 0.763311 0.818286 0.950050
Si Si4 0.244043 0.079829 0.749331
Si Si5 0.388524 0.771399 0.390001
Si Si6 0.793876 0.920786 0.749722
Si Si7 0.104283 0.452547 0.251998
Si Si8 0.642421 0.738567 0.555713
O O1 0.931567 0.489148 0.188981
O O2 0.224473 0.588231 0.100912
O O3 0.687193 0.086289 0.253938
O O4 0.052033 0.392538 0.938358
O O5 0.491949 0.715576 0.610481
O O6 0.974742 0.196227 0.722575
O O7 0.707714 0.851477 0.913487
O O8 0.500000 0.500000 0.000000
O O9 0.750555 0.863543 0.104109
O O10 0.100369 0.053471 0.783569
O O11 0.546325 0.262327 0.587099
O O12 0.007587 0.774557 0.782290
O O13 0.156409 0.673566 0.569914
O O14 0.272322 0.605204 0.297977
O O15 0.582795 0.711209 0.721406
O O16 0.011042 0.991876 0.600956
O O17 0.500000 0.500000 0.500000
#
# Coordination Sequence:
#
# PCOD9003305 Si02
#       8
#     2   2   2   2   2   2   2   2
#     4  10  21  37  59  88 118 151 195 240 289 347
#     4  10  22  38  59  86 115 153 196 241 290 341
#     4  11  24  38  60  92 120 154 195 241 297 353
#     4  10  21  38  57  86 122 154 192 235 289 348
#     4  10  21  38  61  89 120 155 194 237 292 351
#     4  10  21  40  61  84 116 153 197 240 290 349
#     4  10  21  39  61  87 120 156 191 239 295 349
#     4   9  21  40  60  81 111 154 196 241 290 337
#
# _framework density 24.904142
#
# number of rings (size 3 to 8) (size 9 to 14) (size 15 to 20)
#    0.000    2.000    0.000    3.750    0.000   11.000 
#    0.000   13.750    0.000    0.000    0.000    0.000 
#    0.000    0.000    0.000    0.000    0.000    0.000 
#
# Total GULP energy -89293.378402 kJ/mol
# GULP energy per Si atom -5580.836150 kJ/mol
# Density = 2.484746 g / cm^3
# Si number density = 24.904142 Si / 1000 Ang^3
#
#
#
# Elastic Constant Matrix: (Units=GPa)
#
#
# Indices 1 2 3 4 5 6 
#
# 1 150.2845 48.8990 1.7226 10.5355 -18.1349 37.8482
# 2 48.8990 132.9393 15.1938 38.0177 4.7888 24.3584
# 3 1.7226 15.1938 75.9539 24.7993 -3.9743 8.5870
# 4 10.5355 38.0177 24.7993 37.8191 8.0229 5.1198
# 5 -18.1349 4.7888 -3.9743 8.0229 39.3895 5.3011
# 6 37.8482 24.3584 8.5870 5.1198 5.3011 40.8184
#
#
#
# Elastic Compliance Matrix: (Units=1/GPa)
#
#
# Indices 1 2 3 4 5 6 
#
# 1 0.010913 -0.001808 0.002713 -0.003224 0.007545 -0.010187
# 2 -0.001808 0.012573 0.002515 -0.013399 0.001273 -0.004840
# 3 0.002713 0.002515 0.019108 -0.016393 0.007140 -0.006907
# 4 -0.003224 -0.013399 -0.016393 0.053157 -0.013620 0.009535
# 5 0.007545 0.001273 0.007140 -0.013620 0.033808 -0.011941
# 6 -0.010187 -0.004840 -0.006907 0.009535 -0.011941 0.038640
#
#
# Mechanical properties :
#
#
# Convention : Reuss Voigt Hill
#
# Bulk Modulus (GPa) = 20.22901 54.53428 37.38165
# Shear Modulus (GPa) = 28.11565 43.16289 35.63927
#
# Velocity S-wave (km/s) = 3.36364 4.16764 3.78704
# Velocity P-wave (km/s) = 4.81931 6.71597 5.84508
#
# Compressibility (1/GPa) = 0.04943395
#
# Stress axis : x y z
#
# Youngs Moduli (GPa) = 91.63360 79.53863 52.33343
#
# Poissons Ratio (x) = 0.14378 -0.14199
# Poissons Ratio (y) = 0.16564 -0.13160
# Poissons Ratio (z) = -0.24861 -0.20001
#
# Static dielectric constant tensor:
#      x y z
#    x 2.028830 0.067410 -0.014940 
#    y 0.067410 1.935070 -0.056030 
#    z -0.014940 -0.056030 2.170080 
# 
# From -- ./inp_files/538732.got.cif
#   From: 2010.05.17/outbox.cif.g08.bks.cpg/sg2_270_cif.got.tgz:538732.got - 2010.06.03 11:33:40.
