data_PCOD9003838
_publ_section_title
;
Structure prediction by ZEFSAII (Michael W. Deem and Ramdas Pophale) SiO2 
 PCOD9003838
Probable space group: P -1
;
_chemical_formula_sum "Si O2"
_cell_formula_units_Z 14
_cell_length_a 8.540926
_cell_length_b 15.458853
_cell_length_c 7.762827
_cell_angle_alpha 89.145501
_cell_angle_beta 98.303770
_cell_angle_gamma 40.619422
_cell_volume 647.823120
_symmetry_space_group_name_H-M "P -1"
_symmetry_group_IT_number 2
_symmetry_cell_setting 'triclinic'
loop_
_space_group_symop_operation_xyz
x,y,z
-x,-y,-z
loop_
_atom_site_type_symbol
_atom_site_label
_atom_site_fract_x
_atom_site_fract_y
_atom_site_fract_z
Si Si1 0.488152 0.387466 0.504366
Si Si2 0.815041 0.588240 0.123864
Si Si3 0.940127 0.305606 0.567163
Si Si4 0.570523 0.839732 0.927346
Si Si5 0.134241 0.124928 0.934350
Si Si6 0.768033 0.679274 0.608600
Si Si7 0.414102 0.623345 0.076144
O O1 0.738876 0.319945 0.457287
O O2 0.248008 0.540972 0.394336
O O3 0.422716 0.313235 0.493332
O O4 0.523369 0.400558 0.709098
O O5 0.581148 0.629667 0.033236
O O6 0.974662 0.480766 0.305960
O O7 0.713024 0.727768 0.104683
O O8 0.000000 0.500000 0.000000
O O9 0.076440 0.194215 0.739605
O O10 0.133411 0.277752 0.480590
O O11 0.638460 0.765322 0.761953
O O12 0.284744 0.974234 0.925794
O O13 0.689668 0.884435 0.933144
O O14 0.873670 0.233519 0.986644
O O15 0.500000 0.500000 0.000000
#
# Coordination Sequence:
#
# PCOD9003838 Si02
#       7
#     2   2   2   2   2   2   2
#     4  10  22  36  61  99 123 155 203 268 316 359
#     4  10  21  37  62  93 120 159 207 254 307 363
#     4  10  21  38  64  90 130 156 205 263 314 363
#     4  10  23  42  61  87 128 169 205 250 310 374
#     4  10  23  42  61  88 127 167 207 250 309 378
#     4  11  21  40  66  95 123 160 212 259 315 368
#     4  11  22  39  63  93 124 157 208 257 313 370
#
# _framework density 21.610838000000001
#
# number of rings (size 3 to 8) (size 9 to 14) (size 15 to 20)
#    0.000    1.714    1.429    3.000    2.000    6.857 
#    0.000    2.857    0.000    0.000    0.000    0.000 
#    0.000    0.000    0.000    0.000    0.000    0.000 
#
# Total GULP energy -78050.300485 kJ/mol
# GULP energy per Si atom -5575.021463 kJ/mol
# Density = 2.156165 g / cm^3
# Si number density = 21.610838 Si / 1000 Ang^3
#
#
#
# Elastic Constant Matrix: (Units=GPa)
#
#
# Indices 1 2 3 4 5 6 
#
# 1 149.9777 39.4295 9.2888 21.7000 0.5041 -16.2050
# 2 39.4295 140.9001 32.4468 6.3525 5.7591 -17.1838
# 3 9.2888 32.4468 53.1240 9.4622 3.9395 -1.1407
# 4 21.7000 6.3525 9.4622 27.4255 6.5214 1.7486
# 5 0.5041 5.7591 3.9395 6.5214 33.2139 1.6600
# 6 -16.2050 -17.1838 -1.1407 1.7486 1.6600 28.4118
#
#
#
# Elastic Compliance Matrix: (Units=1/GPa)
#
#
# Indices 1 2 3 4 5 6 
#
# 1 0.008592 -0.001824 0.000900 -0.007262 0.001295 0.004205
# 2 -0.001824 0.009405 -0.005438 0.001195 -0.001415 0.004439
# 3 0.000900 -0.005438 0.023287 -0.007321 -0.000327 -0.001371
# 4 -0.007262 0.001195 -0.007321 0.046776 -0.008107 -0.006119
# 5 0.001295 -0.001415 -0.000327 -0.008107 0.032039 -0.001503
# 6 0.004205 0.004439 -0.001371 -0.006119 -0.001503 0.040689
#
#
# Mechanical properties :
#
#
# Convention : Reuss Voigt Hill
#
# Bulk Modulus (GPa) = 35.01525 56.25911 45.63718
# Shear Modulus (GPa) = 27.31737 35.33267 31.32502
#
# Velocity S-wave (km/s) = 3.55922 4.04784 3.81137
# Velocity P-wave (km/s) = 5.75574 6.92358 6.36650
#
# Compressibility (1/GPa) = 0.02855899
#
# Stress axis : x y z
#
# Youngs Moduli (GPa) = 116.38300 106.32233 42.94261
#
# Poissons Ratio (x) = 0.19397 -0.03864
# Poissons Ratio (y) = 0.21232 0.23353
# Poissons Ratio (z) = -0.10471 0.57819
#
# Static dielectric constant tensor:
#      x y z
#    x 1.852820 -0.073510 -0.023610 
#    y -0.073510 1.550350 -0.058180 
#    z -0.023610 -0.058180 1.842500 
# 
# From -- ./inp_files/207362.got.cif
#   From: 2010.05.17/outbox.cif.g08.bks.cpg/sg2_104_cif.got.tgz:207362.got - 2010.06.03 11:33:40.
