data_PCOD9003502
_publ_section_title
;
Structure prediction by ZEFSAII (Michael W. Deem and Ramdas Pophale) SiO2 
 PCOD9003502
Probable space group: P -1
;
_chemical_formula_sum "Si O2"
_cell_formula_units_Z 14
_cell_length_a 8.311197
_cell_length_b 14.790363
_cell_length_c 8.371600
_cell_angle_alpha 82.841559
_cell_angle_beta 106.849416
_cell_angle_gamma 134.217537
_cell_volume 701.355608
_symmetry_space_group_name_H-M "P -1"
_symmetry_group_IT_number 2
_symmetry_cell_setting 'triclinic'
loop_
_space_group_symop_operation_xyz
x,y,z
-x,-y,-z
loop_
_atom_site_type_symbol
_atom_site_label
_atom_site_fract_x
_atom_site_fract_y
_atom_site_fract_z
Si Si1 0.717705 0.201427 0.780431
Si Si2 0.709417 0.227090 0.119026
Si Si3 0.218785 0.939943 0.680305
Si Si4 0.279763 0.183773 0.313231
Si Si5 0.854950 0.075324 0.690230
Si Si6 0.777535 0.856268 0.024974
Si Si7 0.791765 0.350110 0.461968
O O1 0.778779 0.117461 0.793653
O O2 0.808412 0.287025 0.630156
O O3 0.432590 0.091522 0.721697
O O4 0.815753 0.277479 0.959337
O O5 0.725582 0.125903 0.181274
O O6 0.792847 0.306903 0.291202
O O7 0.449163 0.167394 0.027095
O O8 0.204246 0.903726 0.500634
O O9 0.962267 0.883341 0.655899
O O10 0.536546 0.301092 0.425498
O O11 0.276790 0.071692 0.320727
O O12 0.265312 0.222608 0.123988
O O13 0.126911 0.155799 0.787167
O O14 0.000000 0.000000 0.000000
O O15 0.000000 0.500000 0.500000
#
# Coordination Sequence:
#
# PCOD9003502 Si02
#       7
#     2   2   2   2   2   2   2
#     4  12  22  38  66  92 129 164 198 255 317 369
#     4  11  24  40  63  95 126 162 205 254 313 373
#     4  12  21  36  64 101 129 156 200 254 321 378
#     4  10  21  37  60  91 130 161 201 252 312 369
#     4  11  20  34  61  96 130 158 194 250 318 377
#     4   9  18  33  53  87 128 157 190 239 305 377
#     4  11  25  45  63  87 123 169 216 257 297 361
#
# _framework density 19.961344
#
# number of rings (size 3 to 8) (size 9 to 14) (size 15 to 20)
#    0.000    1.143    2.857    6.429    2.000    0.571 
#    0.000    0.714    0.000    4.286    0.000    0.000 
#    0.000    0.000    0.000    0.000    0.000    0.000 
#
# Total GULP energy -77958.210829 kJ/mol
# GULP energy per Si atom -5568.443631 kJ/mol
# Density = 1.991591 g / cm^3
# Si number density = 19.961344 Si / 1000 Ang^3
#
#
#
# Elastic Constant Matrix: (Units=GPa)
#
#
# Indices 1 2 3 4 5 6 
#
# 1 88.9902 39.8320 22.7542 9.3863 -10.2078 9.0036
# 2 39.8320 96.6127 37.6392 10.5938 1.7688 7.9165
# 3 22.7542 37.6392 145.2896 -4.0708 -12.4151 -5.6944
# 4 9.3863 10.5938 -4.0708 13.9732 2.2942 0.9914
# 5 -10.2078 1.7688 -12.4151 2.2942 37.2347 4.8381
# 6 9.0036 7.9165 -5.6944 0.9914 4.8381 9.8355
#
#
#
# Elastic Compliance Matrix: (Units=1/GPa)
#
#
# Indices 1 2 3 4 5 6 
#
# 1 0.016822 -0.004101 -0.001851 -0.008731 0.006756 -0.015613
# 2 -0.004101 0.015459 -0.004114 -0.009259 -0.001434 -0.009431
# 3 -0.001851 -0.004114 0.008856 0.006126 0.001097 0.008976
# 4 -0.008731 -0.009259 0.006126 0.086414 -0.007020 0.013735
# 5 0.006756 -0.001434 0.001097 -0.007020 0.032106 -0.019480
# 6 -0.015613 -0.009431 0.008976 0.013735 -0.019480 0.136952
#
#
# Mechanical properties :
#
#
# Convention : Reuss Voigt Hill
#
# Bulk Modulus (GPa) = 47.61208 59.03815 53.32512
# Shear Modulus (GPa) = 15.44440 27.58646 21.51543
#
# Velocity S-wave (km/s) = 2.78459 3.72155 3.28663
# Velocity P-wave (km/s) = 5.85171 6.93592 6.41676
#
# Compressibility (1/GPa) = 0.02100307
#
# Stress axis : x y z
#
# Youngs Moduli (GPa) = 59.44687 64.68906 112.92100
#
# Poissons Ratio (x) = 0.26529 0.20906
# Poissons Ratio (y) = 0.24379 0.46457
# Poissons Ratio (z) = 0.11006 0.26614
#
# Static dielectric constant tensor:
#      x y z
#    x 1.796820 0.020260 -0.013390 
#    y 0.020260 1.684180 -0.009360 
#    z -0.013390 -0.009360 1.830330 
# 
# From -- ./inp_files/201546.got.cif
#   From: 2010.05.17/outbox.cif.g08.bks.cpg/sg2_101_cif.got.tgz:201546.got - 2010.06.03 11:33:40.
