data_PCOD9003158
_publ_section_title
;
Structure prediction by ZEFSAII (Michael W. Deem and Ramdas Pophale) SiO2 
 PCOD9003158
Probable space group: P -1
;
_chemical_formula_sum "Si O2"
_cell_formula_units_Z 14
_cell_length_a 11.005531
_cell_length_b 23.287329
_cell_length_c 5.065859
_cell_angle_alpha 120.043939
_cell_angle_beta 53.074715
_cell_angle_gamma 150.302811
_cell_volume 513.458664
_symmetry_space_group_name_H-M "P -1"
_symmetry_group_IT_number 2
_symmetry_cell_setting 'triclinic'
loop_
_space_group_symop_operation_xyz
x,y,z
-x,-y,-z
loop_
_atom_site_type_symbol
_atom_site_label
_atom_site_fract_x
_atom_site_fract_y
_atom_site_fract_z
Si Si1 0.376991 0.627664 0.632646
Si Si2 0.993131 0.930392 0.114935
Si Si3 0.552598 0.824260 0.151227
Si Si4 0.568716 0.569004 0.825410
Si Si5 0.989425 0.836016 0.388506
Si Si6 0.071642 0.449882 0.074733
Si Si7 0.875962 0.239707 0.676535
O O1 0.679318 0.707379 0.426769
O O2 0.180195 0.508095 0.775404
O O3 0.428808 0.711785 0.949576
O O4 0.179492 0.596939 0.622961
O O5 0.997231 0.883087 0.749595
O O6 0.203667 0.063499 0.092076
O O7 0.698862 0.858183 0.312936
O O8 0.067880 0.911929 0.221594
O O9 0.345860 0.810392 0.346539
O O10 0.500000 0.500000 0.500000
O O11 0.354245 0.551162 0.092681
O O12 0.873904 0.695538 0.676256
O O13 0.500000 0.500000 0.000000
O O14 0.163128 0.833901 0.234241
O O15 0.968484 0.337506 0.944964
#
# Coordination Sequence:
#
# PCOD9003158 Si02
#       7
#     2   2   2   2   2   2   2
#     4   9  18  36  64  90 125 165 209 252 309 376
#     4  10  24  44  66  92 127 166 215 268 314 379
#     4   9  21  42  65  92 126 169 215 263 320 374
#     4  10  21  37  58  86 122 161 201 247 301 362
#     4  11  23  41  66  97 127 165 212 263 323 373
#     4   9  18  37  60  92 126 166 206 251 306 378
#     4  10  21  39  64  96 130 167 209 262 320 379
#
# _framework density 27.266072000000001
#
# number of rings (size 3 to 8) (size 9 to 14) (size 15 to 20)
#    0.000    2.286    1.429    0.000    0.000    9.714 
#    0.000    5.714    0.000    8.571    0.000    0.000 
#    0.000    0.000    0.000    0.000    0.000    0.000 
#
# Total GULP energy -78283.828056 kJ/mol
# GULP energy per Si atom -5591.702004 kJ/mol
# Density = 2.720401 g / cm^3
# Si number density = 27.266072 Si / 1000 Ang^3
#
#
#
# Elastic Constant Matrix: (Units=GPa)
#
#
# Indices 1 2 3 4 5 6 
#
# 1 202.5461 12.7565 42.7820 -0.8785 -28.4579 -22.9048
# 2 12.7565 90.0328 5.7588 4.2732 1.9008 -13.7938
# 3 42.7820 5.7588 33.6042 -6.6235 -10.2458 2.0642
# 4 -0.8785 4.2732 -6.6235 32.5244 -1.1431 2.5860
# 5 -28.4579 1.9008 -10.2458 -1.1431 63.6832 -4.6071
# 6 -22.9048 -13.7938 2.0642 2.5860 -4.6071 56.8580
#
#
#
# Elastic Compliance Matrix: (Units=1/GPa)
#
#
# Indices 1 2 3 4 5 6 
#
# 1 0.007720 0.000167 -0.009853 -0.002046 0.002096 0.003771
# 2 0.000167 0.011891 -0.003110 -0.002461 -0.000599 0.003128
# 3 -0.009853 -0.003110 0.046101 0.010157 0.002810 -0.006632
# 4 -0.002046 -0.002461 0.010157 0.033379 0.001160 -0.003214
# 5 0.002096 -0.000599 0.002810 0.001160 0.017270 0.001944
# 6 0.003771 0.003128 -0.006632 -0.003214 0.001944 0.020410
#
#
# Mechanical properties :
#
#
# Convention : Reuss Voigt Hill
#
# Bulk Modulus (GPa) = 24.92529 49.86421 37.39475
# Shear Modulus (GPa) = 28.45174 48.27217 38.36195
#
# Velocity S-wave (km/s) = 3.23381 4.21219 3.75500
# Velocity P-wave (km/s) = 4.80673 6.47954 5.70478
#
# Compressibility (1/GPa) = 0.04011990
#
# Stress axis : x y z
#
# Youngs Moduli (GPa) = 129.53839 84.09669 21.69160
#
# Poissons Ratio (x) = -0.01405 0.21372
# Poissons Ratio (y) = -0.02164 0.06746
# Poissons Ratio (z) = 1.27631 0.26155
#
# Static dielectric constant tensor:
#      x y z
#    x 2.224620 0.073970 0.057550 
#    y 0.073970 2.127390 0.074980 
#    z 0.057550 0.074980 2.429890 
# 
# From -- ./inp_files/84078.got.cif
#   From: 2010.05.17/outbox.cif.g08.bks.cpg/sg2_43_cif.got.tgz:84078.got - 2010.06.03 11:33:40.
