data_PCOD9003545
_publ_section_title
;
Structure prediction by ZEFSAII (Michael W. Deem and Ramdas Pophale) SiO2 
 PCOD9003545
Probable space group: P -1
;
_chemical_formula_sum "Si O2"
_cell_formula_units_Z 16
_cell_length_a 31.181776
_cell_length_b 6.578001
_cell_length_c 12.709873
_cell_angle_alpha 43.937159
_cell_angle_beta 24.648604
_cell_angle_gamma 39.764936
_cell_volume 693.187539
_symmetry_space_group_name_H-M "P -1"
_symmetry_group_IT_number 2
_symmetry_cell_setting 'triclinic'
loop_
_space_group_symop_operation_xyz
x,y,z
-x,-y,-z
loop_
_atom_site_type_symbol
_atom_site_label
_atom_site_fract_x
_atom_site_fract_y
_atom_site_fract_z
Si Si1 0.834071 0.818328 0.206016
Si Si2 0.707706 0.751385 0.328836
Si Si3 0.676567 0.116162 0.633270
Si Si4 0.564242 0.434614 0.071908
Si Si5 0.464717 0.684587 0.400910
Si Si6 0.770721 0.930159 0.708113
Si Si7 0.655930 0.766443 0.201010
Si Si8 0.023114 0.933239 0.848618
O O1 0.794701 0.855468 0.158786
O O2 0.905273 0.440442 0.193236
O O3 0.730907 0.919453 0.480709
O O4 0.910663 0.000714 0.007313
O O5 0.729195 0.383803 0.428317
O O6 0.692832 0.832925 0.208662
O O7 0.594564 0.951930 0.570129
O O8 0.543526 0.327844 0.839096
O O9 0.720537 0.900700 0.718177
O O10 0.556876 0.613259 0.132187
O O11 0.560599 0.094024 0.244644
O O12 0.683902 0.289498 0.803157
O O13 0.500000 0.500000 0.500000
O O14 0.381323 0.526662 0.600899
O O15 0.896863 0.894349 0.430399
O O16 0.751514 0.708719 0.922498
O O17 0.000000 0.000000 0.000000
#
# Coordination Sequence:
#
# PCOD9003545 Si02
#       8
#     2   2   2   2   2   2   2   2
#     4  11  23  38  73  95 117 168 227 262 312 392
#     4  12  21  38  67  92 129 173 221 258 302 393
#     4  12  21  42  63  98 132 162 214 264 322 378
#     4  10  21  37  60  94 136 168 202 256 316 383
#     4  12  20  37  62  93 127 187 215 240 311 396
#     4  10  23  41  63  95 134 169 203 274 328 366
#     4  10  23  40  60  90 140 172 209 259 317 379
#     4  11  22  46  67  93 126 167 215 270 328 377
#
# _framework density 23.081776000000001
#
# number of rings (size 3 to 8) (size 9 to 14) (size 15 to 20)
#    0.750    0.250    6.250    1.500    0.000    0.000 
#    4.500    1.875    0.000    5.250    0.000    0.000 
#    0.000    0.000    0.000    0.000    0.000    0.000 
#
# Total GULP energy -89316.252713 kJ/mol
# GULP energy per Si atom -5582.265795 kJ/mol
# Density = 2.302924 g / cm^3
# Si number density = 23.081776 Si / 1000 Ang^3
#
#
#
# Elastic Constant Matrix: (Units=GPa)
#
#
# Indices 1 2 3 4 5 6 
#
# 1 171.5355 4.2992 40.9549 -9.6149 9.9360 28.0688
# 2 4.2992 74.9369 11.1064 6.5290 6.3879 20.3057
# 3 40.9549 11.1064 101.3587 1.0426 11.9501 16.3784
# 4 -9.6149 6.5290 1.0426 28.4941 7.6557 -2.1089
# 5 9.9360 6.3879 11.9501 7.6557 35.4583 1.6876
# 6 28.0688 20.3057 16.3784 -2.1089 1.6876 26.2898
#
#
#
# Elastic Compliance Matrix: (Units=1/GPa)
#
#
# Indices 1 2 3 4 5 6 
#
# 1 0.007852 0.002137 -0.001798 0.002134 -0.002030 -0.008612
# 2 0.002137 0.018265 0.000135 -0.004095 -0.002258 -0.016656
# 3 -0.001798 0.000135 0.011824 -0.000634 -0.003111 -0.005402
# 4 0.002134 -0.004095 -0.000634 0.039399 -0.008390 0.004979
# 5 -0.002030 -0.002258 -0.003111 -0.008390 0.031889 0.003130
# 6 -0.008612 -0.016656 -0.005402 0.004979 0.003130 0.063661
#
#
# Mechanical properties :
#
#
# Convention : Reuss Voigt Hill
#
# Bulk Modulus (GPa) = 25.71469 51.17246 38.44357
# Shear Modulus (GPa) = 27.04102 37.47980 32.26041
#
# Velocity S-wave (km/s) = 3.42648 4.03399 3.74258
# Velocity P-wave (km/s) = 5.17873 6.62689 5.94705
#
# Compressibility (1/GPa) = 0.03888828
#
# Stress axis : x y z
#
# Youngs Moduli (GPa) = 127.36040 54.75083 84.57496
#
# Poissons Ratio (x) = -0.11699 0.15204
# Poissons Ratio (y) = -0.27213 -0.01142
# Poissons Ratio (z) = 0.22896 -0.00739
#
# Static dielectric constant tensor:
#      x y z
#    x 1.927320 0.002330 -0.040390 
#    y 0.002330 1.879880 0.028750 
#    z -0.040390 0.028750 1.927910 
# 
# From -- ./inp_files/477311.got.cif
#   From: 2010.05.17/outbox.cif.g08.bks.cpg/sg2_239_cif.got.tgz:477311.got - 2010.06.03 11:33:40.
