data_PCOD9003721
_publ_section_title
;
Structure prediction by ZEFSAII (Michael W. Deem and Ramdas Pophale) SiO2 
 PCOD9003721
Probable space group: P -1
;
_chemical_formula_sum "Si O2"
_cell_formula_units_Z 16
_cell_length_a 12.297377
_cell_length_b 13.050486
_cell_length_c 8.384538
_cell_angle_alpha 105.329425
_cell_angle_beta 125.001287
_cell_angle_gamma 50.289515
_cell_volume 836.728338
_symmetry_space_group_name_H-M "P -1"
_symmetry_group_IT_number 2
_symmetry_cell_setting 'triclinic'
loop_
_space_group_symop_operation_xyz
x,y,z
-x,-y,-z
loop_
_atom_site_type_symbol
_atom_site_label
_atom_site_fract_x
_atom_site_fract_y
_atom_site_fract_z
Si Si1 0.563808 0.392019 0.149274
Si Si2 0.125784 0.341057 0.980420
Si Si3 0.083336 0.777214 0.773117
Si Si4 0.100308 0.729620 0.138390
Si Si5 0.035707 0.584765 0.460884
Si Si6 0.654044 0.517722 0.529971
Si Si7 0.511253 0.740924 0.737761
Si Si8 0.126418 0.940730 0.432212
O O1 0.749594 0.266708 0.197490
O O2 0.576858 0.460615 0.342107
O O3 0.466440 0.337995 0.111687
O O4 0.500000 0.500000 0.000000
O O5 0.091955 0.345129 0.765328
O O6 0.067817 0.259215 0.978390
O O7 0.322204 0.269494 0.142607
O O8 0.000000 0.500000 0.000000
O O9 0.034921 0.690297 0.611916
O O10 0.126588 0.737486 0.977615
O O11 0.939543 0.935124 0.690461
O O12 0.236397 0.585849 0.277519
O O13 0.108973 0.835067 0.287045
O O14 0.000000 0.500000 0.500000
O O15 0.217774 0.489464 0.487894
O O16 0.523707 0.660588 0.558105
O O17 0.316821 0.873000 0.622427
O O18 0.000000 0.000000 0.500000
#
# Coordination Sequence:
#
# PCOD9003721 Si02
#       8
#     2   2   2   2   2   2   2   2
#     4  11  23  36  63  98 129 158 220 276 327 372
#     4  11  22  39  64  98 129 168 207 268 337 385
#     4  11  24  42  65  95 126 175 217 268 320 393
#     4  11  22  43  69  91 132 169 221 265 332 383
#     4  10  21  38  64  95 132 164 206 269 331 380
#     4  10  21  37  61  97 124 167 209 273 322 377
#     4  12  23  39  67  93 132 171 219 263 330 385
#     4  12  24  46  65  90 132 177 222 265 320 391
#
# _framework density 19.122095999999999
#
# number of rings (size 3 to 8) (size 9 to 14) (size 15 to 20)
#    0.000    1.000    5.000    3.750    5.250    0.000 
#    0.000    3.125    0.000    0.000    0.000    0.000 
#    0.000    0.000    0.000    0.000    0.000    0.000 
#
# Total GULP energy -89305.828424 kJ/mol
# GULP energy per Si atom -5581.614276 kJ/mol
# Density = 1.907857 g / cm^3
# Si number density = 19.122096 Si / 1000 Ang^3
#
#
#
# Elastic Constant Matrix: (Units=GPa)
#
#
# Indices 1 2 3 4 5 6 
#
# 1 115.5171 29.2968 23.8446 5.3053 18.0315 3.1362
# 2 29.2968 60.7425 12.2578 -1.5968 3.8232 -7.1431
# 3 23.8446 12.2578 71.8886 12.5677 -0.5086 -11.3305
# 4 5.3053 -1.5968 12.5677 31.6477 -4.3853 -1.3385
# 5 18.0315 3.8232 -0.5086 -4.3853 37.2396 -5.2496
# 6 3.1362 -7.1431 -11.3305 -1.3385 -5.2496 27.7134
#
#
#
# Elastic Compliance Matrix: (Units=1/GPa)
#
#
# Indices 1 2 3 4 5 6 
#
# 1 0.011989 -0.005350 -0.003638 -0.001943 -0.006311 -0.005512
# 2 -0.005350 0.019928 -0.001213 0.002856 0.001668 0.005700
# 3 -0.003638 -0.001213 0.017522 -0.005748 0.002500 0.007459
# 4 -0.001943 0.002856 -0.005748 0.035077 0.004872 0.001223
# 5 -0.006311 0.001668 0.002500 0.004872 0.031526 0.008373
# 6 -0.005512 0.005700 0.007459 0.001223 0.008373 0.042871
#
#
# Mechanical properties :
#
#
# Convention : Reuss Voigt Hill
#
# Bulk Modulus (GPa) = 34.43820 42.10517 38.27168
# Shear Modulus (GPa) = 26.45590 31.50342 28.97966
#
# Velocity S-wave (km/s) = 3.72361 4.06333 3.89717
# Velocity P-wave (km/s) = 6.04448 6.63936 6.34889
#
# Compressibility (1/GPa) = 0.02903752
#
# Stress axis : x y z
#
# Youngs Moduli (GPa) = 83.41293 50.17948 57.07119
#
# Poissons Ratio (x) = 0.26847 0.20763
# Poissons Ratio (y) = 0.44627 0.06920
# Poissons Ratio (z) = 0.30346 0.06084
#
# Static dielectric constant tensor:
#      x y z
#    x 1.710260 -0.002390 0.026720 
#    y -0.002390 1.679250 -0.017240 
#    z 0.026720 -0.017240 1.690900 
# 
# From -- ./inp_files/262727.got.cif
#   From: 2010.05.17/outbox.cif.g08.bks.cpg/sg2_132_cif.got.tgz:262727.got - 2010.06.03 11:33:40.
