data_PCOD9003982
_publ_section_title
;
Structure prediction by ZEFSAII (Michael W. Deem and Ramdas Pophale) SiO2 
 PCOD9003982
Probable space group: P -1
;
_chemical_formula_sum "Si O2"
_cell_formula_units_Z 16
_cell_length_a 11.191014
_cell_length_b 11.551504
_cell_length_c 6.754769
_cell_angle_alpha 57.378410
_cell_angle_beta 82.399549
_cell_angle_gamma 70.547961
_cell_volume 692.251438
_symmetry_space_group_name_H-M "P -1"
_symmetry_group_IT_number 2
_symmetry_cell_setting 'triclinic'
loop_
_space_group_symop_operation_xyz
x,y,z
-x,-y,-z
loop_
_atom_site_type_symbol
_atom_site_label
_atom_site_fract_x
_atom_site_fract_y
_atom_site_fract_z
Si Si1 0.861770 0.494314 0.288370
Si Si2 0.580065 0.431540 0.850380
Si Si3 0.807625 0.839515 0.470030
Si Si4 0.721719 0.165671 0.275835
Si Si5 0.996193 0.308132 0.764951
Si Si6 0.406377 0.327205 0.690145
Si Si7 0.054157 0.764708 0.755045
Si Si8 0.539917 0.850809 0.505910
O O1 0.972421 0.564174 0.238547
O O2 0.729146 0.617757 0.225359
O O3 0.878758 0.401490 0.172935
O O4 0.884171 0.377869 0.570292
O O5 0.505623 0.347642 0.808670
O O6 0.599786 0.557698 0.592872
O O7 0.500000 0.500000 0.000000
O O8 0.702675 0.306401 0.014506
O O9 0.880519 0.767643 0.323776
O O10 0.688740 0.782862 0.600740
O O11 0.918886 0.808073 0.636711
O O12 0.751549 0.012716 0.301278
O O13 0.842090 0.156987 0.396710
O O14 0.584575 0.197093 0.380030
O O15 0.971655 0.207653 0.032594
O O16 0.442576 0.173019 0.713732
O O17 0.500000 0.000000 0.500000
#
# Coordination Sequence:
#
# PCOD9003982 Si02
#       8
#     2   2   2   2   2   2   2   2
#     4  10  21  37  63  91 132 162 215 264 316 387
#     4  11  23  39  62  96 130 169 212 269 321 388
#     4  10  23  45  65  91 129 172 215 266 318 387
#     4  11  23  44  65  94 132 167 216 271 320 383
#     4  10  21  40  61  94 126 171 211 261 320 385
#     4  11  22  40  67  93 130 176 213 263 334 381
#     4  11  23  40  66  96 124 171 214 267 327 378
#     4  10  22  44  67  92 134 173 216 268 320 383
#
# _framework density 23.112991000000001
#
# number of rings (size 3 to 8) (size 9 to 14) (size 15 to 20)
#    0.000    1.500    2.500    2.250    1.750    1.500 
#    6.750    1.250    0.000    0.000    0.000    0.000 
#    0.000    0.000    0.000    0.000    0.000    0.000 
#
# Total GULP energy -89213.319802 kJ/mol
# GULP energy per Si atom -5575.832488 kJ/mol
# Density = 2.306039 g / cm^3
# Si number density = 23.112991 Si / 1000 Ang^3
#
#
#
# Elastic Constant Matrix: (Units=GPa)
#
#
# Indices 1 2 3 4 5 6 
#
# 1 157.2067 17.1997 30.4057 17.8361 8.3400 -9.2277
# 2 17.1997 112.1079 14.6536 25.9593 3.8349 -13.9644
# 3 30.4057 14.6536 60.7970 19.4504 0.5325 -10.0115
# 4 17.8361 25.9593 19.4504 23.7687 -2.3373 0.9378
# 5 8.3400 3.8349 0.5325 -2.3373 22.9737 9.9400
# 6 -9.2277 -13.9644 -10.0115 0.9378 9.9400 31.4721
#
#
#
# Elastic Compliance Matrix: (Units=1/GPa)
#
#
# Indices 1 2 3 4 5 6 
#
# 1 0.007820 0.001380 -0.001140 -0.007189 -0.005753 0.004574
# 2 0.001380 0.015761 0.005741 -0.024634 -0.011676 0.013646
# 3 -0.001140 0.005741 0.027815 -0.029854 -0.010885 0.015389
# 4 -0.007189 -0.024634 -0.029854 0.103538 0.033628 -0.036241
# 5 -0.005753 -0.011676 -0.010885 0.033628 0.065028 -0.031870
# 6 0.004574 0.013646 0.015389 -0.036241 -0.031870 0.055211
#
#
# Mechanical properties :
#
#
# Convention : Reuss Voigt Hill
#
# Bulk Modulus (GPa) = 15.78299 50.51440 33.14869
# Shear Modulus (GPa) = 17.58521 33.49973 25.54247
#
# Velocity S-wave (km/s) = 2.76132 3.81122 3.32793
# Velocity P-wave (km/s) = 4.12431 6.42417 5.39815
#
# Compressibility (1/GPa) = 0.06335937
#
# Stress axis : x y z
#
# Youngs Moduli (GPa) = 127.87960 63.44709 35.95191
#
# Poissons Ratio (x) = -0.08759 0.04099
# Poissons Ratio (y) = -0.17654 -0.20641
# Poissons Ratio (z) = 0.14579 -0.36427
#
# Static dielectric constant tensor:
#      x y z
#    x 1.920850 0.036700 -0.037230 
#    y 0.036700 1.876290 -0.044750 
#    z -0.037230 -0.044750 1.931290 
# 
# From -- ./inp_files/69183.got.cif
#   From: 2010.05.17/outbox.cif.g08.bks.cpg/sg2_35_cif.got.tgz:69183.got - 2010.06.03 11:33:40.
