data_PCOD9003120
_publ_section_title
;
Structure prediction by ZEFSAII (Michael W. Deem and Ramdas Pophale) SiO2 
 PCOD9003120
Probable space group: P -1
;
_chemical_formula_sum "Si O2"
_cell_formula_units_Z 14
_cell_length_a 18.994832
_cell_length_b 16.166511
_cell_length_c 9.501071
_cell_angle_alpha 148.052646
_cell_angle_beta 148.393468
_cell_angle_gamma 20.827661
_cell_volume 521.628604
_symmetry_space_group_name_H-M "P -1"
_symmetry_group_IT_number 2
_symmetry_cell_setting 'triclinic'
loop_
_space_group_symop_operation_xyz
x,y,z
-x,-y,-z
loop_
_atom_site_type_symbol
_atom_site_label
_atom_site_fract_x
_atom_site_fract_y
_atom_site_fract_z
Si Si1 0.749182 0.549028 0.442822
Si Si2 0.851048 0.042381 0.514397
Si Si3 0.381270 0.055029 0.061149
Si Si4 0.193154 0.185828 0.532412
Si Si5 0.326307 0.991929 0.197008
Si Si6 0.736540 0.293222 0.399538
Si Si7 0.300578 0.744098 0.161295
O O1 0.719854 0.682518 0.723889
O O2 0.559057 0.762492 0.322604
O O3 0.972576 0.388515 0.524468
O O4 0.720521 0.386723 0.164689
O O5 0.743380 0.252620 0.519800
O O6 0.868271 0.116207 0.798217
O O7 0.061579 0.796992 0.442871
O O8 0.724248 0.996314 0.269735
O O9 0.625685 0.862600 0.167937
O O10 0.349079 0.029814 0.132199
O O11 0.197517 0.205652 0.399644
O O12 0.277136 0.932395 0.322246
O O13 0.224726 0.913227 0.896732
O O14 0.516993 0.542252 0.325511
#
# Coordination Sequence:
#
# PCOD9003120 Si02
#       7
#     2   2   2   2   2   2   2
#     4  10  21  37  58  84 112 149 189 230 280 333
#     4  10  21  40  61  85 113 147 190 232 281 337
#     4  10  23  39  57  85 117 147 189 234 279 337
#     4  11  22  36  57  85 118 150 184 233 285 329
#     4   9  20  38  58  86 114 145 191 236 277 333
#     4   9  20  39  63  82 111 152 188 233 280 327
#     4  11  23  37  59  87 114 147 192 233 275 338
#
# _framework density 26.839019
#
# number of rings (size 3 to 8) (size 9 to 14) (size 15 to 20)
#    0.000    2.000    0.000    3.429    0.000   11.429 
#    0.000    4.286    0.000    0.000    0.000    0.000 
#    0.000    0.000    0.000    0.000    0.000    0.000 
#
# Total GULP energy -78397.165556 kJ/mol
# GULP energy per Si atom -5599.797540 kJ/mol
# Density = 2.677793 g / cm^3
# Si number density = 26.839019 Si / 1000 Ang^3
#
#
#
# Elastic Constant Matrix: (Units=GPa)
#
#
# Indices 1 2 3 4 5 6 
#
# 1 118.4687 30.8994 23.1800 -1.4244 3.6065 -8.3663
# 2 30.8994 121.7267 11.6740 -6.5557 6.0937 -15.4105
# 3 23.1800 11.6740 119.8473 -3.6456 9.8218 -12.8139
# 4 -1.4244 -6.5557 -3.6456 31.7857 -10.8424 8.2120
# 5 3.6065 6.0937 9.8218 -10.8424 46.3195 -9.7430
# 6 -8.3663 -15.4105 -12.8139 8.2120 -9.7430 48.4449
#
#
#
# Elastic Compliance Matrix: (Units=1/GPa)
#
#
# Indices 1 2 3 4 5 6 
#
# 1 0.009346 -0.002170 -0.001541 -0.000380 -0.000086 0.000564
# 2 -0.002170 0.009139 -0.000175 0.001096 -0.000267 0.002247
# 3 -0.001541 -0.000175 0.008962 -0.000008 -0.001387 0.001771
# 4 -0.000380 0.001096 -0.000008 0.035234 0.007244 -0.004235
# 5 -0.000086 -0.000267 -0.001387 0.007244 0.024292 0.003191
# 6 0.000564 0.002247 0.001771 -0.004235 0.003191 0.023282
#
#
# Mechanical properties :
#
#
# Convention : Reuss Voigt Hill
#
# Bulk Modulus (GPa) = 50.82127 54.61661 52.71894
# Shear Modulus (GPa) = 40.13334 44.92932 42.53133
#
# Velocity S-wave (km/s) = 3.87115 4.09593 3.98513
# Velocity P-wave (km/s) = 6.24162 6.53932 6.39220
#
# Compressibility (1/GPa) = 0.01967680
#
# Stress axis : x y z
#
# Youngs Moduli (GPa) = 106.99532 109.41536 111.58538
#
# Poissons Ratio (x) = 0.23738 0.17191
# Poissons Ratio (y) = 0.23213 0.01955
# Poissons Ratio (z) = 0.16484 0.01917
#
# Static dielectric constant tensor:
#      x y z
#    x 2.125310 0.049120 0.076050 
#    y 0.049120 2.120330 -0.014760 
#    z 0.076050 -0.014760 2.187750 
# 
# From -- ./inp_files/418624.got.cif
#   From: 2010.05.17/outbox.cif.g08.bks.cpg/sg2_210_cif.got.tgz:418624.got - 2010.06.03 11:33:40.
