data_PCOD9003211
_publ_section_title
;
Structure prediction by ZEFSAII (Michael W. Deem and Ramdas Pophale) SiO2 
 PCOD9003211
Probable space group: P -1
;
_chemical_formula_sum "Si O2"
_cell_formula_units_Z 15
_cell_length_a 5.622153
_cell_length_b 16.853147
_cell_length_c 9.283320
_cell_angle_alpha 137.620238
_cell_angle_beta 72.090182
_cell_angle_gamma 106.351122
_cell_volume 562.128974
_symmetry_space_group_name_H-M "P -1"
_symmetry_group_IT_number 2
_symmetry_cell_setting 'triclinic'
loop_
_space_group_symop_operation_xyz
x,y,z
-x,-y,-z
loop_
_atom_site_type_symbol
_atom_site_label
_atom_site_fract_x
_atom_site_fract_y
_atom_site_fract_z
Si Si1 0.904875 0.685449 0.984757
Si Si2 0.924320 0.308799 0.436136
Si Si3 0.804501 0.491588 0.159469
Si Si4 0.944930 0.892243 0.574035
Si Si5 0.430073 0.315364 0.678651
Si Si6 0.000000 0.500000 0.500000
Si Si7 0.834027 0.875876 0.037542
Si Si8 0.337852 0.923777 0.309342
O O1 0.144168 0.632392 0.945814
O O2 0.830595 0.589603 0.744917
O O3 0.944105 0.811940 0.071246
O O4 0.678332 0.688664 0.145783
O O5 0.709662 0.280235 0.555625
O O6 0.813798 0.377934 0.414300
O O7 0.109314 0.421383 0.605393
O O8 0.056445 0.196959 0.208772
O O9 0.582941 0.554312 0.209736
O O10 0.000000 0.500000 0.000000
O O11 0.769657 0.775452 0.490457
O O12 0.135727 0.859406 0.369391
O O13 0.081621 0.984836 0.785012
O O14 0.765749 0.976691 0.637931
O O15 0.535638 0.857945 0.090684
O O16 0.500000 0.000000 0.500000
#
# Coordination Sequence:
#
# PCOD9003211 Si02
#       8
#     2   2   2   2   2   1   2   2
#     4   9  18  37  60  86 116 152 203 250 296 356
#     4  10  22  40  60  89 124 159 205 250 306 368
#     4   9  21  39  59  87 118 156 200 245 304 363
#     4  10  21  37  58  91 124 158 210 248 296 369
#     4  11  22  37  61  90 127 165 197 249 306 365
#     4   8  18  38  58  80 116 154 198 252 294 350
#     4  10  21  39  63  90 123 163 203 254 304 355
#     4   9  18  35  59  85 118 162 205 250 296 347
#
# _framework density 26.684267999999999
#
# number of rings (size 3 to 8) (size 9 to 14) (size 15 to 20)
#    0.000    2.400    0.000    2.400    0.000    9.600 
#    0.000   18.000    0.000    0.000    0.000    0.000 
#    0.000    0.000    0.000    0.000    0.000    0.000 
#
# Total GULP energy -83557.870743 kJ/mol
# GULP energy per Si atom -5570.524716 kJ/mol
# Density = 2.662353 g / cm^3
# Si number density = 26.684268 Si / 1000 Ang^3
#
#
#
# Elastic Constant Matrix: (Units=GPa)
#
#
# Indices 1 2 3 4 5 6 
#
# 1 41.4962 18.1009 30.8230 1.6229 -10.3482 2.3767
# 2 18.1009 131.7543 43.9396 18.5016 -14.3609 -4.0219
# 3 30.8230 43.9396 232.9131 -6.2049 -21.0017 18.9726
# 4 1.6229 18.5016 -6.2049 49.8518 5.1601 -2.2733
# 5 -10.3482 -14.3609 -21.0017 5.1601 37.1607 3.6381
# 6 2.3767 -4.0219 18.9726 -2.2733 3.6381 37.1466
#
#
#
# Elastic Compliance Matrix: (Units=1/GPa)
#
#
# Indices 1 2 3 4 5 6 
#
# 1 0.028719 -0.002272 -0.002769 -0.001100 0.005836 -0.001308
# 2 -0.002272 0.009215 -0.001425 -0.003719 0.002503 0.001398
# 3 -0.002769 -0.001425 0.005352 0.000965 0.001846 -0.002832
# 4 -0.001100 -0.003719 0.000965 0.022090 -0.004359 0.000954
# 5 0.005836 0.002503 0.001846 -0.004359 0.031582 -0.004405
# 6 -0.001308 0.001398 -0.002832 0.000954 -0.004405 0.029092
#
#
# Mechanical properties :
#
#
# Convention : Reuss Voigt Hill
#
# Bulk Modulus (GPa) = 32.94345 65.76563 49.35454
# Shear Modulus (GPa) = 33.53480 45.71850 39.62665
#
# Velocity S-wave (km/s) = 3.54888 4.14371 3.85778
# Velocity P-wave (km/s) = 5.40048 6.89878 6.19509
#
# Compressibility (1/GPa) = 0.03035505
#
# Stress axis : x y z
#
# Youngs Moduli (GPa) = 34.81992 108.52012 186.86174
#
# Poissons Ratio (x) = 0.24651 0.51734
# Poissons Ratio (y) = 0.07910 0.26630
# Poissons Ratio (z) = 0.09640 0.15465
#
# Static dielectric constant tensor:
#      x y z
#    x 1.687350 0.460490 -0.124760 
#    y 0.460490 1.780150 0.082040 
#    z -0.124760 0.082040 2.051500 
# 
# From -- ./inp_files/370433.got.cif
#   From: 2010.05.17/outbox.cif.g08.bks.cpg/sg2_186_cif.got.tgz:370433.got - 2010.06.03 11:33:40.
