data_PCOD9003626
_publ_section_title
;
Structure prediction by ZEFSAII (Michael W. Deem and Ramdas Pophale) SiO2 
 PCOD9003626
Probable space group: P -1
;
_chemical_formula_sum "Si O2"
_cell_formula_units_Z 16
_cell_length_a 8.519370
_cell_length_b 6.678339
_cell_length_c 17.629888
_cell_angle_alpha 72.045356
_cell_angle_beta 117.865485
_cell_angle_gamma 127.431512
_cell_volume 703.732934
_symmetry_space_group_name_H-M "P -1"
_symmetry_group_IT_number 2
_symmetry_cell_setting 'triclinic'
loop_
_space_group_symop_operation_xyz
x,y,z
-x,-y,-z
loop_
_atom_site_type_symbol
_atom_site_label
_atom_site_fract_x
_atom_site_fract_y
_atom_site_fract_z
Si Si1 0.949436 0.333091 0.673263
Si Si2 0.595721 0.094293 0.094648
Si Si3 0.849814 0.660714 0.075714
Si Si4 0.158751 0.334938 0.576291
Si Si5 0.420665 0.136171 0.410518
Si Si6 0.933538 0.791188 0.606948
Si Si7 0.274617 0.157371 0.115541
Si Si8 0.645727 0.654242 0.176101
O O1 0.989607 0.345757 0.589378
O O2 0.151314 0.338340 0.748572
O O3 0.950742 0.573230 0.672858
O O4 0.723665 0.071081 0.661610
O O5 0.799340 0.381149 0.100504
O O6 0.424384 0.099383 0.107975
O O7 0.644926 0.899200 0.163126
O O8 0.500000 0.000000 0.000000
O O9 0.673907 0.652782 0.091143
O O10 0.823167 0.731845 0.976823
O O11 0.077064 0.890011 0.130147
O O12 0.378842 0.600230 0.603478
O O13 0.102873 0.278269 0.482017
O O14 0.136877 0.076924 0.628355
O O15 0.266389 0.203552 0.409498
O O16 0.500000 0.000000 0.500000
O O17 0.429461 0.389728 0.178375
#
# Coordination Sequence:
#
# PCOD9003626 Si02
#       8
#     2   2   2   2   2   2   2   2
#     4  11  25  40  59  88 126 160 196 247 305 356
#     4  11  19  37  63  87 116 155 198 248 294 346
#     4  10  21  37  61  90 115 150 204 245 290 357
#     4  10  22  38  63  90 115 152 206 243 290 358
#     4  11  23  38  64  94 116 150 207 249 292 357
#     4  10  22  39  63  89 117 157 198 249 298 350
#     4  10  21  37  61  90 114 153 202 244 295 354
#     4  11  23  41  58  85 127 158 191 249 303 346
#
# _framework density 22.735899
#
# number of rings (size 3 to 8) (size 9 to 14) (size 15 to 20)
#    0.000    1.500    3.750    1.500    3.500    6.500 
#    0.000    2.500    0.000    0.000    0.000    0.000 
#    0.000    0.000    0.000    0.000    0.000    0.000 
#
# Total GULP energy -89375.152018 kJ/mol
# GULP energy per Si atom -5585.947001 kJ/mol
# Density = 2.268415 g / cm^3
# Si number density = 22.735899 Si / 1000 Ang^3
#
#
#
# Elastic Constant Matrix: (Units=GPa)
#
#
# Indices 1 2 3 4 5 6 
#
# 1 60.8080 66.5422 9.7120 -18.7334 17.9819 -5.4861
# 2 66.5422 270.3554 40.8723 -1.3170 39.5373 12.4168
# 3 9.7120 40.8723 69.7830 2.3411 27.3046 -5.5468
# 4 -18.7334 -1.3170 2.3411 18.1692 -2.3148 15.9415
# 5 17.9819 39.5373 27.3046 -2.3148 36.2854 -3.7994
# 6 -5.4861 12.4168 -5.5468 15.9415 -3.7994 53.2742
#
#
#
# Elastic Compliance Matrix: (Units=1/GPa)
#
#
# Indices 1 2 3 4 5 6 
#
# 1 0.044112 -0.008712 0.000558 0.051908 -0.010487 -0.009650
# 2 -0.008712 0.006322 -0.001405 -0.008500 -0.002069 -0.000121
# 3 0.000558 -0.001405 0.021506 -0.007557 -0.015011 0.003815
# 4 0.051908 -0.008500 -0.007557 0.139418 -0.005607 -0.035579
# 5 -0.010487 -0.002069 -0.015011 -0.005607 0.046243 0.002815
# 6 -0.009650 -0.000121 0.003815 -0.035579 0.002815 0.029050
#
#
# Mechanical properties :
#
#
# Convention : Reuss Voigt Hill
#
# Bulk Modulus (GPa) = 18.93173 70.57769 44.75471
# Shear Modulus (GPa) = 15.46188 40.46710 27.96449
#
# Velocity S-wave (km/s) = 2.61063 4.22344 3.51090
# Velocity P-wave (km/s) = 4.17518 7.40898 6.01353
#
# Compressibility (1/GPa) = 0.05282136
#
# Stress axis : x y z
#
# Youngs Moduli (GPa) = 22.66979 158.17177 46.49910
#
# Poissons Ratio (x) = 1.37797 -0.02595
# Poissons Ratio (y) = 0.19750 0.06535
# Poissons Ratio (z) = -0.01265 0.22230
#
# Static dielectric constant tensor:
#      x y z
#    x 1.804220 0.020610 -0.023580 
#    y 0.020610 1.891290 -0.000170 
#    z -0.023580 -0.000170 1.917590 
# 
# From -- ./inp_files/44888.got.cif
#   From: 2010.05.17/outbox.cif.g08.bks.cpg/sg2_23_cif.got.tgz:44888.got - 2010.06.03 11:33:40.
