data_PCOD9003149
_publ_section_title
;
Structure prediction by ZEFSAII (Michael W. Deem and Ramdas Pophale) SiO2 
 PCOD9003149
Probable space group: P -1
;
_chemical_formula_sum "Si O2"
_cell_formula_units_Z 16
_cell_length_a 11.600179
_cell_length_b 14.332285
_cell_length_c 8.965468
_cell_angle_alpha 126.913008
_cell_angle_beta 63.292779
_cell_angle_gamma 138.332223
_cell_volume 792.309956
_symmetry_space_group_name_H-M "P -1"
_symmetry_group_IT_number 2
_symmetry_cell_setting 'triclinic'
loop_
_space_group_symop_operation_xyz
x,y,z
-x,-y,-z
loop_
_atom_site_type_symbol
_atom_site_label
_atom_site_fract_x
_atom_site_fract_y
_atom_site_fract_z
Si Si1 0.524392 0.599606 0.939694
Si Si2 0.598994 0.935960 0.873693
Si Si3 0.327300 0.389922 0.593889
Si Si4 0.190626 0.068359 0.480015
Si Si5 0.597321 0.874150 0.332921
Si Si6 0.781517 0.119500 0.230251
Si Si7 0.326168 0.692078 0.588111
Si Si8 0.160736 0.338588 0.347254
O O1 0.365149 0.491883 0.813271
O O2 0.697133 0.658578 0.811700
O O3 0.500000 0.500000 0.000000
O O4 0.541284 0.739761 0.123497
O O5 0.745948 0.001705 0.725654
O O6 0.440415 0.758643 0.738320
O O7 0.702546 0.991311 0.021221
O O8 0.500000 0.000000 0.000000
O O9 0.500000 0.500000 0.500000
O O10 0.306300 0.248351 0.535600
O O11 0.173899 0.324934 0.504989
O O12 0.229205 0.062591 0.622145
O O13 0.000000 0.000000 0.500000
O O14 0.458232 0.790401 0.467001
O O15 0.649601 0.019288 0.348628
O O16 0.782280 0.253482 0.300671
O O17 0.973524 0.205679 0.256772
O O18 0.221924 0.509950 0.454428
#
# Coordination Sequence:
#
# PCOD9003149 Si02
#       8
#     2   2   2   2   2   2   2   2
#     4  11  20  37  60  88 113 155 195 234 297 362
#     4   9  21  39  60  84 117 163 203 235 290 365
#     4  10  21  37  58  86 117 156 195 236 298 364
#     4  11  22  37  58  88 125 154 186 254 312 342
#     4  11  22  37  61  87 120 154 196 240 296 366
#     4  11  24  37  62  91 116 152 204 252 286 344
#     4  10  21  44  61  80 119 166 198 233 296 363
#     4  11  23  38  61  88 120 149 197 252 298 340
#
# _framework density 20.194116999999999
#
# number of rings (size 3 to 8) (size 9 to 14) (size 15 to 20)
#    0.000    1.500    2.500    3.750    7.000    0.500 
#    0.000    0.000    0.000    0.750    0.000    0.000 
#    0.000    0.000    0.000    0.000    0.000    0.000 
#
# Total GULP energy -89197.070846 kJ/mol
# GULP energy per Si atom -5574.816928 kJ/mol
# Density = 2.014815 g / cm^3
# Si number density = 20.194117 Si / 1000 Ang^3
#
#
#
# Elastic Constant Matrix: (Units=GPa)
#
#
# Indices 1 2 3 4 5 6 
#
# 1 84.6466 10.7968 48.7486 4.7234 23.3076 6.5854
# 2 10.7968 53.0282 25.3823 8.2002 9.3543 -5.2592
# 3 48.7486 25.3823 111.7904 0.0647 30.4138 12.3896
# 4 4.7234 8.2002 0.0647 18.1197 -0.7420 -1.2965
# 5 23.3076 9.3543 30.4138 -0.7420 45.5787 1.7415
# 6 6.5854 -5.2592 12.3896 -1.2965 1.7415 34.1649
#
#
#
# Elastic Compliance Matrix: (Units=1/GPa)
#
#
# Indices 1 2 3 4 5 6 
#
# 1 0.016932 0.001101 -0.006246 -0.005141 -0.004770 -0.000781
# 2 0.001101 0.024053 -0.006022 -0.010844 -0.001862 0.005358
# 3 -0.006246 -0.006022 0.015016 0.003741 -0.005347 -0.004754
# 4 -0.005141 -0.010844 0.003741 0.061569 0.003356 0.000130
# 5 -0.004770 -0.001862 -0.005347 0.003356 0.028336 0.001255
# 6 -0.000781 0.005358 -0.004754 0.000130 0.001255 0.031910
#
#
# Mechanical properties :
#
#
# Convention : Reuss Voigt Hill
#
# Bulk Modulus (GPa) = 29.70322 46.59117 38.14719
# Shear Modulus (GPa) = 23.65483 30.54184 27.09834
#
# Velocity S-wave (km/s) = 3.42624 3.89319 3.66716
# Velocity P-wave (km/s) = 5.51298 6.58263 6.07141
#
# Compressibility (1/GPa) = 0.03366639
#
# Stress axis : x y z
#
# Youngs Moduli (GPa) = 59.06079 41.57465 66.59574
#
# Poissons Ratio (x) = -0.04579 0.41597
# Poissons Ratio (y) = -0.06505 0.40107
# Poissons Ratio (z) = 0.36890 0.25038
#
# Static dielectric constant tensor:
#      x y z
#    x 1.749890 -0.008560 0.012400 
#    y -0.008560 1.691180 -0.015330 
#    z 0.012400 -0.015330 1.730700 
# 
# From -- ./inp_files/223712.got.cif
#   From: 2010.05.17/outbox.cif.g08.bks.cpg/sg2_112_cif.got.tgz:223712.got - 2010.06.03 11:33:40.
