data_PCOD9003348
_publ_section_title
;
Structure prediction by ZEFSAII (Michael W. Deem and Ramdas Pophale) SiO2 
 PCOD9003348
Probable space group: P -1
;
_chemical_formula_sum "Si O2"
_cell_formula_units_Z 16
_cell_length_a 23.760992
_cell_length_b 5.227623
_cell_length_c 7.769174
_cell_angle_alpha 88.074683
_cell_angle_beta 135.231251
_cell_angle_gamma 110.892257
_cell_volume 598.536702
_symmetry_space_group_name_H-M "P -1"
_symmetry_group_IT_number 2
_symmetry_cell_setting 'triclinic'
loop_
_space_group_symop_operation_xyz
x,y,z
-x,-y,-z
loop_
_atom_site_type_symbol
_atom_site_label
_atom_site_fract_x
_atom_site_fract_y
_atom_site_fract_z
Si Si1 0.431888 0.760338 0.085852
Si Si2 0.085864 0.075430 0.558859
Si Si3 0.335283 0.130961 0.001150
Si Si4 0.778302 0.081500 0.560254
Si Si5 0.233747 0.607895 0.036128
Si Si6 0.942878 0.607812 0.757562
Si Si7 0.899249 0.258627 0.113500
Si Si8 0.369619 0.794421 0.584959
O O1 0.398356 0.476575 0.138191
O O2 0.390625 0.969494 0.051137
O O3 0.539642 0.953979 0.305664
O O4 0.398957 0.673011 0.817212
O O5 0.053866 0.084866 0.293897
O O6 0.119702 0.879702 0.736928
O O7 0.176202 0.386301 0.767740
O O8 0.000000 0.000000 0.500000
O O9 0.288529 0.932677 0.070154
O O10 0.261513 0.101630 0.695307
O O11 0.843492 0.396760 0.612649
O O12 0.695102 0.079856 0.483345
O O13 0.843785 0.038721 0.842004
O O14 0.308372 0.570069 0.310298
O O15 0.151309 0.548873 0.989794
O O16 0.994384 0.584372 0.696418
O O17 0.000000 0.500000 0.000000
#
# Coordination Sequence:
#
# PCOD9003348 Si02
#       8
#     2   2   2   2   2   2   2   2
#     4  10  24  46  65 100 130 180 213 284 334 397
#     4  10  21  37  59  90 125 165 215 267 324 381
#     4  11  24  41  68  95 137 170 225 272 337 392
#     4   9  18  38  61  91 121 171 214 268 317 399
#     4  11  23  40  62  98 126 176 215 276 325 398
#     4   9  17  35  60  85 126 165 214 264 326 384
#     4   9  21  36  61  87 126 170 211 267 320 388
#     4   9  22  42  67  92 131 168 224 267 337 397
#
# _framework density 26.731862
#
# number of rings (size 3 to 8) (size 9 to 14) (size 15 to 20)
#    0.000    2.250    1.250    0.000    3.500    7.500 
#    2.250    0.000    0.000    6.000    0.000    0.000 
#    0.000    0.000    0.000    0.000    0.000    0.000 
#
# Total GULP energy -89131.911452 kJ/mol
# GULP energy per Si atom -5570.744466 kJ/mol
# Density = 2.667102 g / cm^3
# Si number density = 26.731862 Si / 1000 Ang^3
#
#
#
# Elastic Constant Matrix: (Units=GPa)
#
#
# Indices 1 2 3 4 5 6 
#
# 1 105.9839 37.3853 33.0717 5.6676 21.9215 14.5360
# 2 37.3853 146.4999 44.5125 -3.1281 2.7106 30.7620
# 3 33.0717 44.5125 130.3198 -15.1010 12.0394 11.0392
# 4 5.6676 -3.1281 -15.1010 21.8081 12.6437 1.0145
# 5 21.9215 2.7106 12.0394 12.6437 37.9438 0.6407
# 6 14.5360 30.7620 11.0392 1.0145 0.6407 29.9628
#
#
#
# Elastic Compliance Matrix: (Units=1/GPa)
#
#
# Indices 1 2 3 4 5 6 
#
# 1 0.012409 -0.001834 -0.001809 -0.001080 -0.006048 -0.003304
# 2 -0.001834 0.009691 -0.002264 -0.000034 0.001236 -0.008251
# 3 -0.001809 -0.002264 0.010829 0.011124 -0.005918 -0.001038
# 4 -0.001080 -0.000034 0.011124 0.069052 -0.025823 -0.005325
# 5 -0.006048 0.001236 -0.005918 -0.025823 0.040178 0.003861
# 6 -0.003304 -0.008251 -0.001038 -0.005325 0.003861 0.043929
#
#
# Mechanical properties :
#
#
# Convention : Reuss Voigt Hill
#
# Bulk Modulus (GPa) = 47.35982 68.08250 57.72116
# Shear Modulus (GPa) = 24.39734 35.79854 30.09794
#
# Velocity S-wave (km/s) = 3.02432 3.66344 3.35911
# Velocity P-wave (km/s) = 5.47270 6.58926 6.05676
#
# Compressibility (1/GPa) = 0.02111494
#
# Stress axis : x y z
#
# Youngs Moduli (GPa) = 80.58718 103.19168 92.34092
#
# Poissons Ratio (x) = 0.18928 0.16705
# Poissons Ratio (y) = 0.14782 0.20903
# Poissons Ratio (z) = 0.14579 0.23360
#
# Static dielectric constant tensor:
#      x y z
#    x 2.145950 -0.117310 -0.041800 
#    y -0.117310 2.370770 -0.120270 
#    z -0.041800 -0.120270 2.280480 
# 
# From -- ./inp_files/122190.got.cif
#   From: 2010.05.17/outbox.cif.g08.bks.cpg/sg2_62_cif.got.tgz:122190.got - 2010.06.03 11:33:40.
