data_PCOD9003496
_publ_section_title
;
Structure prediction by ZEFSAII (Michael W. Deem and Ramdas Pophale) SiO2 
 PCOD9003496
Probable space group: P -1
;
_chemical_formula_sum "Si O2"
_cell_formula_units_Z 14
_cell_length_a 6.523106
_cell_length_b 5.783296
_cell_length_c 27.940319
_cell_angle_alpha 127.027345
_cell_angle_beta 45.684234
_cell_angle_gamma 105.668045
_cell_volume 580.779463
_symmetry_space_group_name_H-M "P -1"
_symmetry_group_IT_number 2
_symmetry_cell_setting 'triclinic'
loop_
_space_group_symop_operation_xyz
x,y,z
-x,-y,-z
loop_
_atom_site_type_symbol
_atom_site_label
_atom_site_fract_x
_atom_site_fract_y
_atom_site_fract_z
Si Si1 0.761884 0.117915 0.449391
Si Si2 0.223377 0.502773 0.200150
Si Si3 0.715246 0.179550 0.252919
Si Si4 0.293605 0.096772 0.977219
Si Si5 0.237050 0.645279 0.116191
Si Si6 0.796532 0.442920 0.682722
Si Si7 0.358442 0.722521 0.616089
O O1 0.661196 0.471994 0.520839
O O2 0.742275 0.077033 0.389923
O O3 0.500000 0.000000 0.500000
O O4 0.065517 0.909579 0.395571
O O5 0.190934 0.732590 0.190530
O O6 0.323673 0.559555 0.243793
O O7 0.919635 0.410529 0.244873
O O8 0.460955 0.217160 0.103858
O O9 0.443564 0.331090 0.282076
O O10 0.604953 0.156332 0.322122
O O11 0.954137 0.864214 0.162620
O O12 0.448093 0.295383 0.942042
O O13 0.236701 0.308837 0.059506
O O14 0.000000 0.000000 0.000000
O O15 0.087756 0.567639 0.648037
#
# Coordination Sequence:
#
# PCOD9003496 Si02
#       7
#     2   2   2   2   2   2   2
#     4   9  18  36  61  86 123 167 209 263 320 379
#     4  10  22  41  63  90 130 164 213 271 318 389
#     4  10  22  39  61  92 129 165 215 269 319 390
#     4  10  23  43  66  98 126 171 222 269 328 398
#     4  10  22  44  66  93 133 173 212 278 330 378
#     4  10  21  37  60  91 123 168 212 260 327 384
#     4   9  19  38  59  88 126 164 212 265 317 383
#
# _framework density 24.105537000000002
#
# number of rings (size 3 to 8) (size 9 to 14) (size 15 to 20)
#    0.000    2.286    0.000    1.286    2.000    2.286 
#    7.714    6.429    0.000    0.000    0.000    0.000 
#    0.000    0.000    0.000    0.000    0.000    0.000 
#
# Total GULP energy -78114.064441 kJ/mol
# GULP energy per Si atom -5579.576031 kJ/mol
# Density = 2.405067 g / cm^3
# Si number density = 24.105537 Si / 1000 Ang^3
#
#
#
# Elastic Constant Matrix: (Units=GPa)
#
#
# Indices 1 2 3 4 5 6 
#
# 1 102.4197 35.7134 66.9517 -11.0154 -13.1645 -10.0941
# 2 35.7134 55.7309 37.6407 -7.1494 -8.4991 -5.6188
# 3 66.9517 37.6407 126.8161 6.0414 -2.0626 -15.3962
# 4 -11.0154 -7.1494 6.0414 50.4954 -7.9368 1.3902
# 5 -13.1645 -8.4991 -2.0626 -7.9368 28.8792 -6.4008
# 6 -10.0941 -5.6188 -15.3962 1.3902 -6.4008 43.8177
#
#
#
# Elastic Compliance Matrix: (Units=1/GPa)
#
#
# Indices 1 2 3 4 5 6 
#
# 1 0.018714 -0.003864 -0.008643 0.005903 0.008815 0.001879
# 2 -0.003864 0.026017 -0.005621 0.004585 0.007054 0.001356
# 3 -0.008643 -0.005621 0.014489 -0.005350 -0.005647 0.001724
# 4 0.005903 0.004585 -0.005350 0.023998 0.010438 0.000831
# 5 0.008815 0.007054 -0.005647 0.010438 0.044774 0.007160
# 6 0.001879 0.001356 0.001724 0.000831 0.007160 0.025054
#
#
# Mechanical properties :
#
#
# Convention : Reuss Voigt Hill
#
# Bulk Modulus (GPa) = 43.54649 62.84202 53.19425
# Shear Modulus (GPa) = 25.38636 34.28253 29.83445
#
# Velocity S-wave (km/s) = 3.24872 3.77528 3.52186
# Velocity P-wave (km/s) = 5.67243 6.71787 6.21716
#
# Compressibility (1/GPa) = 0.02296397
#
# Stress axis : x y z
#
# Youngs Moduli (GPa) = 53.43597 38.43696 69.01737
#
# Poissons Ratio (x) = 0.14851 0.59650
# Poissons Ratio (y) = 0.20647 0.38796
# Poissons Ratio (z) = 0.46184 0.21606
#
# Static dielectric constant tensor:
#      x y z
#    x 1.949070 -0.029870 0.037040 
#    y -0.029870 1.975030 0.046190 
#    z 0.037040 0.046190 1.970310 
# 
# From -- ./inp_files/614957.got.cif
#   From: 2010.05.17/outbox.cif.g08.bks.cpg/sg2_308_cif.got.tgz:614957.got - 2010.06.03 11:33:40.
