data_PCOD9003652
_publ_section_title
;
Structure prediction by ZEFSAII (Michael W. Deem and Ramdas Pophale) SiO2 
 PCOD9003652
Probable space group: P -1
;
_chemical_formula_sum "Si O2"
_cell_formula_units_Z 10
_cell_length_a 11.174665
_cell_length_b 9.882269
_cell_length_c 5.195365
_cell_angle_alpha 113.621544
_cell_angle_beta 79.021677
_cell_angle_gamma 57.492633
_cell_volume 377.248323
_symmetry_space_group_name_H-M "P -1"
_symmetry_group_IT_number 2
_symmetry_cell_setting 'triclinic'
loop_
_space_group_symop_operation_xyz
x,y,z
-x,-y,-z
loop_
_atom_site_type_symbol
_atom_site_label
_atom_site_fract_x
_atom_site_fract_y
_atom_site_fract_z
Si Si1 0.791936 0.781326 0.131205
Si Si2 0.067989 0.616336 0.301169
Si Si3 0.632551 0.452641 0.112326
Si Si4 0.906112 0.018378 0.809256
Si Si5 0.527063 0.840856 0.661998
O O1 0.672818 0.789670 0.386961
O O2 0.960098 0.687066 0.137403
O O3 0.658427 0.011841 0.274795
O O4 0.853425 0.597825 0.781872
O O5 0.226948 0.584147 0.147939
O O6 0.934456 0.819892 0.670627
O O7 0.580939 0.622322 0.470952
O O8 0.500000 0.500000 0.000000
O O9 0.724084 0.237148 0.037521
O O10 0.000000 0.000000 0.500000
O O11 0.000000 0.000000 0.000000
O O12 0.500000 0.000000 0.000000
#
# Coordination Sequence:
#
# PCOD9003652 Si02
#       5
#     2   2   2   2   2
#     4   9  19  39  61  86 123 160 207 261 318 385
#     4   9  19  39  62  87 120 164 212 260 320 382
#     4  10  21  40  64  91 129 167 214 267 325 387
#     4  10  22  41  64  92 129 169 216 267 324 388
#     4  10  21  37  61  91 122 159 209 260 322 380
#
# _framework density 26.507736999999999
#
# number of rings (size 3 to 8) (size 9 to 14) (size 15 to 20)
#    0.000    2.400    0.000    1.200    2.800    0.000 
#   14.400    7.000    0.000    0.000    0.000    0.000 
#    0.000    0.000    0.000    0.000    0.000    0.000 
#
# Total GULP energy -55792.914641 kJ/mol
# GULP energy per Si atom -5579.291464 kJ/mol
# Density = 2.644740 g / cm^3
# Si number density = 26.507737 Si / 1000 Ang^3
#
#
#
# Elastic Constant Matrix: (Units=GPa)
#
#
# Indices 1 2 3 4 5 6 
#
# 1 132.1625 30.9382 27.5053 13.2325 -20.9998 -29.6136
# 2 30.9382 147.7845 57.7545 52.9947 18.4451 -22.6611
# 3 27.5053 57.7545 162.4695 46.6158 17.9223 9.0324
# 4 13.2325 52.9947 46.6158 65.4542 15.5019 6.4180
# 5 -20.9998 18.4451 17.9223 15.5019 62.6667 1.4194
# 6 -29.6136 -22.6611 9.0324 6.4180 1.4194 46.8735
#
#
#
# Elastic Compliance Matrix: (Units=1/GPa)
#
#
# Indices 1 2 3 4 5 6 
#
# 1 0.010589 0.000014 -0.001978 -0.002541 0.004573 0.007287
# 2 0.000014 0.011943 -0.002056 -0.008712 -0.000935 0.007400
# 3 -0.001978 -0.002056 0.008533 -0.003300 -0.001605 -0.003388
# 4 -0.002541 -0.008712 -0.003300 0.026957 -0.003814 -0.008757
# 5 0.004573 -0.000935 -0.001605 -0.003814 0.019107 0.002690
# 6 0.007287 0.007400 -0.003388 -0.008757 0.002690 0.031286
#
#
# Mechanical properties :
#
#
# Convention : Reuss Voigt Hill
#
# Bulk Modulus (GPa) = 43.43380 74.97917 59.20649
# Shear Modulus (GPa) = 40.28042 56.74679 48.51360
#
# Velocity S-wave (km/s) = 3.90240 4.63186 4.28269
# Velocity P-wave (km/s) = 6.06019 7.54670 6.84392
#
# Compressibility (1/GPa) = 0.02302354
#
# Stress axis : x y z
#
# Youngs Moduli (GPa) = 94.43960 83.73292 117.18974
#
# Poissons Ratio (x) = -0.00118 0.23183
# Poissons Ratio (y) = -0.00133 0.24100
# Poissons Ratio (z) = 0.18682 0.17219
#
# Static dielectric constant tensor:
#      x y z
#    x 2.066730 0.081600 0.091570 
#    y 0.081600 2.090730 0.029470 
#    z 0.091570 0.029470 2.239640 
# 
# From -- ./inp_files/15988.got.cif
#   From: 2010.05.17/outbox.cif.g08.bks.cpg/sg2_8_cif.got.tgz:15988.got - 2010.06.03 11:33:40.
