data_PCOD9003717
_publ_section_title
;
Structure prediction by ZEFSAII (Michael W. Deem and Ramdas Pophale) SiO2 
 PCOD9003717
Probable space group: P -1
;
_chemical_formula_sum "Si O2"
_cell_formula_units_Z 14
_cell_length_a 22.591976
_cell_length_b 5.017655
_cell_length_c 17.294845
_cell_angle_alpha 86.034729
_cell_angle_beta 19.870653
_cell_angle_gamma 77.595364
_cell_volume 596.411747
_symmetry_space_group_name_H-M "P -1"
_symmetry_group_IT_number 2
_symmetry_cell_setting 'triclinic'
loop_
_space_group_symop_operation_xyz
x,y,z
-x,-y,-z
loop_
_atom_site_type_symbol
_atom_site_label
_atom_site_fract_x
_atom_site_fract_y
_atom_site_fract_z
Si Si1 0.507448 0.485204 0.291178
Si Si2 0.179190 0.116366 0.029295
Si Si3 0.167014 0.076710 0.324096
Si Si4 0.239403 0.768881 0.473674
Si Si5 0.418409 0.185031 0.177320
Si Si6 0.125829 0.492393 0.233072
Si Si7 0.552301 0.727688 0.382993
O O1 0.339908 0.576664 0.431454
O O2 0.454629 0.731000 0.418929
O O3 0.697905 0.449472 0.011413
O O4 0.610853 0.168744 0.214700
O O5 0.125635 0.256508 0.177021
O O6 0.994203 0.069862 0.231155
O O7 0.227494 0.341481 0.912245
O O8 0.176044 0.338797 0.257356
O O9 0.083214 0.223374 0.507465
O O10 0.000000 0.000000 0.500000
O O11 0.374222 0.814817 0.057922
O O12 0.281475 0.531457 0.356209
O O13 0.340481 0.987390 0.327897
O O14 0.500000 0.000000 0.000000
O O15 0.500000 0.500000 0.500000
O O16 0.500000 0.000000 0.500000
#
# Coordination Sequence:
#
# PCOD9003717 Si02
#       7
#     2   2   2   2   2   2   2
#     4  11  24  47  74 101 144 183 232 293 354 422
#     4  11  25  44  76  99 141 185 229 282 366 418
#     4  11  22  36  60  89 136 185 245 290 348 396
#     4  12  28  46  68 106 140 187 247 286 353 417
#     4  12  27  43  62  97 148 190 244 307 340 393
#     4  10  21  37  61  96 128 186 237 291 340 412
#     4  11  24  47  79 112 140 177 225 284 359 440
#
# _framework density 23.473714000000001
#
# number of rings (size 3 to 8) (size 9 to 14) (size 15 to 20)
#    0.000    0.857    2.857    3.857   12.000    0.000 
#    0.000    1.429    0.000    0.000    0.000    0.000 
#    0.000    0.000    0.000    0.000    0.000    0.000 
#
# Total GULP energy -78012.134699 kJ/mol
# GULP energy per Si atom -5572.295336 kJ/mol
# Density = 2.342029 g / cm^3
# Si number density = 23.473714 Si / 1000 Ang^3
#
#
#
# Elastic Constant Matrix: (Units=GPa)
#
#
# Indices 1 2 3 4 5 6 
#
# 1 95.0904 23.1675 45.9550 0.0502 13.6933 13.4426
# 2 23.1675 110.3157 24.4189 -10.5914 4.1759 16.4203
# 3 45.9550 24.4189 49.3215 -6.7333 -2.5516 -6.4569
# 4 0.0502 -10.5914 -6.7333 50.6483 2.3326 11.4917
# 5 13.6933 4.1759 -2.5516 2.3326 43.9988 3.7433
# 6 13.4426 16.4203 -6.4569 11.4917 3.7433 36.7795
#
#
#
# Elastic Compliance Matrix: (Units=1/GPa)
#
#
# Indices 1 2 3 4 5 6 
#
# 1 0.028124 0.003806 -0.030639 0.000917 -0.009521 -0.016675
# 2 0.003806 0.012488 -0.010641 0.003500 -0.002348 -0.009689
# 3 -0.030639 -0.010641 0.057892 -0.000747 0.011803 0.025145
# 4 0.000917 0.003500 -0.000747 0.022453 -0.001091 -0.008933
# 5 -0.009521 -0.002348 0.011803 -0.001091 0.026293 0.004265
# 6 -0.016675 -0.009689 0.025145 -0.008933 0.004265 0.044381
#
#
# Mechanical properties :
#
#
# Convention : Reuss Voigt Hill
#
# Bulk Modulus (GPa) = 42.45326 49.09005 45.77166
# Shear Modulus (GPa) = 18.21954 37.03107 27.62531
#
# Velocity S-wave (km/s) = 2.78900 3.97615 3.43426
# Velocity P-wave (km/s) = 5.33817 6.48366 5.93860
#
# Compressibility (1/GPa) = 0.02355532
#
# Stress axis : x y z
#
# Youngs Moduli (GPa) = 35.55689 80.07588 17.27360
#
# Poissons Ratio (x) = -0.30478 0.52925
# Poissons Ratio (y) = -0.13534 0.18381
# Poissons Ratio (z) = 1.08943 0.85212
#
# Static dielectric constant tensor:
#      x y z
#    x 2.099560 -0.032580 -0.048990 
#    y -0.032580 2.040020 0.002030 
#    z -0.048990 0.002030 1.739480 
# 
# From -- ./inp_files/578718.got.cif
#   From: 2010.05.17/outbox.cif.g08.bks.cpg/sg2_290_cif.got.tgz:578718.got - 2010.06.03 11:33:40.
