data_PCOD9003511
_publ_section_title
;
Structure prediction by ZEFSAII (Michael W. Deem and Ramdas Pophale) SiO2 
 PCOD9003511
Probable space group: P -1
;
_chemical_formula_sum "Si O2"
_cell_formula_units_Z 12
_cell_length_a 23.927732
_cell_length_b 5.655000
_cell_length_c 20.968150
_cell_angle_alpha 90.696522
_cell_angle_beta 10.631800
_cell_angle_gamma 92.812309
_cell_volume 512.717915
_symmetry_space_group_name_H-M "P -1"
_symmetry_group_IT_number 2
_symmetry_cell_setting 'triclinic'
loop_
_space_group_symop_operation_xyz
x,y,z
-x,-y,-z
loop_
_atom_site_type_symbol
_atom_site_label
_atom_site_fract_x
_atom_site_fract_y
_atom_site_fract_z
Si Si1 0.082898 0.826691 0.207024
Si Si2 0.723666 0.414154 0.698448
Si Si3 0.725419 0.479474 0.359207
Si Si4 0.294595 0.352527 0.482772
Si Si5 0.662295 0.750714 0.980095
Si Si6 0.630541 0.964114 0.422587
O O1 0.850481 0.634191 0.509375
O O2 0.919174 0.845568 0.322797
O O3 0.190177 0.043599 0.135637
O O4 0.395505 0.731676 0.843896
O O5 0.034738 0.353934 0.379334
O O6 0.500000 0.500000 0.000000
O O7 0.523055 0.209608 0.876085
O O8 0.842654 0.560574 0.298752
O O9 0.568553 0.193754 0.534071
O O10 0.538949 0.686089 0.547446
O O11 0.000000 0.500000 0.000000
O O12 0.419982 0.575202 0.296170
O O13 0.500000 0.000000 0.500000
O O14 0.000000 0.000000 0.000000
#
# Coordination Sequence:
#
# PCOD9003511 Si02
#       6
#     2   2   2   2   2   2
#     4  10  22  40  60  87 123 163 207 252 316 379
#     4  10  21  37  60  92 123 156 205 254 304 376
#     4  10  23  43  64  96 126 168 218 276 330 387
#     4  10  23  39  60  87 121 161 210 261 313 385
#     4  10  21  39  59  87 122 164 201 252 313 375
#     4  10  22  40  62  88 124 158 203 263 329 386
#
# _framework density 23.404684
#
# number of rings (size 3 to 8) (size 9 to 14) (size 15 to 20)
#    0.000    2.000    0.000    2.000    2.333    6.667 
#    0.000    0.000    0.000    0.000    0.000    0.000 
#    0.000    0.000    0.000    0.000    0.000    0.000 
#
# Total GULP energy -66947.553617 kJ/mol
# GULP energy per Si atom -5578.962801 kJ/mol
# Density = 2.335141 g / cm^3
# Si number density = 23.404684 Si / 1000 Ang^3
#
#
#
# Elastic Constant Matrix: (Units=GPa)
#
#
# Indices 1 2 3 4 5 6 
#
# 1 65.7621 28.9001 111.2426 23.5541 -70.0177 47.3905
# 2 28.9001 124.5279 11.4520 -0.4785 1.3047 14.7418
# 3 111.2426 11.4520 52.4003 -26.4863 50.7591 -2.0566
# 4 23.5541 -0.4785 -26.4863 10.7313 34.4129 -14.5234
# 5 -70.0177 1.3047 50.7591 34.4129 -15.8560 24.0102
# 6 47.3905 14.7418 -2.0566 -14.5234 24.0102 32.7187
#
#
#
# Elastic Compliance Matrix: (Units=1/GPa)
#
#
# Indices 1 2 3 4 5 6 
#
# 1 0.005755 -0.001298 -0.000763 0.008919 -0.006831 0.001173
# 2 -0.001298 0.008637 0.000015 -0.001042 0.000231 -0.002642
# 3 -0.000763 0.000015 0.009587 -0.007473 0.007291 -0.006967
# 4 0.008919 -0.001042 -0.007473 0.033476 0.005778 -0.002299
# 5 -0.006831 0.000231 0.007291 0.005778 0.010610 0.005027
# 6 0.001173 -0.002642 -0.006967 -0.002299 0.005027 0.024907
#
#
# Mechanical properties :
#
#
# Convention : Reuss Voigt Hill
#
# Bulk Modulus (GPa) = 50.28764 60.65331 55.47048
# Shear Modulus (GPa) = 48.21897 11.59182 29.90540
#
# Velocity S-wave (km/s) = 4.54390 2.22790 3.57844
# Velocity P-wave (km/s) = 7.00444 5.70871 6.38950
#
# Compressibility (1/GPa) = 0.01988560
#
# Stress axis : x y z
#
# Youngs Moduli (GPa) = 173.75514 115.78656 104.31081
#
# Poissons Ratio (x) = 0.15035 0.07960
# Poissons Ratio (y) = 0.22562 -0.00158
# Poissons Ratio (z) = 0.13259 -0.00175
#
# Static dielectric constant tensor:
#      x y z
#    x 1.877540 0.044240 -0.048050 
#    y 0.044240 1.999670 -0.000210 
#    z -0.048050 -0.000210 1.928180 
# 
# From -- ./inp_files/5376.got.cif
#   From: 2010.05.17/outbox.cif.g08.bks.cpg/sg2_3_cif.got.tgz:5376.got - 2010.06.03 11:33:40.
