data_PCOD9003978
_publ_section_title
;
Structure prediction by ZEFSAII (Michael W. Deem and Ramdas Pophale) SiO2 
 PCOD9003978
Probable space group: P -1
;
_chemical_formula_sum "Si O2"
_cell_formula_units_Z 14
_cell_length_a 8.947478
_cell_length_b 10.671517
_cell_length_c 12.404892
_cell_angle_alpha 103.479179
_cell_angle_beta 127.619134
_cell_angle_gamma 45.230381
_cell_volume 623.946366
_symmetry_space_group_name_H-M "P -1"
_symmetry_group_IT_number 2
_symmetry_cell_setting 'triclinic'
loop_
_space_group_symop_operation_xyz
x,y,z
-x,-y,-z
loop_
_atom_site_type_symbol
_atom_site_label
_atom_site_fract_x
_atom_site_fract_y
_atom_site_fract_z
Si Si1 0.445615 0.482914 0.851030
Si Si2 0.506820 0.879568 0.561616
Si Si3 0.827878 0.306616 0.590789
Si Si4 0.042508 0.463991 0.638119
Si Si5 0.905324 0.348765 0.865104
Si Si6 0.603888 0.777910 0.819738
Si Si7 0.891612 0.141722 0.355289
O O1 0.717449 0.371980 0.876927
O O2 0.216661 0.686604 0.731766
O O3 0.317339 0.404033 0.778894
O O4 0.500000 0.500000 0.000000
O O5 0.772139 0.664125 0.608802
O O6 0.544104 0.886384 0.706279
O O7 0.500000 0.000000 0.500000
O O8 0.210661 0.959515 0.433797
O O9 0.500000 0.500000 0.500000
O O10 0.015624 0.331792 0.636555
O O11 0.911615 0.259470 0.743690
O O12 0.852970 0.201223 0.475991
O O13 0.000000 0.500000 0.500000
O O14 0.760987 0.561815 0.822073
O O15 0.202640 0.237514 0.020165
O O16 0.314023 0.873901 0.758025
#
# Coordination Sequence:
#
# PCOD9003978 Si02
#       7
#     2   2   2   2   2   2   2
#     4  11  22  36  59  93 124 159 206 255 303 362
#     4  12  22  38  60  90 128 163 200 254 309 371
#     4  12  20  39  61  93 120 158 212 255 297 364
#     4  12  22  39  62  92 120 161 207 254 304 359
#     4  10  21  37  63  91 122 158 211 258 300 355
#     4  10  21  38  60  92 119 162 205 251 307 360
#     4  11  23  39  61  93 124 162 207 253 310 365
#
# _framework density 22.437826000000001
#
# number of rings (size 3 to 8) (size 9 to 14) (size 15 to 20)
#    0.000    0.857    7.143    1.286    4.000    0.000 
#    0.000    0.714    0.000    2.571    0.000    0.000 
#    0.000    0.000    0.000    0.000    0.000    0.000 
#
# Total GULP energy -78263.257642 kJ/mol
# GULP energy per Si atom -5590.232689 kJ/mol
# Density = 2.238676 g / cm^3
# Si number density = 22.437826 Si / 1000 Ang^3
#
#
#
# Elastic Constant Matrix: (Units=GPa)
#
#
# Indices 1 2 3 4 5 6 
#
# 1 170.6827 26.6107 78.0747 10.8076 11.4600 -4.6634
# 2 26.6107 58.5270 26.7474 14.3942 6.7479 -9.7502
# 3 78.0747 26.7474 171.5818 16.1773 25.2110 -7.1098
# 4 10.8076 14.3942 16.1773 27.3107 1.1931 -0.7687
# 5 11.4600 6.7479 25.2110 1.1931 52.0104 -4.0275
# 6 -4.6634 -9.7502 -7.1098 -0.7687 -4.0275 30.2955
#
#
#
# Elastic Compliance Matrix: (Units=1/GPa)
#
#
# Indices 1 2 3 4 5 6 
#
# 1 0.007617 -0.002048 -0.003165 -0.000071 0.000106 -0.000217
# 2 -0.002048 0.022150 -0.001158 -0.009955 -0.001158 0.006135
# 3 -0.003165 -0.001158 0.008182 -0.002836 -0.003008 0.000589
# 4 -0.000071 -0.009955 -0.002836 0.043433 0.001486 -0.002581
# 5 0.000106 -0.001158 -0.003008 0.001486 0.020914 0.001756
# 6 -0.000217 0.006135 0.000589 -0.002581 0.001756 0.035255
#
#
# Mechanical properties :
#
#
# Convention : Reuss Voigt Hill
#
# Bulk Modulus (GPa) = 39.66921 73.73968 56.70444
# Shear Modulus (GPa) = 31.50669 39.88059 35.69364
#
# Velocity S-wave (km/s) = 3.75130 4.22047 3.99279
# Velocity P-wave (km/s) = 6.03995 7.52896 6.82518
#
# Compressibility (1/GPa) = 0.02520847
#
# Stress axis : x y z
#
# Youngs Moduli (GPa) = 131.28253 45.14583 122.21275
#
# Poissons Ratio (x) = 0.09246 0.38676
# Poissons Ratio (y) = 0.26886 0.14155
# Poissons Ratio (z) = 0.41547 0.05229
#
# Static dielectric constant tensor:
#      x y z
#    x 1.842080 0.053880 0.002030 
#    y 0.053880 2.063620 -0.026280 
#    z 0.002030 -0.026280 1.797060 
# 
# From -- ./inp_files/226145.got.cif
#   From: 2010.05.17/outbox.cif.g08.bks.cpg/sg2_114_cif.got.tgz:226145.got - 2010.06.03 11:33:40.
