data_PCOD9003021
_publ_section_title
;
Structure prediction by ZEFSAII (Michael W. Deem and Ramdas Pophale) SiO2 
 PCOD9003021
Probable space group: P -1
;
_chemical_formula_sum "Si O2"
_cell_formula_units_Z 16
_cell_length_a 12.575960
_cell_length_b 5.169215
_cell_length_c 12.533756
_cell_angle_alpha 80.560302
_cell_angle_beta 76.764112
_cell_angle_gamma 77.213499
_cell_volume 767.946815
_symmetry_space_group_name_H-M "P -1"
_symmetry_group_IT_number 2
_symmetry_cell_setting 'triclinic'
loop_
_space_group_symop_operation_xyz
x,y,z
-x,-y,-z
loop_
_atom_site_type_symbol
_atom_site_label
_atom_site_fract_x
_atom_site_fract_y
_atom_site_fract_z
Si Si1 0.525383 0.566374 0.610974
Si Si2 0.742321 0.183758 0.625298
Si Si3 0.430898 0.135056 0.234589
Si Si4 0.303906 0.392010 0.712902
Si Si5 0.629284 0.475098 0.945713
Si Si6 0.341653 0.080560 0.929295
Si Si7 0.788551 0.007159 0.384056
Si Si8 0.016631 0.772694 0.421224
O O1 0.500000 0.500000 0.500000
O O2 0.654798 0.447516 0.599393
O O3 0.517653 0.840380 0.660487
O O4 0.430925 0.432674 0.698320
O O5 0.856530 0.241196 0.643057
O O6 0.669983 0.019277 0.723580
O O7 0.766116 0.040645 0.513698
O O8 0.376896 0.429357 0.181499
O O9 0.531582 0.011570 0.140312
O O10 0.274492 0.236245 0.835231
O O11 0.283378 0.194151 0.636335
O O12 0.240470 0.695486 0.681010
O O13 0.500000 0.500000 0.000000
O O14 0.666603 0.706252 0.989753
O O15 0.687990 0.187604 0.995420
O O16 0.918270 0.867947 0.353267
O O17 0.000000 0.500000 0.500000
O O18 0.000000 0.000000 0.500000
#
# Coordination Sequence:
#
# PCOD9003021 Si02
#       8
#     2   2   2   2   2   2   2   2
#     4  12  24  35  55  89 135 161 191 234 300 372
#     4  11  24  36  60  85 122 162 201 240 294 352
#     4  11  23  36  57  88 123 166 201 241 298 363
#     4  12  22  37  59  87 121 158 198 236 306 364
#     4  10  21  37  57  80 119 161 201 245 294 351
#     4  11  22  37  58  85 120 158 198 249 298 360
#     4  11  23  39  59  84 120 163 202 247 286 351
#     4  10  23  42  60  81 114 161 214 251 280 330
#
# _framework density 20.834778
#
# number of rings (size 3 to 8) (size 9 to 14) (size 15 to 20)
#    0.000    1.000    2.500    6.750    5.250    1.000 
#    0.000    0.000    0.000    0.000    0.000    5.250 
#    0.000    0.000    0.000    0.000    0.000    0.000 
#
# Total GULP energy -89213.763182 kJ/mol
# GULP energy per Si atom -5575.860199 kJ/mol
# Density = 2.078736 g / cm^3
# Si number density = 20.834778 Si / 1000 Ang^3
#
#
#
# Elastic Constant Matrix: (Units=GPa)
#
#
# Indices 1 2 3 4 5 6 
#
# 1 115.4596 40.9081 8.6717 -2.4647 -5.7676 -6.7583
# 2 40.9081 148.9026 31.1278 -23.9776 5.9108 8.1952
# 3 8.6717 31.1278 69.9330 -13.8536 10.0171 0.7046
# 4 -2.4647 -23.9776 -13.8536 43.7591 2.7302 8.1120
# 5 -5.7676 5.9108 10.0171 2.7302 14.2839 -3.6462
# 6 -6.7583 8.1952 0.7046 8.1120 -3.6462 31.2335
#
#
#
# Elastic Compliance Matrix: (Units=1/GPa)
#
#
# Indices 1 2 3 4 5 6 
#
# 1 0.010871 -0.003882 -0.001730 -0.003652 0.009297 0.005444
# 2 -0.003882 0.009690 -0.001539 0.006119 -0.007141 -0.005771
# 3 -0.001730 -0.001539 0.018793 0.006710 -0.015532 -0.003951
# 4 -0.003652 0.006119 0.006710 0.031636 -0.018045 -0.012870
# 5 0.009297 -0.007141 -0.015532 -0.018045 0.096204 0.020153
# 6 0.005444 -0.005771 -0.003951 -0.012870 0.020153 0.040493
#
#
# Mechanical properties :
#
#
# Convention : Reuss Voigt Hill
#
# Bulk Modulus (GPa) = 39.91468 55.07892 47.49680
# Shear Modulus (GPa) = 21.70709 34.76114 28.23412
#
# Velocity S-wave (km/s) = 3.23130 4.08906 3.68522
# Velocity P-wave (km/s) = 5.75509 6.98479 6.39955
#
# Compressibility (1/GPa) = 0.02505344
#
# Stress axis : x y z
#
# Youngs Moduli (GPa) = 91.98477 103.19570 53.21206
#
# Poissons Ratio (x) = 0.40057 0.09206
# Poissons Ratio (y) = 0.35705 0.08188
# Poissons Ratio (z) = 0.15915 0.15879
#
# Static dielectric constant tensor:
#      x y z
#    x 1.771830 -0.024870 0.024900 
#    y -0.024870 1.848350 -0.029240 
#    z 0.024900 -0.029240 1.821030 
# 
# From -- ./inp_files/409150.got.cif
#   From: 2010.05.17/outbox.cif.g08.bks.cpg/sg2_205_cif.got.tgz:409150.got - 2010.06.03 11:33:40.
