data_PCOD9003642
_publ_section_title
;
Structure prediction by ZEFSAII (Michael W. Deem and Ramdas Pophale) SiO2 
 PCOD9003642
Probable space group: P -1
;
_chemical_formula_sum "Si O2"
_cell_formula_units_Z 16
_cell_length_a 5.815345
_cell_length_b 25.153056
_cell_length_c 6.515697
_cell_angle_alpha 48.033131
_cell_angle_beta 75.666598
_cell_angle_gamma 92.111388
_cell_volume 658.929840
_symmetry_space_group_name_H-M "P -1"
_symmetry_group_IT_number 2
_symmetry_cell_setting 'triclinic'
loop_
_space_group_symop_operation_xyz
x,y,z
-x,-y,-z
loop_
_atom_site_type_symbol
_atom_site_label
_atom_site_fract_x
_atom_site_fract_y
_atom_site_fract_z
Si Si1 0.445932 0.945122 0.845190
Si Si2 0.697084 0.840910 0.865731
Si Si3 0.379602 0.399357 0.624258
Si Si4 0.820745 0.066219 0.689161
Si Si5 0.266055 0.547319 0.241684
Si Si6 0.884017 0.719769 0.312287
Si Si7 0.653899 0.213424 0.253765
Si Si8 0.094535 0.666740 0.807299
O O1 0.484409 0.870154 0.939692
O O2 0.500000 0.000000 0.500000
O O3 0.664799 0.986333 0.846163
O O4 0.196194 0.936649 0.051753
O O5 0.592395 0.794105 0.803931
O O6 0.920875 0.907311 0.554803
O O7 0.791693 0.793317 0.135605
O O8 0.406283 0.484792 0.330666
O O9 0.601902 0.402782 0.723269
O O10 0.326750 0.344885 0.584449
O O11 0.134202 0.367515 0.899759
O O12 0.686560 0.131143 0.499070
O O13 0.000000 0.500000 0.500000
O O14 0.224264 0.600345 0.933534
O O15 0.972327 0.691652 0.573177
O O16 0.123981 0.743842 0.052880
O O17 0.706541 0.262606 0.319040
#
# Coordination Sequence:
#
# PCOD9003642 Si02
#       8
#     2   2   2   2   2   2   2   2
#     4  11  23  45  68  95 135 169 223 274 329 407
#     4  11  23  44  69  95 133 180 214 278 342 386
#     4   9  19  39  59  89 129 166 217 268 323 393
#     4  10  24  44  64  99 130 171 220 275 331 402
#     4   9  18  36  62  87 125 172 210 268 330 380
#     4  10  23  40  61  94 130 167 223 271 321 400
#     4  10  22  42  61  93 132 166 216 273 324 391
#     4  10  21  37  61  90 126 170 216 269 326 388
#
# _framework density 24.281796
#
# number of rings (size 3 to 8) (size 9 to 14) (size 15 to 20)
#    0.000    2.000    1.250    1.125    1.750    2.000 
#    9.000    5.625    0.000    0.000    0.000    0.000 
#    0.000    0.000    0.000    0.000    0.000    0.000 
#
# Total GULP energy -89453.857903 kJ/mol
# GULP energy per Si atom -5590.866119 kJ/mol
# Density = 2.422653 g / cm^3
# Si number density = 24.281796 Si / 1000 Ang^3
#
#
#
# Elastic Constant Matrix: (Units=GPa)
#
#
# Indices 1 2 3 4 5 6 
#
# 1 52.0234 5.2002 25.0409 -0.4779 0.7616 17.8555
# 2 5.2002 72.7403 35.7227 -4.1182 -0.8239 20.7143
# 3 25.0409 35.7227 131.9069 8.8115 19.7452 -5.5962
# 4 -0.4779 -4.1182 8.8115 24.5660 -2.7125 -5.7902
# 5 0.7616 -0.8239 19.7452 -2.7125 47.3776 -2.3606
# 6 17.8555 20.7143 -5.5962 -5.7902 -2.3606 37.6437
#
#
#
# Elastic Compliance Matrix: (Units=1/GPa)
#
#
# Indices 1 2 3 4 5 6 
#
# 1 0.029330 0.007860 -0.008941 0.000823 0.002478 -0.019284
# 2 0.007860 0.022683 -0.009105 0.003644 0.003435 -0.016788
# 3 -0.008941 -0.009105 0.013281 -0.004652 -0.005309 0.010177
# 4 0.000823 0.003644 -0.004652 0.044480 0.004737 0.004052
# 5 0.002478 0.003435 -0.005309 0.004737 0.023529 -0.001650
# 6 -0.019284 -0.016788 0.010177 0.004052 -0.001650 0.046982
#
#
# Mechanical properties :
#
#
# Convention : Reuss Voigt Hill
#
# Bulk Modulus (GPa) = 22.25998 43.17757 32.71878
# Shear Modulus (GPa) = 23.18785 34.63128 28.90957
#
# Velocity S-wave (km/s) = 3.09358 3.78064 3.45423
# Velocity P-wave (km/s) = 4.68482 6.07273 5.42336
#
# Compressibility (1/GPa) = 0.04492367
#
# Stress axis : x y z
#
# Youngs Moduli (GPa) = 34.09478 44.08621 75.29366
#
# Poissons Ratio (x) = -0.34653 0.67318
# Poissons Ratio (y) = -0.26799 0.68554
# Poissons Ratio (z) = 0.30483 0.40140
#
# Static dielectric constant tensor:
#      x y z
#    x 1.924760 -0.011210 0.033620 
#    y -0.011210 1.988150 0.020350 
#    z 0.033620 0.020350 1.952650 
# 
# From -- ./inp_files/14312.got.cif
#   From: 2010.05.17/outbox.cif.g08.bks.cpg/sg2_8_cif.got.tgz:14312.got - 2010.06.03 11:33:40.
