data_PCOD9003692
_publ_section_title
;
Structure prediction by ZEFSAII (Michael W. Deem and Ramdas Pophale) SiO2 
 PCOD9003692
Probable space group: P -1
;
_chemical_formula_sum "Si O2"
_cell_formula_units_Z 16
_cell_length_a 13.153117
_cell_length_b 11.768523
_cell_length_c 7.090311
_cell_angle_alpha 114.312166
_cell_angle_beta 93.830518
_cell_angle_gamma 133.647630
_cell_volume 612.712222
_symmetry_space_group_name_H-M "P -1"
_symmetry_group_IT_number 2
_symmetry_cell_setting 'triclinic'
loop_
_space_group_symop_operation_xyz
x,y,z
-x,-y,-z
loop_
_atom_site_type_symbol
_atom_site_label
_atom_site_fract_x
_atom_site_fract_y
_atom_site_fract_z
Si Si1 0.194363 0.342514 0.609171
Si Si2 0.522021 0.347900 0.425485
Si Si3 0.569282 0.203434 0.611516
Si Si4 0.290141 0.064903 0.703814
Si Si5 0.036192 0.385508 0.077794
Si Si6 0.974278 0.369138 0.626447
Si Si7 0.151982 0.037391 0.272858
Si Si8 0.333525 0.365849 0.008531
O O1 0.375502 0.530587 0.666278
O O2 0.107937 0.392467 0.607498
O O3 0.106095 0.138596 0.358446
O O4 0.213662 0.322004 0.816785
O O5 0.521358 0.204749 0.397783
O O6 0.334527 0.210448 0.323232
O O7 0.623182 0.516205 0.719806
O O8 0.766549 0.408224 0.786830
O O9 0.500000 0.000000 0.500000
O O10 0.469923 0.195590 0.741176
O O11 0.198039 0.853363 0.621205
O O12 0.277075 0.170618 0.908117
O O13 0.194385 0.028542 0.483688
O O14 0.971439 0.184432 0.982346
O O15 0.990168 0.449865 0.265865
O O16 0.956451 0.340246 0.834015
O O17 0.500000 0.500000 0.000000
#
# Coordination Sequence:
#
# PCOD9003692 Si02
#       8
#     2   2   2   2   2   2   2   2
#     4  11  23  41  68  97 137 176 218 276 325 393
#     4  11  23  41  68  98 134 170 225 271 324 394
#     4  11  20  37  67  92 125 175 222 267 327 386
#     4   9  19  36  60  96 123 168 225 268 321 401
#     4  10  21  37  65  94 131 174 222 273 329 395
#     4  10  21  37  61  93 135 173 219 270 335 387
#     4   9  20  38  62  95 132 170 214 275 330 384
#     4  11  20  38  67 100 127 169 223 272 330 385
#
# _framework density 26.113402000000001
#
# number of rings (size 3 to 8) (size 9 to 14) (size 15 to 20)
#    0.000    1.750    5.000    1.125    1.750    5.500 
#    0.000    3.750    2.750    0.000    0.000    0.000 
#    0.000    0.125    0.000    0.000    0.000    0.000 
#
# Total GULP energy -89531.686424 kJ/mol
# GULP energy per Si atom -5595.730402 kJ/mol
# Density = 2.605397 g / cm^3
# Si number density = 26.113402 Si / 1000 Ang^3
#
#
#
# Elastic Constant Matrix: (Units=GPa)
#
#
# Indices 1 2 3 4 5 6 
#
# 1 175.2144 70.0330 49.7897 34.9432 -29.3608 -16.6254
# 2 70.0330 133.5946 50.7392 23.0649 -22.8954 -15.0041
# 3 49.7897 50.7392 89.9841 10.1699 -19.6153 -9.6562
# 4 34.9432 23.0649 10.1699 42.8883 -10.1959 1.3331
# 5 -29.3608 -22.8954 -19.6153 -10.1959 36.4883 13.1391
# 6 -16.6254 -15.0041 -9.6562 1.3331 13.1391 48.1478
#
#
#
# Elastic Compliance Matrix: (Units=1/GPa)
#
#
# Indices 1 2 3 4 5 6 
#
# 1 0.008806 -0.002319 -0.002322 -0.004804 0.002578 0.001282
# 2 -0.002319 0.011232 -0.004226 -0.002819 0.001583 0.001498
# 3 -0.002322 -0.004226 0.015530 0.001520 0.004335 -0.000229
# 4 -0.004804 -0.002819 0.001520 0.029735 0.005092 -0.004445
# 5 0.002578 0.001583 0.004335 0.005092 0.037114 -0.008016
# 6 0.001282 0.001498 -0.000229 -0.004445 -0.008016 0.023943
#
#
# Mechanical properties :
#
#
# Convention : Reuss Voigt Hill
#
# Bulk Modulus (GPa) = 56.07535 82.21300 69.14417
# Shear Modulus (GPa) = 33.32478 40.72028 37.02253
#
# Velocity S-wave (km/s) = 3.57621 3.95316 3.76940
# Velocity P-wave (km/s) = 6.21070 7.23796 6.74392
#
# Compressibility (1/GPa) = 0.01783315
#
# Stress axis : x y z
#
# Youngs Moduli (GPa) = 113.56216 89.02894 64.39335
#
# Poissons Ratio (x) = 0.20646 0.14954
# Poissons Ratio (y) = 0.26335 0.27212
# Poissons Ratio (z) = 0.26372 0.37623
#
# Static dielectric constant tensor:
#      x y z
#    x 2.115840 -0.039080 0.001780 
#    y -0.039080 2.085950 0.044260 
#    z 0.001780 0.044260 2.106220 
# 
# From -- ./inp_files/268347.got.cif
#   From: 2010.05.17/outbox.cif.g08.bks.cpg/sg2_135_cif.got.tgz:268347.got - 2010.06.03 11:33:40.
