data_PCOD9003501
_publ_section_title
;
Structure prediction by ZEFSAII (Michael W. Deem and Ramdas Pophale) SiO2 
 PCOD9003501
Probable space group: P -1
;
_chemical_formula_sum "Si O2"
_cell_formula_units_Z 14
_cell_length_a 5.360220
_cell_length_b 12.838183
_cell_length_c 23.809283
_cell_angle_alpha 155.576378
_cell_angle_beta 70.166203
_cell_angle_gamma 110.226469
_cell_volume 634.419371
_symmetry_space_group_name_H-M "P -1"
_symmetry_group_IT_number 2
_symmetry_cell_setting 'triclinic'
loop_
_space_group_symop_operation_xyz
x,y,z
-x,-y,-z
loop_
_atom_site_type_symbol
_atom_site_label
_atom_site_fract_x
_atom_site_fract_y
_atom_site_fract_z
Si Si1 0.207384 0.211340 0.116585
Si Si2 0.383203 0.217504 0.286077
Si Si3 0.230855 0.314190 0.882404
Si Si4 0.250790 0.488337 0.084531
Si Si5 0.111290 0.047544 0.332803
Si Si6 0.687341 0.196727 0.001075
Si Si7 0.018732 0.520376 0.637316
O O1 0.428806 0.309065 0.102379
O O2 0.084234 0.432882 0.268882
O O3 0.318732 0.053507 0.081619
O O4 0.000000 0.000000 0.000000
O O5 0.313138 0.191769 0.344415
O O6 0.689322 0.326858 0.311314
O O7 0.179452 0.379533 0.346123
O O8 0.342302 0.940349 0.124189
O O9 0.444309 0.442982 0.885168
O O10 0.315215 0.310370 0.938872
O O11 0.138226 0.041434 0.731956
O O12 0.000000 0.500000 0.000000
O O13 0.976553 0.353699 0.063842
O O14 0.191385 0.775653 0.213907
O O15 0.049432 0.231533 0.477424
#
# Coordination Sequence:
#
# PCOD9003501 Si02
#       7
#     2   2   2   2   2   2   2
#     4  10  21  40  64  87 119 162 216 270 304 364
#     4  11  23  39  64  93 128 167 205 260 314 381
#     4   9  20  35  56  87 124 165 197 242 302 379
#     4  10  21  37  60  91 128 163 204 256 313 379
#     4  11  23  37  60  92 132 165 200 252 319 391
#     4  10  21  39  64  93 118 159 217 263 317 360
#     4  11  25  40  64  93 128 168 212 257 316 373
#
# _framework density 22.067421
#
# number of rings (size 3 to 8) (size 9 to 14) (size 15 to 20)
#    0.000    1.714    2.857    0.857    4.000    5.714 
#    0.000    0.714    0.000    1.714    0.000    0.000 
#    0.000    0.000    0.000    0.000    0.000    0.000 
#
# Total GULP energy -78015.161156 kJ/mol
# GULP energy per Si atom -5572.511511 kJ/mol
# Density = 2.201720 g / cm^3
# Si number density = 22.067421 Si / 1000 Ang^3
#
#
#
# Elastic Constant Matrix: (Units=GPa)
#
#
# Indices 1 2 3 4 5 6 
#
# 1 86.7527 26.5343 14.5423 -2.1479 -5.7532 28.3742
# 2 26.5343 110.6565 36.7322 -13.6212 -6.3138 44.0651
# 3 14.5423 36.7322 155.1110 -26.0353 -1.5482 13.9655
# 4 -2.1479 -13.6212 -26.0353 33.4641 -3.3256 -4.0463
# 5 -5.7532 -6.3138 -1.5482 -3.3256 15.0989 3.6263
# 6 28.3742 44.0651 13.9655 -4.0463 3.6263 51.1119
#
#
#
# Elastic Compliance Matrix: (Units=1/GPa)
#
#
# Indices 1 2 3 4 5 6 
#
# 1 0.015042 0.000958 -0.000593 0.000581 0.008498 -0.009571
# 2 0.000958 0.016518 -0.001751 0.004801 0.011691 -0.014743
# 3 -0.000593 -0.001751 0.007839 0.005457 0.001034 0.000056
# 4 0.000581 0.004801 0.005457 0.036827 0.011831 -0.003877
# 5 0.008498 0.011691 0.001034 0.011831 0.081860 -0.019950
# 6 -0.009571 -0.014743 0.000056 -0.003877 -0.019950 0.038681
#
#
# Mechanical properties :
#
#
# Convention : Reuss Voigt Hill
#
# Bulk Modulus (GPa) = 27.30424 56.45974 41.88199
# Shear Modulus (GPa) = 23.61303 38.24907 30.93105
#
# Velocity S-wave (km/s) = 3.27470 4.16779 3.74794
# Velocity P-wave (km/s) = 5.16702 6.98579 6.14408
#
# Compressibility (1/GPa) = 0.03662435
#
# Stress axis : x y z
#
# Youngs Moduli (GPa) = 66.48162 60.54179 127.57416
#
# Poissons Ratio (x) = -0.05797 0.07564
# Poissons Ratio (y) = -0.06366 0.22343
# Poissons Ratio (z) = 0.03942 0.10603
#
# Static dielectric constant tensor:
#      x y z
#    x 2.195890 -0.102050 -0.058020 
#    y -0.102050 1.940890 -0.018400 
#    z -0.058020 -0.018400 1.829650 
# 
# From -- ./inp_files/595042.got.cif
#   From: 2010.05.17/outbox.cif.g08.bks.cpg/sg2_298_cif.got.tgz:595042.got - 2010.06.03 11:33:40.
