data_PCOD9003532
_publ_section_title
;
Structure prediction by ZEFSAII (Michael W. Deem and Ramdas Pophale) SiO2 
 PCOD9003532
Probable space group: P -1
;
_chemical_formula_sum "Si O2"
_cell_formula_units_Z 14
_cell_length_a 14.420074
_cell_length_b 7.282160
_cell_length_c 12.831185
_cell_angle_alpha 133.118108
_cell_angle_beta 146.071476
_cell_angle_gamma 58.847284
_cell_volume 544.845221
_symmetry_space_group_name_H-M "P -1"
_symmetry_group_IT_number 2
_symmetry_cell_setting 'triclinic'
loop_
_space_group_symop_operation_xyz
x,y,z
-x,-y,-z
loop_
_atom_site_type_symbol
_atom_site_label
_atom_site_fract_x
_atom_site_fract_y
_atom_site_fract_z
Si Si1 0.387044 0.892347 0.567691
Si Si2 0.167886 0.016914 0.098518
Si Si3 0.973753 0.648663 0.427387
Si Si4 0.593506 0.415290 0.952777
Si Si5 0.026090 0.910673 0.258796
Si Si6 0.805911 0.444900 0.599920
Si Si7 0.585150 0.289077 0.688957
O O1 0.345294 0.769823 0.593395
O O2 0.390551 0.675343 0.397691
O O3 0.546187 0.104790 0.797312
O O4 0.213436 0.013270 0.429875
O O5 0.256328 0.289932 0.325041
O O6 0.243873 0.771470 0.116725
O O7 0.000000 0.000000 0.000000
O O8 0.110929 0.042489 0.935778
O O9 0.003690 0.940463 0.605026
O O10 0.000000 0.500000 0.500000
O O11 0.103141 0.576562 0.432998
O O12 0.779133 0.564144 0.188850
O O13 0.520347 0.460478 0.786018
O O14 0.500000 0.500000 0.000000
O O15 0.055246 0.628489 0.213159
O O16 0.500000 0.000000 0.500000
#
# Coordination Sequence:
#
# PCOD9003532 Si02
#       7
#     2   2   2   2   2   2   2
#     4   9  21  41  62  90 129 164 209 261 324 370
#     4  12  20  37  64  95 120 163 216 265 310 378
#     4  12  24  38  65  99 126 168 219 263 312 383
#     4  11  21  40  63  89 124 172 206 252 319 380
#     4  10  21  37  60  93 132 158 214 260 318 363
#     4  10  23  39  65  93 131 166 211 272 323 370
#     4  10  22  38  62  92 128 165 208 262 315 380
#
# _framework density 25.69537
#
# number of rings (size 3 to 8) (size 9 to 14) (size 15 to 20)
#    0.857    0.571    2.857    3.429    0.000    0.000 
#    0.000    3.571    0.000    8.571    0.000    0.000 
#    0.000    0.000    0.000    0.000    0.000    0.000 
#
# Total GULP energy -78019.443725 kJ/mol
# GULP energy per Si atom -5572.817409 kJ/mol
# Density = 2.563689 g / cm^3
# Si number density = 25.695370 Si / 1000 Ang^3
#
#
#
# Elastic Constant Matrix: (Units=GPa)
#
#
# Indices 1 2 3 4 5 6 
#
# 1 178.3623 14.1581 48.3413 -1.5024 -31.0828 9.1369
# 2 14.1581 80.1708 6.5149 -10.8240 -14.8267 5.5403
# 3 48.3413 6.5149 100.8926 1.3897 -34.9871 2.5692
# 4 -1.5024 -10.8240 1.3897 32.0157 1.5627 -5.0325
# 5 -31.0828 -14.8267 -34.9871 1.5627 56.7009 7.7860
# 6 9.1369 5.5403 2.5692 -5.0325 7.7860 37.5476
#
#
#
# Elastic Compliance Matrix: (Units=1/GPa)
#
#
# Indices 1 2 3 4 5 6 
#
# 1 0.006798 -0.000445 -0.002328 -0.000158 0.002447 -0.001958
# 2 -0.000445 0.013955 0.000718 0.004109 0.004049 -0.002289
# 3 -0.002328 0.000718 0.013733 -0.001192 0.007726 -0.002241
# 4 -0.000158 0.004109 -0.001192 0.033397 -0.001251 0.004249
# 5 0.002447 0.004049 0.007726 -0.001251 0.025834 -0.007246
# 6 -0.001958 -0.002289 -0.002241 0.004249 -0.007246 0.029673
#
#
# Mechanical properties :
#
#
# Convention : Reuss Voigt Hill
#
# Bulk Modulus (GPa) = 32.91915 55.27272 44.09594
# Shear Modulus (GPa) = 36.33036 44.61359 40.47198
#
# Velocity S-wave (km/s) = 3.76425 4.17135 3.97302
# Velocity P-wave (km/s) = 5.63311 6.69012 6.18424
#
# Compressibility (1/GPa) = 0.03037745
#
# Stress axis : x y z
#
# Youngs Moduli (GPa) = 147.09687 71.65700 72.81543
#
# Poissons Ratio (x) = 0.03187 0.16951
# Poissons Ratio (y) = 0.06542 -0.05228
# Poissons Ratio (z) = 0.34243 -0.05144
#
# Static dielectric constant tensor:
#      x y z
#    x 2.209610 -0.182110 -0.136670 
#    y -0.182110 2.369090 0.286640 
#    z -0.136670 0.286640 3.133880 
# 
# From -- ./inp_files/448257.got.cif
#   From: 2010.05.17/outbox.cif.g08.bks.cpg/sg2_225_cif.got.tgz:448257.got - 2010.06.03 11:33:40.
