data_PCOD9003159
_publ_section_title
;
Structure prediction by ZEFSAII (Michael W. Deem and Ramdas Pophale) SiO2 
 PCOD9003159
Probable space group: P -1
;
_chemical_formula_sum "Si O2"
_cell_formula_units_Z 16
_cell_length_a 12.804588
_cell_length_b 18.997303
_cell_length_c 10.516469
_cell_angle_alpha 111.467666
_cell_angle_beta 39.160231
_cell_angle_gamma 141.948501
_cell_volume 774.535357
_symmetry_space_group_name_H-M "P -1"
_symmetry_group_IT_number 2
_symmetry_cell_setting 'triclinic'
loop_
_space_group_symop_operation_xyz
x,y,z
-x,-y,-z
loop_
_atom_site_type_symbol
_atom_site_label
_atom_site_fract_x
_atom_site_fract_y
_atom_site_fract_z
Si Si1 0.153853 0.171671 0.869892
Si Si2 0.099236 0.621164 0.101285
Si Si3 0.361710 0.387395 0.160609
Si Si4 0.554255 0.699443 0.597370
Si Si5 0.217504 0.599029 0.236641
Si Si6 0.511103 0.822175 0.280583
Si Si7 0.257478 0.376363 0.535469
Si Si8 0.839568 0.174316 0.320710
O O1 0.283576 0.225088 0.641020
O O2 0.395745 0.215723 0.753341
O O3 0.084296 0.227704 0.029730
O O4 0.821192 0.995584 0.081332
O O5 0.049225 0.554719 0.234925
O O6 0.795186 0.477299 0.207308
O O7 0.053129 0.692484 0.206777
O O8 0.442933 0.731371 0.794657
O O9 0.373329 0.429701 0.316110
O O10 0.004118 0.228683 0.339772
O O11 0.500000 0.500000 0.000000
O O12 0.560819 0.387632 0.978159
O O13 0.771270 0.724635 0.484036
O O14 0.403402 0.748295 0.198115
O O15 0.000000 0.500000 0.500000
O O16 0.244925 0.769559 0.567611
O O17 0.500000 0.500000 0.500000
O O18 0.500000 0.000000 0.500000
#
# Coordination Sequence:
#
# PCOD9003159 Si02
#       8
#     2   2   2   2   2   2   2   2
#     4  10  21  38  63  89 122 168 214 257 313 388
#     4  10  21  37  58  86 124 159 203 261 314 380
#     4  12  24  39  65 100 126 163 221 270 321 384
#     4  10  21  38  58  86 122 165 210 250 318 383
#     4  12  22  38  63  93 128 161 203 274 328 373
#     4  10  21  39  60  91 125 159 209 265 314 376
#     4  10  22  39  59  89 129 166 202 265 321 382
#     4  10  22  40  63  93 132 168 208 269 321 378
#
# _framework density 20.657547000000001
#
# number of rings (size 3 to 8) (size 9 to 14) (size 15 to 20)
#    0.000    1.500    2.500    3.000    3.500    1.000 
#    0.000    0.625    0.000    3.750    0.000    0.000 
#    0.000    0.000    0.000    0.000    0.000    0.000 
#
# Total GULP energy -89191.517974 kJ/mol
# GULP energy per Si atom -5574.469873 kJ/mol
# Density = 2.061053 g / cm^3
# Si number density = 20.657547 Si / 1000 Ang^3
#
#
#
# Elastic Constant Matrix: (Units=GPa)
#
#
# Indices 1 2 3 4 5 6 
#
# 1 83.7784 19.0421 66.5037 17.1373 -20.6877 -3.2240
# 2 19.0421 65.6653 27.0805 16.2092 -11.5682 6.5310
# 3 66.5037 27.0805 148.0065 47.0205 -18.5251 -19.5932
# 4 17.1373 16.2092 47.0205 35.4001 -7.2371 -6.9361
# 5 -20.6877 -11.5682 -18.5251 -7.2371 49.4024 15.0988
# 6 -3.2240 6.5310 -19.5932 -6.9361 15.0988 28.9593
#
#
#
# Elastic Compliance Matrix: (Units=1/GPa)
#
#
# Indices 1 2 3 4 5 6 
#
# 1 0.021605 -0.000655 -0.011152 0.004698 0.007829 -0.007950
# 2 -0.000655 0.020063 -0.001635 -0.007562 0.005947 -0.010616
# 3 -0.011152 -0.001635 0.018251 -0.017005 -0.003524 0.009240
# 4 0.004698 -0.007562 -0.017005 0.052744 0.000620 0.003033
# 5 0.007829 0.005947 -0.003524 0.000620 0.029155 -0.017907
# 6 -0.007950 -0.010616 0.009240 0.003033 -0.017907 0.052355
#
#
# Mechanical properties :
#
#
# Convention : Reuss Voigt Hill
#
# Bulk Modulus (GPa) = 30.27273 58.07811 44.17542
# Shear Modulus (GPa) = 21.54519 35.07394 28.30957
#
# Velocity S-wave (km/s) = 3.23301 4.12500 3.70594
# Velocity P-wave (km/s) = 5.35003 7.13185 6.30421
#
# Compressibility (1/GPa) = 0.03303303
#
# Stress axis : x y z
#
# Youngs Moduli (GPa) = 46.28642 49.84232 54.79126
#
# Poissons Ratio (x) = 0.03267 0.61106
# Poissons Ratio (y) = 0.03033 0.08959
# Poissons Ratio (z) = 0.51621 0.08150
#
# Static dielectric constant tensor:
#      x y z
#    x 1.750170 0.026280 -0.041600 
#    y 0.026280 1.932170 0.031510 
#    z -0.041600 0.031510 1.778660 
# 
# From -- ./inp_files/283123.got.cif
#   From: 2010.05.17/outbox.cif.g08.bks.cpg/sg2_142_cif.got.tgz:283123.got - 2010.06.03 11:33:40.
