data_PCOD9003677
_publ_section_title
;
Structure prediction by ZEFSAII (Michael W. Deem and Ramdas Pophale) SiO2 
 PCOD9003677
Probable space group: P -1
;
_chemical_formula_sum "Si O2"
_cell_formula_units_Z 14
_cell_length_a 19.796376
_cell_length_b 9.020508
_cell_length_c 5.050352
_cell_angle_alpha 119.001158
_cell_angle_beta 130.921533
_cell_angle_gamma 51.865288
_cell_volume 531.082784
_symmetry_space_group_name_H-M "P -1"
_symmetry_group_IT_number 2
_symmetry_cell_setting 'triclinic'
loop_
_space_group_symop_operation_xyz
x,y,z
-x,-y,-z
loop_
_atom_site_type_symbol
_atom_site_label
_atom_site_fract_x
_atom_site_fract_y
_atom_site_fract_z
Si Si1 0.732352 0.437535 0.271456
Si Si2 0.702276 0.882841 0.018513
Si Si3 0.945784 0.771225 0.235171
Si Si4 0.650348 0.151252 0.621893
Si Si5 0.877008 0.564227 0.440433
Si Si6 0.910388 0.133874 0.689426
Si Si7 0.439213 0.221879 0.107795
O O1 0.803045 0.489616 0.311590
O O2 0.804520 0.326241 0.611079
O O3 0.700769 0.287176 0.928127
O O4 0.630990 0.636406 0.176448
O O5 0.683741 0.044681 0.332970
O O6 0.815090 0.713025 0.183770
O O7 0.678413 0.983759 0.764444
O O8 0.630735 0.789167 0.845887
O O9 0.018861 0.621293 0.508467
O O10 0.027014 0.805954 0.299920
O O11 0.878480 0.978840 0.355706
O O12 0.899018 0.680085 0.830880
O O13 0.529745 0.271800 0.442796
O O14 0.000000 0.000000 0.000000
O O15 0.500000 0.000000 0.000000
#
# Coordination Sequence:
#
# PCOD9003677 Si02
#       7
#     2   2   2   2   2   2   2
#     4  10  21  39  61  93 126 166 217 263 327 384
#     4  10  22  40  66  95 131 171 216 265 324 385
#     4   9  19  39  61  82 128 166 214 265 319 378
#     4  11  22  41  67  94 133 168 215 269 323 384
#     4   9  19  40  60  90 124 172 217 262 323 384
#     4  10  21  37  61  92 124 162 215 266 321 380
#     4   9  20  42  65  93 128 169 214 271 324 387
#
# _framework density 26.361239000000001
#
# number of rings (size 3 to 8) (size 9 to 14) (size 15 to 20)
#    0.000    2.286    0.000    1.714    2.000    0.000 
#   10.286   14.286    0.000    0.000    0.000    0.000 
#    0.000    0.000    0.000    0.000    0.000    0.000 
#
# Total GULP energy -78287.217464 kJ/mol
# GULP energy per Si atom -5591.944105 kJ/mol
# Density = 2.630124 g / cm^3
# Si number density = 26.361239 Si / 1000 Ang^3
#
#
#
# Elastic Constant Matrix: (Units=GPa)
#
#
# Indices 1 2 3 4 5 6 
#
# 1 51.5492 40.6872 36.4019 -3.7607 17.0231 8.6704
# 2 40.6872 189.6475 83.4240 -34.6886 16.0905 3.4422
# 3 36.4019 83.4240 120.8334 -9.4339 20.6351 -3.0899
# 4 -3.7607 -34.6886 -9.4339 79.9975 2.6199 15.4002
# 5 17.0231 16.0905 20.6351 2.6199 50.5823 -2.2294
# 6 8.6704 3.4422 -3.0899 15.4002 -2.2294 46.4968
#
#
#
# Elastic Compliance Matrix: (Units=1/GPa)
#
#
# Indices 1 2 3 4 5 6 
#
# 1 0.029058 -0.002881 -0.005684 0.000864 -0.006862 -0.006198
# 2 -0.002881 0.008694 -0.004906 0.003354 -0.000037 -0.001545
# 3 -0.005684 -0.004906 0.013676 -0.001228 -0.001925 0.002646
# 4 0.000864 0.003354 -0.001228 0.014979 -0.001877 -0.005542
# 5 -0.006862 -0.000037 -0.001925 -0.001877 0.023100 0.002884
# 6 -0.006198 -0.001545 0.002646 -0.005542 0.002884 0.024927
#
#
# Mechanical properties :
#
#
# Convention : Reuss Voigt Hill
#
# Bulk Modulus (GPa) = 40.83921 75.89512 58.36716
# Shear Modulus (GPa) = 33.43627 48.84979 41.14303
#
# Velocity S-wave (km/s) = 3.56531 4.30943 3.95491
# Velocity P-wave (km/s) = 5.69862 7.32219 6.56082
#
# Compressibility (1/GPa) = 0.02448627
#
# Stress axis : x y z
#
# Youngs Moduli (GPa) = 34.41334 115.02608 73.12233
#
# Poissons Ratio (x) = 0.33139 0.41564
# Poissons Ratio (y) = 0.09915 0.35871
# Poissons Ratio (z) = 0.19561 0.56427
#
# Static dielectric constant tensor:
#      x y z
#    x 2.076060 -0.030170 0.050360 
#    y -0.030170 2.098430 -0.037880 
#    z 0.050360 -0.037880 2.139860 
# 
# From -- ./inp_files/90790.got.cif
#   From: 2010.05.17/outbox.cif.g08.bks.cpg/sg2_46_cif.got.tgz:90790.got - 2010.06.03 11:33:40.
