data_PCOD9003420
_publ_section_title
;
Structure prediction by ZEFSAII (Michael W. Deem and Ramdas Pophale) SiO2 
 PCOD9003420
Probable space group: P -1
;
_chemical_formula_sum "Si O2"
_cell_formula_units_Z 16
_cell_length_a 11.893016
_cell_length_b 14.344930
_cell_length_c 15.664156
_cell_angle_alpha 37.510088
_cell_angle_beta 36.928151
_cell_angle_gamma 28.315357
_cell_volume 723.038495
_symmetry_space_group_name_H-M "P -1"
_symmetry_group_IT_number 2
_symmetry_cell_setting 'triclinic'
loop_
_space_group_symop_operation_xyz
x,y,z
-x,-y,-z
loop_
_atom_site_type_symbol
_atom_site_label
_atom_site_fract_x
_atom_site_fract_y
_atom_site_fract_z
Si Si1 0.002544 0.189137 0.559432
Si Si2 0.907893 0.248477 0.924767
Si Si3 0.477971 0.582066 0.226718
Si Si4 0.139490 0.412618 0.731387
Si Si5 0.342090 0.025095 0.323013
Si Si6 0.956835 0.346264 0.636687
Si Si7 0.590847 0.201020 0.056207
Si Si8 0.945259 0.395583 0.176461
O O1 0.745722 0.238751 0.702722
O O2 0.921570 0.403184 0.420261
O O3 0.116805 0.163073 0.602530
O O4 0.179767 0.033240 0.489750
O O5 0.933421 0.388342 0.863656
O O6 0.987540 0.263213 0.771827
O O7 0.659443 0.283788 0.029294
O O8 0.131866 0.011650 0.989066
O O9 0.332860 0.522239 0.313165
O O10 0.527176 0.664621 0.056098
O O11 0.726129 0.417166 0.249635
O O12 0.154253 0.462749 0.782164
O O13 0.407758 0.200051 0.692627
O O14 0.170886 0.166249 0.242893
O O15 0.435709 0.137276 0.222865
O O16 0.000000 0.500000 0.500000
O O17 0.000000 0.500000 0.000000
#
# Coordination Sequence:
#
# PCOD9003420 Si02
#       8
#     2   2   2   2   2   2   2   2
#     4   9  20  37  60  83 117 154 187 236 294 341
#     4   9  16  32  57  85 116 152 193 235 297 338
#     4   9  19  36  59  84 117 155 193 241 291 337
#     4  10  21  37  60  86 118 155 192 244 287 345
#     4  10  21  38  59  88 117 151 201 235 292 348
#     4   9  16  33  62  83 113 158 188 234 292 344
#     4   9  17  32  58  83 117 153 187 247 290 334
#     4  11  22  40  60  85 118 157 194 239 294 343
#
# _framework density 22.128834999999999
#
# number of rings (size 3 to 8) (size 9 to 14) (size 15 to 20)
#    0.750    1.750    2.500    0.000    0.000    2.500 
#    0.000    8.750    0.000    0.000    0.000    0.000 
#    0.000    0.000    0.000    0.000    0.000    0.000 
#
# Total GULP energy -89166.713387 kJ/mol
# GULP energy per Si atom -5572.919587 kJ/mol
# Density = 2.207847 g / cm^3
# Si number density = 22.128835 Si / 1000 Ang^3
#
#
#
# Elastic Constant Matrix: (Units=GPa)
#
#
# Indices 1 2 3 4 5 6 
#
# 1 107.0230 28.0511 14.0535 -7.6267 4.3946 -24.6229
# 2 28.0511 80.6500 11.4426 5.6456 -0.2424 -2.0791
# 3 14.0535 11.4426 51.8565 11.1631 9.7147 3.5571
# 4 -7.6267 5.6456 11.1631 22.8695 4.2836 -7.2384
# 5 4.3946 -0.2424 9.7147 4.2836 24.0481 6.6198
# 6 -24.6229 -2.0791 3.5571 -7.2384 6.6198 26.2924
#
#
#
# Elastic Compliance Matrix: (Units=1/GPa)
#
#
# Indices 1 2 3 4 5 6 
#
# 1 0.022986 -0.007683 -0.010133 0.027828 -0.014383 0.033572
# 2 -0.007683 0.015511 0.000651 -0.011281 0.006263 -0.010739
# 3 -0.010133 0.000651 0.028320 -0.023645 0.000080 -0.019799
# 4 0.027828 -0.011281 -0.023645 0.092025 -0.028820 0.060959
# 5 -0.014383 0.006263 0.000080 -0.028820 0.059240 -0.035834
# 6 0.033572 -0.010739 -0.019799 0.060959 -0.035834 0.097108
#
#
# Mechanical properties :
#
#
# Convention : Reuss Voigt Hill
#
# Bulk Modulus (GPa) = 30.78134 38.51376 34.64755
# Shear Modulus (GPa) = 13.87552 27.04082 20.45817
#
# Velocity S-wave (km/s) = 2.50678 3.49946 3.04386
# Velocity P-wave (km/s) = 4.72428 5.81123 5.29572
#
# Compressibility (1/GPa) = 0.03248722
#
# Stress axis : x y z
#
# Youngs Moduli (GPa) = 43.50547 64.47174 35.31127
#
# Poissons Ratio (x) = 0.49532 0.35781
# Poissons Ratio (y) = 0.33424 -0.02300
# Poissons Ratio (z) = 0.44084 -0.04200
#
# Static dielectric constant tensor:
#      x y z
#    x 1.830040 0.003640 -0.002510 
#    y 0.003640 1.861940 0.010290 
#    z -0.002510 0.010290 1.903260 
# 
# From -- ./inp_files/569738.got.cif
#   From: 2010.05.17/outbox.cif.g08.bks.cpg/sg2_285_cif.got.tgz:569738.got - 2010.06.03 11:33:40.
