data_PCOD9003313
_publ_section_title
;
Structure prediction by ZEFSAII (Michael W. Deem and Ramdas Pophale) SiO2 
 PCOD9003313
Probable space group: P -1
;
_chemical_formula_sum "Si O2"
_cell_formula_units_Z 12
_cell_length_a 8.360328
_cell_length_b 20.173307
_cell_length_c 6.994240
_cell_angle_alpha 51.470630
_cell_angle_beta 127.499652
_cell_angle_gamma 145.733366
_cell_volume 507.618266
_symmetry_space_group_name_H-M "P -1"
_symmetry_group_IT_number 2
_symmetry_cell_setting 'triclinic'
loop_
_space_group_symop_operation_xyz
x,y,z
-x,-y,-z
loop_
_atom_site_type_symbol
_atom_site_label
_atom_site_fract_x
_atom_site_fract_y
_atom_site_fract_z
Si Si1 0.763746 0.499501 0.773429
Si Si2 0.127802 0.655562 0.431252
Si Si3 0.660549 0.722001 0.881226
Si Si4 0.817447 0.623460 0.931882
Si Si5 0.046342 0.017530 0.228062
Si Si6 0.546621 0.926356 0.278336
O O1 0.831914 0.604659 0.756306
O O2 0.832029 0.540987 0.530779
O O3 0.536914 0.628352 0.135000
O O4 0.000000 0.500000 0.000000
O O5 0.376858 0.666933 0.656838
O O6 0.250389 0.784864 0.351360
O O7 0.056676 0.639295 0.186444
O O8 0.848028 0.726071 0.857262
O O9 0.818602 0.850623 0.852541
O O10 0.500000 0.500000 0.000000
O O11 0.264324 0.016441 0.490736
O O12 0.737875 0.924293 0.279649
O O13 0.000000 0.000000 0.000000
O O14 0.500000 0.000000 0.000000
#
# Coordination Sequence:
#
# PCOD9003313 Si02
#       6
#     2   2   2   2   2   2
#     4   9  20  37  59  89 119 153 199 245 301 367
#     4  10  21  39  60  86 124 160 197 251 310 368
#     4   9  20  39  60  87 122 158 203 255 306 362
#     4  10  21  37  59  88 121 157 199 245 304 369
#     4  10  22  42  65  91 122 165 215 260 307 365
#     4  10  22  41  62  90 127 163 208 261 312 368
#
# _framework density 23.639811999999999
#
# number of rings (size 3 to 8) (size 9 to 14) (size 15 to 20)
#    0.000    2.333    0.000    1.000    0.000   13.333 
#    0.000   21.667    0.000    0.000    0.000    0.000 
#    0.000    0.000    0.000    0.000    0.000    0.000 
#
# Total GULP energy -67020.832026 kJ/mol
# GULP energy per Si atom -5585.069335 kJ/mol
# Density = 2.358601 g / cm^3
# Si number density = 23.639812 Si / 1000 Ang^3
#
#
#
# Elastic Constant Matrix: (Units=GPa)
#
#
# Indices 1 2 3 4 5 6 
#
# 1 74.2605 18.3127 29.3294 2.3931 0.8623 -14.9984
# 2 18.3127 87.4216 24.0387 -12.9339 1.0721 -6.1593
# 3 29.3294 24.0387 135.7478 4.7443 10.6064 -5.4591
# 4 2.3931 -12.9339 4.7443 38.7893 0.6446 -2.2540
# 5 0.8623 1.0721 10.6064 0.6446 40.2591 -0.2229
# 6 -14.9984 -6.1593 -5.4591 -2.2540 -0.2229 32.1505
#
#
#
# Elastic Compliance Matrix: (Units=1/GPa)
#
#
# Indices 1 2 3 4 5 6 
#
# 1 0.016579 -0.002369 -0.002896 -0.001077 0.000525 0.006717
# 2 -0.002369 0.013303 -0.001968 0.004905 0.000144 0.001454
# 3 -0.002896 -0.001968 0.008543 -0.001510 -0.002114 -0.000398
# 4 -0.001077 0.004905 -0.001510 0.027793 -0.000143 0.002128
# 5 0.000525 0.000144 -0.002114 -0.000143 0.025384 0.000080
# 6 0.006717 0.001454 -0.000398 0.002128 0.000080 0.034598
#
#
# Mechanical properties :
#
#
# Convention : Reuss Voigt Hill
#
# Bulk Modulus (GPa) = 41.73888 48.97684 45.35786
# Shear Modulus (GPa) = 33.63571 37.28969 35.46270
#
# Velocity S-wave (km/s) = 3.77615 3.97597 3.87735
# Velocity P-wave (km/s) = 6.05862 6.46844 6.26688
#
# Compressibility (1/GPa) = 0.02395847
#
# Stress axis : x y z
#
# Youngs Moduli (GPa) = 60.31611 75.17351 117.05837
#
# Poissons Ratio (x) = 0.17810 0.33898
# Poissons Ratio (y) = 0.14290 0.23037
# Poissons Ratio (z) = 0.17467 0.14794
#
# Static dielectric constant tensor:
#      x y z
#    x 1.903930 -0.010570 0.065850 
#    y -0.010570 1.948280 -0.027340 
#    z 0.065850 -0.027340 1.920750 
# 
# From -- ./inp_files/55403.got.cif
#   From: 2010.05.17/outbox.cif.g08.bks.cpg/sg2_28_cif.got.tgz:55403.got - 2010.06.03 11:33:40.
