data_PCOD9003468
_publ_section_title
;
Structure prediction by ZEFSAII (Michael W. Deem and Ramdas Pophale) SiO2 
 PCOD9003468
Probable space group: P -1
;
_chemical_formula_sum "Si O2"
_cell_formula_units_Z 14
_cell_length_a 8.433599
_cell_length_b 14.488496
_cell_length_c 10.714670
_cell_angle_alpha 112.886212
_cell_angle_beta 121.700145
_cell_angle_gamma 31.747803
_cell_volume 581.184583
_symmetry_space_group_name_H-M "P -1"
_symmetry_group_IT_number 2
_symmetry_cell_setting 'triclinic'
loop_
_space_group_symop_operation_xyz
x,y,z
-x,-y,-z
loop_
_atom_site_type_symbol
_atom_site_label
_atom_site_fract_x
_atom_site_fract_y
_atom_site_fract_z
Si Si1 0.025730 0.892534 0.865789
Si Si2 0.689206 0.498135 0.404360
Si Si3 0.733326 0.504887 0.705193
Si Si4 0.323646 0.820456 0.281271
Si Si5 0.899536 0.735776 0.795541
Si Si6 0.737555 0.099130 0.335470
Si Si7 0.288584 0.407805 0.929580
O O1 0.914928 0.846528 0.872683
O O2 0.419679 0.707269 0.911360
O O3 0.776628 0.020793 0.714259
O O4 0.000000 0.000000 0.000000
O O5 0.852752 0.429510 0.572036
O O6 0.408197 0.536312 0.320688
O O7 0.541642 0.673219 0.402078
O O8 0.925286 0.364830 0.317657
O O9 0.446846 0.714840 0.673767
O O10 0.037837 0.426834 0.856447
O O11 0.516082 0.696620 0.174681
O O12 0.947854 0.958021 0.234486
O O13 0.536245 0.855204 0.708176
O O14 0.085378 0.597122 0.912296
O O15 0.000000 0.000000 0.500000
#
# Coordination Sequence:
#
# PCOD9003468 Si02
#       7
#     2   2   2   2   2   2   2
#     4  10  21  42  61  91 121 158 208 252 297 352
#     4  10  21  39  61  91 121 162 201 247 301 371
#     4  10  21  39  61  89 125 158 204 244 304 362
#     4  10  21  37  60  89 124 158 198 249 298 352
#     4  10  22  39  64  88 122 162 204 244 309 354
#     4  11  22  38  60  93 128 154 197 251 306 363
#     4   9  21  39  66  85 122 163 203 247 294 362
#
# _framework density 24.088733999999999
#
# number of rings (size 3 to 8) (size 9 to 14) (size 15 to 20)
#    0.000    2.000    1.429    1.286    2.000    4.000 
#    0.000   15.714    0.000    0.000    0.000    0.000 
#    0.000    0.000    0.000    0.000    0.000    0.000 
#
# Total GULP energy -78114.563023 kJ/mol
# GULP energy per Si atom -5579.611645 kJ/mol
# Density = 2.403391 g / cm^3
# Si number density = 24.088734 Si / 1000 Ang^3
#
#
#
# Elastic Constant Matrix: (Units=GPa)
#
#
# Indices 1 2 3 4 5 6 
#
# 1 124.4641 36.3541 41.6054 -11.9715 15.3998 7.5487
# 2 36.3541 70.2645 24.1777 -9.4172 20.0385 -1.5491
# 3 41.6054 24.1777 80.7611 -7.7702 1.1247 14.0778
# 4 -11.9715 -9.4172 -7.7702 35.5043 -3.2176 -7.9603
# 5 15.3998 20.0385 1.1247 -3.2176 34.7227 18.3456
# 6 7.5487 -1.5491 14.0778 -7.9603 18.3456 33.1258
#
#
#
# Elastic Compliance Matrix: (Units=1/GPa)
#
#
# Indices 1 2 3 4 5 6 
#
# 1 0.011058 -0.002243 -0.005222 0.002174 -0.004667 0.002701
# 2 -0.002243 0.027360 -0.009782 0.006913 -0.025244 0.021589
# 3 -0.005222 -0.009782 0.020633 -0.002317 0.016424 -0.017689
# 4 0.002174 0.006913 -0.002317 0.032460 -0.009077 0.013640
# 5 -0.004667 -0.025244 0.016424 -0.009077 0.069221 -0.047614
# 6 0.002701 0.021589 -0.017689 0.013640 -0.047614 0.067746
#
#
# Mechanical properties :
#
#
# Convention : Reuss Voigt Hill
#
# Bulk Modulus (GPa) = 40.72197 53.30713 47.01455
# Shear Modulus (GPa) = 18.43951 32.22742 25.33346
#
# Velocity S-wave (km/s) = 2.76974 3.66165 3.24647
# Velocity P-wave (km/s) = 5.21251 6.32886 5.79762
#
# Compressibility (1/GPa) = 0.02455677
#
# Stress axis : x y z
#
# Youngs Moduli (GPa) = 90.43507 36.54978 48.46700
#
# Poissons Ratio (x) = 0.08196 0.25309
# Poissons Ratio (y) = 0.20280 0.47412
# Poissons Ratio (z) = 0.47225 0.35754
#
# Static dielectric constant tensor:
#      x y z
#    x 1.967370 -0.038440 -0.090590 
#    y -0.038440 1.993640 -0.002310 
#    z -0.090590 -0.002310 2.034740 
# 
# From -- ./inp_files/158442.got.cif
#   From: 2010.05.17/outbox.cif.g08.bks.cpg/sg2_80_cif.got.tgz:158442.got - 2010.06.03 11:33:40.
