data_PCOD9003169
_publ_section_title
;
Structure prediction by ZEFSAII (Michael W. Deem and Ramdas Pophale) SiO2 
 PCOD9003169
Probable space group: P -1
;
_chemical_formula_sum "Si O2"
_cell_formula_units_Z 12
_cell_length_a 6.232579
_cell_length_b 17.180526
_cell_length_c 5.722868
_cell_angle_alpha 106.145731
_cell_angle_beta 124.499151
_cell_angle_gamma 76.268015
_cell_volume 482.633360
_symmetry_space_group_name_H-M "P -1"
_symmetry_group_IT_number 2
_symmetry_cell_setting 'triclinic'
loop_
_space_group_symop_operation_xyz
x,y,z
-x,-y,-z
loop_
_atom_site_type_symbol
_atom_site_label
_atom_site_fract_x
_atom_site_fract_y
_atom_site_fract_z
Si Si1 0.776311 0.941414 0.351425
Si Si2 0.556217 0.605772 0.288077
Si Si3 0.632444 0.906276 0.737509
Si Si4 0.002656 0.565415 0.850558
Si Si5 0.212001 0.286083 0.860658
Si Si6 0.337415 0.761771 0.582343
O O1 0.788896 0.903134 0.588047
O O2 0.507010 0.001866 0.251089
O O3 0.778687 0.892894 0.066062
O O4 0.000000 0.000000 0.500000
O O5 0.774196 0.548542 0.515809
O O6 0.720369 0.651176 0.241666
O O7 0.427984 0.676411 0.440559
O O8 0.308433 0.569391 0.989082
O O9 0.427605 0.837988 0.556616
O O10 0.000000 0.500000 0.000000
O O11 0.904589 0.657199 0.951563
O O12 0.972956 0.238065 0.587342
O O13 0.490761 0.240727 0.075983
#
# Coordination Sequence:
#
# PCOD9003169 Si02
#       6
#     2   2   2   2   2   2
#     4  10  22  42  61  91 124 161 209 264 311 383
#     4  10  21  38  57  86 118 157 199 251 300 369
#     4  10  23  39  61  92 122 162 213 257 319 376
#     4  10  21  37  58  87 120 154 200 249 302 366
#     4  10  22  40  58  87 121 153 207 248 305 370
#     4  10  23  38  59  88 117 159 200 256 304 371
#
# _framework density 24.863595
#
# number of rings (size 3 to 8) (size 9 to 14) (size 15 to 20)
#    0.000    2.000    0.000    2.000    4.667    1.333 
#    0.000    0.000    0.000    0.000    0.000    0.000 
#    0.000    0.000    0.000    0.000    0.000    0.000 
#
# Total GULP energy -66997.823321 kJ/mol
# GULP energy per Si atom -5583.151943 kJ/mol
# Density = 2.480700 g / cm^3
# Si number density = 24.863595 Si / 1000 Ang^3
#
#
#
# Elastic Constant Matrix: (Units=GPa)
#
#
# Indices 1 2 3 4 5 6 
#
# 1 138.9129 28.6433 93.5659 -4.2972 15.6971 23.8642
# 2 28.6433 68.6054 52.4391 -9.6951 2.0013 4.2008
# 3 93.5659 52.4391 196.7549 -11.7001 21.5022 16.9779
# 4 -4.2972 -9.6951 -11.7001 40.5445 8.1187 0.4547
# 5 15.6971 2.0013 21.5022 8.1187 42.2683 5.7248
# 6 23.8642 4.2008 16.9779 0.4547 5.7248 61.2073
#
#
#
# Elastic Compliance Matrix: (Units=1/GPa)
#
#
# Indices 1 2 3 4 5 6 
#
# 1 0.011184 -0.000876 -0.004698 -0.000084 -0.001317 -0.002873
# 2 -0.000876 0.018789 -0.004568 0.002842 0.001188 0.000187
# 3 -0.004698 -0.004568 0.008949 0.001570 -0.002882 -0.000079
# 4 -0.000084 0.002842 0.001570 0.027004 -0.006058 -0.000232
# 5 -0.001317 0.001188 -0.002882 -0.006058 0.026889 -0.001239
# 6 -0.002873 0.000187 -0.000079 -0.000232 -0.001239 0.017585
#
#
# Mechanical properties :
#
#
# Convention : Reuss Voigt Hill
#
# Bulk Modulus (GPa) = 53.65422 83.73001 68.69211
# Shear Modulus (GPa) = 36.52419 44.11235 40.31827
#
# Velocity S-wave (km/s) = 3.83689 4.21666 4.03125
# Velocity P-wave (km/s) = 6.42302 7.57996 7.02535
#
# Compressibility (1/GPa) = 0.01863786
#
# Stress axis : x y z
#
# Youngs Moduli (GPa) = 89.41726 53.22276 111.74002
#
# Poissons Ratio (x) = 0.04661 0.52496
# Poissons Ratio (y) = 0.07831 0.51045
# Poissons Ratio (z) = 0.42009 0.24313
#
# Static dielectric constant tensor:
#      x y z
#    x 1.950990 -0.058990 -0.022540 
#    y -0.058990 2.021900 0.018310 
#    z -0.022540 0.018310 2.039520 
# 
# From -- ./inp_files/5140.got.cif
#   From: 2010.05.17/outbox.cif.g08.bks.cpg/sg2_3_cif.got.tgz:5140.got - 2010.06.03 11:33:40.
