data_PCOD9003101
_publ_section_title
;
Structure prediction by ZEFSAII (Michael W. Deem and Ramdas Pophale) SiO2 
 PCOD9003101
Probable space group: P -1
;
_chemical_formula_sum "Si O2"
_cell_formula_units_Z 14
_cell_length_a 22.035865
_cell_length_b 21.377076
_cell_length_c 9.545574
_cell_angle_alpha 154.747176
_cell_angle_beta 153.089546
_cell_angle_gamma 18.024656
_cell_volume 576.237212
_symmetry_space_group_name_H-M "P -1"
_symmetry_group_IT_number 2
_symmetry_cell_setting 'triclinic'
loop_
_space_group_symop_operation_xyz
x,y,z
-x,-y,-z
loop_
_atom_site_type_symbol
_atom_site_label
_atom_site_fract_x
_atom_site_fract_y
_atom_site_fract_z
Si Si1 0.096069 0.631568 0.056479
Si Si2 0.388607 0.519782 0.653977
Si Si3 0.321116 0.278850 0.351005
Si Si4 0.877791 0.258945 0.186232
Si Si5 0.315837 0.957785 0.582459
Si Si6 0.279745 0.223506 0.458983
Si Si7 0.332110 0.594597 0.223345
O O1 0.180588 0.396877 0.731560
O O2 0.857440 0.804146 0.914639
O O3 0.196578 0.617417 0.369851
O O4 0.174335 0.651540 0.122199
O O5 0.294917 0.643262 0.858819
O O6 0.540917 0.256520 0.454692
O O7 0.496539 0.554726 0.851535
O O8 0.166446 0.529570 0.490809
O O9 0.539533 0.129784 0.430833
O O10 0.308913 0.298859 0.533866
O O11 0.270531 0.154029 0.952885
O O12 0.838908 0.219154 0.872725
O O13 0.102419 0.063318 0.312321
O O14 0.500000 0.000000 0.500000
O O15 0.500000 0.500000 0.500000
#
# Coordination Sequence:
#
# PCOD9003101 Si02
#       7
#     2   2   2   2   2   2   2
#     4  10  22  40  59  89 124 163 200 252 310 359
#     4  10  22  41  63  89 127 163 208 252 301 367
#     4  10  21  37  57  93 128 158 196 261 308 368
#     4  11  21  39  66  89 121 166 207 250 315 359
#     4  10  22  36  62  95 125 158 207 256 303 367
#     4  11  22  35  62  89 124 158 205 250 307 368
#     4  10  22  42  64  87 126 168 206 254 305 363
#
# _framework density 24.295548
#
# number of rings (size 3 to 8) (size 9 to 14) (size 15 to 20)
#    0.000    1.714    1.429    2.571    2.000    2.857 
#    0.000    1.429    0.000   12.857    0.000    0.000 
#    0.000    0.000    0.000    0.000    0.000    0.000 
#
# Total GULP energy -77952.618330 kJ/mol
# GULP energy per Si atom -5568.044166 kJ/mol
# Density = 2.424025 g / cm^3
# Si number density = 24.295548 Si / 1000 Ang^3
#
#
#
# Elastic Constant Matrix: (Units=GPa)
#
#
# Indices 1 2 3 4 5 6 
#
# 1 149.3704 37.8251 26.2917 -19.9592 -5.8344 -4.9252
# 2 37.8251 145.9395 37.7907 -29.7504 7.7525 5.7723
# 3 26.2917 37.7907 48.6408 -5.0885 -14.6220 2.0883
# 4 -19.9592 -29.7504 -5.0885 50.2552 -2.7647 14.2872
# 5 -5.8344 7.7525 -14.6220 -2.7647 44.1738 -15.0065
# 6 -4.9252 5.7723 2.0883 14.2872 -15.0065 23.3212
#
#
#
# Elastic Compliance Matrix: (Units=1/GPa)
#
#
# Indices 1 2 3 4 5 6 
#
# 1 0.007811 -0.000953 -0.003113 0.001820 0.000818 0.001576
# 2 -0.000953 0.013361 -0.011414 0.010279 -0.010992 -0.015856
# 3 -0.003113 -0.011414 0.035015 -0.007827 0.017907 0.015350
# 4 0.001820 0.010279 -0.007827 0.033777 -0.012241 -0.030028
# 5 0.000818 -0.010992 0.017907 -0.012241 0.042004 0.035818
# 6 0.001576 -0.015856 0.015350 -0.030028 0.035818 0.087206
#
#
# Mechanical properties :
#
#
# Convention : Reuss Voigt Hill
#
# Bulk Modulus (GPa) = 39.64053 60.86286 50.25169
# Shear Modulus (GPa) = 19.33912 39.68627 29.51269
#
# Velocity S-wave (km/s) = 2.82440 4.04602 3.48909
# Velocity P-wave (km/s) = 5.19497 6.85072 6.07948
#
# Compressibility (1/GPa) = 0.02522671
#
# Stress axis : x y z
#
# Youngs Moduli (GPa) = 128.02214 74.84333 28.55942
#
# Poissons Ratio (x) = 0.07134 0.08891
# Poissons Ratio (y) = 0.12203 0.32598
# Poissons Ratio (z) = 0.39854 0.85426
#
# Static dielectric constant tensor:
#      x y z
#    x 1.949060 0.031670 0.072790 
#    y 0.031670 1.908230 -0.038140 
#    z 0.072790 -0.038140 1.966350 
# 
# From -- ./inp_files/60913.got.cif
#   From: 2010.05.17/outbox.cif.g08.bks.cpg/sg2_31_cif.got.tgz:60913.got - 2010.06.03 11:33:40.
