data_PCOD9003135
_publ_section_title
;
Structure prediction by ZEFSAII (Michael W. Deem and Ramdas Pophale) SiO2 
 PCOD9003135
Probable space group: P -1
;
_chemical_formula_sum "Si O2"
_cell_formula_units_Z 16
_cell_length_a 11.268942
_cell_length_b 11.705123
_cell_length_c 14.062338
_cell_angle_alpha 42.215063
_cell_angle_beta 50.551480
_cell_angle_gamma 83.294422
_cell_volume 703.926694
_symmetry_space_group_name_H-M "P -1"
_symmetry_group_IT_number 2
_symmetry_cell_setting 'triclinic'
loop_
_space_group_symop_operation_xyz
x,y,z
-x,-y,-z
loop_
_atom_site_type_symbol
_atom_site_label
_atom_site_fract_x
_atom_site_fract_y
_atom_site_fract_z
Si Si1 0.746033 0.189978 0.867604
Si Si2 0.177592 0.154341 0.536426
Si Si3 0.537508 0.098735 0.561773
Si Si4 0.108133 0.222236 0.742288
Si Si5 0.393444 0.671524 0.818746
Si Si6 0.339950 0.691217 0.437316
Si Si7 0.027104 0.706699 0.811343
Si Si8 0.994590 0.632651 0.564599
O O1 0.843034 0.283282 0.656635
O O2 0.912727 0.194523 0.831714
O O3 0.775516 0.385744 0.791002
O O4 0.519874 0.934557 0.141850
O O5 0.192550 0.218845 0.599865
O O6 0.407536 0.298909 0.284195
O O7 0.048944 0.200373 0.515869
O O8 0.052392 0.881286 0.763526
O O9 0.550244 0.208736 0.388640
O O10 0.554067 0.237576 0.555938
O O11 0.744291 0.138535 0.444892
O O12 0.367810 0.821133 0.804947
O O13 0.279640 0.466256 0.559685
O O14 0.000000 0.000000 0.000000
O O15 0.171250 0.413327 0.080662
O O16 0.119982 0.631555 0.584557
O O17 0.000000 0.500000 0.000000
#
# Coordination Sequence:
#
# PCOD9003135 Si02
#       8
#     2   2   2   2   2   2   2   2
#     4   9  20  39  59  80 117 164 196 228 285 350
#     4  10  21  37  58  85 116 150 195 235 286 351
#     4   9  20  36  55  86 111 144 200 234 286 342
#     4  10  24  36  53  91 130 148 180 244 294 346
#     4   9  19  36  57  80 112 152 191 236 284 347
#     4  11  22  37  62  87 117 160 192 236 289 349
#     4   9  19  36  60  80 110 156 191 235 290 342
#     4   9  20  39  57  84 117 154 201 238 280 340
#
# _framework density 22.729641000000001
#
# number of rings (size 3 to 8) (size 9 to 14) (size 15 to 20)
#    0.000    2.500    0.000    1.875    5.250    5.500 
#    0.000    2.500    0.000    4.500    0.000    0.000 
#    0.000    0.000    0.000    0.000    0.000    0.000 
#
# Total GULP energy -89186.027424 kJ/mol
# GULP energy per Si atom -5574.126714 kJ/mol
# Density = 2.267791 g / cm^3
# Si number density = 22.729641 Si / 1000 Ang^3
#
#
#
# Elastic Constant Matrix: (Units=GPa)
#
#
# Indices 1 2 3 4 5 6 
#
# 1 41.1850 11.5156 9.2477 -15.4759 -5.1206 3.0503
# 2 11.5156 98.3861 33.6842 -43.1283 -0.6833 10.9396
# 3 9.2477 33.6842 96.0315 -28.2743 -20.2376 3.2412
# 4 -15.4759 -43.1283 -28.2743 39.3106 5.0065 -2.8775
# 5 -5.1206 -0.6833 -20.2376 5.0065 36.9288 -1.8453
# 6 3.0503 10.9396 3.2412 -2.8775 -1.8453 33.0913
#
#
#
# Elastic Compliance Matrix: (Units=1/GPa)
#
#
# Indices 1 2 3 4 5 6 
#
# 1 0.029425 0.003206 0.001226 0.015477 0.002593 -0.002402
# 2 0.003206 0.021113 -0.001315 0.023517 -0.003338 -0.005287
# 3 0.001226 -0.001315 0.014845 0.008817 0.007087 0.000030
# 4 0.015477 0.023517 0.008817 0.063518 -0.001429 -0.004621
# 5 0.002593 -0.003338 0.007087 -0.001429 0.031545 0.001805
# 6 -0.002402 -0.005287 0.000030 -0.004621 0.001805 0.031885
#
#
# Mechanical properties :
#
#
# Convention : Reuss Voigt Hill
#
# Bulk Modulus (GPa) = 13.96322 38.27750 26.12036
# Shear Modulus (GPa) = 23.81308 33.94316 28.87812
#
# Velocity S-wave (km/s) = 3.24028 3.86857 3.56828
# Velocity P-wave (km/s) = 4.48951 6.06889 5.33793
#
# Compressibility (1/GPa) = 0.07161673
#
# Stress axis : x y z
#
# Youngs Moduli (GPa) = 33.98464 47.36454 67.36315
#
# Poissons Ratio (x) = -0.15183 -0.08262
# Poissons Ratio (y) = -0.10894 0.08859
# Poissons Ratio (z) = -0.04168 0.06229
#
# Static dielectric constant tensor:
#      x y z
#    x 1.881970 0.032050 0.022300 
#    y 0.032050 1.960150 0.004660 
#    z 0.022300 0.004660 1.909060 
# 
# From -- ./inp_files/519533.got.cif
#   From: 2010.05.17/outbox.cif.g08.bks.cpg/sg2_260_cif.got.tgz:519533.got - 2010.06.03 11:33:40.
