data_PCOD9003361
_publ_section_title
;
Structure prediction by ZEFSAII (Michael W. Deem and Ramdas Pophale) SiO2 
 PCOD9003361
Probable space group: P -1
;
_chemical_formula_sum "Si O2"
_cell_formula_units_Z 12
_cell_length_a 18.509111
_cell_length_b 5.048574
_cell_length_c 5.113836
_cell_angle_alpha 87.804698
_cell_angle_beta 110.016607
_cell_angle_gamma 99.691507
_cell_volume 442.490417
_symmetry_space_group_name_H-M "P -1"
_symmetry_group_IT_number 2
_symmetry_cell_setting 'triclinic'
loop_
_space_group_symop_operation_xyz
x,y,z
-x,-y,-z
loop_
_atom_site_type_symbol
_atom_site_label
_atom_site_fract_x
_atom_site_fract_y
_atom_site_fract_z
Si Si1 0.961828 0.271583 0.254815
Si Si2 0.307509 0.568866 0.043296
Si Si3 0.393947 0.036246 0.765675
Si Si4 0.099850 0.264464 0.006571
Si Si5 0.251895 0.362919 0.484836
Si Si6 0.554793 0.750033 0.687731
O O1 0.000000 0.500000 0.500000
O O2 0.027893 0.252342 0.121246
O O3 0.892038 0.422105 0.067179
O O4 0.924529 0.956166 0.245099
O O5 0.280018 0.606426 0.303512
O O6 0.361304 0.344842 0.168336
O O7 0.238587 0.460968 0.757781
O O8 0.359449 0.793835 0.923776
O O9 0.321732 0.194611 0.618786
O O10 0.430142 0.013925 0.522863
O O11 0.460532 0.200097 0.029675
O O12 0.175298 0.207329 0.257566
O O13 0.500000 0.500000 0.500000
#
# Coordination Sequence:
#
# PCOD9003361 Si02
#       6
#     2   2   2   2   2   2
#     4  10  22  43  65  94 132 172 227 283 342 414
#     4  10  22  40  60  88 127 163 219 268 325 400
#     4  10  21  39  60  87 126 163 212 269 319 399
#     4  10  23  41  64  96 131 176 227 283 344 412
#     4  10  23  40  60  93 123 170 217 273 333 399
#     4  10  21  37  59  91 124 162 210 264 325 393
#
# _framework density 27.119230999999999
#
# number of rings (size 3 to 8) (size 9 to 14) (size 15 to 20)
#    0.000    2.000    0.000    2.000    4.667    1.333 
#    0.000    0.000    0.000    0.000    0.000    0.000 
#    0.000    0.000    0.000    0.000    0.000    0.000 
#
# Total GULP energy -66933.893516 kJ/mol
# GULP energy per Si atom -5577.824460 kJ/mol
# Density = 2.705751 g / cm^3
# Si number density = 27.119231 Si / 1000 Ang^3
#
#
#
# Elastic Constant Matrix: (Units=GPa)
#
#
# Indices 1 2 3 4 5 6 
#
# 1 89.2150 14.5384 46.7253 0.7578 -10.2274 -13.4401
# 2 14.5384 125.8288 44.8550 4.7006 -11.0980 -3.3463
# 3 46.7253 44.8550 188.0417 6.9600 -5.8713 -14.1792
# 4 0.7578 4.7006 6.9600 56.6689 12.7298 -8.0579
# 5 -10.2274 -11.0980 -5.8713 12.7298 44.1865 7.5859
# 6 -13.4401 -3.3463 -14.1792 -8.0579 7.5859 21.3834
#
#
#
# Elastic Compliance Matrix: (Units=1/GPa)
#
#
# Indices 1 2 3 4 5 6 
#
# 1 0.013911 -0.000317 -0.002870 0.000820 0.001388 0.006608
# 2 -0.000317 0.008943 -0.002044 -0.001273 0.002531 -0.001532
# 3 -0.002870 -0.002044 0.006691 -0.000100 -0.000693 0.002521
# 4 0.000820 -0.001273 -0.000100 0.021164 -0.008149 0.011117
# 5 0.001388 0.002531 -0.000693 -0.008149 0.027933 -0.012171
# 6 0.006608 -0.001532 0.002521 0.011117 -0.012171 0.060857
#
#
# Mechanical properties :
#
#
# Convention : Reuss Voigt Hill
#
# Bulk Modulus (GPa) = 52.40126 68.36920 60.38523
# Shear Modulus (GPa) = 31.98530 44.24554 38.11542
#
# Velocity S-wave (km/s) = 3.43801 4.04359 3.75303
# Velocity P-wave (km/s) = 5.92658 6.86048 6.41056
#
# Compressibility (1/GPa) = 0.01908351
#
# Stress axis : x y z
#
# Youngs Moduli (GPa) = 71.88453 111.82546 149.45907
#
# Poissons Ratio (x) = 0.03542 0.42894
# Poissons Ratio (y) = 0.02277 0.30547
# Poissons Ratio (z) = 0.20630 0.22855
#
# Static dielectric constant tensor:
#      x y z
#    x 2.206160 0.010880 0.037570 
#    y 0.010880 2.227910 0.037080 
#    z 0.037570 0.037080 2.206820 
# 
# From -- ./inp_files/113511.got.cif
#   From: 2010.05.17/outbox.cif.g08.bks.cpg/sg2_57_cif.got.tgz:113511.got - 2010.06.03 11:33:40.
