data_PCOD9003385
_publ_section_title
;
Structure prediction by ZEFSAII (Michael W. Deem and Ramdas Pophale) SiO2 
 PCOD9003385
Probable space group: P -1
;
_chemical_formula_sum "Si O2"
_cell_formula_units_Z 14
_cell_length_a 11.122679
_cell_length_b 8.988501
_cell_length_c 8.095571
_cell_angle_alpha 126.035632
_cell_angle_beta 107.441457
_cell_angle_gamma 89.512355
_cell_volume 609.450482
_symmetry_space_group_name_H-M "P -1"
_symmetry_group_IT_number 2
_symmetry_cell_setting 'triclinic'
loop_
_space_group_symop_operation_xyz
x,y,z
-x,-y,-z
loop_
_atom_site_type_symbol
_atom_site_label
_atom_site_fract_x
_atom_site_fract_y
_atom_site_fract_z
Si Si1 0.359932 0.918473 0.311958
Si Si2 0.699116 0.756631 0.023905
Si Si3 0.358464 0.527515 0.914860
Si Si4 0.971528 0.269780 0.346401
Si Si5 0.234349 0.832640 0.539333
Si Si6 0.573432 0.383412 0.335590
Si Si7 0.817192 0.910826 0.847429
O O1 0.361960 0.744526 0.082630
O O2 0.256297 0.831510 0.353097
O O3 0.500000 0.000000 0.500000
O O4 0.312353 0.075252 0.290582
O O5 0.722752 0.598497 0.058476
O O6 0.551506 0.735472 0.888433
O O7 0.786862 0.780162 0.911648
O O8 0.727990 0.948883 0.259440
O O9 0.500000 0.500000 0.000000
O O10 0.339634 0.493360 0.690375
O O11 0.903708 0.234465 0.474433
O O12 0.000000 0.500000 0.500000
O O13 0.093574 0.176961 0.297685
O O14 0.875081 0.126438 0.083264
O O15 0.336273 0.726613 0.598883
O O16 0.500000 0.500000 0.500000
#
# Coordination Sequence:
#
# PCOD9003385 Si02
#       7
#     2   2   2   2   2   2   2
#     4  12  24  43  68 105 145 176 220 282 353 426
#     4  10  21  39  63  96 135 170 222 285 343 415
#     4  10  21  37  59  94 137 173 220 267 335 423
#     4  10  24  47  74  95 132 187 248 288 337 402
#     4  11  23  41  65  94 133 179 225 281 342 409
#     4  11  22  37  63  95 132 179 223 273 353 412
#     4  10  24  46  71 100 139 182 232 292 346 403
#
# _framework density 22.971513999999999
#
# number of rings (size 3 to 8) (size 9 to 14) (size 15 to 20)
#    0.000    1.429    0.000    6.429    4.000    1.714 
#    5.143    0.714    0.000    0.000    0.000    0.000 
#    0.000    0.000    0.000    0.000    0.000    0.000 
#
# Total GULP energy -78138.931954 kJ/mol
# GULP energy per Si atom -5581.352282 kJ/mol
# Density = 2.291923 g / cm^3
# Si number density = 22.971514 Si / 1000 Ang^3
#
#
#
# Elastic Constant Matrix: (Units=GPa)
#
#
# Indices 1 2 3 4 5 6 
#
# 1 89.5000 17.9182 41.0264 6.3742 -30.9354 11.4808
# 2 17.9182 87.2007 39.6975 11.8428 -12.4035 10.7418
# 3 41.0264 39.6975 80.7963 14.7101 -24.9043 16.2036
# 4 6.3742 11.8428 14.7101 34.1096 3.3470 -6.4224
# 5 -30.9354 -12.4035 -24.9043 3.3470 45.5861 -2.6686
# 6 11.4808 10.7418 16.2036 -6.4224 -2.6686 37.7165
#
#
#
# Elastic Compliance Matrix: (Units=1/GPa)
#
#
# Indices 1 2 3 4 5 6 
#
# 1 0.017088 0.000895 -0.005248 -0.002693 0.008993 -0.003024
# 2 0.000895 0.015115 -0.006447 -0.003188 0.001300 -0.002258
# 3 -0.005248 -0.006447 0.023971 -0.009391 0.008007 -0.007897
# 4 -0.002693 -0.003188 -0.009391 0.038128 -0.009949 0.011551
# 5 0.008993 0.001300 0.008007 -0.009949 0.033153 -0.005896
# 6 -0.003024 -0.002258 -0.007897 0.011551 -0.005896 0.033020
#
#
# Mechanical properties :
#
#
# Convention : Reuss Voigt Hill
#
# Bulk Modulus (GPa) = 28.92321 50.53126 39.72723
# Shear Modulus (GPa) = 25.82664 34.07276 29.94970
#
# Velocity S-wave (km/s) = 3.35668 3.85549 3.61470
# Velocity P-wave (km/s) = 5.25750 6.47031 5.89517
#
# Compressibility (1/GPa) = 0.03457431
#
# Stress axis : x y z
#
# Youngs Moduli (GPa) = 58.52156 66.16043 41.71722
#
# Poissons Ratio (x) = -0.05923 0.21892
# Poissons Ratio (y) = -0.05239 0.26895
# Poissons Ratio (z) = 0.30711 0.42654
#
# Static dielectric constant tensor:
#      x y z
#    x 1.989160 0.008740 0.259060 
#    y 0.008740 1.949520 -0.250300 
#    z 0.259060 -0.250300 2.702750 
# 
# From -- ./inp_files/246079.got.cif
#   From: 2010.05.17/outbox.cif.g08.bks.cpg/sg2_124_cif.got.tgz:246079.got - 2010.06.03 11:33:40.
