data_PCOD9003263
_publ_section_title
;
Structure prediction by ZEFSAII (Michael W. Deem and Ramdas Pophale) SiO2 
 PCOD9003263
Probable space group: P -1
;
_chemical_formula_sum "Si O2"
_cell_formula_units_Z 16
_cell_length_a 8.074786
_cell_length_b 21.516227
_cell_length_c 15.412925
_cell_angle_alpha 17.950710
_cell_angle_beta 112.333330
_cell_angle_gamma 119.210312
_cell_volume 684.096793
_symmetry_space_group_name_H-M "P -1"
_symmetry_group_IT_number 2
_symmetry_cell_setting 'triclinic'
loop_
_space_group_symop_operation_xyz
x,y,z
-x,-y,-z
loop_
_atom_site_type_symbol
_atom_site_label
_atom_site_fract_x
_atom_site_fract_y
_atom_site_fract_z
Si Si1 0.994878 0.757599 0.836704
Si Si2 0.643910 0.347181 0.223980
Si Si3 0.252781 0.051705 0.835168
Si Si4 0.799859 0.656647 0.089896
Si Si5 0.516051 0.226427 0.822398
Si Si6 0.722453 0.080356 0.468379
Si Si7 0.581919 0.660100 0.661381
Si Si8 0.196420 0.272556 0.800519
O O1 0.152800 0.758706 0.798067
O O2 0.994989 0.697983 0.016822
O O3 0.000000 0.000000 0.500000
O O4 0.788411 0.564035 0.018156
O O5 0.750132 0.203343 0.401999
O O6 0.459729 0.218569 0.423791
O O7 0.597471 0.453439 0.987346
O O8 0.387092 0.204683 0.737527
O O9 0.237664 0.195378 0.558619
O O10 0.368563 0.921004 0.985903
O O11 0.037482 0.886174 0.052725
O O12 0.762578 0.866829 0.773451
O O13 0.610611 0.433451 0.315952
O O14 0.811922 0.670570 0.175570
O O15 0.344315 0.162723 0.947356
O O16 0.687304 0.475042 0.550264
O O17 0.500000 0.000000 0.500000
#
# Coordination Sequence:
#
# PCOD9003263 Si02
#       8
#     2   2   2   2   2   2   2   2
#     4   9  21  37  55  80 121 164 203 251 304 367
#     4  10  21  37  59  85 128 167 208 249 310 361
#     4  11  23  42  71  93 127 167 212 257 330 383
#     4  10  21  40  57  87 125 161 204 260 315 374
#     4  10  24  45  67  95 128 160 210 271 319 393
#     4  11  21  35  58  84 121 162 213 255 302 363
#     4  10  21  38  60  89 123 168 201 255 314 372
#     4  11  23  43  69  95 127 163 207 269 330 380
#
# _framework density 23.388503
#
# number of rings (size 3 to 8) (size 9 to 14) (size 15 to 20)
#    0.000    1.750    2.500    1.125    7.000    0.000 
#    0.000    0.000    2.750    0.000    0.000    0.000 
#    0.000    0.000    0.000    0.000    0.000    0.000 
#
# Total GULP energy -89165.044667 kJ/mol
# GULP energy per Si atom -5572.815292 kJ/mol
# Density = 2.333527 g / cm^3
# Si number density = 23.388503 Si / 1000 Ang^3
#
#
#
# Elastic Constant Matrix: (Units=GPa)
#
#
# Indices 1 2 3 4 5 6 
#
# 1 90.0550 15.5862 27.8811 -6.5064 -21.6984 -23.6878
# 2 15.5862 63.3820 15.4903 0.9396 -14.6727 -16.2203
# 3 27.8811 15.4903 54.6138 -10.9817 -21.0896 -5.2013
# 4 -6.5064 0.9396 -10.9817 30.8450 -7.2306 -3.0958
# 5 -21.6984 -14.6727 -21.0896 -7.2306 33.3455 -2.0327
# 6 -23.6878 -16.2203 -5.2013 -3.0958 -2.0327 39.3895
#
#
#
# Elastic Compliance Matrix: (Units=1/GPa)
#
#
# Indices 1 2 3 4 5 6 
#
# 1 0.019005 0.002613 -0.001643 0.008262 0.015106 0.013717
# 2 0.002613 0.020801 -0.001061 0.003341 0.011569 0.010856
# 3 -0.001643 -0.001061 0.032218 0.017053 0.022865 0.005350
# 4 0.008262 0.003341 0.017053 0.048314 0.028955 0.013888
# 5 0.015106 0.011569 0.022865 0.028955 0.067026 0.022602
# 6 0.013717 0.010856 0.005350 0.013888 0.022602 0.041072
#
#
# Mechanical properties :
#
#
# Convention : Reuss Voigt Hill
#
# Bulk Modulus (GPa) = 13.91921 36.21843 25.06882
# Shear Modulus (GPa) = 19.79694 30.65555 25.22624
#
# Velocity S-wave (km/s) = 2.91252 3.62430 3.28773
# Velocity P-wave (km/s) = 4.15627 5.74746 5.01537
#
# Compressibility (1/GPa) = 0.07184318
#
# Stress axis : x y z
#
# Youngs Moduli (GPa) = 52.61660 48.07476 31.03890
#
# Poissons Ratio (x) = -0.12560 0.05098
# Poissons Ratio (y) = -0.13747 0.03292
# Poissons Ratio (z) = 0.08643 0.05098
#
# Static dielectric constant tensor:
#      x y z
#    x 2.904920 -0.339150 -0.392280 
#    y -0.339150 2.016010 0.117040 
#    z -0.392280 0.117040 2.079190 
# 
# From -- ./inp_files/327227.got.cif
#   From: 2010.05.17/outbox.cif.g08.bks.cpg/sg2_164_cif.got.tgz:327227.got - 2010.06.03 11:33:40.
