data_PCOD9003994
_publ_section_title
;
Structure prediction by ZEFSAII (Michael W. Deem and Ramdas Pophale) SiO2 
 PCOD9003994
Probable space group: P -1
;
_chemical_formula_sum "Si O2"
_cell_formula_units_Z 16
_cell_length_a 19.942914
_cell_length_b 14.685050
_cell_length_c 11.686047
_cell_angle_alpha 28.486551
_cell_angle_beta 27.846536
_cell_angle_gamma 30.946228
_cell_volume 710.953574
_symmetry_space_group_name_H-M "P -1"
_symmetry_group_IT_number 2
_symmetry_cell_setting 'triclinic'
loop_
_space_group_symop_operation_xyz
x,y,z
-x,-y,-z
loop_
_atom_site_type_symbol
_atom_site_label
_atom_site_fract_x
_atom_site_fract_y
_atom_site_fract_z
Si Si1 0.858456 0.305294 0.880619
Si Si2 0.221697 0.683940 0.341627
Si Si3 0.417012 0.281915 0.728097
Si Si4 0.354989 0.894478 0.217730
Si Si5 0.115444 0.044305 0.939848
Si Si6 0.144078 0.667613 0.740825
Si Si7 0.125943 0.403471 0.637042
Si Si8 0.481077 0.407894 0.896989
O O1 0.951038 0.406317 0.545371
O O2 0.953243 0.207629 0.958401
O O3 0.699746 0.495079 0.922963
O O4 0.828043 0.117585 0.070552
O O5 0.153606 0.668936 0.586426
O O6 0.225166 0.494257 0.467458
O O7 0.393301 0.691033 0.085168
O O8 0.117675 0.892933 0.206704
O O9 0.560087 0.173911 0.714143
O O10 0.285144 0.463061 0.792515
O O11 0.475379 0.395259 0.418244
O O12 0.343177 0.125192 0.964921
O O13 0.197831 0.852118 0.493848
O O14 0.465635 0.750081 0.113911
O O15 0.203682 0.192117 0.683521
O O16 0.993156 0.650659 0.041198
#
# Coordination Sequence:
#
# PCOD9003994 Si02
#       8
#     2   2   2   2   2   2   2   2
#     4  10  24  44  62  94 123 167 218 261 305 364
#     4   9  22  42  62  95 123 165 208 263 314 373
#     4   9  19  36  58  94 125 157 209 264 310 372
#     4   9  19  35  58  93 123 162 208 259 317 366
#     4  10  23  42  61  89 128 161 217 261 304 369
#     4  10  21  37  63  92 131 163 203 256 320 374
#     4  11  23  39  64  90 130 172 207 252 314 377
#     4  10  21  40  67  87 127 164 209 262 314 364
#
# _framework density 22.504985999999999
#
# number of rings (size 3 to 8) (size 9 to 14) (size 15 to 20)
#    0.000    2.500    0.000    2.250    3.500    9.500 
#    9.000    1.250    0.000    0.000    0.000    0.000 
#    0.000    0.000    0.000    0.000    0.000    0.000 
#
# Total GULP energy -89223.531975 kJ/mol
# GULP energy per Si atom -5576.470748 kJ/mol
# Density = 2.245376 g / cm^3
# Si number density = 22.504986 Si / 1000 Ang^3
#
#
#
# Elastic Constant Matrix: (Units=GPa)
#
#
# Indices 1 2 3 4 5 6 
#
# 1 129.6047 114.8589 82.3436 -37.9264 36.1000 -54.9708
# 2 114.8589 310.8352 179.7532 -80.0627 85.7431 -151.5561
# 3 82.3436 179.7532 164.0012 -67.8351 48.6399 -89.2030
# 4 -37.9264 -80.0627 -67.8351 60.7936 -22.6319 30.0392
# 5 36.1000 85.7431 48.6399 -22.6319 65.4899 -76.3253
# 6 -54.9708 -151.5561 -89.2030 30.0392 -76.3253 120.5425
#
#
#
# Elastic Compliance Matrix: (Units=1/GPa)
#
#
# Indices 1 2 3 4 5 6 
#
# 1 0.012367 -0.003181 -0.003528 -0.000225 -0.004485 -0.003754
# 2 -0.003181 0.015866 -0.005749 0.006800 0.008492 0.017926
# 3 -0.003528 -0.005749 0.023215 0.014406 0.010482 0.011389
# 4 -0.000225 0.006800 0.014406 0.037635 0.018568 0.021486
# 5 -0.004485 0.008492 0.010482 0.018568 0.072359 0.057577
# 6 -0.003754 0.017926 0.011389 0.021486 0.057577 0.068652
#
#
# Mechanical properties :
#
#
# Convention : Reuss Voigt Hill
#
# Bulk Modulus (GPa) = 37.68821 150.92806 94.30813
# Shear Modulus (GPa) = 18.94991 64.53092 41.74041
#
# Velocity S-wave (km/s) = 2.90493 5.36063 4.31132
# Velocity P-wave (km/s) = 5.29475 10.27253 8.17188
#
# Compressibility (1/GPa) = 0.02653350
#
# Stress axis : x y z
#
# Youngs Moduli (GPa) = 80.85756 63.02596 43.07637
#
# Poissons Ratio (x) = 0.20048 0.15196
# Poissons Ratio (y) = 0.25720 0.24764
# Poissons Ratio (z) = 0.28524 0.36233
#
# Static dielectric constant tensor:
#      x y z
#    x 1.866180 0.003210 0.009400 
#    y 0.003210 1.878650 0.031010 
#    z 0.009400 0.031010 1.852770 
# 
# From -- ./inp_files/471855.got.cif
#   From: 2010.05.17/outbox.cif.g08.bks.cpg/sg2_236_cif.got.tgz:471855.got - 2010.06.03 11:33:40.
