data_PCOD9003932
_publ_section_title
;
Structure prediction by ZEFSAII (Michael W. Deem and Ramdas Pophale) SiO2 
 PCOD9003932
Probable space group: P -1
;
_chemical_formula_sum "Si O2"
_cell_formula_units_Z 14
_cell_length_a 9.417185
_cell_length_b 10.929228
_cell_length_c 11.548699
_cell_angle_alpha 114.890923
_cell_angle_beta 134.100815
_cell_angle_gamma 97.496775
_cell_volume 588.441809
_symmetry_space_group_name_H-M "P -1"
_symmetry_group_IT_number 2
_symmetry_cell_setting 'triclinic'
loop_
_space_group_symop_operation_xyz
x,y,z
-x,-y,-z
loop_
_atom_site_type_symbol
_atom_site_label
_atom_site_fract_x
_atom_site_fract_y
_atom_site_fract_z
Si Si1 0.464144 0.650045 0.624513
Si Si2 0.817548 0.642488 0.233065
Si Si3 0.730042 0.180054 0.271881
Si Si4 0.102903 0.247639 0.938519
Si Si5 0.332761 0.126387 0.391491
Si Si6 0.096609 0.633747 0.793909
Si Si7 0.360408 0.840622 0.237143
O O1 0.399773 0.763976 0.697086
O O2 0.619759 0.630553 0.796900
O O3 0.615093 0.748894 0.631206
O O4 0.192445 0.458416 0.367623
O O5 0.874257 0.508951 0.215905
O O6 0.033724 0.789120 0.510018
O O7 0.500000 0.500000 0.000000
O O8 0.888834 0.738340 0.188200
O O9 0.872783 0.320333 0.303755
O O10 0.500000 0.000000 0.000000
O O11 0.915892 0.277899 0.899866
O O12 0.964196 0.046867 0.823067
O O13 0.466935 0.198321 0.621469
O O14 0.461531 0.038833 0.389769
O O15 0.311527 0.801933 0.059660
#
# Coordination Sequence:
#
# PCOD9003932 Si02
#       7
#     2   2   2   2   2   2   2
#     4  11  21  39  61  86 121 158 195 246 298 345
#     4  11  23  43  63  87 120 158 201 249 295 348
#     4  11  24  41  64  86 121 159 201 244 299 354
#     4  10  21  37  63  85 120 153 197 242 290 355
#     4   9  20  38  59  85 122 154 195 241 295 351
#     4  11  23  38  62  87 120 156 197 243 300 353
#     4   9  20  37  59  87 118 150 200 235 300 345
#
# _framework density 23.791647999999999
#
# number of rings (size 3 to 8) (size 9 to 14) (size 15 to 20)
#    0.857    0.857    0.000    6.429    2.000    2.857 
#    2.571    1.429    0.000    0.000    0.000    0.000 
#    0.000    0.000    0.000    0.000    0.000    0.000 
#
# Total GULP energy -78082.381483 kJ/mol
# GULP energy per Si atom -5577.312963 kJ/mol
# Density = 2.373750 g / cm^3
# Si number density = 23.791648 Si / 1000 Ang^3
#
#
#
# Elastic Constant Matrix: (Units=GPa)
#
#
# Indices 1 2 3 4 5 6 
#
# 1 43.8501 25.8987 27.8461 -5.6297 -0.7593 14.7088
# 2 25.8987 101.1670 24.7692 -19.3153 -9.5722 32.3454
# 3 27.8461 24.7692 159.4267 -32.3277 -0.5257 1.1010
# 4 -5.6297 -19.3153 -32.3277 38.7103 6.7580 -4.7922
# 5 -0.7593 -9.5722 -0.5257 6.7580 33.9889 -8.0549
# 6 14.7088 32.3454 1.1010 -4.7922 -8.0549 40.2960
#
#
#
# Elastic Compliance Matrix: (Units=1/GPa)
#
#
# Indices 1 2 3 4 5 6 
#
# 1 0.031354 -0.004891 -0.005257 -0.002911 -0.002109 -0.008143
# 2 -0.004891 0.015468 -0.000402 0.005305 0.000859 -0.009817
# 3 -0.005257 -0.000402 0.008585 0.006670 -0.000798 0.002641
# 4 -0.002911 0.005305 0.006670 0.034529 -0.005417 -0.000355
# 5 -0.002109 0.000859 -0.000798 -0.005417 0.032072 0.005869
# 6 -0.008143 -0.009817 0.002641 -0.000355 0.005869 0.036728
#
#
# Mechanical properties :
#
#
# Convention : Reuss Voigt Hill
#
# Bulk Modulus (GPa) = 29.15065 51.27466 40.21265
# Shear Modulus (GPa) = 26.14068 37.66103 31.90085
#
# Velocity S-wave (km/s) = 3.31831 3.98295 3.66572
# Velocity P-wave (km/s) = 5.19236 6.53836 5.90385
#
# Compressibility (1/GPa) = 0.03430455
#
# Stress axis : x y z
#
# Youngs Moduli (GPa) = 31.89436 64.64790 116.48208
#
# Poissons Ratio (x) = 0.31621 0.61240
# Poissons Ratio (y) = 0.15600 0.04688
# Poissons Ratio (z) = 0.16768 0.02602
#
# Static dielectric constant tensor:
#      x y z
#    x 1.930840 -0.017640 -0.022240 
#    y -0.017640 1.890700 0.035280 
#    z -0.022240 0.035280 2.016760 
# 
# From -- ./inp_files/428477.got.cif
#   From: 2010.05.17/outbox.cif.g08.bks.cpg/sg2_215_cif.got.tgz:428477.got - 2010.06.03 11:33:40.
