data_PCOD9003164
_publ_section_title
;
Structure prediction by ZEFSAII (Michael W. Deem and Ramdas Pophale) SiO2 
 PCOD9003164
Probable space group: P -1
;
_chemical_formula_sum "Si O2"
_cell_formula_units_Z 16
_cell_length_a 8.981995
_cell_length_b 13.239781
_cell_length_c 5.622590
_cell_angle_alpha 82.933865
_cell_angle_beta 99.171812
_cell_angle_gamma 88.397994
_cell_volume 654.301808
_symmetry_space_group_name_H-M "P -1"
_symmetry_group_IT_number 2
_symmetry_cell_setting 'triclinic'
loop_
_space_group_symop_operation_xyz
x,y,z
-x,-y,-z
loop_
_atom_site_type_symbol
_atom_site_label
_atom_site_fract_x
_atom_site_fract_y
_atom_site_fract_z
Si Si1 0.044391 0.727858 0.684227
Si Si2 0.484379 0.305976 0.300637
Si Si3 0.833503 0.565982 0.835740
Si Si4 0.778490 0.787550 0.233402
Si Si5 0.230226 0.538724 0.649123
Si Si6 0.060887 0.089179 0.149199
Si Si7 0.471632 0.371193 0.781922
Si Si8 0.627892 0.912807 0.533244
O O1 0.959630 0.649180 0.854115
O O2 0.912658 0.757207 0.455098
O O3 0.067660 0.838620 0.773797
O O4 0.177093 0.658277 0.619950
O O5 0.327591 0.373502 0.247473
O O6 0.551349 0.331149 0.572411
O O7 0.435094 0.188605 0.325961
O O8 0.556315 0.338203 0.056490
O O9 0.839754 0.501617 0.607208
O O10 0.830246 0.506698 0.101936
O O11 0.679262 0.691312 0.214618
O O12 0.663646 0.873915 0.287845
O O13 0.857147 0.831461 0.017056
O O14 0.403078 0.487007 0.711537
O O15 0.205878 0.052428 0.354577
O O16 0.000000 0.000000 0.000000
O O17 0.500000 0.000000 0.500000
#
# Coordination Sequence:
#
# PCOD9003164 Si02
#       8
#     2   2   2   2   2   2   2   2
#     4  11  20  29  46  72 102 146 178 224 262 338
#     4   9  15  29  44  69 104 137 167 213 273 325
#     4  10  17  28  44  71 109 144 172 214 278 342
#     4  10  19  34  52  71 109 143 179 226 283 326
#     4  10  19  25  44  74 105 145 177 213 270 342
#     4  11  23  39  55  74 108 155 192 228 281 335
#     4   9  15  28  45  69 108 142 167 211 278 339
#     4  10  20  35  55  80 104 138 189 240 280 325
#
# _framework density 24.453547
#
# number of rings (size 3 to 8) (size 9 to 14) (size 15 to 20)
#    0.000    2.000    6.250    1.500    1.750    2.500 
#    0.000    0.000    0.000    0.000    0.000    0.000 
#    0.000   13.000    0.000    0.500    0.000    0.000 
#
# Total GULP energy -89271.333255 kJ/mol
# GULP energy per Si atom -5579.458328 kJ/mol
# Density = 2.439789 g / cm^3
# Si number density = 24.453547 Si / 1000 Ang^3
#
#
#
# Elastic Constant Matrix: (Units=GPa)
#
#
# Indices 1 2 3 4 5 6 
#
# 1 71.3105 59.4362 23.1134 10.6889 -3.6630 -16.3994
# 2 59.4362 195.0492 53.0662 36.9041 16.1233 -33.0414
# 3 23.1134 53.0662 120.5439 23.9933 -15.1795 -14.0994
# 4 10.6889 36.9041 23.9933 37.2352 2.8084 4.1926
# 5 -3.6630 16.1233 -15.1795 2.8084 27.6154 0.0073
# 6 -16.3994 -33.0414 -14.0994 4.1926 0.0073 47.0214
#
#
#
# Elastic Compliance Matrix: (Units=1/GPa)
#
#
# Indices 1 2 3 4 5 6 
#
# 1 0.020137 -0.006088 0.000058 -0.000577 0.006316 0.002813
# 2 -0.006088 0.010465 -0.002363 -0.007116 -0.007494 0.005157
# 3 0.000058 -0.002363 0.011957 -0.006310 0.008601 0.002506
# 4 -0.000577 -0.007116 -0.006310 0.039595 -0.003414 -0.010624
# 5 0.006316 -0.007494 0.008601 -0.003414 0.046500 -0.000187
# 6 0.002813 0.005157 0.002506 -0.010624 -0.000187 0.027570
#
#
# Mechanical properties :
#
#
# Convention : Reuss Voigt Hill
#
# Bulk Modulus (GPa) = 38.80273 73.12614 55.96444
# Shear Modulus (GPa) = 27.53280 39.12692 33.32986
#
# Velocity S-wave (km/s) = 3.35912 4.00440 3.69587
# Velocity P-wave (km/s) = 5.56303 7.16585 6.41469
#
# Compressibility (1/GPa) = 0.02577138
#
# Stress axis : x y z
#
# Youngs Moduli (GPa) = 49.66088 95.55869 83.63118
#
# Poissons Ratio (x) = 0.58180 -0.00488
# Poissons Ratio (y) = 0.30236 0.19766
# Poissons Ratio (z) = -0.00290 0.22585
#
# Static dielectric constant tensor:
#      x y z
#    x 2.008010 0.039190 -0.014570 
#    y 0.039190 1.988820 0.042040 
#    z -0.014570 0.042040 2.071020 
# 
# From -- ./inp_files/66417.got.cif
#   From: 2010.05.17/outbox.cif.g08.bks.cpg/sg2_34_cif.got.tgz:66417.got - 2010.06.03 11:33:40.
