data_PCOD9003909
_publ_section_title
;
Structure prediction by ZEFSAII (Michael W. Deem and Ramdas Pophale) SiO2 
 PCOD9003909
Probable space group: P -1
;
_chemical_formula_sum "Si O2"
_cell_formula_units_Z 14
_cell_length_a 18.762716
_cell_length_b 11.233108
_cell_length_c 8.174080
_cell_angle_alpha 51.694100
_cell_angle_beta 127.342905
_cell_angle_gamma 151.846259
_cell_volume 629.431163
_symmetry_space_group_name_H-M "P -1"
_symmetry_group_IT_number 2
_symmetry_cell_setting 'triclinic'
loop_
_space_group_symop_operation_xyz
x,y,z
-x,-y,-z
loop_
_atom_site_type_symbol
_atom_site_label
_atom_site_fract_x
_atom_site_fract_y
_atom_site_fract_z
Si Si1 0.041908 0.909012 0.983163
Si Si2 0.063656 0.207248 0.545348
Si Si3 0.110271 0.793169 0.868576
Si Si4 0.836502 0.194245 0.573492
Si Si5 0.628236 0.964464 0.166779
Si Si6 0.327948 0.764444 0.524997
Si Si7 0.312136 0.624762 0.995377
O O1 0.125155 0.926215 0.223905
O O2 0.859770 0.655049 0.965778
O O3 0.090400 0.875822 0.922585
O O4 0.078430 0.131609 0.797022
O O5 0.226479 0.512113 0.487251
O O6 0.949911 0.193282 0.383365
O O7 0.000000 0.000000 0.500000
O O8 0.282307 0.981966 0.906936
O O9 0.000000 0.500000 0.000000
O O10 0.718837 0.041327 0.390062
O O11 0.756031 0.187172 0.609854
O O12 0.000000 0.500000 0.500000
O O13 0.652330 0.179301 0.010572
O O14 0.447344 0.690139 0.156813
O O15 0.325213 0.695900 0.764874
O O16 0.500000 0.000000 0.500000
#
# Coordination Sequence:
#
# PCOD9003909 Si02
#       7
#     2   2   2   2   2   2   2
#     4  11  22  41  65  92 137 171 221 279 330 396
#     4  10  25  41  65 101 135 176 220 279 342 392
#     4  11  20  37  69  94 125 174 236 264 318 404
#     4  11  20  41  64  99 127 176 230 274 318 401
#     4  10  21  37  62  98 131 165 228 271 328 386
#     4  11  24  41  68  98 133 174 232 276 332 400
#     4  10  22  38  62  97 134 171 212 284 340 379
#
# _framework density 22.242305000000002
#
# number of rings (size 3 to 8) (size 9 to 14) (size 15 to 20)
#    0.000    1.429    4.286    1.714    4.000    4.000 
#    0.000    1.429    0.000    0.000    0.000    0.000 
#    0.000    0.000    0.000    0.000    0.000    0.000 
#
# Total GULP energy -78188.025944 kJ/mol
# GULP energy per Si atom -5584.858996 kJ/mol
# Density = 2.219168 g / cm^3
# Si number density = 22.242305 Si / 1000 Ang^3
#
#
#
# Elastic Constant Matrix: (Units=GPa)
#
#
# Indices 1 2 3 4 5 6 
#
# 1 142.6422 69.5038 31.0472 3.1403 7.0528 29.9156
# 2 69.5038 112.3976 23.8598 10.8364 12.8175 33.3707
# 3 31.0472 23.8598 123.8808 6.2053 27.0080 16.6666
# 4 3.1403 10.8364 6.2053 33.1949 1.2222 3.2867
# 5 7.0528 12.8175 27.0080 1.2222 34.4071 7.7997
# 6 29.9156 33.3707 16.6666 3.2867 7.7997 46.8471
#
#
#
# Elastic Compliance Matrix: (Units=1/GPa)
#
#
# Indices 1 2 3 4 5 6 
#
# 1 0.010599 -0.005818 -0.001673 0.001383 0.001809 -0.002427
# 2 -0.005818 0.015012 0.000263 -0.003663 -0.003046 -0.006308
# 3 -0.001673 0.000263 0.010342 -0.001441 -0.007493 -0.001450
# 4 0.001383 -0.003663 -0.001441 0.031433 0.001131 -0.000155
# 5 0.001809 -0.003046 -0.007493 0.001131 0.036220 -0.002429
# 6 -0.002427 -0.006308 -0.001450 -0.000155 -0.002429 0.028320
#
#
# Mechanical properties :
#
#
# Convention : Reuss Voigt Hill
#
# Bulk Modulus (GPa) = 46.51847 69.74912 58.13380
# Shear Modulus (GPa) = 32.56345 39.85717 36.21031
#
# Velocity S-wave (km/s) = 3.83042 4.23774 4.03922
# Velocity P-wave (km/s) = 6.36574 7.44120 6.92438
#
# Compressibility (1/GPa) = 0.02149684
#
# Stress axis : x y z
#
# Youngs Moduli (GPa) = 94.35277 66.61305 96.69586
#
# Poissons Ratio (x) = 0.38754 0.16176
# Poissons Ratio (y) = 0.54893 -0.02543
# Poissons Ratio (z) = 0.15784 -0.01752
#
# Static dielectric constant tensor:
#      x y z
#    x 1.921260 -0.012390 -0.058770 
#    y -0.012390 1.790960 0.022260 
#    z -0.058770 0.022260 1.948360 
# 
# From -- ./inp_files/332943.got.cif
#   From: 2010.05.17/outbox.cif.g08.bks.cpg/sg2_167_cif.got.tgz:332943.got - 2010.06.03 11:33:40.
