data_PCOD9003181
_publ_section_title
;
Structure prediction by ZEFSAII (Michael W. Deem and Ramdas Pophale) SiO2 
 PCOD9003181
Probable space group: P -1
;
_chemical_formula_sum "Si O2"
_cell_formula_units_Z 14
_cell_length_a 16.643483
_cell_length_b 13.792982
_cell_length_c 9.349967
_cell_angle_alpha 54.507255
_cell_angle_beta 55.139806
_cell_angle_gamma 22.297444
_cell_volume 658.937451
_symmetry_space_group_name_H-M "P -1"
_symmetry_group_IT_number 2
_symmetry_cell_setting 'triclinic'
loop_
_space_group_symop_operation_xyz
x,y,z
-x,-y,-z
loop_
_atom_site_type_symbol
_atom_site_label
_atom_site_fract_x
_atom_site_fract_y
_atom_site_fract_z
Si Si1 0.213975 0.838286 0.877021
Si Si2 0.841964 0.130458 0.411365
Si Si3 0.531472 0.657929 0.849831
Si Si4 0.755331 0.445336 0.501486
Si Si5 0.536300 0.837070 0.942358
Si Si6 0.490422 0.683107 0.312642
Si Si7 0.182758 0.400195 0.880110
O O1 0.181088 0.907510 0.687581
O O2 0.299785 0.860331 0.858136
O O3 0.387530 0.545728 0.971247
O O4 0.000000 0.000000 0.000000
O O5 0.725969 0.381426 0.285064
O O6 0.680748 0.235166 0.588915
O O7 0.086765 0.837252 0.447095
O O8 0.679197 0.521934 0.676692
O O9 0.552266 0.750765 0.850266
O O10 0.542056 0.665167 0.436181
O O11 0.867263 0.439344 0.318876
O O12 0.393876 0.108312 0.850537
O O13 0.412352 0.875294 0.133758
O O14 0.743727 0.636002 0.004148
O O15 0.000000 0.500000 0.000000
#
# Coordination Sequence:
#
# PCOD9003181 Si02
#       7
#     2   2   2   2   2   2   2
#     4  11  22  38  58  89 133 161 194 238 303 364
#     4  11  20  35  59  89 122 160 199 245 294 360
#     4  11  23  39  61  90 123 162 200 244 300 365
#     4  11  22  38  61  88 122 157 203 250 299 356
#     4  10  22  42  64  85 118 161 200 250 306 353
#     4  10  21  37  58  88 121 160 200 246 293 359
#     4  10  23  44  64  89 115 155 208 258 299 356
#
# _framework density 21.246327000000001
#
# number of rings (size 3 to 8) (size 9 to 14) (size 15 to 20)
#    0.000    1.429    4.286    1.286    0.000    1.714 
#    2.571    0.714    0.000    0.000    0.000    0.000 
#    0.000    0.000    0.000    0.000    0.000    0.000 
#
# Total GULP energy -77954.840571 kJ/mol
# GULP energy per Si atom -5568.202898 kJ/mol
# Density = 2.119797 g / cm^3
# Si number density = 21.246327 Si / 1000 Ang^3
#
#
#
# Elastic Constant Matrix: (Units=GPa)
#
#
# Indices 1 2 3 4 5 6 
#
# 1 108.4113 22.1829 12.5205 11.2582 -17.3604 -0.5428
# 2 22.1829 54.6940 16.6695 3.2746 -5.4663 3.7464
# 3 12.5205 16.6695 61.3459 -0.5244 -16.2605 -1.2791
# 4 11.2582 3.2746 -0.5244 26.6483 -2.9248 -6.3843
# 5 -17.3604 -5.4663 -16.2605 -2.9248 27.2706 9.9322
# 6 -0.5428 3.7464 -1.2791 -6.3843 9.9322 35.1181
#
#
#
# Elastic Compliance Matrix: (Units=1/GPa)
#
#
# Indices 1 2 3 4 5 6 
#
# 1 0.011499 -0.003693 0.000493 -0.004129 0.007235 -0.002207
# 2 -0.003693 0.021670 -0.005303 -0.001919 -0.000351 -0.002812
# 3 0.000493 -0.005303 0.020967 0.001785 0.012641 -0.001914
# 4 -0.004129 -0.001919 0.001785 0.041378 -0.000363 0.007831
# 5 0.007235 -0.000351 0.012641 -0.000363 0.054076 -0.014750
# 6 -0.002207 -0.002812 -0.001914 0.007831 -0.014750 0.034267
#
#
# Mechanical properties :
#
#
# Convention : Reuss Voigt Hill
#
# Bulk Modulus (GPa) = 26.93118 36.35522 31.64320
# Shear Modulus (GPa) = 23.44793 29.34596 26.39695
#
# Velocity S-wave (km/s) = 3.32569 3.72052 3.52863
# Velocity P-wave (km/s) = 5.23929 5.96697 5.61493
#
# Compressibility (1/GPa) = 0.03713169
#
# Stress axis : x y z
#
# Youngs Moduli (GPa) = 86.96325 46.14728 47.69297
#
# Poissons Ratio (x) = 0.17040 -0.02351
# Poissons Ratio (y) = 0.32111 0.25290
# Poissons Ratio (z) = -0.04286 0.24470
#
# Static dielectric constant tensor:
#      x y z
#    x 1.882360 -0.024510 0.037150 
#    y -0.024510 1.832850 0.000680 
#    z 0.037150 0.000680 1.771080 
# 
# From -- ./inp_files/246056.got.cif
#   From: 2010.05.17/outbox.cif.g08.bks.cpg/sg2_124_cif.got.tgz:246056.got - 2010.06.03 11:33:40.
