data_PCOD9003906
_publ_section_title
;
Structure prediction by ZEFSAII (Michael W. Deem and Ramdas Pophale) SiO2 
 PCOD9003906
Probable space group: P -1
;
_chemical_formula_sum "Si O2"
_cell_formula_units_Z 13
_cell_length_a 5.747181
_cell_length_b 6.594441
_cell_length_c 15.210501
_cell_angle_alpha 82.273932
_cell_angle_beta 70.553019
_cell_angle_gamma 71.563769
_cell_volume 515.409477
_symmetry_space_group_name_H-M "P -1"
_symmetry_group_IT_number 2
_symmetry_cell_setting 'triclinic'
loop_
_space_group_symop_operation_xyz
x,y,z
-x,-y,-z
loop_
_atom_site_type_symbol
_atom_site_label
_atom_site_fract_x
_atom_site_fract_y
_atom_site_fract_z
Si Si1 0.267196 0.928801 0.074407
Si Si2 0.458180 0.638785 0.749128
Si Si3 0.311364 0.375778 0.631066
Si Si4 0.172132 0.657362 0.956659
Si Si5 0.102608 0.220729 0.391993
Si Si6 0.000568 0.944100 0.277926
Si Si7 0.500000 0.000000 0.500000
O O1 0.013895 0.117963 0.068687
O O2 0.239341 0.913860 0.183473
O O3 0.500000 0.000000 0.000000
O O4 0.267952 0.715842 0.034678
O O5 0.448982 0.459661 0.689178
O O6 0.383446 0.581993 0.858524
O O7 0.720216 0.702542 0.706322
O O8 0.235239 0.852251 0.734426
O O9 0.272741 0.169811 0.459949
O O10 0.491535 0.187753 0.562270
O O11 0.157077 0.584148 0.583229
O O12 0.000000 0.500000 0.000000
O O13 0.041867 0.016319 0.367143
O O14 0.897074 0.739197 0.299530
#
# Coordination Sequence:
#
# PCOD9003906 Si02
#       7
#     2   2   2   2   2   2   1
#     4  10  21  37  62  97 132 171 215 261 310 378
#     4  10  22  43  64  95 137 172 216 268 325 383
#     4  11  25  44  68  97 127 176 215 267 332 391
#     4  10  21  37  62  97 132 171 215 261 310 378
#     4  11  25  44  68  97 127 176 215 267 332 391
#     4  10  22  43  64  95 137 172 216 268 325 383
#     4  12  26  48  68  96 132 164 220 282 326 386
#
# _framework density 25.222664999999999
#
# number of rings (size 3 to 8) (size 9 to 14) (size 15 to 20)
#    0.000    1.538    1.538    2.308    2.154    3.077 
#    0.000    0.000    0.000    0.000    0.000    0.000 
#    0.000    0.000    0.000    0.000    0.000    0.000 
#
# Total GULP energy -72582.535805 kJ/mol
# GULP energy per Si atom -5583.271985 kJ/mol
# Density = 2.516526 g / cm^3
# Si number density = 25.222665 Si / 1000 Ang^3
#
#
#
# Elastic Constant Matrix: (Units=GPa)
#
#
# Indices 1 2 3 4 5 6 
#
# 1 31.8753 24.4518 6.3696 1.7984 7.5928 -9.9624
# 2 24.4518 113.9331 61.0866 24.2873 5.3362 18.2179
# 3 6.3696 61.0866 101.1234 7.9473 -11.9040 4.9171
# 4 1.7984 24.2873 7.9473 48.6562 5.2768 -7.5527
# 5 7.5928 5.3362 -11.9040 5.2768 44.7671 -12.2466
# 6 -9.9624 18.2179 4.9171 -7.5527 -12.2466 58.0435
#
#
#
# Elastic Compliance Matrix: (Units=1/GPa)
#
#
# Indices 1 2 3 4 5 6 
#
# 1 0.047731 -0.017329 0.005949 0.008242 -0.001629 0.013856
# 2 -0.017329 0.023355 -0.012239 -0.010280 -0.005082 -0.011678
# 3 0.005949 -0.012239 0.017114 0.003234 0.006015 0.005103
# 4 0.008242 -0.010280 0.003234 0.026077 -0.000279 0.007701
# 5 -0.001629 -0.005082 0.006015 -0.000279 0.026598 0.006382
# 6 0.013856 -0.011678 0.005103 0.007701 0.006382 0.025188
#
#
# Mechanical properties :
#
#
# Convention : Reuss Voigt Hill
#
# Bulk Modulus (GPa) = 24.41453 47.86088 36.13771
# Shear Modulus (GPa) = 22.03068 40.62828 31.32948
#
# Velocity S-wave (km/s) = 2.95862 4.01781 3.52819
# Velocity P-wave (km/s) = 4.62297 6.36713 5.56382
#
# Compressibility (1/GPa) = 0.04095921
#
# Stress axis : x y z
#
# Youngs Moduli (GPa) = 20.95085 42.81690 58.43292
#
# Poissons Ratio (x) = 0.74199 -0.34760
# Poissons Ratio (y) = 0.36307 0.71519
# Poissons Ratio (z) = -0.12463 0.52405
#
# Static dielectric constant tensor:
#      x y z
#    x 1.983380 -0.028260 -0.069750 
#    y -0.028260 1.937370 -0.032700 
#    z -0.069750 -0.032700 2.011980 
# 
# From -- ./inp_files/479197.got.cif
#   From: 2010.05.17/outbox.cif.g08.bks.cpg/sg2_240_cif.got.tgz:479197.got - 2010.06.03 11:33:40.
