data_PCOD9003513
_publ_section_title
;
Structure prediction by ZEFSAII (Michael W. Deem and Ramdas Pophale) SiO2 
 PCOD9003513
Probable space group: P -1
;
_chemical_formula_sum "Si O2"
_cell_formula_units_Z 14
_cell_length_a 15.644283
_cell_length_b 16.109048
_cell_length_c 18.343073
_cell_angle_alpha 157.959428
_cell_angle_beta 157.532033
_cell_angle_gamma 23.714391
_cell_volume 604.251964
_symmetry_space_group_name_H-M "P -1"
_symmetry_group_IT_number 2
_symmetry_cell_setting 'triclinic'
loop_
_space_group_symop_operation_xyz
x,y,z
-x,-y,-z
loop_
_atom_site_type_symbol
_atom_site_label
_atom_site_fract_x
_atom_site_fract_y
_atom_site_fract_z
Si Si1 0.476381 0.679364 0.514688
Si Si2 0.035397 0.727701 0.100670
Si Si3 0.249189 0.891539 0.201122
Si Si4 0.459574 0.223658 0.201396
Si Si5 0.031757 0.796815 0.627450
Si Si6 0.986603 0.428287 0.198084
Si Si7 0.751488 0.643375 0.464300
O O1 0.549366 0.408000 0.382557
O O2 0.418270 0.837272 0.671733
O O3 0.720263 0.684051 0.675672
O O4 0.253189 0.724539 0.320902
O O5 0.887247 0.009202 0.188051
O O6 0.835483 0.647948 0.913812
O O7 0.125656 0.579269 0.975850
O O8 0.520580 0.698475 0.275383
O O9 0.259018 0.087294 0.310648
O O10 0.144306 0.050227 0.321592
O O11 0.088289 0.738236 0.942026
O O12 0.500000 0.000000 0.000000
O O13 0.902903 0.693011 0.382021
O O14 0.235068 0.547922 0.618359
O O15 0.000000 0.500000 0.500000
#
# Coordination Sequence:
#
# PCOD9003513 Si02
#       7
#     2   2   2   2   2   2   2
#     4  10  22  39  62  87 128 158 203 261 296 366
#     4  10  22  40  58  92 126 163 206 253 307 362
#     4   9  20  41  61  91 125 159 208 256 306 362
#     4  10  21  39  62  90 121 164 208 249 307 362
#     4  10  21  37  60  92 123 160 209 249 304 367
#     4  10  22  38  59  92 120 162 206 250 307 364
#     4   9  19  40  66  87 126 161 201 262 302 363
#
# _framework density 23.169141
#
# number of rings (size 3 to 8) (size 9 to 14) (size 15 to 20)
#    0.000    2.286    0.000    1.286    4.000    2.286 
#   10.286    6.429    0.000    0.000    0.000    0.000 
#    0.000    0.000    0.000    0.000    0.000    0.000 
#
# Total GULP energy -78114.691980 kJ/mol
# GULP energy per Si atom -5579.620856 kJ/mol
# Density = 2.311641 g / cm^3
# Si number density = 23.169141 Si / 1000 Ang^3
#
#
#
# Elastic Constant Matrix: (Units=GPa)
#
#
# Indices 1 2 3 4 5 6 
#
# 1 19.0448 25.1091 17.0331 -12.5086 -10.2541 10.4175
# 2 25.1091 69.7412 19.8405 -14.3725 2.9945 12.2242
# 3 17.0331 19.8405 120.4869 -4.0890 0.1477 7.4773
# 4 -12.5086 -14.3725 -4.0890 50.7541 -0.8650 -5.8266
# 5 -10.2541 2.9945 0.1477 -0.8650 66.6102 4.1822
# 6 10.4175 12.2242 7.4773 -5.8266 4.1822 23.6405
#
#
#
# Elastic Compliance Matrix: (Units=1/GPa)
#
#
# Indices 1 2 3 4 5 6 
#
# 1 0.222085 -0.060008 -0.016734 0.030043 0.041169 -0.061421
# 2 -0.060008 0.033231 0.002290 -0.004299 -0.011388 0.009490
# 3 -0.016734 0.002290 0.010028 -0.002379 -0.002917 0.002948
# 4 0.030043 -0.004299 -0.002379 0.025216 0.005466 -0.005016
# 5 0.041169 -0.011388 -0.002917 0.005466 0.022820 -0.014020
# 6 -0.061421 0.009490 0.002948 -0.005016 -0.014020 0.064771
#
#
# Mechanical properties :
#
#
# Convention : Reuss Voigt Hill
#
# Bulk Modulus (GPa) = 8.58795 37.02648 22.80722
# Shear Modulus (GPa) = 8.83600 38.02029 23.42815
#
# Velocity S-wave (km/s) = 1.95499 4.05531 3.18335
# Velocity P-wave (km/s) = 2.96827 6.15979 4.83496
#
# Compressibility (1/GPa) = 0.11644217
#
# Stress axis : x y z
#
# Youngs Moduli (GPa) = 4.50278 30.09198 99.71992
#
# Poissons Ratio (x) = 1.80574 1.66868
# Poissons Ratio (y) = 0.27020 -0.22837
# Poissons Ratio (z) = 0.07535 -0.06891
#
# Static dielectric constant tensor:
#      x y z
#    x 1.959520 0.045960 -0.008350 
#    y 0.045960 1.851040 -0.002790 
#    z -0.008350 -0.002790 1.908810 
# 
# From -- ./inp_files/576371.got.cif
#   From: 2010.05.17/outbox.cif.g08.bks.cpg/sg2_289_cif.got.tgz:576371.got - 2010.06.03 11:33:40.
