data_PCOD9003241
_publ_section_title
;
Structure prediction by ZEFSAII (Michael W. Deem and Ramdas Pophale) SiO2 
 PCOD9003241
Probable space group: P -1
;
_chemical_formula_sum "Si O2"
_cell_formula_units_Z 14
_cell_length_a 9.671454
_cell_length_b 10.612527
_cell_length_c 17.908257
_cell_angle_alpha 45.020050
_cell_angle_beta 126.083349
_cell_angle_gamma 89.861119
_cell_volume 715.317377
_symmetry_space_group_name_H-M "P -1"
_symmetry_group_IT_number 2
_symmetry_cell_setting 'triclinic'
loop_
_space_group_symop_operation_xyz
x,y,z
-x,-y,-z
loop_
_atom_site_type_symbol
_atom_site_label
_atom_site_fract_x
_atom_site_fract_y
_atom_site_fract_z
Si Si1 0.254884 0.961286 0.260809
Si Si2 0.924096 0.977682 0.064824
Si Si3 0.182773 0.246232 0.974633
Si Si4 0.762819 0.051541 0.394966
Si Si5 0.420296 0.754102 0.899406
Si Si6 0.280528 0.651652 0.035010
Si Si7 0.341520 0.204962 0.431005
O O1 0.479815 0.811654 0.452440
O O2 0.296511 0.046663 0.163560
O O3 0.162462 0.836981 0.253936
O O4 0.995169 0.227742 0.105803
O O5 0.833299 0.852372 0.066304
O O6 0.712282 0.259160 0.919410
O O7 0.000000 0.000000 0.000000
O O8 0.895690 0.506611 0.795560
O O9 0.340199 0.304220 0.989019
O O10 0.737400 0.036914 0.304611
O O11 0.509223 0.346442 0.218527
O O12 0.770440 0.867612 0.522735
O O13 0.000000 0.000000 0.500000
O O14 0.500000 0.500000 0.000000
O O15 0.285481 0.807210 0.910876
O O16 0.500000 0.000000 0.500000
#
# Coordination Sequence:
#
# PCOD9003241 Si02
#       7
#     2   2   2   2   2   2   2
#     4   9  21  41  58  90 122 156 201 252 300 345
#     4   8  19  38  64  86 115 166 203 246 301 345
#     4  11  21  40  62  87 122 162 200 246 303 356
#     4  11  23  38  57  87 127 155 197 252 303 363
#     4  10  21  37  59  83 123 160 192 248 304 356
#     4   9  20  39  62  83 117 163 199 247 299 356
#     4  12  25  33  62  95 119 158 204 246 308 366
#
# _framework density 19.571732999999998
#
# number of rings (size 3 to 8) (size 9 to 14) (size 15 to 20)
#    0.857    1.143    1.429    2.571    6.000    2.286 
#    0.000    0.000    3.143    1.714    0.000    0.000 
#    0.000    0.000    0.000    0.000    0.000    0.000 
#
# Total GULP energy -77970.628832 kJ/mol
# GULP energy per Si atom -5569.330631 kJ/mol
# Density = 1.952719 g / cm^3
# Si number density = 19.571733 Si / 1000 Ang^3
#
#
#
# Elastic Constant Matrix: (Units=GPa)
#
#
# Indices 1 2 3 4 5 6 
#
# 1 89.4104 21.2643 5.9003 16.8831 7.4862 6.0358
# 2 21.2643 79.6999 9.5620 23.0092 3.6748 5.5625
# 3 5.9003 9.5620 37.5232 24.3354 6.0543 5.4460
# 4 16.8831 23.0092 24.3354 32.2226 4.6085 10.3201
# 5 7.4862 3.6748 6.0543 4.6085 28.9053 11.1446
# 6 6.0358 5.5625 5.4460 10.3201 11.1446 42.1361
#
#
#
# Elastic Compliance Matrix: (Units=1/GPa)
#
#
# Indices 1 2 3 4 5 6 
#
# 1 0.013143 -0.001295 0.004675 -0.009304 -0.003030 0.000764
# 2 -0.001295 0.016879 0.006762 -0.016798 -0.001125 0.001495
# 3 0.004675 0.006762 0.058493 -0.052140 -0.008258 0.005832
# 4 -0.009304 -0.016798 -0.052140 0.090741 0.006237 -0.013585
# 5 -0.003030 -0.001125 -0.008258 0.006237 0.040324 -0.010543
# 6 0.000764 0.001495 0.005832 -0.013585 -0.010543 0.028788
#
#
# Mechanical properties :
#
#
# Convention : Reuss Voigt Hill
#
# Bulk Modulus (GPa) = 9.19138 31.12071 20.15604
# Shear Modulus (GPa) = 18.91434 31.97993 25.44713
#
# Velocity S-wave (km/s) = 3.11209 4.04664 3.60974
# Velocity P-wave (km/s) = 4.19761 6.14566 5.26256
#
# Compressibility (1/GPa) = 0.10879765
#
# Stress axis : x y z
#
# Youngs Moduli (GPa) = 76.08762 59.24658 17.09597
#
# Poissons Ratio (x) = 0.07673 -0.07993
# Poissons Ratio (y) = 0.09855 -0.11559
# Poissons Ratio (z) = -0.35572 -0.40060
#
# Static dielectric constant tensor:
#      x y z
#    x 1.718330 0.010000 -0.021200 
#    y 0.010000 1.675450 -0.002270 
#    z -0.021200 -0.002270 1.720330 
# 
# From -- ./inp_files/559045.got.cif
#   From: 2010.05.17/outbox.cif.g08.bks.cpg/sg2_280_cif.got.tgz:559045.got - 2010.06.03 11:33:40.
