data_PCOD9003355
_publ_section_title
;
Structure prediction by ZEFSAII (Michael W. Deem and Ramdas Pophale) SiO2 
 PCOD9003355
Probable space group: P -1
;
_chemical_formula_sum "Si O2"
_cell_formula_units_Z 15
_cell_length_a 10.757235
_cell_length_b 15.739845
_cell_length_c 7.009083
_cell_angle_alpha 80.738993
_cell_angle_beta 57.847823
_cell_angle_gamma 39.851671
_cell_volume 572.875428
_symmetry_space_group_name_H-M "P -1"
_symmetry_group_IT_number 2
_symmetry_cell_setting 'triclinic'
loop_
_space_group_symop_operation_xyz
x,y,z
-x,-y,-z
loop_
_atom_site_type_symbol
_atom_site_label
_atom_site_fract_x
_atom_site_fract_y
_atom_site_fract_z
Si Si1 0.417590 0.850904 0.800535
Si Si2 0.021613 0.364627 0.624177
Si Si3 0.500000 0.500000 0.500000
Si Si4 0.763428 0.919071 0.376338
Si Si5 0.232526 0.448174 0.894881
Si Si6 0.057412 0.674031 0.675291
Si Si7 0.721677 0.217045 0.352503
Si Si8 0.214233 0.029260 0.233020
O O1 0.701327 0.727380 0.530415
O O2 0.304752 0.819576 0.813011
O O3 0.219472 0.016923 0.819641
O O4 0.434188 0.873045 0.998928
O O5 0.046793 0.251690 0.699689
O O6 0.987781 0.377763 0.421065
O O7 0.806793 0.515617 0.863493
O O8 0.300060 0.613402 0.436628
O O9 0.650269 0.349237 0.320650
O O10 0.754250 0.973066 0.566549
O O11 0.500000 0.000000 0.500000
O O12 0.196134 0.561632 0.783535
O O13 0.493436 0.292239 0.649687
O O14 0.000000 0.500000 0.000000
O O15 0.828042 0.848611 0.836806
O O16 0.969657 0.095249 0.327882
#
# Coordination Sequence:
#
# PCOD9003355 Si02
#       8
#     2   2   1   2   2   2   2   2
#     4  11  21  37  60  90 123 154 198 246 295 352
#     4  10  21  37  59  91 115 156 200 239 296 354
#     4   8  18  40  60  78 118 156 194 246 284 348
#     4   9  21  38  62  91 123 155 199 244 298 355
#     4  11  21  39  59  84 122 153 193 253 289 339
#     4   9  20  38  62  85 117 156 200 240 298 353
#     4  10  21  40  60  88 121 158 200 242 299 352
#     4  10  21  40  62  88 121 159 196 243 297 360
#
# _framework density 26.183705
#
# number of rings (size 3 to 8) (size 9 to 14) (size 15 to 20)
#    0.000    2.133    1.333    1.200    0.000    8.000 
#    0.000   14.667    0.000    0.000    0.000    0.000 
#    0.000    0.000    0.000    0.000    0.000    0.000 
#
# Total GULP energy -83559.038857 kJ/mol
# GULP energy per Si atom -5570.602590 kJ/mol
# Density = 2.612411 g / cm^3
# Si number density = 26.183705 Si / 1000 Ang^3
#
#
#
# Elastic Constant Matrix: (Units=GPa)
#
#
# Indices 1 2 3 4 5 6 
#
# 1 156.0821 6.2074 51.6272 5.1523 37.4746 -4.4483
# 2 6.2074 48.1804 7.5445 -2.5955 7.7195 9.6385
# 3 51.6272 7.5445 112.9239 17.4719 33.8742 -10.5193
# 4 5.1523 -2.5955 17.4719 30.5241 3.3645 0.4450
# 5 37.4746 7.7195 33.8742 3.3645 52.9639 7.6335
# 6 -4.4483 9.6385 -10.5193 0.4450 7.6335 39.1517
#
#
#
# Elastic Compliance Matrix: (Units=1/GPa)
#
#
# Indices 1 2 3 4 5 6 
#
# 1 0.008311 -0.000196 -0.002376 0.000423 -0.004537 0.001234
# 2 -0.000196 0.022689 -0.002178 0.003421 -0.001126 -0.006012
# 3 -0.002376 -0.002178 0.013836 -0.006991 -0.007194 0.005466
# 4 0.000423 0.003421 -0.006991 0.036830 0.001831 -0.003448
# 5 -0.004537 -0.001126 -0.007194 0.001831 0.027838 -0.007620
# 6 0.001234 -0.006012 0.005466 -0.003448 -0.007620 0.030155
#
#
# Mechanical properties :
#
#
# Convention : Reuss Voigt Hill
#
# Bulk Modulus (GPa) = 28.29907 49.77163 39.03535
# Shear Modulus (GPa) = 31.06763 41.31507 36.19135
#
# Velocity S-wave (km/s) = 3.44833 3.97658 3.72184
# Velocity P-wave (km/s) = 5.16585 6.33515 5.78015
#
# Compressibility (1/GPa) = 0.03533685
#
# Stress axis : x y z
#
# Youngs Moduli (GPa) = 120.32035 44.07405 72.27391
#
# Poissons Ratio (x) = 0.00863 0.17173
# Poissons Ratio (y) = 0.02356 0.15740
# Poissons Ratio (z) = 0.28590 0.09599
#
# Static dielectric constant tensor:
#      x y z
#    x 1.596480 -0.083620 0.377740 
#    y -0.083620 2.085070 0.015770 
#    z 0.377740 0.015770 1.916830 
# 
# From -- ./inp_files/80550.got.cif
#   From: 2010.05.17/outbox.cif.g08.bks.cpg/sg2_41_cif.got.tgz:80550.got - 2010.06.03 11:33:40.
