data_PCOD9003704
_publ_section_title
;
Structure prediction by ZEFSAII (Michael W. Deem and Ramdas Pophale) SiO2 
 PCOD9003704
Probable space group: P -1
;
_chemical_formula_sum "Si O2"
_cell_formula_units_Z 12
_cell_length_a 8.162147
_cell_length_b 7.809296
_cell_length_c 17.691193
_cell_angle_alpha 137.453795
_cell_angle_beta 139.356604
_cell_angle_gamma 57.446492
_cell_volume 496.091257
_symmetry_space_group_name_H-M "P -1"
_symmetry_group_IT_number 2
_symmetry_cell_setting 'triclinic'
loop_
_space_group_symop_operation_xyz
x,y,z
-x,-y,-z
loop_
_atom_site_type_symbol
_atom_site_label
_atom_site_fract_x
_atom_site_fract_y
_atom_site_fract_z
Si Si1 0.507844 0.894897 0.551646
Si Si2 0.562304 0.102424 0.233508
Si Si3 0.030430 0.686149 0.642455
Si Si4 0.283652 0.755984 0.135515
Si Si5 0.697378 0.790645 0.969529
Si Si6 0.885322 0.273041 0.543677
O O1 0.766042 0.761518 0.604088
O O2 0.272225 0.707610 0.428873
O O3 0.500000 0.000000 0.500000
O O4 0.542241 0.120222 0.697013
O O5 0.407173 0.260596 0.169628
O O6 0.674474 0.241100 0.392656
O O7 0.812140 0.074740 0.259618
O O8 0.397560 0.865790 0.132048
O O9 0.096265 0.492398 0.669523
O O10 0.000000 0.500000 0.500000
O O11 0.297389 0.455568 0.055163
O O12 0.998025 0.849560 0.079729
O O13 0.500000 0.000000 0.000000
O O14 0.000000 0.000000 0.500000
#
# Coordination Sequence:
#
# PCOD9003704 Si02
#       6
#     2   2   2   2   2   2
#     4  11  22  39  64  97 134 176 215 272 338 395
#     4  10  22  40  69  92 135 175 218 278 337 389
#     4  10  21  37  61  94 130 174 217 263 327 402
#     4  10  25  45  66 103 134 173 230 278 331 406
#     4  11  24  45  73  95 133 177 229 281 337 396
#     4  10  22  38  63  96 135 177 219 270 330 401
#
# _framework density 24.189098999999999
#
# number of rings (size 3 to 8) (size 9 to 14) (size 15 to 20)
#    0.000    1.667    0.000    4.000    9.333    0.667 
#    0.000    1.667    0.000    0.000    0.000    0.000 
#    0.000    0.000    0.000    0.000    0.000    0.000 
#
# Total GULP energy -66804.662508 kJ/mol
# GULP energy per Si atom -5567.055209 kJ/mol
# Density = 2.413404 g / cm^3
# Si number density = 24.189099 Si / 1000 Ang^3
#
#
#
# Elastic Constant Matrix: (Units=GPa)
#
#
# Indices 1 2 3 4 5 6 
#
# 1 206.9239 71.7120 20.4277 21.2729 52.4933 30.4943
# 2 71.7120 129.6236 21.9034 8.5784 17.0091 3.2210
# 3 20.4277 21.9034 51.7727 -5.5393 4.9709 4.5843
# 4 21.2729 8.5784 -5.5393 36.5082 10.6586 2.5622
# 5 52.4933 17.0091 4.9709 10.6586 42.2345 4.2435
# 6 30.4943 3.2210 4.5843 2.5622 4.2435 58.9187
#
#
#
# Elastic Compliance Matrix: (Units=1/GPa)
#
#
# Indices 1 2 3 4 5 6 
#
# 1 0.009188 -0.003490 -0.001141 -0.001802 -0.009048 -0.003746
# 2 -0.003490 0.010131 -0.003243 -0.001173 0.000785 0.001499
# 3 -0.001141 -0.003243 0.021881 0.005125 -0.001036 -0.001083
# 4 -0.001802 -0.001173 0.005125 0.031191 -0.005728 -0.000346
# 5 -0.009048 0.000785 -0.001036 -0.005728 0.035935 0.002382
# 6 -0.003746 0.001499 -0.001083 -0.000346 0.002382 0.018757
#
#
# Mechanical properties :
#
#
# Convention : Reuss Voigt Hill
#
# Bulk Modulus (GPa) = 39.28995 68.48959 53.88977
# Shear Modulus (GPa) = 33.04389 45.81743 39.43066
#
# Velocity S-wave (km/s) = 3.70004 4.35689 4.04183
# Velocity P-wave (km/s) = 5.87638 7.32705 6.64144
#
# Compressibility (1/GPa) = 0.02545180
#
# Stress axis : x y z
#
# Youngs Moduli (GPa) = 108.84241 98.70757 45.70204
#
# Poissons Ratio (x) = 0.34454 0.05213
# Poissons Ratio (y) = 0.37991 0.14819
# Poissons Ratio (z) = 0.12416 0.32006
#
# Static dielectric constant tensor:
#      x y z
#    x 2.027350 0.032390 0.092640 
#    y 0.032390 1.990760 0.085170 
#    z 0.092640 0.085170 2.112830 
# 
# From -- ./inp_files/520523.got.cif
#   From: 2010.05.17/outbox.cif.g08.bks.cpg/sg2_261_cif.got.tgz:520523.got - 2010.06.03 11:33:40.
