data_PCOD9003174
_publ_section_title
;
Structure prediction by ZEFSAII (Michael W. Deem and Ramdas Pophale) SiO2 
 PCOD9003174
Probable space group: P -1
;
_chemical_formula_sum "Si O2"
_cell_formula_units_Z 14
_cell_length_a 8.526532
_cell_length_b 7.970277
_cell_length_c 10.400896
_cell_angle_alpha 92.468676
_cell_angle_beta 80.721256
_cell_angle_gamma 115.191165
_cell_volume 630.980297
_symmetry_space_group_name_H-M "P -1"
_symmetry_group_IT_number 2
_symmetry_cell_setting 'triclinic'
loop_
_space_group_symop_operation_xyz
x,y,z
-x,-y,-z
loop_
_atom_site_type_symbol
_atom_site_label
_atom_site_fract_x
_atom_site_fract_y
_atom_site_fract_z
Si Si1 0.405525 0.396325 0.323666
Si Si2 0.294711 0.694214 0.434938
Si Si3 0.391138 0.581126 0.101387
Si Si4 0.828723 0.857761 0.444413
Si Si5 0.061153 0.462313 0.674071
Si Si6 0.281884 0.665180 0.857867
Si Si7 0.601877 0.936324 0.265373
O O1 0.408002 0.571865 0.410461
O O2 0.300609 0.416156 0.211984
O O3 0.309278 0.226476 0.424148
O O4 0.580388 0.394594 0.240745
O O5 0.184939 0.643586 0.578932
O O6 0.432949 0.894670 0.378816
O O7 0.137773 0.618732 0.349480
O O8 0.708153 0.358230 0.992045
O O9 0.521729 0.760909 0.171442
O O10 0.500000 0.500000 0.000000
O O11 0.874270 0.694948 0.375731
O O12 0.752251 0.932949 0.339958
O O13 0.000000 0.000000 0.500000
O O14 0.097403 0.528576 0.816681
O O15 0.335528 0.876529 0.817280
#
# Coordination Sequence:
#
# PCOD9003174 Si02
#       7
#     2   2   2   2   2   2   2
#     4   9  20  38  59  86 115 158 197 236 296 348
#     4   9  20  37  59  84 124 155 198 240 296 358
#     4   9  19  40  64  84 115 160 204 238 285 358
#     4  11  24  38  61  88 125 154 199 250 300 350
#     4  10  21  37  58  87 122 160 195 240 300 350
#     4  11  22  36  66  88 122 156 200 241 293 353
#     4  11  23  37  61  93 120 153 198 248 298 350
#
# _framework density 22.187698999999999
#
# number of rings (size 3 to 8) (size 9 to 14) (size 15 to 20)
#    0.000    2.000    0.000    3.857    8.000    5.143 
#    0.000    2.857    3.143    2.571    0.000    0.000 
#    0.000    0.000    0.000    0.000    0.000    0.000 
#
# Total GULP energy -78085.233540 kJ/mol
# GULP energy per Si atom -5577.516681 kJ/mol
# Density = 2.213720 g / cm^3
# Si number density = 22.187699 Si / 1000 Ang^3
#
#
#
# Elastic Constant Matrix: (Units=GPa)
#
#
# Indices 1 2 3 4 5 6 
#
# 1 89.4048 24.7984 45.9902 -3.6249 20.6506 -1.8001
# 2 24.7984 89.1979 57.5894 10.0527 20.2487 -6.7780
# 3 45.9902 57.5894 150.0432 7.3277 52.8694 11.1071
# 4 -3.6249 10.0527 7.3277 39.0854 -1.2610 7.2797
# 5 20.6506 20.2487 52.8694 -1.2610 46.6203 5.4195
# 6 -1.8001 -6.7780 11.1071 7.2797 5.4195 31.8573
#
#
#
# Elastic Compliance Matrix: (Units=1/GPa)
#
#
# Indices 1 2 3 4 5 6 
#
# 1 0.013784 -0.001429 -0.003171 0.001898 -0.002011 0.001488
# 2 -0.001429 0.016654 -0.005969 -0.004571 -0.000736 0.006713
# 3 -0.003171 -0.005969 0.014527 -0.001084 -0.012016 -0.004222
# 4 0.001898 -0.004571 -0.001084 0.028712 0.004050 -0.007737
# 5 -0.002011 -0.000736 -0.012016 0.004050 0.036775 -0.003262
# 6 0.001488 0.006713 -0.004222 -0.007737 -0.003262 0.036697
#
#
# Mechanical properties :
#
#
# Convention : Reuss Voigt Hill
#
# Bulk Modulus (GPa) = 41.96796 65.04465 53.50631
# Shear Modulus (GPa) = 28.37214 36.86380 32.61797
#
# Velocity S-wave (km/s) = 3.57982 4.08051 3.83834
# Velocity P-wave (km/s) = 6.00357 7.18193 6.61902
#
# Compressibility (1/GPa) = 0.02382770
#
# Stress axis : x y z
#
# Youngs Moduli (GPa) = 72.54804 60.04469 68.83831
#
# Poissons Ratio (x) = 0.08583 0.21827
# Poissons Ratio (y) = 0.10370 0.41087
# Poissons Ratio (z) = 0.23003 0.35838
#
# Static dielectric constant tensor:
#      x y z
#    x 1.875000 -0.003200 0.020770 
#    y -0.003200 1.845910 0.002110 
#    z 0.020770 0.002110 1.885230 
# 
# From -- ./inp_files/351856.got.cif
#   From: 2010.05.17/outbox.cif.g08.bks.cpg/sg2_176_cif.got.tgz:351856.got - 2010.06.03 11:33:40.
