data_PCOD9003930
_publ_section_title
;
Structure prediction by ZEFSAII (Michael W. Deem and Ramdas Pophale) SiO2 
 PCOD9003930
Probable space group: P -1
;
_chemical_formula_sum "Si O2"
_cell_formula_units_Z 16
_cell_length_a 13.955392
_cell_length_b 13.955216
_cell_length_c 14.196505
_cell_angle_alpha 48.485225
_cell_angle_beta 48.484550
_cell_angle_gamma 21.810572
_cell_volume 757.896240
_symmetry_space_group_name_H-M "P -1"
_symmetry_group_IT_number 2
_symmetry_cell_setting 'triclinic'
loop_
_space_group_symop_operation_xyz
x,y,z
-x,-y,-z
loop_
_atom_site_type_symbol
_atom_site_label
_atom_site_fract_x
_atom_site_fract_y
_atom_site_fract_z
Si Si1 0.529796 0.529926 0.565833
Si Si2 0.825552 0.825609 0.839430
Si Si3 0.462956 0.463188 0.847995
Si Si4 0.886299 0.886165 0.562711
Si Si5 0.248345 0.248305 0.375766
Si Si6 0.674873 0.674775 0.032668
Si Si7 0.181682 0.181718 0.670129
Si Si8 0.024060 0.024314 0.861309
O O1 0.500000 0.500000 0.500000
O O2 0.476266 0.476254 0.718529
O O3 0.824304 0.324761 0.518287
O O4 0.324455 0.824512 0.518354
O O5 0.877008 0.876961 0.687432
O O6 0.081670 0.583493 0.893908
O O7 0.583334 0.081814 0.893876
O O8 0.750213 0.750161 0.898583
O O9 0.384167 0.384199 0.965151
O O10 0.745591 0.246837 0.847633
O O11 0.246382 0.745965 0.847608
O O12 0.813759 0.813827 0.612218
O O13 0.216149 0.216150 0.522491
O O14 0.042502 0.542845 0.310542
O O15 0.542879 0.042480 0.310541
O O16 0.103453 0.103572 0.757297
O O17 0.000000 0.000000 0.000000
#
# Coordination Sequence:
#
# PCOD9003930 Si02
#       8
#     2   2   2   2   2   2   2   2
#     4  12  25  40  65  96 132 168 203 254 313 378
#     4  10  21  39  61  88 127 161 203 262 300 366
#     4  12  24  44  67  91 127 168 210 256 310 379
#     4  12  23  38  61  95 124 157 209 253 311 369
#     4  10  21  37  63  85 113 155 193 254 306 363
#     4  10  22  40  62  88 121 170 210 245 312 362
#     4  10  21  40  59  85 117 150 199 250 315 358
#     4  12  27  44  66  92 126 167 211 262 310 373
#
# _framework density 21.111069000000001
#
# number of rings (size 3 to 8) (size 9 to 14) (size 15 to 20)
#    0.000    1.000    0.000    7.500    0.000    4.000 
#    0.000    0.000    0.000    0.000    0.000    0.000 
#    0.000    0.000    0.000    0.000    0.000    0.000 
#
# Total GULP energy -89580.015413 kJ/mol
# GULP energy per Si atom -5598.750963 kJ/mol
# Density = 2.106302 g / cm^3
# Si number density = 21.111069 Si / 1000 Ang^3
#
#
#
# Elastic Constant Matrix: (Units=GPa)
#
#
# Indices 1 2 3 4 5 6 
#
# 1 136.5450 71.4731 13.1305 -6.8183 -34.8054 -0.8571
# 2 71.4731 200.1953 29.1356 -4.6408 -23.8067 -11.5755
# 3 13.1305 29.1356 64.9221 -1.7196 -8.7602 -3.0544
# 4 -6.8183 -4.6408 -1.7196 51.4067 -0.1567 0.1109
# 5 -34.8054 -23.8067 -8.7602 -0.1567 50.4030 -2.0471
# 6 -0.8571 -11.5755 -3.0544 0.1109 -2.0471 35.7720
#
#
#
# Elastic Compliance Matrix: (Units=1/GPa)
#
#
# Indices 1 2 3 4 5 6 
#
# 1 0.010436 -0.003044 0.000044 0.001129 0.005763 -0.000405
# 2 -0.003044 0.006594 -0.002154 0.000118 0.000717 0.001918
# 3 0.000044 -0.002154 0.016673 0.000373 0.001946 0.000838
# 4 0.001129 0.000118 0.000373 0.019628 0.000965 0.000091
# 5 0.005763 0.000717 0.001946 0.000965 0.024578 0.001940
# 6 -0.000405 0.001918 0.000838 0.000091 0.001940 0.028748
#
#
# Mechanical properties :
#
#
# Convention : Reuss Voigt Hill
#
# Bulk Modulus (GPa) = 42.74411 69.90451 56.32431
# Shear Modulus (GPa) = 40.07618 46.71122 43.39370
#
# Velocity S-wave (km/s) = 4.36173 4.70898 4.53868
# Velocity P-wave (km/s) = 6.75703 7.92152 7.36234
#
# Compressibility (1/GPa) = 0.02339504
#
# Stress axis : x y z
#
# Youngs Moduli (GPa) = 95.82591 151.65040 59.97875
#
# Poissons Ratio (x) = 0.46162 -0.00264
# Poissons Ratio (y) = 0.29169 0.12917
# Poissons Ratio (z) = -0.00421 0.32660
#
# Static dielectric constant tensor:
#      x y z
#    x 1.734600 0.006320 0.007340 
#    y 0.006320 1.699910 0.001250 
#    z 0.007340 0.001250 1.750880 
# 
# From -- ./inp_files/534255.got.cif
#   From: 2010.05.17/outbox.cif.g08.bks.cpg/sg2_268_cif.got.tgz:534255.got - 2010.06.03 11:33:40.
