data_PCOD9003850
_publ_section_title
;
Structure prediction by ZEFSAII (Michael W. Deem and Ramdas Pophale) SiO2 
 PCOD9003850
Probable space group: P -1
;
_chemical_formula_sum "Si O2"
_cell_formula_units_Z 16
_cell_length_a 18.586232
_cell_length_b 22.144213
_cell_length_c 12.166603
_cell_angle_alpha 31.410023
_cell_angle_beta 137.787489
_cell_angle_gamma 161.825311
_cell_volume 734.136024
_symmetry_space_group_name_H-M "P -1"
_symmetry_group_IT_number 2
_symmetry_cell_setting 'triclinic'
loop_
_space_group_symop_operation_xyz
x,y,z
-x,-y,-z
loop_
_atom_site_type_symbol
_atom_site_label
_atom_site_fract_x
_atom_site_fract_y
_atom_site_fract_z
Si Si1 0.989623 0.253149 0.991160
Si Si2 0.015909 0.793183 0.186652
Si Si3 0.881561 0.599105 0.573560
Si Si4 0.361573 0.908285 0.657212
Si Si5 0.579612 0.253647 0.158359
Si Si6 0.818213 0.787835 0.293519
Si Si7 0.238458 0.213604 0.518303
Si Si8 0.434393 0.994062 0.050592
O O1 0.790961 0.952381 0.233164
O O2 0.085779 0.348017 0.826962
O O3 0.211697 0.449707 0.026134
O O4 0.847096 0.230397 0.901266
O O5 0.875989 0.601544 0.430783
O O6 0.312323 0.042534 0.142711
O O7 0.021199 0.938254 0.974643
O O8 0.927003 0.774268 0.393668
O O9 0.109473 0.736922 0.649856
O O10 0.627333 0.292665 0.809405
O O11 0.311715 0.729728 0.832600
O O12 0.503354 0.031188 0.740987
O O13 0.523651 0.127891 0.402843
O O14 0.530281 0.520819 0.334523
O O15 0.795079 0.757376 0.446991
O O16 0.000000 0.000000 0.500000
O O17 0.500000 0.000000 0.000000
#
# Coordination Sequence:
#
# PCOD9003850 Si02
#       8
#     2   2   2   2   2   2   2   2
#     4  11  22  39  64  91 123 163 211 258 307 377
#     4  10  22  41  67  92 124 168 211 255 315 373
#     4  11  23  42  62  91 130 167 203 264 318 368
#     4  10  23  41  62  91 126 170 211 256 320 361
#     4  10  21  41  67  92 122 165 217 263 299 375
#     4  10  21  40  63  92 128 159 209 256 308 383
#     4  10  21  37  62  94 121 163 204 253 315 368
#     4  12  25  39  59  95 128 164 210 260 318 368
#
# _framework density 21.794324
#
# number of rings (size 3 to 8) (size 9 to 14) (size 15 to 20)
#    0.000    1.500    2.500    2.250    1.750    2.500 
#    0.000    0.000    0.000    6.000    0.000    0.000 
#    0.000    0.000    0.000    0.000    0.000    0.000 
#
# Total GULP energy -89415.930473 kJ/mol
# GULP energy per Si atom -5588.495655 kJ/mol
# Density = 2.174472 g / cm^3
# Si number density = 21.794324 Si / 1000 Ang^3
#
#
#
# Elastic Constant Matrix: (Units=GPa)
#
#
# Indices 1 2 3 4 5 6 
#
# 1 103.3275 31.8097 8.5937 14.6204 26.8447 -2.2251
# 2 31.8097 77.4108 4.8151 9.9098 3.0131 -10.5315
# 3 8.5937 4.8151 50.1133 6.2774 7.3169 -0.0978
# 4 14.6204 9.9098 6.2774 32.8333 -2.1348 1.5268
# 5 26.8447 3.0131 7.3169 -2.1348 26.5204 -2.1480
# 6 -2.2251 -10.5315 -0.0978 1.5268 -2.1480 31.3782
#
#
#
# Elastic Compliance Matrix: (Units=1/GPa)
#
#
# Indices 1 2 3 4 5 6 
#
# 1 0.016778 -0.005592 0.001070 -0.007044 -0.017333 -0.001528
# 2 -0.005592 0.016119 -0.000944 -0.002163 0.004354 0.005414
# 3 0.001070 -0.000944 0.021529 -0.004764 -0.007335 -0.000444
# 4 -0.007044 -0.002163 -0.004764 0.036002 0.011409 -0.002211
# 5 -0.017333 0.004354 -0.007335 0.011409 0.057993 0.003624
# 6 -0.001528 0.005414 -0.000444 -0.002211 0.003624 0.033932
#
#
# Mechanical properties :
#
#
# Convention : Reuss Voigt Hill
#
# Bulk Modulus (GPa) = 22.99208 35.69874 29.34541
# Shear Modulus (GPa) = 24.06371 30.52191 27.29281
#
# Velocity S-wave (km/s) = 3.32645 3.74632 3.54261
# Velocity P-wave (km/s) = 5.03251 5.92694 5.49794
#
# Compressibility (1/GPa) = 0.04349323
#
# Stress axis : x y z
#
# Youngs Moduli (GPa) = 59.60354 62.03957 46.44931
#
# Poissons Ratio (x) = 0.34694 -0.04972
# Poissons Ratio (y) = 0.33332 0.04385
# Poissons Ratio (z) = -0.06380 0.05856
#
# Static dielectric constant tensor:
#      x y z
#    x 1.788460 -0.004510 0.007600 
#    y -0.004510 1.777330 -0.015380 
#    z 0.007600 -0.015380 1.830000 
# 
# From -- ./inp_files/279449.got.cif
#   From: 2010.05.17/outbox.cif.g08.bks.cpg/sg2_140_cif.got.tgz:279449.got - 2010.06.03 11:33:40.
