data_PCOD9003644
_publ_section_title
;
Structure prediction by ZEFSAII (Michael W. Deem and Ramdas Pophale) SiO2 
 PCOD9003644
Probable space group: P -1
;
_chemical_formula_sum "Si O2"
_cell_formula_units_Z 16
_cell_length_a 14.017879
_cell_length_b 11.690165
_cell_length_c 8.949955
_cell_angle_alpha 80.062331
_cell_angle_beta 122.005830
_cell_angle_gamma 142.113360
_cell_volume 673.390363
_symmetry_space_group_name_H-M "P -1"
_symmetry_group_IT_number 2
_symmetry_cell_setting 'triclinic'
loop_
_space_group_symop_operation_xyz
x,y,z
-x,-y,-z
loop_
_atom_site_type_symbol
_atom_site_label
_atom_site_fract_x
_atom_site_fract_y
_atom_site_fract_z
Si Si1 0.878801 0.955921 0.043416
Si Si2 0.553731 0.512532 0.210502
Si Si3 0.949715 0.808613 0.334255
Si Si4 0.757564 0.351394 0.865352
Si Si5 0.611905 0.826387 0.247781
Si Si6 0.062960 0.785550 0.134636
Si Si7 0.463680 0.838224 0.559384
Si Si8 0.431322 0.030366 0.066996
O O1 0.640562 0.731139 0.852500
O O2 0.955580 0.152706 0.044645
O O3 0.931795 0.929366 0.242287
O O4 0.000000 0.000000 0.000000
O O5 0.769694 0.634897 0.343691
O O6 0.569004 0.651776 0.266840
O O7 0.500000 0.500000 0.000000
O O8 0.936636 0.728292 0.184271
O O9 0.167032 0.964740 0.545332
O O10 0.567840 0.258817 0.801770
O O11 0.720713 0.354425 0.660510
O O12 0.724594 0.188798 0.923979
O O13 0.960395 0.574460 0.062099
O O14 0.623177 0.895848 0.077074
O O15 0.305508 0.008941 0.318282
O O16 0.422590 0.806103 0.710093
O O17 0.500000 0.000000 0.500000
O O18 0.500000 0.000000 0.000000
#
# Coordination Sequence:
#
# PCOD9003644 Si02
#       8
#     2   2   2   2   2   2   2   2
#     4   9  20  39  59  91 132 177 221 268 321 389
#     4  10  21  37  61  90 133 179 220 271 330 382
#     4  10  21  39  63  97 134 176 227 274 324 404
#     4  10  21  43  70  98 129 178 218 272 341 393
#     4  11  20  40  68  94 136 178 216 278 336 386
#     4  11  22  43  69  96 138 175 219 278 333 390
#     4  10  22  42  69  95 130 170 226 274 328 398
#     4   9  22  40  68  97 129 168 219 273 332 400
#
# _framework density 23.760363999999999
#
# number of rings (size 3 to 8) (size 9 to 14) (size 15 to 20)
#    0.000    2.000    1.250    2.625    3.500    2.000 
#    2.250    3.750    2.750    0.000    0.000    0.000 
#    0.000    0.000    0.000    0.000    0.000    0.000 
#
# Total GULP energy -89162.731565 kJ/mol
# GULP energy per Si atom -5572.670723 kJ/mol
# Density = 2.370628 g / cm^3
# Si number density = 23.760364 Si / 1000 Ang^3
#
#
#
# Elastic Constant Matrix: (Units=GPa)
#
#
# Indices 1 2 3 4 5 6 
#
# 1 91.6649 27.4540 15.9620 4.0480 4.8621 20.7633
# 2 27.4540 101.3856 33.4199 -1.5291 1.5866 -7.1954
# 3 15.9620 33.4199 110.9656 -7.2965 -6.4644 6.7147
# 4 4.0480 -1.5291 -7.2965 32.5776 3.5336 4.8603
# 5 4.8621 1.5866 -6.4644 3.5336 31.5882 8.4563
# 6 20.7633 -7.1954 6.7147 4.8603 8.4563 42.5872
#
#
#
# Elastic Compliance Matrix: (Units=1/GPa)
#
#
# Indices 1 2 3 4 5 6 
#
# 1 0.013929 -0.004192 -0.000353 -0.000917 0.000065 -0.007352
# 2 -0.004192 0.012597 -0.003644 -0.000251 -0.002095 0.005191
# 3 -0.000353 -0.003644 0.010669 0.002388 0.002953 -0.002985
# 4 -0.000917 -0.000251 0.002388 0.032038 -0.002081 -0.003215
# 5 0.000065 -0.002095 0.002953 -0.002081 0.034593 -0.007483
# 6 -0.007352 0.005191 -0.002985 -0.003215 -0.007483 0.030266
#
#
# Mechanical properties :
#
#
# Convention : Reuss Voigt Hill
#
# Bulk Modulus (GPa) = 48.03415 50.85419 49.44417
# Shear Modulus (GPa) = 31.76462 36.49595 34.13028
#
# Velocity S-wave (km/s) = 3.66030 3.92344 3.79415
# Velocity P-wave (km/s) = 6.17444 6.47873 6.32841
#
# Compressibility (1/GPa) = 0.02081852
#
# Stress axis : x y z
#
# Youngs Moduli (GPa) = 71.79493 79.38445 93.72537
#
# Poissons Ratio (x) = 0.33278 0.03305
# Poissons Ratio (y) = 0.30097 0.34149
# Poissons Ratio (z) = 0.02532 0.28924
#
# Static dielectric constant tensor:
#      x y z
#    x 2.389330 -0.131170 -0.030780 
#    y -0.131170 1.975520 0.018840 
#    z -0.030780 0.018840 1.964170 
# 
# From -- ./inp_files/305176.got.cif
#   From: 2010.05.17/outbox.cif.g08.bks.cpg/sg2_153_cif.got.tgz:305176.got - 2010.06.03 11:33:40.
