data_PCOD9003127
_publ_section_title
;
Structure prediction by ZEFSAII (Michael W. Deem and Ramdas Pophale) SiO2 
 PCOD9003127
Probable space group: P -1
;
_chemical_formula_sum "Si O2"
_cell_formula_units_Z 10
_cell_length_a 5.155490
_cell_length_b 17.845158
_cell_length_c 5.339126
_cell_angle_alpha 81.548324
_cell_angle_beta 59.700740
_cell_angle_gamma 83.360189
_cell_volume 419.004491
_symmetry_space_group_name_H-M "P -1"
_symmetry_group_IT_number 2
_symmetry_cell_setting 'triclinic'
loop_
_space_group_symop_operation_xyz
x,y,z
-x,-y,-z
loop_
_atom_site_type_symbol
_atom_site_label
_atom_site_fract_x
_atom_site_fract_y
_atom_site_fract_z
Si Si1 0.602665 0.586003 0.939170
Si Si2 0.833001 0.030162 0.816852
Si Si3 0.434977 0.268339 0.406146
Si Si4 0.230002 0.788180 0.229707
Si Si5 0.214039 0.552971 0.534067
O O1 0.564459 0.641162 0.694438
O O2 0.500000 0.500000 0.000000
O O3 0.367930 0.613700 0.253517
O O4 0.957854 0.584576 0.836255
O O5 0.817233 0.121037 0.779564
O O6 0.000000 0.000000 0.500000
O O7 0.500000 0.000000 0.000000
O O8 0.000000 0.000000 0.000000
O O9 0.626836 0.239563 0.562920
O O10 0.094845 0.246429 0.625998
O O11 0.562426 0.232012 0.102847
O O12 0.500000 0.500000 0.500000
O O13 0.000000 0.500000 0.500000
#
# Coordination Sequence:
#
# PCOD9003127 Si02
#       5
#     2   2   2   2   2
#     4  10  23  41  64  93 127 176 234 287 340 404
#     4  12  24  44  74 107 141 183 229 281 337 413
#     4  12  26  45  69  99 142 187 229 290 351 410
#     4  12  26  47  70 105 143 183 229 281 351 419
#     4  10  21  37  58  84 117 155 210 281 335 386
#
# _framework density 23.866094
#
# number of rings (size 3 to 8) (size 9 to 14) (size 15 to 20)
#    0.000    0.800    0.000    7.200    0.000    9.600 
#    0.000    0.000    0.000    0.000    0.000    0.000 
#    0.000    0.000    0.000    0.000    0.000    0.000 
#
# Total GULP energy -55969.714691 kJ/mol
# GULP energy per Si atom -5596.971469 kJ/mol
# Density = 2.381177 g / cm^3
# Si number density = 23.866094 Si / 1000 Ang^3
#
#
#
# Elastic Constant Matrix: (Units=GPa)
#
#
# Indices 1 2 3 4 5 6 
#
# 1 172.8483 32.9224 75.1751 -17.3244 -5.2642 -34.6336
# 2 32.9224 157.3688 55.6828 -21.4372 7.5017 -7.2619
# 3 75.1751 55.6828 161.9659 1.1291 -6.5832 -18.9799
# 4 -17.3244 -21.4372 1.1291 69.5042 -14.2465 -1.3324
# 5 -5.2642 7.5017 -6.5832 -14.2465 75.0784 3.1749
# 6 -34.6336 -7.2619 -18.9799 -1.3324 3.1749 33.2456
#
#
#
# Elastic Compliance Matrix: (Units=1/GPa)
#
#
# Indices 1 2 3 4 5 6 
#
# 1 0.009000 -0.000057 -0.003270 0.002528 0.000511 0.007549
# 2 -0.000057 0.007638 -0.002607 0.002271 -0.000576 0.000266
# 3 -0.003270 -0.002607 0.008723 -0.001653 0.000445 0.000895
# 4 0.002528 0.002271 -0.001653 0.016369 0.002803 0.002575
# 5 0.000511 -0.000576 0.000445 0.002803 0.014008 -0.000566
# 6 0.007549 0.000266 0.000895 0.002575 -0.000566 0.038670
#
#
# Mechanical properties :
#
#
# Convention : Reuss Voigt Hill
#
# Bulk Modulus (GPa) = 74.11984 91.08261 82.60122
# Shear Modulus (GPa) = 45.13720 57.45915 51.29817
#
# Velocity S-wave (km/s) = 4.35359 4.91202 4.64121
# Velocity P-wave (km/s) = 7.50970 8.39151 7.96282
#
# Compressibility (1/GPa) = 0.01349167
#
# Stress axis : x y z
#
# Youngs Moduli (GPa) = 111.11137 130.92105 114.64394
#
# Poissons Ratio (x) = 0.00753 0.37486
# Poissons Ratio (y) = 0.00639 0.29892
# Poissons Ratio (z) = 0.36330 0.34136
#
# Static dielectric constant tensor:
#      x y z
#    x 1.982920 0.043290 0.160780 
#    y 0.043290 2.027210 0.175050 
#    z 0.160780 0.175050 2.196060 
# 
# From -- ./inp_files/10141.got.cif
#   From: 2010.05.17/outbox.cif.g08.bks.cpg/sg2_6_cif.got.tgz:10141.got - 2010.06.03 11:33:40.
