data_PCOD9003579
_publ_section_title
;
Structure prediction by ZEFSAII (Michael W. Deem and Ramdas Pophale) SiO2 
 PCOD9003579
Probable space group: P -1
;
_chemical_formula_sum "Si O2"
_cell_formula_units_Z 12
_cell_length_a 9.723654
_cell_length_b 14.042133
_cell_length_c 5.020187
_cell_angle_alpha 100.673719
_cell_angle_beta 64.624371
_cell_angle_gamma 81.175101
_cell_volume 587.319513
_symmetry_space_group_name_H-M "P -1"
_symmetry_group_IT_number 2
_symmetry_cell_setting 'triclinic'
loop_
_space_group_symop_operation_xyz
x,y,z
-x,-y,-z
loop_
_atom_site_type_symbol
_atom_site_label
_atom_site_fract_x
_atom_site_fract_y
_atom_site_fract_z
Si Si1 0.782707 0.306866 0.579406
Si Si2 0.560266 0.790426 0.637191
Si Si3 0.598276 0.390707 0.276039
Si Si4 0.877959 0.937672 0.153769
Si Si5 0.377029 0.875987 0.332960
Si Si6 0.892621 0.805027 0.560332
O O1 0.741499 0.348643 0.340890
O O2 0.734174 0.201028 0.588149
O O3 0.963205 0.284170 0.504273
O O4 0.669528 0.381684 0.917410
O O5 0.509950 0.686968 0.651219
O O6 0.518873 0.833172 0.398941
O O7 0.739120 0.776230 0.565795
O O8 0.446287 0.867130 0.975345
O O9 0.500000 0.500000 0.500000
O O10 0.723158 0.014826 0.441452
O O11 0.847062 0.879608 0.887711
O O12 0.051207 0.138512 0.705695
O O13 0.000000 0.000000 0.000000
#
# Coordination Sequence:
#
# PCOD9003579 Si02
#       6
#     2   2   2   2   2   2
#     4  10  21  37  61  85 115 153 192 235 297 344
#     4  10  23  39  58  86 121 151 192 246 300 333
#     4  10  21  41  65  87 111 150 195 236 290 370
#     4  12  24  36  60  86 119 160 211 233 272 343
#     4  10  21  38  57  81 117 162 200 233 281 340
#     4  12  24  38  58  88 122 155 194 249 288 329
#
# _framework density 20.431809000000001
#
# number of rings (size 3 to 8) (size 9 to 14) (size 15 to 20)
#    0.000    1.333    1.667    4.000    4.667    4.000 
#    0.000    1.667    0.000    0.000    0.000    0.000 
#    0.000    0.000    0.000    0.000    0.000    0.000 
#
# Total GULP energy -67154.731819 kJ/mol
# GULP energy per Si atom -5596.227652 kJ/mol
# Density = 2.038530 g / cm^3
# Si number density = 20.431809 Si / 1000 Ang^3
#
#
#
# Elastic Constant Matrix: (Units=GPa)
#
#
# Indices 1 2 3 4 5 6 
#
# 1 119.2253 20.8638 5.9499 13.1646 2.4154 -3.9038
# 2 20.8638 35.1286 24.8127 6.4450 -1.5863 -1.4155
# 3 5.9499 24.8127 80.8868 12.5491 15.8635 7.6300
# 4 13.1646 6.4450 12.5491 36.0048 -8.2463 2.1662
# 5 2.4154 -1.5863 15.8635 -8.2463 32.5644 -4.4529
# 6 -3.9038 -1.4155 7.6300 2.1662 -4.4529 14.4882
#
#
#
# Elastic Compliance Matrix: (Units=1/GPa)
#
#
# Indices 1 2 3 4 5 6 
#
# 1 0.010075 -0.007414 0.002882 -0.004179 -0.003570 0.000000
# 2 -0.007414 0.047010 -0.018968 0.003387 0.015229 0.016759
# 3 0.002882 -0.018968 0.024652 -0.009275 -0.017984 -0.018200
# 4 -0.004179 0.003387 -0.009275 0.035008 0.014303 0.003251
# 5 -0.003570 0.015229 -0.017984 0.014303 0.047154 0.022351
# 6 0.000000 0.016759 -0.018200 0.003251 0.022351 0.086627
#
#
# Mechanical properties :
#
#
# Convention : Reuss Voigt Hill
#
# Bulk Modulus (GPa) = 28.78838 37.61038 33.19938
# Shear Modulus (GPa) = 16.17566 28.85245 22.51405
#
# Velocity S-wave (km/s) = 2.81675 3.76191 3.32311
# Velocity P-wave (km/s) = 4.96984 6.10877 5.56850
#
# Compressibility (1/GPa) = 0.03473624
#
# Stress axis : x y z
#
# Youngs Moduli (GPa) = 99.25807 21.27219 40.56384
#
# Poissons Ratio (x) = 0.15770 -0.11689
# Poissons Ratio (y) = 0.73586 0.76943
# Poissons Ratio (z) = -0.28602 0.40350
#
# Static dielectric constant tensor:
#      x y z
#    x 1.725700 0.010330 -0.004810 
#    y 0.010330 1.700740 -0.006550 
#    z -0.004810 -0.006550 1.709770 
# 
# From -- ./inp_files/32877.got.cif
#   From: 2010.05.17/outbox.cif.g08.bks.cpg/sg2_17_cif.got.tgz:32877.got - 2010.06.03 11:33:40.
