data_PCOD9003590
_publ_section_title
;
Structure prediction by ZEFSAII (Michael W. Deem and Ramdas Pophale) SiO2 
 PCOD9003590
Probable space group: P -1
;
_chemical_formula_sum "Si O2"
_cell_formula_units_Z 15
_cell_length_a 9.266952
_cell_length_b 8.552823
_cell_length_c 12.073778
_cell_angle_alpha 126.042867
_cell_angle_beta 63.369095
_cell_angle_gamma 119.805832
_cell_volume 654.652836
_symmetry_space_group_name_H-M "P -1"
_symmetry_group_IT_number 2
_symmetry_cell_setting 'triclinic'
loop_
_space_group_symop_operation_xyz
x,y,z
-x,-y,-z
loop_
_atom_site_type_symbol
_atom_site_label
_atom_site_fract_x
_atom_site_fract_y
_atom_site_fract_z
Si Si1 0.302577 0.329119 0.095329
Si Si2 0.394128 0.195578 0.367960
Si Si3 0.390272 0.616189 0.820522
Si Si4 0.911142 0.260942 0.948255
Si Si5 0.328128 0.163837 0.634149
Si Si6 0.532343 0.206722 0.794948
Si Si7 0.965403 0.958804 0.625633
Si Si8 0.000000 0.000000 0.000000
O O1 0.437330 0.335534 0.147822
O O2 0.332853 0.565227 0.153656
O O3 0.368220 0.220548 0.925316
O O4 0.115433 0.181454 0.121559
O O5 0.555287 0.337842 0.306192
O O6 0.395464 0.211330 0.506155
O O7 0.400808 0.966418 0.252136
O O8 0.218348 0.217265 0.388672
O O9 0.295289 0.374931 0.768473
O O10 0.281174 0.753773 0.957590
O O11 0.926991 0.136840 0.782503
O O12 0.989652 0.175370 0.988544
O O13 0.000000 0.500000 0.000000
O O14 0.466029 0.146819 0.668074
O O15 0.152671 0.972908 0.613440
O O16 0.000000 0.000000 0.500000
#
# Coordination Sequence:
#
# PCOD9003590 Si02
#       8
#     2   2   2   2   2   2   2   1
#     4  10  23  39  60  92 130 163 213 276 322 388
#     4  11  22  37  63  92 129 168 218 266 326 389
#     4  11  23  41  64  95 128 169 224 266 328 389
#     4  12  25  43  72  97 133 175 221 275 333 394
#     4  10  21  40  60  90 128 173 213 264 324 393
#     4  10  21  37  61  86 125 168 212 262 324 384
#     4  10  22  39  64  94 129 173 220 267 334 395
#     4  12  26  40  64 104 132 164 224 274 332 388
#
# _framework density 22.912907000000001
#
# number of rings (size 3 to 8) (size 9 to 14) (size 15 to 20)
#    0.000    1.333    1.333    4.000    5.600    1.600 
#    0.000    0.000    0.000    0.800    0.000    0.000 
#    0.000    0.000    0.000    0.000    0.000    0.000 
#
# Total GULP energy -83509.985284 kJ/mol
# GULP energy per Si atom -5567.332352 kJ/mol
# Density = 2.286076 g / cm^3
# Si number density = 22.912907 Si / 1000 Ang^3
#
#
#
# Elastic Constant Matrix: (Units=GPa)
#
#
# Indices 1 2 3 4 5 6 
#
# 1 71.6411 30.6918 3.7438 5.5770 14.1899 -5.6947
# 2 30.6918 67.6536 -4.0762 -2.3571 -2.3233 -24.4504
# 3 3.7438 -4.0762 85.7816 -8.5713 0.1483 -8.8438
# 4 5.5770 -2.3571 -8.5713 25.7244 4.8100 -0.0100
# 5 14.1899 -2.3233 0.1483 4.8100 28.8083 0.4953
# 6 -5.6947 -24.4504 -8.8438 -0.0100 0.4953 23.6517
#
#
#
# Elastic Compliance Matrix: (Units=1/GPa)
#
#
# Indices 1 2 3 4 5 6 
#
# 1 0.022185 -0.014777 -0.003299 -0.005202 -0.011046 -0.010939
# 2 -0.014777 0.035059 0.006611 0.007083 0.008288 0.034987
# 3 -0.003299 0.006611 0.013845 0.005764 0.000932 0.011200
# 4 -0.005202 0.007083 0.005764 0.043375 -0.004282 0.008333
# 5 -0.011046 0.008288 0.000932 -0.004282 0.041439 0.005387
# 6 -0.010939 0.034987 0.011200 0.008333 0.005387 0.079893
#
#
# Mechanical properties :
#
#
# Convention : Reuss Voigt Hill
#
# Bulk Modulus (GPa) = 20.76449 31.75501 26.25975
# Shear Modulus (GPa) = 18.19657 28.61801 23.40729
#
# Velocity S-wave (km/s) = 2.82115 3.53794 3.19968
# Velocity P-wave (km/s) = 4.43778 5.52978 5.01360
#
# Compressibility (1/GPa) = 0.04815914
#
# Stress axis : x y z
#
# Youngs Moduli (GPa) = 45.07614 28.52335 72.22998
#
# Poissons Ratio (x) = 0.42149 0.23828
# Poissons Ratio (y) = 0.66609 -0.47753
# Poissons Ratio (z) = 0.14870 -0.18858
#
# Static dielectric constant tensor:
#      x y z
#    x 1.896450 0.054160 -0.000440 
#    y 0.054160 1.887770 -0.019230 
#    z -0.000440 -0.019230 1.880660 
# 
# From -- ./inp_files/176169.got.cif
#   From: 2010.05.17/outbox.cif.g08.bks.cpg/sg2_89_cif.got.tgz:176169.got - 2010.06.03 11:33:40.
