data_PCOD9003817
_publ_section_title
;
Structure prediction by ZEFSAII (Michael W. Deem and Ramdas Pophale) SiO2 
 PCOD9003817
Probable space group: P -1
;
_chemical_formula_sum "Si O2"
_cell_formula_units_Z 14
_cell_length_a 10.289897
_cell_length_b 5.174929
_cell_length_c 12.921142
_cell_angle_alpha 85.271524
_cell_angle_beta 103.937405
_cell_angle_gamma 97.620849
_cell_volume 660.977105
_symmetry_space_group_name_H-M "P -1"
_symmetry_group_IT_number 2
_symmetry_cell_setting 'triclinic'
loop_
_space_group_symop_operation_xyz
x,y,z
-x,-y,-z
loop_
_atom_site_type_symbol
_atom_site_label
_atom_site_fract_x
_atom_site_fract_y
_atom_site_fract_z
Si Si1 0.021032 0.270701 0.932892
Si Si2 0.680340 0.786815 0.014017
Si Si3 0.114774 0.707856 0.308764
Si Si4 0.413101 0.901170 0.335151
Si Si5 0.620379 0.728949 0.523519
Si Si6 0.418482 0.710249 0.109268
Si Si7 0.075918 0.184048 0.422199
O O1 0.173825 0.276034 0.919919
O O2 0.920538 0.297438 0.818091
O O3 0.000000 0.500000 0.000000
O O4 0.000000 0.000000 0.000000
O O5 0.563833 0.736071 0.079529
O O6 0.642832 0.586179 0.917602
O O7 0.672394 0.084987 0.968077
O O8 0.037556 0.460346 0.363262
O O9 0.277534 0.717840 0.353421
O O10 0.077072 0.981545 0.334781
O O11 0.371519 0.177961 0.357857
O O12 0.554354 0.916118 0.422960
O O13 0.432535 0.810460 0.225879
O O14 0.500000 0.500000 0.500000
O O15 0.771335 0.732110 0.513997
O O16 0.000000 0.000000 0.500000
#
# Coordination Sequence:
#
# PCOD9003817 Si02
#       7
#     2   2   2   2   2   2   2
#     4  12  24  40  66  95 132 171 213 267 322 389
#     4  10  22  41  59  93 128 163 211 261 315 385
#     4  11  23  40  64  92 126 168 216 261 319 401
#     4  10  21  37  62  92 119 166 212 265 325 378
#     4  10  21  39  62  90 125 159 218 273 313 394
#     4  10  22  39  65  89 126 166 208 265 321 379
#     4  11  24  43  64  90 130 170 209 268 330 383
#
# _framework density 21.180764
#
# number of rings (size 3 to 8) (size 9 to 14) (size 15 to 20)
#    0.000    1.429    1.429    3.857    2.000    2.286 
#    0.000    2.857    0.000    0.000    0.000    0.000 
#    0.000    0.000    0.000    0.000    0.000    0.000 
#
# Total GULP energy -77963.511958 kJ/mol
# GULP energy per Si atom -5568.822283 kJ/mol
# Density = 2.113256 g / cm^3
# Si number density = 21.180764 Si / 1000 Ang^3
#
#
#
# Elastic Constant Matrix: (Units=GPa)
#
#
# Indices 1 2 3 4 5 6 
#
# 1 80.8314 22.5803 11.9442 6.3458 6.0380 5.9882
# 2 22.5803 128.6195 17.5386 9.7337 -3.3208 2.7016
# 3 11.9442 17.5386 80.2278 21.1598 -5.3811 15.8943
# 4 6.3458 9.7337 21.1598 31.3952 -8.3681 -2.1035
# 5 6.0380 -3.3208 -5.3811 -8.3681 27.5372 0.9238
# 6 5.9882 2.7016 15.8943 -2.1035 0.9238 26.5323
#
#
#
# Elastic Compliance Matrix: (Units=1/GPa)
#
#
# Indices 1 2 3 4 5 6 
#
# 1 0.013812 -0.002174 -0.000524 -0.003073 -0.004237 -0.002678
# 2 -0.002174 0.008424 -0.001217 -0.001092 0.000915 0.000243
# 3 -0.000524 -0.001217 0.018540 -0.012780 0.000106 -0.011881
# 4 -0.003073 -0.001092 -0.012780 0.045246 0.011403 0.011651
# 5 -0.004237 0.000915 0.000106 0.011403 0.040830 0.000282
# 6 -0.002678 0.000243 -0.011881 0.011651 0.000282 0.046301
#
#
# Mechanical properties :
#
#
# Convention : Reuss Voigt Hill
#
# Bulk Modulus (GPa) = 30.35199 43.75611 37.05405
# Shear Modulus (GPa) = 26.04637 32.93398 29.49018
#
# Velocity S-wave (km/s) = 3.51054 3.94750 3.73541
# Velocity P-wave (km/s) = 5.54914 6.44052 6.01137
#
# Compressibility (1/GPa) = 0.03294677
#
# Stress axis : x y z
#
# Youngs Moduli (GPa) = 72.39879 118.71431 53.93655
#
# Poissons Ratio (x) = 0.25808 0.02827
# Poissons Ratio (y) = 0.15739 0.06562
# Poissons Ratio (z) = 0.03795 0.14443
#
# Static dielectric constant tensor:
#      x y z
#    x 1.853950 -0.070130 0.035980 
#    y -0.070130 1.884440 -0.081370 
#    z 0.035980 -0.081370 1.822620 
# 
# From -- ./inp_files/408506.got.cif
#   From: 2010.05.17/outbox.cif.g08.bks.cpg/sg2_205_cif.got.tgz:408506.got - 2010.06.03 11:33:40.
