data_PCOD9003362
_publ_section_title
;
Structure prediction by ZEFSAII (Michael W. Deem and Ramdas Pophale) SiO2 
 PCOD9003362
Probable space group: P -1
;
_chemical_formula_sum "Si O2"
_cell_formula_units_Z 14
_cell_length_a 5.441874
_cell_length_b 8.712667
_cell_length_c 14.228176
_cell_angle_alpha 80.207482
_cell_angle_beta 99.653717
_cell_angle_gamma 60.470558
_cell_volume 552.975748
_symmetry_space_group_name_H-M "P -1"
_symmetry_group_IT_number 2
_symmetry_cell_setting 'triclinic'
loop_
_space_group_symop_operation_xyz
x,y,z
-x,-y,-z
loop_
_atom_site_type_symbol
_atom_site_label
_atom_site_fract_x
_atom_site_fract_y
_atom_site_fract_z
Si Si1 0.534842 0.053011 0.749632
Si Si2 0.467506 0.680687 0.934202
Si Si3 0.061010 0.698127 0.747919
Si Si4 0.918195 0.457659 0.847081
Si Si5 0.658213 0.661657 0.454882
Si Si6 0.530881 0.399606 0.369853
Si Si7 0.077358 0.070857 0.871391
O O1 0.387183 0.186539 0.637403
O O2 0.282602 0.071097 0.799790
O O3 0.774499 0.087137 0.814646
O O4 0.728104 0.849609 0.737284
O O5 0.778142 0.600119 0.909926
O O6 0.246674 0.740785 0.825970
O O7 0.303594 0.874384 0.958504
O O8 0.500000 0.500000 0.000000
O O9 0.149843 0.493158 0.806618
O O10 0.148951 0.706848 0.646959
O O11 0.685912 0.518774 0.740933
O O12 0.007870 0.254516 0.903130
O O13 0.489837 0.573783 0.404458
O O14 0.534267 0.712720 0.547536
O O15 0.000000 0.500000 0.500000
#
# Coordination Sequence:
#
# PCOD9003362 Si02
#       7
#     2   2   2   2   2   2   2
#     4  11  23  42  65  97 133 178 223 270 328 392
#     4  10  24  44  66  99 133 166 218 278 330 398
#     4  10  22  41  66  90 131 174 219 270 334 393
#     4  11  21  42  67  93 131 176 219 266 333 397
#     4  11  22  37  60  93 130 170 227 276 317 382
#     4  10  21  37  59  91 126 171 223 267 326 379
#     4  11  23  43  69  97 133 179 220 265 337 396
#
# _framework density 25.317565999999999
#
# number of rings (size 3 to 8) (size 9 to 14) (size 15 to 20)
#    0.000    1.429    2.857    2.571    4.000    1.714 
#    0.000    3.571    0.000    0.000    0.000    0.000 
#    0.000    0.000    0.000    0.000    0.000    0.000 
#
# Total GULP energy -78192.753234 kJ/mol
# GULP energy per Si atom -5585.196660 kJ/mol
# Density = 2.525994 g / cm^3
# Si number density = 25.317566 Si / 1000 Ang^3
#
#
#
# Elastic Constant Matrix: (Units=GPa)
#
#
# Indices 1 2 3 4 5 6 
#
# 1 109.1788 19.0290 37.6169 -5.0172 -16.9699 0.1601
# 2 19.0290 107.6088 20.2528 -28.7485 2.3906 -2.1927
# 3 37.6169 20.2528 84.0230 -33.5257 -9.9666 -11.2268
# 4 -5.0172 -28.7485 -33.5257 40.3183 8.9298 -6.7961
# 5 -16.9699 2.3906 -9.9666 8.9298 52.9499 5.4235
# 6 0.1601 -2.1927 -11.2268 -6.7961 5.4235 31.0847
#
#
#
# Elastic Compliance Matrix: (Units=1/GPa)
#
#
# Indices 1 2 3 4 5 6 
#
# 1 0.013836 -0.004100 -0.010641 -0.012618 0.005557 -0.007932
# 2 -0.004100 0.013421 0.005225 0.015529 -0.004272 0.006995
# 3 -0.010641 0.005225 0.029999 0.031746 -0.005313 0.019126
# 4 -0.012618 0.015529 0.031746 0.068735 -0.013434 0.029998
# 5 0.005557 -0.004272 -0.005313 -0.013434 0.023069 -0.009211
# 6 -0.007932 0.006995 0.019126 0.029998 -0.009211 0.047778
#
#
# Mechanical properties :
#
#
# Convention : Reuss Voigt Hill
#
# Bulk Modulus (GPa) = 26.16285 50.51200 38.33743
# Shear Modulus (GPa) = 21.87123 39.79804 30.83463
#
# Velocity S-wave (km/s) = 2.94236 3.96909 3.49365
# Velocity P-wave (km/s) = 4.67971 6.40309 5.60799
#
# Compressibility (1/GPa) = 0.03822213
#
# Stress axis : x y z
#
# Youngs Moduli (GPa) = 72.27610 74.51123 33.33484
#
# Poissons Ratio (x) = 0.30549 0.35473
# Poissons Ratio (y) = 0.29633 -0.17417
# Poissons Ratio (z) = 0.76912 -0.38931
#
# Static dielectric constant tensor:
#      x y z
#    x 2.103800 -0.004260 -0.010740 
#    y -0.004260 2.105300 -0.016110 
#    z -0.010740 -0.016110 2.010980 
# 
# From -- ./inp_files/30408.got.cif
#   From: 2010.05.17/outbox.cif.g08.bks.cpg/sg2_16_cif.got.tgz:30408.got - 2010.06.03 11:33:40.
