data_PCOD9003247
_publ_section_title
;
Structure prediction by ZEFSAII (Michael W. Deem and Ramdas Pophale) SiO2 
 PCOD9003247
Probable space group: P -1
;
_chemical_formula_sum "Si O2"
_cell_formula_units_Z 12
_cell_length_a 7.817034
_cell_length_b 9.470261
_cell_length_c 9.264044
_cell_angle_alpha 89.745218
_cell_angle_beta 48.308313
_cell_angle_gamma 79.682511
_cell_volume 497.662061
_symmetry_space_group_name_H-M "P -1"
_symmetry_group_IT_number 2
_symmetry_cell_setting 'triclinic'
loop_
_space_group_symop_operation_xyz
x,y,z
-x,-y,-z
loop_
_atom_site_type_symbol
_atom_site_label
_atom_site_fract_x
_atom_site_fract_y
_atom_site_fract_z
Si Si1 0.444368 0.817179 0.696902
Si Si2 0.630212 0.584081 0.122132
Si Si3 0.795083 0.499238 0.499274
Si Si4 0.254525 0.024027 0.333301
Si Si5 0.526360 0.791394 0.961771
Si Si6 0.927136 0.328385 0.132852
O O1 0.634882 0.663448 0.567413
O O2 0.367897 0.826832 0.909333
O O3 0.203308 0.800449 0.759093
O O4 0.598767 0.938489 0.610839
O O5 0.384731 0.594226 0.340239
O O6 0.887830 0.433422 0.293932
O O7 0.577732 0.627708 0.985109
O O8 0.799716 0.694483 0.062506
O O9 0.214939 0.571576 0.916065
O O10 0.000000 0.500000 0.500000
O O11 0.245206 0.160735 0.228907
O O12 0.406581 0.890484 0.158796
O O13 0.000000 0.000000 0.500000
#
# Coordination Sequence:
#
# PCOD9003247 Si02
#       6
#     2   2   2   2   2   2
#     4   9  19  38  57  86 119 155 190 243 287 339
#     4  10  21  37  59  84 122 157 186 239 294 342
#     4  11  23  37  58  90 119 152 199 234 293 362
#     4   9  20  39  59  87 114 156 200 248 282 333
#     4   9  20  37  59  88 111 152 210 230 284 349
#     4  10  22  39  54  90 128 149 191 236 296 356
#
# _framework density 24.112749000000001
#
# number of rings (size 3 to 8) (size 9 to 14) (size 15 to 20)
#    1.000    1.333    0.000    3.000    2.333    7.333 
#    3.000    0.833    0.000    5.000    0.000    0.000 
#    0.000    0.000    0.000    0.000    0.000    0.000 
#
# Total GULP energy -66818.907414 kJ/mol
# GULP energy per Si atom -5568.242284 kJ/mol
# Density = 2.405787 g / cm^3
# Si number density = 24.112749 Si / 1000 Ang^3
#
#
#
# Elastic Constant Matrix: (Units=GPa)
#
#
# Indices 1 2 3 4 5 6 
#
# 1 58.4424 24.3349 32.0107 -7.6911 -24.0404 29.9013
# 2 24.3349 83.5483 45.2441 -11.2067 -9.2667 35.6318
# 3 32.0107 45.2441 125.2772 -30.7051 -24.0816 22.1918
# 4 -7.6911 -11.2067 -30.7051 37.2712 14.6818 -6.3942
# 5 -24.0404 -9.2667 -24.0816 14.6818 34.6862 -15.5068
# 6 29.9013 35.6318 22.1918 -6.3942 -15.5068 49.3518
#
#
#
# Elastic Compliance Matrix: (Units=1/GPa)
#
#
# Indices 1 2 3 4 5 6 
#
# 1 0.031827 -0.000661 -0.003889 -0.005200 0.015655 -0.012812
# 2 -0.000661 0.020466 -0.005579 0.001242 -0.005378 -0.013396
# 3 -0.003889 -0.005579 0.012926 0.007527 0.002669 0.002386
# 4 -0.005200 0.001242 0.007527 0.037882 -0.014417 -0.000752
# 5 0.015655 -0.005378 0.002669 -0.014417 0.049239 0.006801
# 6 -0.012812 -0.013396 0.002386 -0.000752 0.006801 0.038664
#
#
# Mechanical properties :
#
#
# Convention : Reuss Voigt Hill
#
# Bulk Modulus (GPa) = 22.24169 52.27191 37.25680
# Shear Modulus (GPa) = 22.09948 35.30705 28.70326
#
# Velocity S-wave (km/s) = 3.03067 3.83070 3.45393
# Velocity P-wave (km/s) = 4.63580 6.42580 5.60275
#
# Compressibility (1/GPa) = 0.04496061
#
# Stress axis : x y z
#
# Youngs Moduli (GPa) = 31.41996 48.86116 77.36243
#
# Poissons Ratio (x) = 0.03230 0.30089
# Poissons Ratio (y) = 0.02077 0.43160
# Poissons Ratio (z) = 0.12220 0.27260
#
# Static dielectric constant tensor:
#      x y z
#    x 2.051620 -0.003480 -0.003440 
#    y -0.003480 2.012100 -0.053060 
#    z -0.003440 -0.053060 1.910220 
# 
# From -- ./inp_files/385207.got.cif
#   From: 2010.05.17/outbox.cif.g08.bks.cpg/sg2_193_cif.got.tgz:385207.got - 2010.06.03 11:33:40.
