data_PCOD9003330
_publ_section_title
;
Structure prediction by ZEFSAII (Michael W. Deem and Ramdas Pophale) SiO2 
 PCOD9003330
Probable space group: P -1
;
_chemical_formula_sum "Si O2"
_cell_formula_units_Z 16
_cell_length_a 8.954484
_cell_length_b 12.874795
_cell_length_c 7.369976
_cell_angle_alpha 56.941910
_cell_angle_beta 91.804116
_cell_angle_gamma 63.501439
_cell_volume 592.973468
_symmetry_space_group_name_H-M "P -1"
_symmetry_group_IT_number 2
_symmetry_cell_setting 'triclinic'
loop_
_space_group_symop_operation_xyz
x,y,z
-x,-y,-z
loop_
_atom_site_type_symbol
_atom_site_label
_atom_site_fract_x
_atom_site_fract_y
_atom_site_fract_z
Si Si1 0.035803 0.997622 0.791555
Si Si2 0.508819 0.882575 0.831525
Si Si3 0.932119 0.733567 0.421020
Si Si4 0.104487 0.702588 0.053832
Si Si5 0.771582 0.945886 0.653383
Si Si6 0.426134 0.235575 0.691140
Si Si7 0.510972 0.553761 0.653547
Si Si8 0.733668 0.551658 0.183584
O O1 0.054994 0.133255 0.629759
O O2 0.868242 0.025987 0.641785
O O3 0.000000 0.000000 0.000000
O O4 0.168275 0.818910 0.937634
O O5 0.352511 0.973743 0.598246
O O6 0.630790 0.949272 0.784331
O O7 0.450015 0.877111 0.038133
O O8 0.638090 0.711058 0.928651
O O9 0.014125 0.709880 0.239595
O O10 0.058594 0.579161 0.680227
O O11 0.726340 0.784391 0.370501
O O12 0.284358 0.546341 0.176135
O O13 0.940603 0.773769 0.838404
O O14 0.529002 0.282485 0.520926
O O15 0.302390 0.382305 0.675039
O O16 0.500000 0.500000 0.500000
O O17 0.376039 0.525135 0.779738
#
# Coordination Sequence:
#
# PCOD9003330 Si02
#       8
#     2   2   2   2   2   2   2   2
#     4   8  17  26  43  65  90 117 147 174 216 264
#     4   9  16  27  44  65  96 113 141 183 227 251
#     4  11  15  27  46  72  86 116 145 186 218 257
#     4   9  15  27  44  62  91 115 143 177 220 260
#     4   9  17  28  43  67  92 117 143 180 215 273
#     4   9  17  25  47  67  93 108 147 188 220 255
#     4  10  17  28  45  68  93 110 141 194 225 252
#     4   9  19  27  46  68  95 109 146 190 224 255
#
# _framework density 26.982658000000001
#
# number of rings (size 3 to 8) (size 9 to 14) (size 15 to 20)
#    1.500    1.250    3.750    0.375    1.750    0.000 
#    0.000    1.250    0.000    4.500    0.000    0.875 
#    0.000    0.000    0.000    0.000    0.000    0.000 
#
# Total GULP energy -89338.524592 kJ/mol
# GULP energy per Si atom -5583.657787 kJ/mol
# Density = 2.692124 g / cm^3
# Si number density = 26.982658 Si / 1000 Ang^3
#
#
#
# Elastic Constant Matrix: (Units=GPa)
#
#
# Indices 1 2 3 4 5 6 
#
# 1 96.2441 33.1264 40.4408 9.6020 7.1386 31.2864
# 2 33.1264 67.5041 27.9183 0.1987 -8.3992 21.5388
# 3 40.4408 27.9183 177.3400 2.4111 18.8808 0.4669
# 4 9.6020 0.1987 2.4111 27.8509 8.2665 5.9350
# 5 7.1386 -8.3992 18.8808 8.2665 38.1504 -2.5033
# 6 31.2864 21.5388 0.4669 5.9350 -2.5033 54.8138
#
#
#
# Elastic Compliance Matrix: (Units=1/GPa)
#
#
# Indices 1 2 3 4 5 6 
#
# 1 0.015855 -0.004845 -0.002517 -0.002967 -0.002599 -0.006921
# 2 -0.004845 0.020817 -0.002847 0.000996 0.006341 -0.005208
# 3 -0.002517 -0.002847 0.007036 0.000898 -0.003686 0.002230
# 4 -0.002967 0.000996 0.000898 0.040127 -0.008590 -0.003443
# 5 -0.002599 0.006341 -0.003686 -0.008590 0.031872 0.001409
# 6 -0.006921 -0.005208 0.002230 -0.003443 0.001409 0.024659
#
#
# Mechanical properties :
#
#
# Convention : Reuss Voigt Hill
#
# Bulk Modulus (GPa) = 42.94199 60.45103 51.69651
# Shear Modulus (GPa) = 29.66515 40.13653 34.90084
#
# Velocity S-wave (km/s) = 3.31934 3.86099 3.60036
# Velocity P-wave (km/s) = 5.53533 6.50604 6.04022
#
# Compressibility (1/GPa) = 0.02328723
#
# Stress axis : x y z
#
# Youngs Moduli (GPa) = 63.07345 48.03730 142.13518
#
# Poissons Ratio (x) = 0.23276 0.35782
# Poissons Ratio (y) = 0.30561 0.40469
# Poissons Ratio (z) = 0.15878 0.13677
#
# Static dielectric constant tensor:
#      x y z
#    x 2.184720 -0.030170 -0.078090 
#    y -0.030170 2.161900 0.007060 
#    z -0.078090 0.007060 2.122280 
# 
# From -- ./inp_files/508279.got.cif
#   From: 2010.05.17/outbox.cif.g08.bks.cpg/sg2_255_cif.got.tgz:508279.got - 2010.06.03 11:33:40.
