data_PCOD9003010
_publ_section_title
;
Structure prediction by ZEFSAII (Michael W. Deem and Ramdas Pophale) SiO2 
 PCOD9003010
Probable space group: P -1
;
_chemical_formula_sum "Si O2"
_cell_formula_units_Z 14
_cell_length_a 19.377312
_cell_length_b 11.483128
_cell_length_c 16.136246
_cell_angle_alpha 132.817835
_cell_angle_beta 18.056308
_cell_angle_gamma 137.657456
_cell_volume 745.008856
_symmetry_space_group_name_H-M "P -1"
_symmetry_group_IT_number 2
_symmetry_cell_setting 'triclinic'
loop_
_space_group_symop_operation_xyz
x,y,z
-x,-y,-z
loop_
_atom_site_type_symbol
_atom_site_label
_atom_site_fract_x
_atom_site_fract_y
_atom_site_fract_z
Si Si1 0.319673 0.784552 0.015762
Si Si2 0.105302 0.178049 0.376496
Si Si3 0.531852 0.591974 0.804733
Si Si4 0.873247 0.631727 0.715757
Si Si5 0.825513 0.984591 0.462982
Si Si6 0.068966 0.470233 0.779289
Si Si7 0.225939 0.366980 0.724899
O O1 0.167352 0.687956 0.062908
O O2 0.135766 0.828448 0.305063
O O3 0.404480 0.652714 0.905886
O O4 0.563810 0.940536 0.781688
O O5 0.312959 0.232919 0.234787
O O6 0.200484 0.334702 0.276419
O O7 0.012359 0.011153 0.340935
O O8 0.718414 0.514031 0.519805
O O9 0.338725 0.451291 0.016456
O O10 0.000000 0.500000 0.500000
O O11 0.064910 0.827139 0.613836
O O12 0.798881 0.826956 0.357784
O O13 0.160717 0.428392 0.741261
O O14 0.971589 0.619703 0.978700
O O15 0.500000 0.500000 0.500000
#
# Coordination Sequence:
#
# PCOD9003010 Si02
#       7
#     2   2   2   2   2   2   2
#     4  11  19  38  58  91 119 149 193 244 290 343
#     4   9  22  34  58  86 120 150 200 223 299 341
#     4  11  19  38  60  82 121 163 186 236 287 354
#     4  10  21  39  56  85 124 160 191 230 291 353
#     4  10  21  37  56  91 117 151 195 244 287 341
#     4  10  22  35  63  88 113 153 197 240 299 330
#     4  11  20  41  62  86 118 148 197 248 295 338
#
# _framework density 18.791723000000001
#
# number of rings (size 3 to 8) (size 9 to 14) (size 15 to 20)
#    0.857    0.857    4.286    0.857    0.000    0.571 
#    5.143    0.714    0.000    3.429    0.000    0.000 
#    0.000    0.000    0.000    0.000    0.000    0.000 
#
# Total GULP energy -78015.718949 kJ/mol
# GULP energy per Si atom -5572.551354 kJ/mol
# Density = 1.874895 g / cm^3
# Si number density = 18.791723 Si / 1000 Ang^3
#
#
#
# Elastic Constant Matrix: (Units=GPa)
#
#
# Indices 1 2 3 4 5 6 
#
# 1 80.5574 31.9533 38.6949 -9.9548 -21.4804 16.9935
# 2 31.9533 130.3560 64.0704 -1.7902 0.4526 14.5300
# 3 38.6949 64.0704 131.3011 -17.5050 17.9575 -3.1936
# 4 -9.9548 -1.7902 -17.5050 27.2347 4.5183 -1.0006
# 5 -21.4804 0.4526 17.9575 4.5183 27.3139 -2.1823
# 6 16.9935 14.5300 -3.1936 -1.0006 -2.1823 28.3112
#
#
#
# Elastic Compliance Matrix: (Units=1/GPa)
#
#
# Indices 1 2 3 4 5 6 
#
# 1 0.033038 0.002392 -0.017136 -0.005586 0.036505 -0.020375
# 2 0.002392 0.012112 -0.008566 -0.005389 0.007546 -0.008227
# 3 -0.017136 -0.008566 0.023046 0.013445 -0.029473 0.015485
# 4 -0.005586 -0.005389 0.013445 0.046604 -0.020235 0.007723
# 5 0.036505 0.007546 -0.029473 -0.020235 0.086066 -0.023190
# 6 -0.020375 -0.008227 0.015485 0.007723 -0.023190 0.052006
#
#
# Mechanical properties :
#
#
# Convention : Reuss Voigt Hill
#
# Bulk Modulus (GPa) = 46.34975 67.96132 57.15553
# Shear Modulus (GPa) = 16.30344 30.40500 23.35422
#
# Velocity S-wave (km/s) = 2.94868 4.02680 3.52915
# Velocity P-wave (km/s) = 6.02590 7.60685 6.86206
#
# Compressibility (1/GPa) = 0.02157509
#
# Stress axis : x y z
#
# Youngs Moduli (GPa) = 30.26847 82.56379 43.39159
#
# Poissons Ratio (x) = -0.19748 0.74357
# Poissons Ratio (y) = -0.07240 0.37168
# Poissons Ratio (z) = 0.51869 0.70722
#
# Static dielectric constant tensor:
#      x y z
#    x 1.678420 0.018710 -0.021230 
#    y 0.018710 1.671110 0.030320 
#    z -0.021230 0.030320 1.675490 
# 
# From -- ./inp_files/538023.got.cif
#   From: 2010.05.17/outbox.cif.g08.bks.cpg/sg2_270_cif.got.tgz:538023.got - 2010.06.03 11:33:40.
