data_PCOD9003591
_publ_section_title
;
Structure prediction by ZEFSAII (Michael W. Deem and Ramdas Pophale) SiO2 
 PCOD9003591
Probable space group: P -1
;
_chemical_formula_sum "Si O2"
_cell_formula_units_Z 12
_cell_length_a 14.100141
_cell_length_b 6.199558
_cell_length_c 16.563725
_cell_angle_alpha 78.462736
_cell_angle_beta 24.455121
_cell_angle_gamma 86.373516
_cell_volume 561.536735
_symmetry_space_group_name_H-M "P -1"
_symmetry_group_IT_number 2
_symmetry_cell_setting 'triclinic'
loop_
_space_group_symop_operation_xyz
x,y,z
-x,-y,-z
loop_
_atom_site_type_symbol
_atom_site_label
_atom_site_fract_x
_atom_site_fract_y
_atom_site_fract_z
Si Si1 0.479037 0.290579 0.151833
Si Si2 0.383947 0.402176 0.831998
Si Si3 0.478453 0.332555 0.452469
Si Si4 0.220509 0.616221 0.233987
Si Si5 0.226560 0.800447 0.383748
Si Si6 0.901271 0.095947 0.149710
O O1 0.620865 0.407644 0.111651
O O2 0.373021 0.474465 0.175020
O O3 0.268188 0.063972 0.355003
O O4 0.649345 0.242401 0.953806
O O5 0.531549 0.528558 0.631029
O O6 0.529588 0.245943 0.772195
O O7 0.126913 0.255678 0.010610
O O8 0.500000 0.500000 0.500000
O O9 0.711370 0.239128 0.269060
O O10 0.248968 0.117320 0.663844
O O11 0.183363 0.778399 0.322354
O O12 0.987687 0.413292 0.401790
O O13 0.000000 0.000000 0.000000
#
# Coordination Sequence:
#
# PCOD9003591 Si02
#       6
#     2   2   2   2   2   2
#     4  10  21  37  61  86 127 163 208 265 314 379
#     4  11  25  38  60  98 123 163 219 266 321 383
#     4  11  25  44  68  93 127 173 217 269 331 389
#     4   9  20  39  58  89 120 169 208 253 323 379
#     4  10  21  37  61  88 125 161 211 261 313 386
#     4  11  25  45  69  93 128 174 216 269 332 391
#
# _framework density 21.369928000000002
#
# number of rings (size 3 to 8) (size 9 to 14) (size 15 to 20)
#    0.000    1.667    1.667    1.500    2.333    4.000 
#    0.000    3.333    0.000    0.000    0.000    0.000 
#    0.000    0.000    0.000    0.000    0.000    0.000 
#
# Total GULP energy -66992.297781 kJ/mol
# GULP energy per Si atom -5582.691482 kJ/mol
# Density = 2.132129 g / cm^3
# Si number density = 21.369928 Si / 1000 Ang^3
#
#
#
# Elastic Constant Matrix: (Units=GPa)
#
#
# Indices 1 2 3 4 5 6 
#
# 1 99.1574 48.4097 55.1769 -12.3739 -0.5178 13.8812
# 2 48.4097 84.8132 35.4188 -12.3826 -2.1660 13.4348
# 3 55.1769 35.4188 109.4382 -12.0514 -9.7793 9.6949
# 4 -12.3739 -12.3826 -12.0514 40.1760 10.3673 -6.7361
# 5 -0.5178 -2.1660 -9.7793 10.3673 24.7638 -8.7606
# 6 13.8812 13.4348 9.6949 -6.7361 -8.7606 23.4287
#
#
#
# Elastic Compliance Matrix: (Units=1/GPa)
#
#
# Indices 1 2 3 4 5 6 
#
# 1 0.018015 -0.006376 -0.006796 0.002067 -0.005771 -0.005769
# 2 -0.006376 0.017398 -0.001855 0.002517 -0.002378 -0.005596
# 3 -0.006796 -0.001855 0.013541 0.000246 0.005513 0.001620
# 4 0.002067 0.002517 0.000246 0.029589 -0.011521 0.001430
# 5 -0.005771 -0.002378 0.005513 -0.011521 0.053896 0.019342
# 6 -0.005769 -0.005596 0.001620 0.001430 0.019342 0.056283
#
#
# Mechanical properties :
#
#
# Convention : Reuss Voigt Hill
#
# Bulk Modulus (GPa) = 52.91576 63.49107 58.20342
# Shear Modulus (GPa) = 22.21448 27.96726 25.09087
#
# Velocity S-wave (km/s) = 3.22766 3.62155 3.43026
# Velocity P-wave (km/s) = 6.22141 6.87477 6.55623
#
# Compressibility (1/GPa) = 0.01889796
#
# Stress axis : x y z
#
# Youngs Moduli (GPa) = 55.50853 57.47699 73.85020
#
# Poissons Ratio (x) = 0.36650 0.50192
# Poissons Ratio (y) = 0.35394 0.13703
# Poissons Ratio (z) = 0.37726 0.10665
#
# Static dielectric constant tensor:
#      x y z
#    x 1.723280 0.007880 0.003260 
#    y 0.007880 1.879770 0.066930 
#    z 0.003260 0.066930 1.813500 
# 
# From -- ./inp_files/94974.got.cif
#   From: 2010.05.17/outbox.cif.g08.bks.cpg/sg2_48_cif.got.tgz:94974.got - 2010.06.03 11:33:40.
