data_PCOD9003064
_publ_section_title
;
Structure prediction by ZEFSAII (Michael W. Deem and Ramdas Pophale) SiO2 
 PCOD9003064
Probable space group: P -1
;
_chemical_formula_sum "Si O2"
_cell_formula_units_Z 16
_cell_length_a 11.977012
_cell_length_b 12.575111
_cell_length_c 11.840037
_cell_angle_alpha 68.561990
_cell_angle_beta 73.666309
_cell_angle_gamma 132.550328
_cell_volume 779.359869
_symmetry_space_group_name_H-M "P -1"
_symmetry_group_IT_number 2
_symmetry_cell_setting 'triclinic'
loop_
_space_group_symop_operation_xyz
x,y,z
-x,-y,-z
loop_
_atom_site_type_symbol
_atom_site_label
_atom_site_fract_x
_atom_site_fract_y
_atom_site_fract_z
Si Si1 0.562622 0.267832 0.554878
Si Si2 0.974015 0.689858 0.644499
Si Si3 0.983736 0.773581 0.348146
Si Si4 0.678170 0.156232 0.153655
Si Si5 0.678046 0.722912 0.441260
Si Si6 0.837956 0.366858 0.270350
Si Si7 0.243917 0.139219 0.399377
Si Si8 0.513671 0.769706 0.913736
O O1 0.796637 0.535614 0.426805
O O2 0.345427 0.170208 0.642886
O O3 0.641599 0.282389 0.407622
O O4 0.484669 0.093494 0.719875
O O5 0.956186 0.708403 0.511202
O O6 0.089219 0.665465 0.645304
O O7 0.146003 0.933704 0.551001
O O8 0.717103 0.471556 0.861306
O O9 0.911392 0.844532 0.327032
O O10 0.264454 0.009649 0.154170
O O11 0.750218 0.228348 0.236647
O O12 0.557441 0.172439 0.148752
O O13 0.923827 0.361318 0.935742
O O14 0.500000 0.500000 0.500000
O O15 0.615691 0.680498 0.608616
O O16 0.392860 0.238472 0.205688
O O17 0.000000 0.000000 0.500000
#
# Coordination Sequence:
#
# PCOD9003064 Si02
#       8
#     2   2   2   2   2   2   2   2
#     4  11  21  36  63  77 112 161 186 228 298 333
#     4  10  21  37  60  85 116 147 183 241 290 328
#     4  10  22  40  53  85 117 146 197 236 273 352
#     4  10  21  37  57  86 114 143 191 237 283 348
#     4  10  21  39  58  82 118 153 187 238 285 331
#     4  10  21  37  57  86 114 143 191 237 283 348
#     4  11  19  36  61  86 114 143 197 233 269 348
#     4  10  21  37  60  85 116 147 183 241 290 328
#
# _framework density 20.529668999999998
#
# number of rings (size 3 to 8) (size 9 to 14) (size 15 to 20)
#    0.000    1.750    2.500    3.375    0.000    3.500 
#    0.000    3.750    0.000    6.750    0.000    0.000 
#    0.000    0.000    0.000    0.000    0.000    0.000 
#
# Total GULP energy -89241.861964 kJ/mol
# GULP energy per Si atom -5577.616373 kJ/mol
# Density = 2.048294 g / cm^3
# Si number density = 20.529669 Si / 1000 Ang^3
#
#
#
# Elastic Constant Matrix: (Units=GPa)
#
#
# Indices 1 2 3 4 5 6 
#
# 1 85.7544 9.0520 33.0034 7.2205 -14.7334 1.6082
# 2 9.0520 60.2619 17.3303 -10.5685 7.4788 -0.1175
# 3 33.0034 17.3303 72.0719 -12.5752 -10.5258 -10.1353
# 4 7.2205 -10.5685 -12.5752 13.8519 7.5215 -3.0479
# 5 -14.7334 7.4788 -10.5258 7.5215 15.0503 -0.8300
# 6 1.6082 -0.1175 -10.1353 -3.0479 -0.8300 30.7518
#
#
#
# Elastic Compliance Matrix: (Units=1/GPa)
#
#
# Indices 1 2 3 4 5 6 
#
# 1 -0.938020 0.850134 0.441499 2.991689 -2.503525 0.426762
# 2 0.850134 -0.740843 -0.406021 -2.673405 2.231184 -0.385859
# 3 0.441499 -0.406021 -0.188147 -1.400222 1.191489 -0.193273
# 4 2.991689 -2.673405 -1.400222 -9.378694 7.890785 -1.344746
# 5 -2.503525 2.231184 1.191489 7.890785 -6.540517 1.137703
# 6 0.426762 -0.385859 -0.193273 -1.344746 1.137703 -0.157550
#
#
# Mechanical properties :
#
#
# Convention : Reuss Voigt Hill
#
# Bulk Modulus (GPa) = -10.43985 37.42885 13.49450
# Shear Modulus (GPa) = -0.25320 22.51097 11.12888
#
# Velocity S-wave (km/s) = -0.35157 3.31495 2.33080
# Velocity P-wave (km/s) = 2.29371 5.73786 3.71900
#
# Compressibility (1/GPa) = -0.09578684
#
# Stress axis : x y z
#
# Youngs Moduli (GPa) = -1.06608 -1.34981 -5.31500
#
# Poissons Ratio (x) = 1.14752 2.34657
# Poissons Ratio (y) = 0.90631 -2.15800
# Poissons Ratio (z) = 0.47067 -0.54805
#
# Static dielectric constant tensor:
#      x y z
#    x 1.763190 -0.005170 -0.012640 
#    y -0.005170 1.764790 -0.008120 
#    z -0.012640 -0.008120 1.718080 
# 
# From -- ./inp_files/424941.got.cif
#   From: 2010.05.17/outbox.cif.g08.bks.cpg/sg2_213_cif.got.tgz:424941.got - 2010.06.03 11:33:40.
