data_PCOD9003696
_publ_section_title
;
Structure prediction by ZEFSAII (Michael W. Deem and Ramdas Pophale) SiO2 
 PCOD9003696
Probable space group: P -1
;
_chemical_formula_sum "Si O2"
_cell_formula_units_Z 12
_cell_length_a 12.121997
_cell_length_b 4.911876
_cell_length_c 9.750034
_cell_angle_alpha 107.135669
_cell_angle_beta 117.902763
_cell_angle_gamma 83.413301
_cell_volume 490.084220
_symmetry_space_group_name_H-M "P -1"
_symmetry_group_IT_number 2
_symmetry_cell_setting 'triclinic'
loop_
_space_group_symop_operation_xyz
x,y,z
-x,-y,-z
loop_
_atom_site_type_symbol
_atom_site_label
_atom_site_fract_x
_atom_site_fract_y
_atom_site_fract_z
Si Si1 0.851852 0.043671 0.257513
Si Si2 0.888880 0.804582 0.545139
Si Si3 0.377487 0.308626 0.596196
Si Si4 0.756938 0.031920 0.732060
Si Si5 0.858890 0.604171 0.949964
Si Si6 0.416999 0.885618 0.809427
O O1 0.877594 0.896469 0.396261
O O2 0.716514 0.171621 0.203564
O O3 0.851433 0.802149 0.107092
O O4 0.970633 0.260748 0.341165
O O5 0.770073 0.600925 0.479295
O O6 0.847484 0.068030 0.657083
O O7 0.370133 0.106367 0.426851
O O8 0.400914 0.118556 0.715434
O O9 0.455228 0.598684 0.709267
O O10 0.819915 0.803086 0.831377
O O11 0.762978 0.332308 0.855910
O O12 0.000000 0.500000 0.000000
O O13 0.500000 0.000000 0.000000
#
# Coordination Sequence:
#
# PCOD9003696 Si02
#       6
#     2   2   2   2   2   2
#     4  10  21  37  61  94 121 155 202 250 292 362
#     4   8  19  37  59  91 117 157 197 240 304 349
#     4   9  20  39  62  85 113 158 201 239 299 357
#     4  10  22  38  60  85 124 166 186 236 305 370
#     4  12  22  37  56  89 131 158 190 240 306 363
#     4  11  22  39  62  89 118 154 202 257 292 337
#
# _framework density 24.485588
#
# number of rings (size 3 to 8) (size 9 to 14) (size 15 to 20)
#    1.000    1.000    1.667    2.000    0.000    3.333 
#    0.000    0.000    0.000    6.000    0.000    0.000 
#    0.000    0.000    0.000    0.000    0.000    0.000 
#
# Total GULP energy -66955.314183 kJ/mol
# GULP energy per Si atom -5579.609515 kJ/mol
# Density = 2.442986 g / cm^3
# Si number density = 24.485588 Si / 1000 Ang^3
#
#
#
# Elastic Constant Matrix: (Units=GPa)
#
#
# Indices 1 2 3 4 5 6 
#
# 1 41.1794 -1.9706 14.8915 -3.4351 16.2456 -10.2107
# 2 -1.9706 116.3999 58.6233 10.2830 11.0948 10.6661
# 3 14.8915 58.6233 184.0737 18.2046 18.8209 1.8051
# 4 -3.4351 10.2830 18.2046 52.9767 8.0341 -0.6528
# 5 16.2456 11.0948 18.8209 8.0341 34.5012 -3.6567
# 6 -10.2107 10.6661 1.8051 -0.6528 -3.6567 11.5125
#
#
#
# Elastic Compliance Matrix: (Units=1/GPa)
#
#
# Indices 1 2 3 4 5 6 
#
# 1 0.039401 0.000049 -0.002541 0.006125 -0.015347 0.030771
# 2 0.000049 0.011586 -0.003195 -0.000831 -0.002998 -0.011189
# 3 -0.002541 -0.003195 0.006967 -0.001758 -0.001261 -0.000886
# 4 0.006125 -0.000831 -0.001758 0.021011 -0.005937 0.005783
# 5 -0.015347 -0.002998 -0.001261 -0.005937 0.039409 0.001545
# 6 0.030771 -0.011189 -0.000886 0.005783 0.001545 0.125477
#
#
# Mechanical properties :
#
#
# Convention : Reuss Voigt Hill
#
# Bulk Modulus (GPa) = 21.46927 53.86018 37.66473
# Shear Modulus (GPa) = 18.46712 37.80532 28.13622
#
# Velocity S-wave (km/s) = 2.74926 3.93362 3.39350
# Velocity P-wave (km/s) = 4.34339 6.53265 5.54710
#
# Compressibility (1/GPa) = 0.04657820
#
# Stress axis : x y z
#
# Youngs Moduli (GPa) = 25.38031 86.31422 143.52595
#
# Poissons Ratio (x) = -0.00424 0.36477
# Poissons Ratio (y) = -0.00125 0.45861
# Poissons Ratio (z) = 0.06450 0.27580
#
# Static dielectric constant tensor:
#      x y z
#    x 2.058950 -0.022170 0.011340 
#    y -0.022170 1.960790 0.086390 
#    z 0.011340 0.086390 1.951630 
# 
# From -- ./inp_files/79277.got.cif
#   From: 2010.05.17/outbox.cif.g08.bks.cpg/sg2_40_cif.got.tgz:79277.got - 2010.06.03 11:33:40.
