data_PCOD9003005
_publ_section_title
;
Structure prediction by ZEFSAII (Michael W. Deem and Ramdas Pophale) SiO2 
 PCOD9003005
Probable space group: P -1
;
_chemical_formula_sum "Si O2"
_cell_formula_units_Z 14
_cell_length_a 22.009901
_cell_length_b 5.438381
_cell_length_c 5.357530
_cell_angle_alpha 61.302589
_cell_angle_beta 76.233721
_cell_angle_gamma 66.805375
_cell_volume 516.099868
_symmetry_space_group_name_H-M "P -1"
_symmetry_group_IT_number 2
_symmetry_cell_setting 'triclinic'
loop_
_space_group_symop_operation_xyz
x,y,z
-x,-y,-z
loop_
_atom_site_type_symbol
_atom_site_label
_atom_site_fract_x
_atom_site_fract_y
_atom_site_fract_z
Si Si1 0.713137 0.270809 0.859405
Si Si2 0.166954 0.892422 0.842806
Si Si3 0.587796 0.633495 0.063084
Si Si4 0.100205 0.107501 0.301261
Si Si5 0.684218 0.740027 0.294150
Si Si6 0.445116 0.876728 0.491997
Si Si7 0.054450 0.719097 0.210559
O O1 0.733348 0.477322 0.537821
O O2 0.635713 0.458714 0.880458
O O3 0.758341 0.249154 0.070305
O O4 0.715286 0.931992 0.990741
O O5 0.152010 0.027826 0.517985
O O6 0.132730 0.120937 0.991995
O O7 0.124491 0.672726 0.021562
O O8 0.636638 0.604779 0.258006
O O9 0.538495 0.462066 0.274451
O O10 0.562401 0.975987 0.844489
O O11 0.045249 0.406370 0.308074
O O12 0.070485 0.840373 0.402537
O O13 0.630884 0.984284 0.399548
O O14 0.500000 0.000000 0.500000
O O15 0.000000 0.000000 0.000000
#
# Coordination Sequence:
#
# PCOD9003005 Si02
#       7
#     2   2   2   2   2   2   2
#     4  10  23  40  61  91 124 170 212 281 328 415
#     4  10  26  41  67  98 134 178 228 288 350 421
#     4  10  21  37  60  85 121 165 210 264 332 395
#     4  10  25  42  68 100 135 178 233 282 359 417
#     4  10  22  39  61  88 123 164 218 262 339 396
#     4  10  21  37  56  89 122 159 211 265 322 400
#     4  10  24  45  69 100 138 181 231 289 354 423
#
# _framework density 27.126532000000001
#
# number of rings (size 3 to 8) (size 9 to 14) (size 15 to 20)
#    0.857    1.143    0.000    1.714    6.000    3.429 
#    0.000    0.000    0.000    0.000    0.000    0.000 
#    0.000    0.000    0.000    0.000    0.000    0.000 
#
# Total GULP energy -78103.802785 kJ/mol
# GULP energy per Si atom -5578.843056 kJ/mol
# Density = 2.706479 g / cm^3
# Si number density = 27.126532 Si / 1000 Ang^3
#
#
#
# Elastic Constant Matrix: (Units=GPa)
#
#
# Indices 1 2 3 4 5 6 
#
# 1 96.9047 31.2913 26.1112 -13.8249 14.2986 5.2976
# 2 31.2913 157.1481 69.4606 -23.5642 1.3266 3.0639
# 3 26.1112 69.4606 122.1789 -23.1527 36.6652 2.4270
# 4 -13.8249 -23.5642 -23.1527 51.7970 3.9252 -7.4951
# 5 14.2986 1.3266 36.6652 3.9252 52.7059 8.3536
# 6 5.2976 3.0639 2.4270 -7.4951 8.3536 43.8010
#
#
#
# Elastic Compliance Matrix: (Units=1/GPa)
#
#
# Indices 1 2 3 4 5 6 
#
# 1 0.011802 -0.001984 0.000099 0.002515 -0.003373 -0.000220
# 2 -0.001984 0.009639 -0.006403 0.000492 0.004859 -0.000922
# 3 0.000099 -0.006403 0.016532 0.005845 -0.012254 0.002857
# 4 0.002515 0.000492 0.005845 0.024071 -0.007323 0.004853
# 5 -0.003373 0.004859 -0.012254 -0.007323 0.029818 -0.006193
# 6 -0.000220 -0.000922 0.002857 0.004853 -0.006193 0.024775
#
#
# Mechanical properties :
#
#
# Convention : Reuss Voigt Hill
#
# Bulk Modulus (GPa) = 46.73350 69.99531 58.36441
# Shear Modulus (GPa) = 35.62649 46.28537 40.95593
#
# Velocity S-wave (km/s) = 3.62794 4.13519 3.88984
# Velocity P-wave (km/s) = 5.90039 6.97560 6.46041
#
# Compressibility (1/GPa) = 0.02139792
#
# Stress axis : x y z
#
# Youngs Moduli (GPa) = 84.73171 103.74277 60.48859
#
# Poissons Ratio (x) = 0.20580 -0.00597
# Poissons Ratio (y) = 0.16808 0.38729
# Poissons Ratio (z) = -0.00837 0.66424
#
# Static dielectric constant tensor:
#      x y z
#    x 2.125300 -0.072520 -0.074510 
#    y -0.072520 2.297880 -0.004080 
#    z -0.074510 -0.004080 2.199610 
# 
# From -- ./inp_files/13041.got.cif
#   From: 2010.05.17/outbox.cif.g08.bks.cpg/sg2_7_cif.got.tgz:13041.got - 2010.06.03 11:33:40.
