data_PCOD9003670
_publ_section_title
;
Structure prediction by ZEFSAII (Michael W. Deem and Ramdas Pophale) SiO2 
 PCOD9003670
Probable space group: P -1
;
_chemical_formula_sum "Si O2"
_cell_formula_units_Z 16
_cell_length_a 22.666139
_cell_length_b 13.132407
_cell_length_c 18.854836
_cell_angle_alpha 144.488705
_cell_angle_beta 163.023122
_cell_angle_gamma 29.889525
_cell_volume 812.153588
_symmetry_space_group_name_H-M "P -1"
_symmetry_group_IT_number 2
_symmetry_cell_setting 'triclinic'
loop_
_space_group_symop_operation_xyz
x,y,z
-x,-y,-z
loop_
_atom_site_type_symbol
_atom_site_label
_atom_site_fract_x
_atom_site_fract_y
_atom_site_fract_z
Si Si1 0.648572 0.149089 0.444399
Si Si2 0.674246 0.352264 0.448547
Si Si3 0.733254 0.896504 0.660251
Si Si4 0.147684 0.256019 0.878276
Si Si5 0.758520 0.210036 0.762598
Si Si6 0.147374 0.319463 0.622446
Si Si7 0.649268 0.211102 0.190208
Si Si8 0.914362 0.437987 0.573834
O O1 0.721543 0.233944 0.509512
O O2 0.704229 0.212170 0.618642
O O3 0.782089 0.902515 0.452434
O O4 0.367806 0.240129 0.163042
O O5 0.433647 0.570876 0.301367
O O6 0.648793 0.225844 0.283185
O O7 0.896812 0.375437 0.697441
O O8 0.774514 0.683087 0.556927
O O9 0.500000 0.000000 0.500000
O O10 0.719704 0.043834 0.664791
O O11 0.973250 0.844936 0.948414
O O12 0.115292 0.353039 0.817996
O O13 0.205608 0.024589 0.801050
O O14 0.000000 0.500000 0.500000
O O15 0.010459 0.363524 0.563993
O O16 0.389677 0.306560 0.914422
O O17 0.759381 0.341338 0.363166
#
# Coordination Sequence:
#
# PCOD9003670 Si02
#       8
#     2   2   2   2   2   2   2   2
#     4  11  23  38  59  88 123 156 190 238 295 348
#     4  11  21  38  63  86 117 155 195 243 291 343
#     4  11  24  42  63  85 115 157 200 242 288 342
#     4  10  21  37  61  92 118 150 194 241 294 347
#     4  11  25  41  59  88 119 154 200 241 286 348
#     4  11  23  38  58  86 121 156 191 238 291 345
#     4  10  21  38  61  89 117 149 196 243 287 346
#     4  11  21  38  63  86 113 153 197 239 291 345
#
# _framework density 19.700707000000001
#
# number of rings (size 3 to 8) (size 9 to 14) (size 15 to 20)
#    0.000    1.250    0.000    7.875    0.000    7.000 
#    0.000    0.000    0.000    0.000    0.000    0.000 
#    0.000    0.000    0.000    0.000    0.000    0.000 
#
# Total GULP energy -89484.516971 kJ/mol
# GULP energy per Si atom -5592.782311 kJ/mol
# Density = 1.965587 g / cm^3
# Si number density = 19.700707 Si / 1000 Ang^3
#
#
#
# Elastic Constant Matrix: (Units=GPa)
#
#
# Indices 1 2 3 4 5 6 
#
# 1 140.0028 -18.9791 -13.3743 19.7044 4.8962 -22.4214
# 2 -18.9791 97.1646 103.8321 -32.2945 9.2434 39.2186
# 3 -13.3743 103.8321 240.7443 -69.8466 8.4650 56.7160
# 4 19.7044 -32.2945 -69.8466 46.6387 1.1640 -21.0200
# 5 4.8962 9.2434 8.4650 1.1640 32.4545 -4.4642
# 6 -22.4214 39.2186 56.7160 -21.0200 -4.4642 59.1838
#
#
#
# Elastic Compliance Matrix: (Units=1/GPa)
#
#
# Indices 1 2 3 4 5 6 
#
# 1 0.008155 0.001231 -0.001892 -0.004274 -0.000587 0.002525
# 2 0.001231 0.022084 -0.007367 0.000577 -0.005582 -0.007324
# 3 -0.001892 -0.007367 0.011155 0.011252 -0.001290 -0.002625
# 4 -0.004274 0.000577 0.011252 0.041316 -0.003715 0.001609
# 5 -0.000587 -0.005582 -0.001290 -0.003715 0.033778 0.005942
# 6 0.002525 -0.007324 -0.002625 0.001609 0.005942 0.026242
#
#
# Mechanical properties :
#
#
# Convention : Reuss Voigt Hill
#
# Bulk Modulus (GPa) = 39.46777 68.98546 54.22661
# Shear Modulus (GPa) = 29.89861 54.75094 42.32478
#
# Velocity S-wave (km/s) = 3.89992 5.27747 4.64010
# Velocity P-wave (km/s) = 6.35266 8.49873 7.50282
#
# Compressibility (1/GPa) = 0.02533713
#
# Stress axis : x y z
#
# Youngs Moduli (GPa) = 122.62016 45.28159 89.64915
#
# Poissons Ratio (x) = -0.05575 0.16963
# Poissons Ratio (y) = -0.15096 0.66048
# Poissons Ratio (z) = 0.23201 0.33361
#
# Static dielectric constant tensor:
#      x y z
#    x 1.654260 -0.000860 0.006760 
#    y -0.000860 1.688730 -0.005780 
#    z 0.006760 -0.005780 1.690840 
# 
# From -- ./inp_files/333970.got.cif
#   From: 2010.05.17/outbox.cif.g08.bks.cpg/sg2_167_cif.got.tgz:333970.got - 2010.06.03 11:33:40.
