data_PCOD9003311
_publ_section_title
;
Structure prediction by ZEFSAII (Michael W. Deem and Ramdas Pophale) SiO2 
 PCOD9003311
Probable space group: P -1
;
_chemical_formula_sum "Si O2"
_cell_formula_units_Z 14
_cell_length_a 18.024490
_cell_length_b 16.684304
_cell_length_c 8.073596
_cell_angle_alpha 102.651477
_cell_angle_beta 67.522169
_cell_angle_gamma 160.133652
_cell_volume 681.758545
_symmetry_space_group_name_H-M "P -1"
_symmetry_group_IT_number 2
_symmetry_cell_setting 'triclinic'
loop_
_space_group_symop_operation_xyz
x,y,z
-x,-y,-z
loop_
_atom_site_type_symbol
_atom_site_label
_atom_site_fract_x
_atom_site_fract_y
_atom_site_fract_z
Si Si1 0.393863 0.341406 0.369638
Si Si2 0.599254 0.180281 0.581015
Si Si3 0.109650 0.803227 0.899795
Si Si4 0.887225 0.856749 0.763968
Si Si5 0.315727 0.727458 0.063748
Si Si6 0.875942 0.284223 0.814617
Si Si7 0.906622 0.782613 0.053110
O O1 0.500000 0.500000 0.500000
O O2 0.356601 0.358912 0.241691
O O3 0.609343 0.481953 0.226205
O O4 0.108914 0.039836 0.532394
O O5 0.634462 0.199760 0.755391
O O6 0.871918 0.472999 0.404261
O O7 0.500000 0.000000 0.500000
O O8 0.372973 0.027861 0.693592
O O9 0.863080 0.525399 0.892760
O O10 0.090655 0.741552 0.067629
O O11 0.078496 0.869821 0.965139
O O12 0.879671 0.785907 0.888255
O O13 0.975961 0.028611 0.852820
O O14 0.168912 0.662673 0.082418
O O15 0.590413 0.981786 0.855291
#
# Coordination Sequence:
#
# PCOD9003311 Si02
#       7
#     2   2   2   2   2   2   2
#     4   9  18  35  61  87 110 153 195 233 291 359
#     4  11  23  38  62  86 115 160 207 245 294 360
#     4  11  24  38  57  92 122 153 201 252 298 351
#     4   9  19  38  63  85 116 155 196 237 292 365
#     4  10  22  38  60  84 113 158 203 247 300 354
#     4  10  22  38  60  83 114 156 199 248 297 355
#     4  10  21  37  59  88 120 154 192 245 301 349
#
# _framework density 20.535131
#
# number of rings (size 3 to 8) (size 9 to 14) (size 15 to 20)
#    0.000    2.000    1.429    1.286    4.000    3.429 
#    0.000    4.286    0.000    0.000    0.000    0.000 
#    0.000    0.000    0.000    0.000    0.000    0.000 
#
# Total GULP energy -78084.001858 kJ/mol
# GULP energy per Si atom -5577.428704 kJ/mol
# Density = 2.048839 g / cm^3
# Si number density = 20.535131 Si / 1000 Ang^3
#
#
#
# Elastic Constant Matrix: (Units=GPa)
#
#
# Indices 1 2 3 4 5 6 
#
# 1 103.6432 22.9953 56.4062 -2.5474 -20.1445 10.8855
# 2 22.9953 64.5819 36.6399 -11.7628 1.0691 17.8878
# 3 56.4062 36.6399 124.2818 -36.3438 -9.8429 10.0590
# 4 -2.5474 -11.7628 -36.3438 43.6112 13.2635 4.5598
# 5 -20.1445 1.0691 -9.8429 13.2635 32.1091 -1.9686
# 6 10.8855 17.8878 10.0590 4.5598 -1.9686 24.0287
#
#
#
# Elastic Compliance Matrix: (Units=1/GPa)
#
#
# Indices 1 2 3 4 5 6 
#
# 1 0.017977 -0.004093 -0.009763 -0.012651 0.013802 0.002522
# 2 -0.004093 0.025097 -0.001944 0.009626 -0.009115 -0.018589
# 3 -0.009763 -0.001944 0.017720 0.016608 -0.007816 -0.005340
# 4 -0.012651 0.009626 0.016608 0.048025 -0.024199 -0.019483
# 5 0.013802 -0.009115 -0.007816 -0.024199 0.048465 0.012368
# 6 0.002522 -0.018589 -0.005340 -0.019483 0.012368 0.061259
#
#
# Mechanical properties :
#
#
# Convention : Reuss Voigt Hill
#
# Bulk Modulus (GPa) = 34.25268 58.28773 46.27020
# Shear Modulus (GPa) = 19.24017 31.71418 25.47717
#
# Velocity S-wave (km/s) = 3.06427 3.93413 3.52613
# Velocity P-wave (km/s) = 5.40702 7.00589 6.25773
#
# Compressibility (1/GPa) = 0.02919480
#
# Stress axis : x y z
#
# Youngs Moduli (GPa) = 55.62743 39.84501 56.43311
#
# Poissons Ratio (x) = 0.16310 0.55094
# Poissons Ratio (y) = 0.22770 0.10968
# Poissons Ratio (z) = 0.54307 0.07744
#
# Static dielectric constant tensor:
#      x y z
#    x 1.710360 0.023730 0.010960 
#    y 0.023730 1.799140 -0.026850 
#    z 0.010960 -0.026850 1.768640 
# 
# From -- ./inp_files/336277.got.cif
#   From: 2010.05.17/outbox.cif.g08.bks.cpg/sg2_169_cif.got.tgz:336277.got - 2010.06.03 11:33:40.
