data_PCOD9003374
_publ_section_title
;
Structure prediction by ZEFSAII (Michael W. Deem and Ramdas Pophale) SiO2 
 PCOD9003374
Probable space group: P -1
;
_chemical_formula_sum "Si O2"
_cell_formula_units_Z 14
_cell_length_a 9.187527
_cell_length_b 12.021264
_cell_length_c 12.139744
_cell_angle_alpha 113.532813
_cell_angle_beta 123.570255
_cell_angle_gamma 39.473668
_cell_volume 709.237022
_symmetry_space_group_name_H-M "P -1"
_symmetry_group_IT_number 2
_symmetry_cell_setting 'triclinic'
loop_
_space_group_symop_operation_xyz
x,y,z
-x,-y,-z
loop_
_atom_site_type_symbol
_atom_site_label
_atom_site_fract_x
_atom_site_fract_y
_atom_site_fract_z
Si Si1 0.054883 0.533386 0.654103
Si Si2 0.954131 0.378880 0.928869
Si Si3 0.609229 0.951178 0.648263
Si Si4 0.252708 0.229030 0.777732
Si Si5 0.703000 0.974358 0.006579
Si Si6 0.567494 0.452315 0.138053
Si Si7 0.998134 0.959888 0.855727
O O1 0.112981 0.400760 0.715970
O O2 0.309988 0.486030 0.740345
O O3 0.000000 0.500000 0.500000
O O4 0.819211 0.740440 0.666333
O O5 0.670949 0.479603 0.869584
O O6 0.064065 0.284366 0.818249
O O7 0.000000 0.500000 0.000000
O O8 0.112423 0.228295 0.031227
O O9 0.744586 0.015306 0.742667
O O10 0.500000 0.000000 0.500000
O O11 0.378796 0.066184 0.685054
O O12 0.509850 0.143692 0.914077
O O13 0.500000 0.000000 0.000000
O O14 0.901938 0.970353 0.136929
O O15 0.788352 0.245072 0.155627
O O16 0.500000 0.500000 0.000000
O O17 0.000000 0.000000 0.000000
#
# Coordination Sequence:
#
# PCOD9003374 Si02
#       7
#     2   2   2   2   2   2   2
#     4  11  24  43  68  93 128 172 220 267 317 378
#     4  11  24  38  62  98 134 168 209 267 333 380
#     4  11  24  40  67  97 127 170 222 263 318 383
#     4  11  23  41  64  91 134 169 212 265 324 375
#     4  10  21  37  59  92 127 164 204 262 327 375
#     4  11  23  38  64  97 124 163 220 262 321 385
#     4  11  21  36  63  92 122 163 211 269 317 373
#
# _framework density 19.739521
#
# number of rings (size 3 to 8) (size 9 to 14) (size 15 to 20)
#    0.000    1.143    2.857    4.286    6.000    0.000 
#    0.000    0.714    0.000    4.286    0.000    0.000 
#    0.000    0.000    0.000    0.000    0.000    0.000 
#
# Total GULP energy -77987.183138 kJ/mol
# GULP energy per Si atom -5570.513081 kJ/mol
# Density = 1.969459 g / cm^3
# Si number density = 19.739521 Si / 1000 Ang^3
#
#
#
# Elastic Constant Matrix: (Units=GPa)
#
#
# Indices 1 2 3 4 5 6 
#
# 1 141.7787 45.7629 62.5631 7.9996 2.1163 -17.1905
# 2 45.7629 114.0046 30.0465 -6.2246 -8.1615 -0.7158
# 3 62.5631 30.0465 120.8357 6.5897 9.4539 -4.1129
# 4 7.9996 -6.2246 6.5897 33.6385 0.4204 -7.5789
# 5 2.1163 -8.1615 9.4539 0.4204 24.9718 4.4900
# 6 -17.1905 -0.7158 -4.1129 -7.5789 4.4900 46.4785
#
#
#
# Elastic Compliance Matrix: (Units=1/GPa)
#
#
# Indices 1 2 3 4 5 6 
#
# 1 0.010514 -0.003182 -0.004395 -0.001476 -0.000834 0.003291
# 2 -0.003182 0.010954 -0.001629 0.002787 0.004626 -0.001145
# 3 -0.004395 -0.001629 0.011364 -0.001535 -0.004351 -0.000475
# 4 -0.001476 0.002787 -0.001535 0.031915 0.000264 0.004540
# 5 -0.000834 0.004626 -0.004351 0.000264 0.044141 -0.004844
# 6 0.003291 -0.001145 -0.000475 0.004540 -0.004844 0.023881
#
#
# Mechanical properties :
#
#
# Convention : Reuss Voigt Hill
#
# Bulk Modulus (GPa) = 69.34401 72.59599 70.97000
# Shear Modulus (GPa) = 32.05345 36.90086 34.47715
#
# Velocity S-wave (km/s) = 4.03404 4.32833 4.18377
# Velocity P-wave (km/s) = 7.54346 7.86359 7.70519
#
# Compressibility (1/GPa) = 0.01442086
#
# Stress axis : x y z
#
# Youngs Moduli (GPa) = 95.10753 91.28754 87.99526
#
# Poissons Ratio (x) = 0.29048 0.38673
# Poissons Ratio (y) = 0.30263 0.14337
# Poissons Ratio (z) = 0.41799 0.14873
#
# Static dielectric constant tensor:
#      x y z
#    x 1.583390 -0.018750 -0.207030 
#    y -0.018750 1.816320 -0.019230 
#    z -0.207030 -0.019230 1.568410 
# 
# From -- ./inp_files/390785.got.cif
#   From: 2010.05.17/outbox.cif.g08.bks.cpg/sg2_196_cif.got.tgz:390785.got - 2010.06.03 11:33:40.
