data_PCOD9003975
_publ_section_title
;
Structure prediction by ZEFSAII (Michael W. Deem and Ramdas Pophale) SiO2 
 PCOD9003975
Probable space group: P -1
;
_chemical_formula_sum "Si O2"
_cell_formula_units_Z 16
_cell_length_a 11.303529
_cell_length_b 17.387755
_cell_length_c 10.595071
_cell_angle_alpha 27.708849
_cell_angle_beta 59.049437
_cell_angle_gamma 44.942686
_cell_volume 642.729449
_symmetry_space_group_name_H-M "P -1"
_symmetry_group_IT_number 2
_symmetry_cell_setting 'triclinic'
loop_
_space_group_symop_operation_xyz
x,y,z
-x,-y,-z
loop_
_atom_site_type_symbol
_atom_site_label
_atom_site_fract_x
_atom_site_fract_y
_atom_site_fract_z
Si Si1 0.550580 0.285947 0.220784
Si Si2 0.820445 0.171010 0.036078
Si Si3 0.624545 0.765282 0.404469
Si Si4 0.715843 0.737949 0.733632
Si Si5 0.017084 0.661585 0.180733
Si Si6 0.112561 0.385713 0.916241
Si Si7 0.309344 0.971359 0.864047
Si Si8 0.380264 0.393983 0.617918
O O1 0.537368 0.163619 0.520234
O O2 0.400144 0.334392 0.133882
O O3 0.500000 0.500000 0.000000
O O4 0.735525 0.157928 0.228494
O O5 0.982748 0.169160 0.986291
O O6 0.844645 0.017076 0.136521
O O7 0.664670 0.406738 0.721889
O O8 0.776376 0.514105 0.718275
O O9 0.587760 0.767499 0.274590
O O10 0.709395 0.874582 0.241923
O O11 0.912102 0.569353 0.806710
O O12 0.764475 0.736657 0.852712
O O13 0.371570 0.039506 0.613351
O O14 0.000000 0.500000 0.500000
O O15 0.901009 0.738412 0.007583
O O16 0.201292 0.476990 0.668047
O O17 0.457116 0.740360 0.180123
#
# Coordination Sequence:
#
# PCOD9003975 Si02
#       8
#     2   2   2   2   2   2   2   2
#     4  11  18  37  61  89 125 152 208 247 296 358
#     4  11  23  36  64  93 121 163 202 253 306 360
#     4  10  21  37  63  91 120 164 198 249 306 359
#     4  10  24  38  64  93 121 166 199 257 302 359
#     4  11  19  40  65  87 118 164 208 243 300 374
#     4  11  20  41  66  86 119 163 218 233 304 373
#     4  11  23  41  57  95 131 150 204 261 308 348
#     4  11  22  38  65  90 121 166 205 247 300 373
#
# _framework density 24.893833000000001
#
# number of rings (size 3 to 8) (size 9 to 14) (size 15 to 20)
#    0.000    1.250    7.500    1.500    0.000    4.500 
#    0.000    3.125    0.000    3.000    0.000    0.000 
#    0.000    0.000    0.000    0.000    0.000    0.000 
#
# Total GULP energy -89328.193899 kJ/mol
# GULP energy per Si atom -5583.012119 kJ/mol
# Density = 2.483717 g / cm^3
# Si number density = 24.893833 Si / 1000 Ang^3
#
#
#
# Elastic Constant Matrix: (Units=GPa)
#
#
# Indices 1 2 3 4 5 6 
#
# 1 193.0788 60.6298 38.4348 10.0771 -10.9391 52.7085
# 2 60.6298 90.9393 30.2587 21.3974 -12.1818 16.1022
# 3 38.4348 30.2587 56.5416 8.8316 -1.1983 10.8677
# 4 10.0771 21.3974 8.8316 43.1464 4.9631 -8.2435
# 5 -10.9391 -12.1818 -1.1983 4.9631 54.3420 -0.4730
# 6 52.7085 16.1022 10.8677 -8.2435 -0.4730 57.6169
#
#
#
# Elastic Compliance Matrix: (Units=1/GPa)
#
#
# Indices 1 2 3 4 5 6 
#
# 1 0.008693 -0.003303 -0.002637 -0.001249 0.001007 -0.006703
# 2 -0.003303 0.017732 -0.005585 -0.007697 0.003873 -0.001950
# 3 -0.002637 -0.005585 0.022730 -0.001227 -0.001174 -0.000499
# 4 -0.001249 -0.007697 -0.001227 0.029544 -0.004635 0.007714
# 5 0.001007 0.003873 -0.001174 -0.004635 0.019850 -0.002283
# 6 -0.006703 -0.001950 -0.000499 0.007714 -0.002283 0.025212
#
#
# Mechanical properties :
#
#
# Convention : Reuss Voigt Hill
#
# Bulk Modulus (GPa) = 38.30584 66.57848 52.44216
# Shear Modulus (GPa) = 32.15146 45.10351 38.62749
#
# Velocity S-wave (km/s) = 3.59770 4.26118 3.94342
# Velocity P-wave (km/s) = 5.71656 7.14236 6.46886
#
# Compressibility (1/GPa) = 0.02610568
#
# Stress axis : x y z
#
# Youngs Moduli (GPa) = 115.03036 56.39561 43.99396
#
# Poissons Ratio (x) = 0.18626 0.11602
# Poissons Ratio (y) = 0.37992 0.24571
# Poissons Ratio (z) = 0.30335 0.31497
#
# Static dielectric constant tensor:
#      x y z
#    x 1.979430 0.004560 -0.038990 
#    y 0.004560 2.053420 -0.035130 
#    z -0.038990 -0.035130 1.986540 
# 
# From -- ./inp_files/391152.got.cif
#   From: 2010.05.17/outbox.cif.g08.bks.cpg/sg2_196_cif.got.tgz:391152.got - 2010.06.03 11:33:40.
