data_PCOD9003073
_publ_section_title
;
Structure prediction by ZEFSAII (Michael W. Deem and Ramdas Pophale) SiO2 
 PCOD9003073
Probable space group: P -1
;
_chemical_formula_sum "Si O2"
_cell_formula_units_Z 14
_cell_length_a 7.966267
_cell_length_b 6.927948
_cell_length_c 14.405380
_cell_angle_alpha 92.310046
_cell_angle_beta 103.060216
_cell_angle_gamma 126.140390
_cell_volume 610.024403
_symmetry_space_group_name_H-M "P -1"
_symmetry_group_IT_number 2
_symmetry_cell_setting 'triclinic'
loop_
_space_group_symop_operation_xyz
x,y,z
-x,-y,-z
loop_
_atom_site_type_symbol
_atom_site_label
_atom_site_fract_x
_atom_site_fract_y
_atom_site_fract_z
Si Si1 0.354613 0.006082 0.610976
Si Si2 0.573839 0.673410 0.210296
Si Si3 0.600555 0.324648 0.100945
Si Si4 0.883343 0.756672 0.545539
Si Si5 0.791368 0.039752 0.095504
Si Si6 0.838787 0.565342 0.960764
Si Si7 0.544099 0.766654 0.578970
O O1 0.413112 0.229353 0.685529
O O2 0.400023 0.103612 0.513057
O O3 0.503604 0.919890 0.643743
O O4 0.099127 0.780136 0.594117
O O5 0.561727 0.436301 0.185750
O O6 0.367698 0.628402 0.131772
O O7 0.774057 0.894263 0.179871
O O8 0.729603 0.213779 0.127493
O O9 0.738189 0.545917 0.047174
O O10 0.381709 0.122434 0.012265
O O11 0.751805 0.767326 0.614466
O O12 0.687537 0.504369 0.466346
O O13 0.000000 0.000000 0.500000
O O14 0.023357 0.192473 0.077726
O O15 0.000000 0.500000 0.000000
#
# Coordination Sequence:
#
# PCOD9003073 Si02
#       7
#     2   2   2   2   2   2   2
#     4  10  21  37  57  87 120 149 191 241 291 343
#     4  11  22  35  52  88 115 140 192 241 282 334
#     4   9  19  35  55  76 108 146 191 231 276 343
#     4   9  18  37  62  85 106 151 196 228 289 352
#     4   9  18  36  55  76 106 152 188 227 286 331
#     4   9  18  35  57  76 107 150 191 226 276 341
#     4   9  19  39  62  82 114 157 192 230 284 362
#
# _framework density 22.9499
#
# number of rings (size 3 to 8) (size 9 to 14) (size 15 to 20)
#    0.000    2.571    0.000    3.000    0.000    3.429 
#   12.857    0.000    0.000    0.000    0.000    0.000 
#    0.000    0.000    0.000    0.000    0.000    0.000 
#
# Total GULP energy -78033.682122 kJ/mol
# GULP energy per Si atom -5573.834437 kJ/mol
# Density = 2.289767 g / cm^3
# Si number density = 22.949900 Si / 1000 Ang^3
#
#
#
# Elastic Constant Matrix: (Units=GPa)
#
#
# Indices 1 2 3 4 5 6 
#
# 1 97.8998 29.3966 42.7248 15.4163 -29.9009 5.1169
# 2 29.3966 74.2574 6.2173 3.3176 -12.3974 20.0176
# 3 42.7248 6.2173 78.9464 18.9334 -31.7281 -2.1437
# 4 15.4163 3.3176 18.9334 19.6017 -12.4998 -4.3893
# 5 -29.9009 -12.3974 -31.7281 -12.4998 31.2807 4.7121
# 6 5.1169 20.0176 -2.1437 -4.3893 4.7121 36.9485
#
#
#
# Elastic Compliance Matrix: (Units=1/GPa)
#
#
# Indices 1 2 3 4 5 6 
#
# 1 0.016666 -0.004129 -0.004503 -0.002799 0.008879 -0.001797
# 2 -0.004129 0.019304 0.004418 -0.000624 0.009582 -0.010927
# 3 -0.004503 0.004418 0.024696 -0.009687 0.019218 -0.003939
# 4 -0.002799 -0.000624 -0.009687 0.074400 0.015932 0.006970
# 5 0.008879 0.009582 0.019218 0.015932 0.072010 -0.012597
# 6 -0.001797 -0.010927 -0.003939 0.006970 -0.012597 0.035439
#
#
# Mechanical properties :
#
#
# Convention : Reuss Voigt Hill
#
# Bulk Modulus (GPa) = 19.14309 45.30900 32.22605
# Shear Modulus (GPa) = 18.63192 29.08384 23.85788
#
# Velocity S-wave (km/s) = 2.85239 3.56374 3.22772
# Velocity P-wave (km/s) = 4.38264 6.05963 5.28804
#
# Compressibility (1/GPa) = 0.05223816
#
# Stress axis : x y z
#
# Youngs Moduli (GPa) = 60.00147 51.80196 40.49274
#
# Poissons Ratio (x) = 0.21387 0.18236
# Poissons Ratio (y) = 0.24773 -0.17890
# Poissons Ratio (z) = 0.27021 -0.22886
#
# Static dielectric constant tensor:
#      x y z
#    x 1.934550 -0.040480 -0.005200 
#    y -0.040480 1.935540 -0.005960 
#    z -0.005200 -0.005960 1.850020 
# 
# From -- ./inp_files/491419.got.cif
#   From: 2010.05.17/outbox.cif.g08.bks.cpg/sg2_246_cif.got.tgz:491419.got - 2010.06.03 11:33:40.
