data_PCOD9003328
_publ_section_title
;
Structure prediction by ZEFSAII (Michael W. Deem and Ramdas Pophale) SiO2 
 PCOD9003328
Probable space group: P -1
;
_chemical_formula_sum "Si O2"
_cell_formula_units_Z 14
_cell_length_a 17.465490
_cell_length_b 8.651662
_cell_length_c 15.308183
_cell_angle_alpha 132.798737
_cell_angle_beta 23.832795
_cell_angle_gamma 118.881810
_cell_volume 606.400047
_symmetry_space_group_name_H-M "P -1"
_symmetry_group_IT_number 2
_symmetry_cell_setting 'triclinic'
loop_
_space_group_symop_operation_xyz
x,y,z
-x,-y,-z
loop_
_atom_site_type_symbol
_atom_site_label
_atom_site_fract_x
_atom_site_fract_y
_atom_site_fract_z
Si Si1 0.877971 0.256182 0.365111
Si Si2 0.072674 0.576679 0.251771
Si Si3 0.665341 0.924882 0.696985
Si Si4 0.627830 0.671288 0.481262
Si Si5 0.161036 0.810726 0.984664
Si Si6 0.852782 0.226914 0.575446
Si Si7 0.502768 0.576496 0.753366
O O1 0.675952 0.384836 0.563336
O O2 0.051395 0.337239 0.184472
O O3 0.807985 0.345996 0.572826
O O4 0.999177 0.971159 0.139439
O O5 0.866873 0.761192 0.483816
O O6 0.075077 0.655098 0.379385
O O7 0.284238 0.567078 0.987085
O O8 0.694459 0.841117 0.531561
O O9 0.489624 0.841811 0.879393
O O10 0.660589 0.179044 0.793443
O O11 0.392169 0.807641 0.738475
O O12 0.792857 0.461969 0.167811
O O13 0.594537 0.522174 0.538749
O O14 0.048101 0.966482 0.248020
#
# Coordination Sequence:
#
# PCOD9003328 Si02
#       7
#     2   2   2   2   2   2   2
#     4   9  22  39  57  90 117 157 191 238 300 333
#     4  11  20  40  59  85 127 153 190 242 290 349
#     4   9  21  37  59  90 112 157 194 243 288 337
#     4   9  19  40  61  85 117 151 200 240 289 346
#     4   9  20  38  62  86 116 154 193 247 287 342
#     4  10  21  37  59  89 119 154 194 241 291 343
#     4   9  21  38  59  86 118 155 193 236 293 346
#
# _framework density 23.087070000000001
#
# number of rings (size 3 to 8) (size 9 to 14) (size 15 to 20)
#    1.714    0.857    0.000    1.714    0.000    3.429 
#    5.143    0.714    0.000    0.000    0.000    0.000 
#    0.000    0.000    0.000    0.000    0.000    0.000 
#
# Total GULP energy -77990.529289 kJ/mol
# GULP energy per Si atom -5570.752092 kJ/mol
# Density = 2.303452 g / cm^3
# Si number density = 23.087070 Si / 1000 Ang^3
#
#
#
# Elastic Constant Matrix: (Units=GPa)
#
#
# Indices 1 2 3 4 5 6 
#
# 1 79.2648 -4.8501 6.8988 2.7846 -25.6887 -2.7155
# 2 -4.8501 68.2378 18.0697 -21.1473 -22.5030 -5.7472
# 3 6.8988 18.0697 67.7098 -0.8393 -9.6741 4.6193
# 4 2.7846 -21.1473 -0.8393 35.0445 0.8708 -2.3525
# 5 -25.6887 -22.5030 -9.6741 0.8708 28.6513 -1.9813
# 6 -2.7155 -5.7472 4.6193 -2.3525 -1.9813 36.0615
#
#
#
# Elastic Compliance Matrix: (Units=1/GPa)
#
#
# Indices 1 2 3 4 5 6 
#
# 1 0.025624 0.017595 -0.002549 0.008130 0.036210 0.007580
# 2 0.017595 0.040990 -0.006763 0.022890 0.045871 0.012737
# 3 -0.002549 -0.006763 0.016746 -0.003678 -0.002092 -0.003770
# 4 0.008130 0.022890 -0.003678 0.041619 0.023364 0.008730
# 5 0.036210 0.045871 -0.002092 0.023364 0.103190 0.017499
# 6 0.007580 0.012737 -0.003770 0.008730 0.017499 0.032345
#
#
# Mechanical properties :
#
#
# Convention : Reuss Voigt Hill
#
# Bulk Modulus (GPa) = 10.00746 28.38325 19.19536
# Shear Modulus (GPa) = 18.03388 32.95772 25.49580
#
# Velocity S-wave (km/s) = 2.79789 3.78238 3.32675
# Velocity P-wave (km/s) = 3.84469 5.60320 4.80508
#
# Compressibility (1/GPa) = 0.09992549
#
# Stress axis : x y z
#
# Youngs Moduli (GPa) = 39.02644 24.39638 59.71517
#
# Poissons Ratio (x) = -0.42926 0.15223
# Poissons Ratio (y) = -0.68668 0.40385
# Poissons Ratio (z) = 0.09949 0.16499
#
# Static dielectric constant tensor:
#      x y z
#    x 1.910790 0.006310 0.080250 
#    y 0.006310 1.886190 -0.023380 
#    z 0.080250 -0.023380 1.938730 
# 
# From -- ./inp_files/577394.got.cif
#   From: 2010.05.17/outbox.cif.g08.bks.cpg/sg2_289_cif.got.tgz:577394.got - 2010.06.03 11:33:40.
