data_PCOD9003643
_publ_section_title
;
Structure prediction by ZEFSAII (Michael W. Deem and Ramdas Pophale) SiO2 
 PCOD9003643
Probable space group: P -1
;
_chemical_formula_sum "Si O2"
_cell_formula_units_Z 16
_cell_length_a 19.959729
_cell_length_b 9.626390
_cell_length_c 13.927557
_cell_angle_alpha 76.750005
_cell_angle_beta 20.367496
_cell_angle_gamma 86.806498
_cell_volume 800.293272
_symmetry_space_group_name_H-M "P -1"
_symmetry_group_IT_number 2
_symmetry_cell_setting 'triclinic'
loop_
_space_group_symop_operation_xyz
x,y,z
-x,-y,-z
loop_
_atom_site_type_symbol
_atom_site_label
_atom_site_fract_x
_atom_site_fract_y
_atom_site_fract_z
Si Si1 0.679098 0.672248 0.357318
Si Si2 0.192108 0.842904 0.688973
Si Si3 0.505137 0.213007 0.243308
Si Si4 0.022990 0.665746 0.401280
Si Si5 0.521572 0.300254 0.576068
Si Si6 0.414560 0.829496 0.195118
Si Si7 0.329872 0.565757 0.202672
Si Si8 0.797700 0.825155 0.796999
O O1 0.541068 0.684712 0.630400
O O2 0.632511 0.491714 0.420424
O O3 0.592137 0.730782 0.371394
O O4 0.931382 0.767559 0.038817
O O5 0.300212 0.762295 0.629253
O O6 0.274247 0.824723 0.475968
O O7 0.306843 0.033768 0.528786
O O8 0.728038 0.204320 0.968256
O O9 0.568020 0.311669 0.043850
O O10 0.000000 0.500000 0.500000
O O11 0.890780 0.599998 0.492080
O O12 0.896120 0.714829 0.641263
O O13 0.326037 0.220841 0.928722
O O14 0.296213 0.675046 0.310242
O O15 0.624492 0.820367 0.953801
O O16 0.500000 0.000000 0.000000
O O17 0.500000 0.500000 0.000000
O O18 0.000000 0.000000 0.500000
#
# Coordination Sequence:
#
# PCOD9003643 Si02
#       8
#     2   2   2   2   2   2   2   2
#     4  11  25  45  68  91 133 182 222 273 324 392
#     4  11  24  44  67  95 131 172 225 276 326 397
#     4  11  24  43  62  95 134 169 224 267 327 402
#     4  10  21  37  61  90 130 167 205 265 329 382
#     4  10  24  44  66  98 129 169 232 267 330 399
#     4  11  23  40  63  99 131 163 218 271 333 403
#     4  11  22  40  64  99 133 170 214 268 337 398
#     4  11  23  39  66  96 132 167 209 279 333 393
#
# _framework density 19.992671000000001
#
# number of rings (size 3 to 8) (size 9 to 14) (size 15 to 20)
#    0.000    1.250    2.500    3.750    5.250    2.500 
#    4.500    0.000    0.000    0.000    0.000    0.000 
#    0.000    0.000    0.000    0.000    0.000    0.000 
#
# Total GULP energy -89239.724774 kJ/mol
# GULP energy per Si atom -5577.482798 kJ/mol
# Density = 1.994717 g / cm^3
# Si number density = 19.992671 Si / 1000 Ang^3
#
#
#
# Elastic Constant Matrix: (Units=GPa)
#
#
# Indices 1 2 3 4 5 6 
#
# 1 75.6671 18.9100 19.9619 -1.4218 -9.7521 -2.2900
# 2 18.9100 67.1420 -7.1195 5.2339 0.4271 3.9883
# 3 19.9619 -7.1195 86.0448 -1.6515 -22.6714 -3.6432
# 4 -1.4218 5.2339 -1.6515 37.7042 4.2488 -2.6689
# 5 -9.7521 0.4271 -22.6714 4.2488 22.0954 -2.0465
# 6 -2.2900 3.9883 -3.6432 -2.6689 -2.0465 31.6964
#
#
#
# Elastic Compliance Matrix: (Units=1/GPa)
#
#
# Indices 1 2 3 4 5 6 
#
# 1 0.015820 -0.004959 -0.002910 0.000821 0.004098 0.001766
# 2 -0.004959 0.016899 0.002479 -0.002629 0.000311 -0.002401
# 3 -0.002910 0.002479 0.016931 -0.001407 0.016530 0.002373
# 4 0.000821 -0.002629 -0.001407 0.027704 -0.006157 0.002164
# 5 0.004098 0.000311 0.016530 -0.006157 0.065751 0.005884
# 6 0.001766 -0.002401 0.002373 0.002164 0.005884 0.032814
#
#
# Mechanical properties :
#
#
# Convention : Reuss Voigt Hill
#
# Bulk Modulus (GPa) = 25.72790 32.48431 29.10610
# Shear Modulus (GPa) = 25.04307 31.43930 28.24119
#
# Velocity S-wave (km/s) = 3.54307 3.96983 3.76250
# Velocity P-wave (km/s) = 5.44375 6.10705 5.78491
#
# Compressibility (1/GPa) = 0.03886831
#
# Stress axis : x y z
#
# Youngs Moduli (GPa) = 63.21170 59.17543 59.06317
#
# Poissons Ratio (x) = 0.29346 0.17188
# Poissons Ratio (y) = 0.31347 -0.14639
# Poissons Ratio (z) = 0.18396 -0.14667
#
# Static dielectric constant tensor:
#      x y z
#    x 1.762560 0.006650 -0.046010 
#    y 0.006650 1.569490 -0.102690 
#    z -0.046010 -0.102690 1.628610 
# 
# From -- ./inp_files/262088.got.cif
#   From: 2010.05.17/outbox.cif.g08.bks.cpg/sg2_132_cif.got.tgz:262088.got - 2010.06.03 11:33:40.
