data_PCOD9003488
_publ_section_title
;
Structure prediction by ZEFSAII (Michael W. Deem and Ramdas Pophale) SiO2 
 PCOD9003488
Probable space group: P -1
;
_chemical_formula_sum "Si O2"
_cell_formula_units_Z 16
_cell_length_a 14.161274
_cell_length_b 11.889120
_cell_length_c 10.234083
_cell_angle_alpha 86.327919
_cell_angle_beta 109.543539
_cell_angle_gamma 149.795609
_cell_volume 718.994953
_symmetry_space_group_name_H-M "P -1"
_symmetry_group_IT_number 2
_symmetry_cell_setting 'triclinic'
loop_
_space_group_symop_operation_xyz
x,y,z
-x,-y,-z
loop_
_atom_site_type_symbol
_atom_site_label
_atom_site_fract_x
_atom_site_fract_y
_atom_site_fract_z
Si Si1 0.341304 0.179873 0.990719
Si Si2 0.128306 0.054206 0.449872
Si Si3 0.741605 0.481510 0.306973
Si Si4 0.570658 0.794553 0.270164
Si Si5 0.941844 0.892729 0.120531
Si Si6 0.982471 0.376585 0.404196
Si Si7 0.760249 0.303433 0.114000
Si Si8 0.911420 0.639253 0.967739
O O1 0.415932 0.215294 0.878775
O O2 0.127519 0.889852 0.962970
O O3 0.265481 0.233584 0.931280
O O4 0.527180 0.341562 0.177120
O O5 0.955442 0.777384 0.366971
O O6 0.351289 0.232941 0.606545
O O7 0.131063 0.106496 0.301992
O O8 0.000000 0.000000 0.500000
O O9 0.798713 0.481240 0.474553
O O10 0.740100 0.377272 0.212593
O O11 0.756992 0.078943 0.357585
O O12 0.317671 0.572237 0.202308
O O13 0.910998 0.731267 0.079383
O O14 0.000000 0.000000 0.000000
O O15 0.000000 0.500000 0.500000
O O16 0.925897 0.372437 0.237717
O O17 0.874069 0.480946 0.030631
O O18 0.500000 0.000000 0.000000
#
# Coordination Sequence:
#
# PCOD9003488 Si02
#       8
#     2   2   2   2   2   2   2   2
#     4  11  22  40  63  92 128 165 211 263 314 387
#     4  11  21  36  64  96 123 173 212 259 326 378
#     4  10  21  37  60  90 126 163 213 264 312 380
#     4  11  21  39  64  91 127 159 216 262 315 382
#     4  10  22  40  60  92 132 166 210 258 316 384
#     4   9  20  36  63  87 120 163 205 263 319 365
#     4  11  18  37  66  89 120 166 216 263 317 377
#     4  11  23  39  65  93 123 170 211 259 323 384
#
# _framework density 22.253285999999999
#
# number of rings (size 3 to 8) (size 9 to 14) (size 15 to 20)
#    0.000    1.500    5.000    0.000    1.750    1.000 
#    0.000   10.625    0.000    0.000    0.000    0.000 
#    0.000    0.000    0.000    0.000    0.000    0.000 
#
# Total GULP energy -89176.943202 kJ/mol
# GULP energy per Si atom -5573.558950 kJ/mol
# Density = 2.220264 g / cm^3
# Si number density = 22.253286 Si / 1000 Ang^3
#
#
#
# Elastic Constant Matrix: (Units=GPa)
#
#
# Indices 1 2 3 4 5 6 
#
# 1 31.1999 -4.8187 15.6622 -5.2502 -5.2904 -8.9618
# 2 -4.8187 74.7558 36.6339 -9.4972 3.6824 9.1737
# 3 15.6622 36.6339 166.9613 -25.5603 32.8577 6.3651
# 4 -5.2502 -9.4972 -25.5603 35.4602 -11.8862 5.1018
# 5 -5.2904 3.6824 32.8577 -11.8862 48.9074 3.5469
# 6 -8.9618 9.1737 6.3651 5.1018 3.5469 23.0182
#
#
#
# Elastic Compliance Matrix: (Units=1/GPa)
#
#
# Indices 1 2 3 4 5 6 
#
# 1 0.042155 0.004163 -0.006565 0.003356 0.008419 0.014527
# 2 0.004163 0.016530 -0.003803 0.004122 0.003148 -0.005314
# 3 -0.006565 -0.003803 0.009158 0.003249 -0.005537 -0.003440
# 4 0.003356 0.004122 0.003249 0.036118 0.007400 -0.010380
# 5 0.008419 0.003148 -0.005537 0.007400 0.026800 -0.002215
# 6 0.014527 -0.005314 -0.003440 -0.010380 -0.002215 0.054811
#
#
# Mechanical properties :
#
#
# Convention : Reuss Voigt Hill
#
# Bulk Modulus (GPa) = 18.03975 40.87466 29.45720
# Shear Modulus (GPa) = 23.09908 36.50647 29.80277
#
# Velocity S-wave (km/s) = 3.22531 4.05470 3.66355
# Velocity P-wave (km/s) = 4.68981 6.35048 5.58224
#
# Compressibility (1/GPa) = 0.05543315
#
# Stress axis : x y z
#
# Youngs Moduli (GPa) = 23.72188 60.49707 109.19324
#
# Poissons Ratio (x) = -0.25187 0.71683
# Poissons Ratio (y) = -0.09876 0.41530
# Poissons Ratio (z) = 0.15573 0.23009
#
# Static dielectric constant tensor:
#      x y z
#    x 2.281840 0.152380 0.037070 
#    y 0.152380 1.997640 -0.087250 
#    z 0.037070 -0.087250 1.909990 
# 
# From -- ./inp_files/452293.got.cif
#   From: 2010.05.17/outbox.cif.g08.bks.cpg/sg2_227_cif.got.tgz:452293.got - 2010.06.03 11:33:40.
