data_PCOD9003602
_publ_section_title
;
Structure prediction by ZEFSAII (Michael W. Deem and Ramdas Pophale) SiO2 
 PCOD9003602
Probable space group: P -1
;
_chemical_formula_sum "Si O2"
_cell_formula_units_Z 15
_cell_length_a 21.595765
_cell_length_b 21.322503
_cell_length_c 7.750291
_cell_angle_alpha 48.938268
_cell_angle_beta 47.978119
_cell_angle_gamma 13.355699
_cell_volume 612.102974
_symmetry_space_group_name_H-M "P -1"
_symmetry_group_IT_number 2
_symmetry_cell_setting 'triclinic'
loop_
_space_group_symop_operation_xyz
x,y,z
-x,-y,-z
loop_
_atom_site_type_symbol
_atom_site_label
_atom_site_fract_x
_atom_site_fract_y
_atom_site_fract_z
Si Si1 0.697592 0.488438 0.747922
Si Si2 0.325695 0.148549 0.726179
Si Si3 0.000000 0.000000 0.000000
Si Si4 0.146324 0.314442 0.217207
Si Si5 0.437402 0.512784 0.296404
Si Si6 0.123134 0.162612 0.992043
Si Si7 0.746754 0.968095 0.415923
Si Si8 0.560400 0.612539 0.180877
O O1 0.605881 0.522334 0.695174
O O2 0.026020 0.178605 0.695916
O O3 0.556967 0.711261 0.573420
O O4 0.593179 0.567756 0.993913
O O5 0.197732 0.178128 0.913433
O O6 0.084449 0.445978 0.642191
O O7 0.500000 0.000000 0.500000
O O8 0.558132 0.935225 0.824201
O O9 0.267323 0.734167 0.857742
O O10 0.198387 0.800923 0.163139
O O11 0.181957 0.183908 0.348332
O O12 0.000000 0.500000 0.000000
O O13 0.424314 0.485512 0.559109
O O14 0.207773 0.093722 0.758659
O O15 0.809234 0.436390 0.087881
O O16 0.291823 0.920697 0.170666
#
# Coordination Sequence:
#
# PCOD9003602 Si02
#       8
#     2   2   1   2   2   2   2   2
#     4  10  22  39  65  90 122 164 202 251 314 368
#     4  12  24  40  64  82 119 178 220 262 331 399
#     4  10  24  42  68  96 130 166 190 240 302 378
#     4  12  26  40  57  88 126 163 217 282 333 386
#     4  11  22  44  66  94 130 160 200 243 305 369
#     4  10  21  37  61  88 117 160 220 259 313 365
#     4  10  21  38  59  84 123 159 203 263 320 365
#     4  10  22  39  63  95 123 159 210 268 293 367
#
# _framework density 24.505680000000002
#
# number of rings (size 3 to 8) (size 9 to 14) (size 15 to 20)
#    0.000    1.333    1.333    4.000    3.733    3.200 
#    0.000    4.000    0.000    0.000    0.000    0.000 
#    0.000    0.000    0.000    0.000    0.000    0.000 
#
# Total GULP energy -83693.784754 kJ/mol
# GULP energy per Si atom -5579.585650 kJ/mol
# Density = 2.444990 g / cm^3
# Si number density = 24.505680 Si / 1000 Ang^3
#
#
#
# Elastic Constant Matrix: (Units=GPa)
#
#
# Indices 1 2 3 4 5 6 
#
# 1 894.1228 103.3344 -542.3644 771.2929 -168.9349-1217.5758
# 2 103.3344 148.9450 -48.4855 53.6324 -12.7848 -133.6934
# 3 -542.3644 -48.4855 462.8262 -546.1146 124.1515 814.7844
# 4 771.2929 53.6324 -546.1146 752.4105 -162.5374-1124.2203
# 5 -168.9349 -12.7848 124.1515 -162.5374 53.5266 249.4221
# 6 -1217.5758 -133.6934 814.7844-1124.2203 249.4221 1797.3668
#
#
#
# Elastic Compliance Matrix: (Units=1/GPa)
#
#
# Indices 1 2 3 4 5 6 
#
# 1 0.016856 -0.003021 -0.004788 -0.008621 0.000726 0.007872
# 2 -0.003021 0.008961 0.002263 0.007540 -0.001452 0.002512
# 3 -0.004788 0.002263 0.017153 0.014265 -0.005811 -0.001123
# 4 -0.008621 0.007540 0.014265 0.037482 0.002293 0.011381
# 5 0.000726 -0.001452 -0.005811 0.002293 0.057508 -0.003529
# 6 0.007872 0.002512 -0.001123 0.011381 -0.003529 0.014193
#
#
# Mechanical properties :
#
#
# Convention : Reuss Voigt Hill
#
# Bulk Modulus (GPa) = 31.36931 58.98478 45.17705
# Shear Modulus (GPa) = 28.75676 653.55474 341.15575
#
# Velocity S-wave (km/s) = 3.42932 16.34852 11.81174
# Velocity P-wave (km/s) = 5.33937 19.50609 14.30029
#
# Compressibility (1/GPa) = 0.03187829
#
# Stress axis : x y z
#
# Youngs Moduli (GPa) = 59.32769 111.58977 58.29726
#
# Poissons Ratio (x) = 0.33708 0.27914
# Poissons Ratio (y) = 0.17921 -0.13192
# Poissons Ratio (z) = 0.28407 -0.25252
#
# Static dielectric constant tensor:
#      x y z
#    x 1.918970 -0.016050 -0.125540 
#    y -0.016050 1.866950 -0.065400 
#    z -0.125540 -0.065400 1.763010 
# 
# From -- ./inp_files/357948.got.cif
#   From: 2010.05.17/outbox.cif.g08.bks.cpg/sg2_179_cif.got.tgz:357948.got - 2010.06.03 11:33:40.
