data_PCOD9003209
_publ_section_title
;
Structure prediction by ZEFSAII (Michael W. Deem and Ramdas Pophale) SiO2 
 PCOD9003209
Probable space group: P -1
;
_chemical_formula_sum "Si O2"
_cell_formula_units_Z 16
_cell_length_a 9.526955
_cell_length_b 13.557261
_cell_length_c 12.799604
_cell_angle_alpha 62.765861
_cell_angle_beta 131.880865
_cell_angle_gamma 143.494440
_cell_volume 720.503645
_symmetry_space_group_name_H-M "P -1"
_symmetry_group_IT_number 2
_symmetry_cell_setting 'triclinic'
loop_
_space_group_symop_operation_xyz
x,y,z
-x,-y,-z
loop_
_atom_site_type_symbol
_atom_site_label
_atom_site_fract_x
_atom_site_fract_y
_atom_site_fract_z
Si Si1 0.887843 0.840812 0.570721
Si Si2 0.808382 0.585456 0.579255
Si Si3 0.638725 0.768534 0.820593
Si Si4 0.117940 0.390858 0.810187
Si Si5 0.671926 0.347885 0.494395
Si Si6 0.574288 0.958085 0.155274
Si Si7 0.804697 0.054726 0.892751
Si Si8 0.116648 0.575100 0.136970
O O1 0.962147 0.771351 0.565846
O O2 0.571483 0.733394 0.501323
O O3 0.086008 0.900974 0.738256
O O4 0.000000 0.000000 0.500000
O O5 0.500000 0.500000 0.500000
O O6 0.842033 0.538754 0.507983
O O7 0.887078 0.536210 0.737061
O O8 0.432374 0.574897 0.847237
O O9 0.492190 0.738181 0.653301
O O10 0.650662 0.880171 0.850003
O O11 0.973278 0.882301 0.935671
O O12 0.887434 0.350352 0.640113
O O13 0.022999 0.220437 0.845715
O O14 0.060657 0.414318 0.887247
O O15 0.431828 0.964077 0.176356
O O16 0.423377 0.770801 0.176321
O O17 0.500000 0.000000 0.000000
O O18 0.000000 0.500000 0.000000
#
# Coordination Sequence:
#
# PCOD9003209 Si02
#       8
#     2   2   2   2   2   2   2   2
#     4  11  21  38  61  90 128 157 196 257 314 365
#     4   9  19  36  57  81 122 153 194 249 295 361
#     4  11  23  42  66  85 128 166 209 258 308 368
#     4  10  22  42  63  89 126 162 211 256 311 367
#     4  10  22  41  60  94 122 160 208 250 307 381
#     4  11  22  36  62  90 122 161 201 255 319 364
#     4  10  24  42  60  93 124 162 212 262 301 367
#     4  10  21  37  58  91 118 158 209 250 305 377
#
# _framework density 22.206688
#
# number of rings (size 3 to 8) (size 9 to 14) (size 15 to 20)
#    0.000    1.750    0.000    5.250    5.250    3.500 
#    2.250    0.000    0.000    0.000    0.000    0.000 
#    0.000    0.000    0.000    0.000    0.000    0.000 
#
# Total GULP energy -89109.242114 kJ/mol
# GULP energy per Si atom -5569.327632 kJ/mol
# Density = 2.215615 g / cm^3
# Si number density = 22.206688 Si / 1000 Ang^3
#
#
#
# Elastic Constant Matrix: (Units=GPa)
#
#
# Indices 1 2 3 4 5 6 
#
# 1 30.0252 6.9493 21.2875 6.3160 -5.1553 -5.1416
# 2 6.9493 68.7954 12.3328 -6.3885 1.0623 -24.4455
# 3 21.2875 12.3328 113.2957 20.7936 -6.8116 -19.4918
# 4 6.3160 -6.3885 20.7936 36.0290 -3.7221 6.9257
# 5 -5.1553 1.0623 -6.8116 -3.7221 34.6441 3.3264
# 6 -5.1416 -24.4455 -19.4918 6.9257 3.3264 28.2595
#
#
#
# Elastic Compliance Matrix: (Units=1/GPa)
#
#
# Indices 1 2 3 4 5 6 
#
# 1 0.040016 -0.003072 -0.006091 -0.003752 0.004369 0.000827
# 2 -0.003072 0.021518 0.001548 -0.000590 -0.002757 0.019592
# 3 -0.006091 0.001548 0.013363 -0.008640 -0.000369 0.011609
# 4 -0.003752 -0.000590 -0.008640 0.036821 0.003308 -0.016566
# 5 0.004369 -0.002757 -0.000369 0.003308 0.030482 -0.006244
# 6 0.000827 0.019592 0.011609 -0.016566 -0.006244 0.065287
#
#
# Mechanical properties :
#
#
# Convention : Reuss Voigt Hill
#
# Bulk Modulus (GPa) = 16.75945 32.58395 24.67170
# Shear Modulus (GPa) = 20.60963 31.22297 25.91630
#
# Velocity S-wave (km/s) = 3.04975 3.75376 3.41992
# Velocity P-wave (km/s) = 4.46819 5.78727 5.16997
#
# Compressibility (1/GPa) = 0.05966783
#
# Stress axis : x y z
#
# Youngs Moduli (GPa) = 24.99016 46.47237 74.83307
#
# Poissons Ratio (x) = 0.14277 0.45578
# Poissons Ratio (y) = 0.07677 -0.11585
# Poissons Ratio (z) = 0.15220 -0.07195
#
# Static dielectric constant tensor:
#      x y z
#    x 1.676730 -0.275860 -0.679020 
#    y -0.275860 2.064040 -0.731720 
#    z -0.679020 -0.731720 -0.900390 
# 
# From -- ./inp_files/521565.got.cif
#   From: 2010.05.17/outbox.cif.g08.bks.cpg/sg2_261_cif.got.tgz:521565.got - 2010.06.03 11:33:40.
