data_PCOD9003457
_publ_section_title
;
Structure prediction by ZEFSAII (Michael W. Deem and Ramdas Pophale) SiO2 
 PCOD9003457
Probable space group: P -1
;
_chemical_formula_sum "Si O2"
_cell_formula_units_Z 16
_cell_length_a 12.964821
_cell_length_b 6.750028
_cell_length_c 12.711689
_cell_angle_alpha 85.155495
_cell_angle_beta 125.261356
_cell_angle_gamma 62.341520
_cell_volume 702.544762
_symmetry_space_group_name_H-M "P -1"
_symmetry_group_IT_number 2
_symmetry_cell_setting 'triclinic'
loop_
_space_group_symop_operation_xyz
x,y,z
-x,-y,-z
loop_
_atom_site_type_symbol
_atom_site_label
_atom_site_fract_x
_atom_site_fract_y
_atom_site_fract_z
Si Si1 0.798284 0.331401 0.556112
Si Si2 0.493750 0.700658 0.778234
Si Si3 0.813774 0.621087 0.972387
Si Si4 0.400883 0.831385 0.505150
Si Si5 0.315293 0.849682 0.055679
Si Si6 0.103216 0.759151 0.796854
Si Si7 0.237448 0.355598 0.295683
Si Si8 0.337010 0.494317 0.763369
O O1 0.654163 0.340501 0.521351
O O2 0.842537 0.461425 0.658354
O O3 0.737740 0.459086 0.399519
O O4 0.946115 0.028541 0.649228
O O5 0.632917 0.713907 0.890000
O O6 0.380777 0.905851 0.613940
O O7 0.381438 0.688355 0.792071
O O8 0.601748 0.403680 0.810259
O O9 0.843921 0.543564 0.870978
O O10 0.926605 0.385132 0.128560
O O11 0.793458 0.874701 0.968590
O O12 0.585556 0.714204 0.602894
O O13 0.287155 0.078834 0.356096
O O14 0.210806 0.821594 0.915632
O O15 0.482092 0.776125 0.108977
O O16 0.210324 0.564065 0.774300
#
# Coordination Sequence:
#
# PCOD9003457 Si02
#       8
#     2   2   2   2   2   2   2   2
#     4  11  23  39  62  88 123 156 191 242 308 345
#     4   7  17  33  57  87 114 139 196 244 283 336
#     4  10  21  37  60  89 118 153 201 240 292 349
#     4   9  19  35  60  86 118 145 195 246 295 335
#     4   9  20  37  62  85 118 154 198 243 286 341
#     4  11  23  41  57  87 126 160 192 240 293 359
#     4  10  22  36  62  92 115 151 201 248 284 356
#     4   9  20  40  63  87 116 154 203 247 286 342
#
# _framework density 22.774349999999998
#
# number of rings (size 3 to 8) (size 9 to 14) (size 15 to 20)
#    0.750    1.750    0.000    1.125    5.250    5.000 
#    0.000    1.250    0.000    3.750    0.000    0.000 
#    0.000    0.000    0.000    0.000    0.000    0.000 
#
# Total GULP energy -89110.545921 kJ/mol
# GULP energy per Si atom -5569.409120 kJ/mol
# Density = 2.272251 g / cm^3
# Si number density = 22.774350 Si / 1000 Ang^3
#
#
#
# Elastic Constant Matrix: (Units=GPa)
#
#
# Indices 1 2 3 4 5 6 
#
# 1 42.1217 14.9218 34.5464 3.5789 -7.0707 -11.9064
# 2 14.9218 97.4073 29.3056 12.6413 -8.8035 -6.6146
# 3 34.5464 29.3056 103.8141 6.0350 6.6038 -5.6762
# 4 3.5789 12.6413 6.0350 17.8767 -1.3552 2.1288
# 5 -7.0707 -8.8035 6.6038 -1.3552 28.6862 -5.6579
# 6 -11.9064 -6.6146 -5.6762 2.1288 -5.6579 18.9695
#
#
#
# Elastic Compliance Matrix: (Units=1/GPa)
#
#
# Indices 1 2 3 4 5 6 
#
# 1 0.052225 0.003172 -0.017267 -0.009420 0.024702 0.037144
# 2 0.003172 0.013506 -0.004321 -0.009205 0.007179 0.008582
# 3 -0.017267 -0.004321 0.016656 0.001320 -0.011512 -0.010943
# 4 -0.009420 -0.009205 0.001320 0.065567 -0.005871 -0.017837
# 5 0.024702 0.007179 -0.011512 -0.005871 0.051560 0.030600
# 6 0.037144 0.008582 -0.010943 -0.017837 0.030600 0.086877
#
#
# Mechanical properties :
#
#
# Convention : Reuss Voigt Hill
#
# Bulk Modulus (GPa) = 21.95138 44.54342 33.24740
# Shear Modulus (GPa) = 14.77506 24.07777 19.42641
#
# Velocity S-wave (km/s) = 2.54984 3.25504 2.92378
# Velocity P-wave (km/s) = 4.28118 5.80759 5.10179
#
# Compressibility (1/GPa) = 0.04555521
#
# Stress axis : x y z
#
# Youngs Moduli (GPa) = 19.14788 74.03920 60.03983
#
# Poissons Ratio (x) = -0.23485 1.03673
# Poissons Ratio (y) = -0.06074 0.25941
# Poissons Ratio (z) = 0.33063 0.31989
#
# Static dielectric constant tensor:
#      x y z
#    x 1.904760 0.009370 0.013840 
#    y 0.009370 1.817660 0.015090 
#    z 0.013840 0.015090 1.873740 
# 
# From -- ./inp_files/536075.got.cif
#   From: 2010.05.17/outbox.cif.g08.bks.cpg/sg2_269_cif.got.tgz:536075.got - 2010.06.03 11:33:40.
