data_PCOD9003102
_publ_section_title
;
Structure prediction by ZEFSAII (Michael W. Deem and Ramdas Pophale) SiO2 
 PCOD9003102
Probable space group: P -1
;
_chemical_formula_sum "Si O2"
_cell_formula_units_Z 16
_cell_length_a 14.903598
_cell_length_b 11.273464
_cell_length_c 14.934071
_cell_angle_alpha 154.000132
_cell_angle_beta 142.205499
_cell_angle_gamma 49.712993
_cell_volume 654.897252
_symmetry_space_group_name_H-M "P -1"
_symmetry_group_IT_number 2
_symmetry_cell_setting 'triclinic'
loop_
_space_group_symop_operation_xyz
x,y,z
-x,-y,-z
loop_
_atom_site_type_symbol
_atom_site_label
_atom_site_fract_x
_atom_site_fract_y
_atom_site_fract_z
Si Si1 0.550528 0.334555 0.065131
Si Si2 0.754566 0.032219 0.371608
Si Si3 0.217616 0.636450 0.209186
Si Si4 0.035767 0.099071 0.748363
Si Si5 0.300942 0.060879 0.415534
Si Si6 0.364989 0.721483 0.713877
Si Si7 0.026849 0.828580 0.736634
Si Si8 0.333838 0.090455 0.252680
O O1 0.382174 0.235503 0.904041
O O2 0.581936 0.108577 0.868439
O O3 0.593961 0.644098 0.270438
O O4 0.656758 0.327006 0.230337
O O5 0.908481 0.971600 0.489360
O O6 0.720073 0.247274 0.566478
O O7 0.821693 0.695031 0.044885
O O8 0.307312 0.806692 0.313978
O O9 0.053182 0.713153 0.133155
O O10 0.241244 0.799505 0.603377
O O11 0.067906 0.897753 0.712058
O O12 0.338148 0.029910 0.320569
O O13 0.130496 0.098027 0.312691
O O14 0.393933 0.421299 0.504526
O O15 0.500000 0.000000 0.000000
O O16 0.000000 0.500000 0.500000
O O17 0.161421 0.997044 0.018639
#
# Coordination Sequence:
#
# PCOD9003102 Si02
#       8
#     2   2   2   2   2   2   2   2
#     4  10  21  37  57  94 122 154 212 245 299 373
#     4   9  17  34  59  83 120 159 191 253 305 352
#     4   8  16  33  59  86 118 157 202 241 299 364
#     4   8  17  33  59  91 112 158 204 243 309 356
#     4  10  21  38  57  91 120 161 204 247 300 362
#     4   9  20  36  59  87 118 159 207 246 299 361
#     4  11  20  37  62  91 123 152 209 257 296 365
#     4  11  22  36  60  87 123 164 196 260 308 343
#
# _framework density 24.431311999999998
#
# number of rings (size 3 to 8) (size 9 to 14) (size 15 to 20)
#    0.750    1.750    1.250    1.125    1.750    2.500 
#    0.000    0.625    0.000   10.500    0.000    0.000 
#    0.000    0.000    0.000    0.000    0.000    0.000 
#
# Total GULP energy -89392.192253 kJ/mol
# GULP energy per Si atom -5587.012016 kJ/mol
# Density = 2.437571 g / cm^3
# Si number density = 24.431312 Si / 1000 Ang^3
#
#
#
# Elastic Constant Matrix: (Units=GPa)
#
#
# Indices 1 2 3 4 5 6 
#
# 1 114.7134 49.1315 56.1537 22.2549 7.7911 15.4723
# 2 49.1315 91.7338 54.2514 19.7640 0.9103 25.6305
# 3 56.1537 54.2514 143.1922 17.2982 13.7929 18.8706
# 4 22.2549 19.7640 17.2982 41.9201 3.6086 11.1869
# 5 7.7911 0.9103 13.7929 3.6086 45.7341 5.2651
# 6 15.4723 25.6305 18.8706 11.1869 5.2651 46.7033
#
#
#
# Elastic Compliance Matrix: (Units=1/GPa)
#
#
# Indices 1 2 3 4 5 6 
#
# 1 0.012710 -0.004474 -0.002817 -0.003478 -0.000990 0.000327
# 2 -0.004474 0.018171 -0.004181 -0.002990 0.002632 -0.006381
# 3 -0.002817 -0.004181 0.010003 -0.000332 -0.002374 -0.000467
# 4 -0.003478 -0.002990 -0.000332 0.028337 -0.001053 -0.003741
# 5 -0.000990 0.002632 -0.002374 -0.001053 0.023069 -0.002506
# 6 0.000327 -0.006381 -0.000467 -0.003741 -0.002506 0.026172
#
#
# Mechanical properties :
#
#
# Convention : Reuss Voigt Hill
#
# Bulk Modulus (GPa) = 55.74235 74.30140 65.02187
# Shear Modulus (GPa) = 33.92416 39.54503 36.73459
#
# Velocity S-wave (km/s) = 3.73037 4.02757 3.88182
# Velocity P-wave (km/s) = 6.43581 7.21851 6.83837
#
# Compressibility (1/GPa) = 0.01793968
#
# Stress axis : x y z
#
# Youngs Moduli (GPa) = 78.67622 55.03245 99.97191
#
# Poissons Ratio (x) = 0.24620 0.28163
# Poissons Ratio (y) = 0.35198 0.41803
# Poissons Ratio (z) = 0.22164 0.23012
#
# Static dielectric constant tensor:
#      x y z
#    x 1.995120 -0.050220 -0.002040 
#    y -0.050220 2.003280 0.000350 
#    z -0.002040 0.000350 1.948800 
# 
# From -- ./inp_files/574071.got.cif
#   From: 2010.05.17/outbox.cif.g08.bks.cpg/sg2_288_cif.got.tgz:574071.got - 2010.06.03 11:33:40.
