data_PCOD9003053
_publ_section_title
;
Structure prediction by ZEFSAII (Michael W. Deem and Ramdas Pophale) SiO2 
 PCOD9003053
Probable space group: P -1
;
_chemical_formula_sum "Si O2"
_cell_formula_units_Z 16
_cell_length_a 7.621916
_cell_length_b 23.562092
_cell_length_c 5.378606
_cell_angle_alpha 75.964209
_cell_angle_beta 65.702243
_cell_angle_gamma 111.031058
_cell_volume 730.189883
_symmetry_space_group_name_H-M "P -1"
_symmetry_group_IT_number 2
_symmetry_cell_setting 'triclinic'
loop_
_space_group_symop_operation_xyz
x,y,z
-x,-y,-z
loop_
_atom_site_type_symbol
_atom_site_label
_atom_site_fract_x
_atom_site_fract_y
_atom_site_fract_z
Si Si1 0.932432 0.311885 0.407855
Si Si2 0.604704 0.148990 0.274485
Si Si3 0.193753 0.612422 0.947242
Si Si4 0.515132 0.265381 0.062412
Si Si5 0.202290 0.517790 0.608151
Si Si6 0.597283 0.079937 0.843707
Si Si7 0.991244 0.802804 0.705091
Si Si8 0.369183 0.439747 0.951790
O O1 0.944949 0.245264 0.434827
O O2 0.901028 0.339386 0.132220
O O3 0.174272 0.374655 0.276942
O O4 0.724369 0.296906 0.715428
O O5 0.526841 0.203816 0.253322
O O6 0.511656 0.101483 0.625518
O O7 0.876110 0.186602 0.124312
O O8 0.548053 0.107440 0.095899
O O9 0.431162 0.671391 0.855149
O O10 0.184211 0.568949 0.756700
O O11 0.032651 0.548660 0.290199
O O12 0.274786 0.232715 0.103390
O O13 0.270529 0.470580 0.780643
O O14 0.431546 0.566425 0.275959
O O15 0.867886 0.123247 0.588053
O O16 0.500000 0.000000 0.000000
O O17 0.500000 0.500000 0.000000
#
# Coordination Sequence:
#
# PCOD9003053 Si02
#       8
#     2   2   2   2   2   2   2   2
#     4  11  23  41  59  95 130 172 231 288 344 415
#     4  10  22  46  68 105 148 175 234 286 329 421
#     4  10  21  39  61  86 128 175 228 294 351 407
#     4  12  23  43  67  98 136 186 226 287 348 416
#     4   9  21  38  55  87 122 168 231 289 351 415
#     4  10  21  46  76 103 145 188 222 284 343 403
#     4  10  25  41  67 104 136 184 226 282 347 411
#     4  10  21  37  57  84 122 169 227 287 349 411
#
# _framework density 21.912109000000001
#
# number of rings (size 3 to 8) (size 9 to 14) (size 15 to 20)
#    0.750    1.000    2.500    1.125    3.500    1.000 
#    0.000    5.000    0.000    0.000    0.000    0.000 
#    0.000    0.000    0.000    0.000    0.000    0.000 
#
# Total GULP energy -89175.850171 kJ/mol
# GULP energy per Si atom -5573.490636 kJ/mol
# Density = 2.186224 g / cm^3
# Si number density = 21.912109 Si / 1000 Ang^3
#
#
#
# Elastic Constant Matrix: (Units=GPa)
#
#
# Indices 1 2 3 4 5 6 
#
# 1 71.8578 27.0398 17.8567 -14.9163 -15.4397 -11.5740
# 2 27.0398 136.7095 48.5069 -19.8426 -4.1514 1.8152
# 3 17.8567 48.5069 91.1132 -15.1657 -7.8150 -4.7827
# 4 -14.9163 -19.8426 -15.1657 39.6636 -2.7140 2.4080
# 5 -15.4397 -4.1514 -7.8150 -2.7140 40.6265 -4.5502
# 6 -11.5740 1.8152 -4.7827 2.4080 -4.5502 23.5943
#
#
#
# Elastic Compliance Matrix: (Units=1/GPa)
#
#
# Indices 1 2 3 4 5 6 
#
# 1 0.019987 -0.002966 0.000008 0.005971 0.008942 0.011149
# 2 -0.002966 0.009862 -0.004602 0.002192 -0.001263 -0.003614
# 3 0.000008 -0.004602 0.014388 0.003188 0.002906 0.003510
# 4 0.005971 0.002192 0.003188 0.030051 0.005266 0.001355
# 5 0.008942 -0.001263 0.002906 0.005266 0.029949 0.010311
# 6 0.011149 -0.003614 0.003510 0.001355 0.010311 0.050692
#
#
# Mechanical properties :
#
#
# Convention : Reuss Voigt Hill
#
# Bulk Modulus (GPa) = 34.34480 54.05413 44.19947
# Shear Modulus (GPa) = 27.81553 34.52869 31.17211
#
# Velocity S-wave (km/s) = 3.56675 3.97392 3.77583
# Velocity P-wave (km/s) = 5.71578 6.76596 6.26292
#
# Compressibility (1/GPa) = 0.02911649
#
# Stress axis : x y z
#
# Youngs Moduli (GPa) = 50.03256 101.39781 69.50159
#
# Poissons Ratio (x) = 0.30074 -0.00055
# Poissons Ratio (y) = 0.14839 0.31987
# Poissons Ratio (z) = -0.00040 0.46667
#
# Static dielectric constant tensor:
#      x y z
#    x 1.946850 0.077430 0.067180 
#    y 0.077430 1.771930 -0.061010 
#    z 0.067180 -0.061010 1.658850 
# 
# From -- ./inp_files/52884.got.cif
#   From: 2010.05.17/outbox.cif.g08.bks.cpg/sg2_27_cif.got.tgz:52884.got - 2010.06.03 11:33:40.
