data_PCOD9003359
_publ_section_title
;
Structure prediction by ZEFSAII (Michael W. Deem and Ramdas Pophale) SiO2 
 PCOD9003359
Probable space group: P -1
;
_chemical_formula_sum "Si O2"
_cell_formula_units_Z 16
_cell_length_a 10.365726
_cell_length_b 11.306637
_cell_length_c 15.602983
_cell_angle_alpha 124.991566
_cell_angle_beta 142.126203
_cell_angle_gamma 39.376099
_cell_volume 709.063857
_symmetry_space_group_name_H-M "P -1"
_symmetry_group_IT_number 2
_symmetry_cell_setting 'triclinic'
loop_
_space_group_symop_operation_xyz
x,y,z
-x,-y,-z
loop_
_atom_site_type_symbol
_atom_site_label
_atom_site_fract_x
_atom_site_fract_y
_atom_site_fract_z
Si Si1 0.304901 0.168369 0.241651
Si Si2 0.791844 0.468430 0.197234
Si Si3 0.675157 0.012833 0.525626
Si Si4 0.943103 0.411325 0.509488
Si Si5 0.291856 0.871021 0.055183
Si Si6 0.171883 0.976466 0.838216
Si Si7 0.537736 0.431478 0.212532
Si Si8 0.921986 0.689023 0.000806
O O1 0.488427 0.153092 0.408096
O O2 0.000946 0.294571 0.174150
O O3 0.422770 0.957342 0.200419
O O4 0.260427 0.245774 0.153706
O O5 0.962423 0.539037 0.339429
O O6 0.506747 0.649620 0.086612
O O7 0.723206 0.406433 0.220170
O O8 0.500000 0.000000 0.500000
O O9 0.873210 0.807617 0.502894
O O10 0.874455 0.045226 0.684744
O O11 0.000000 0.500000 0.500000
O O12 0.639760 0.481382 0.367601
O O13 0.232011 0.922508 0.946553
O O14 0.000000 0.000000 0.000000
O O15 0.388013 0.771445 0.821202
O O16 0.180029 0.148322 0.914674
O O17 0.228451 0.605955 0.100746
O O18 0.000000 0.500000 0.000000
#
# Coordination Sequence:
#
# PCOD9003359 Si02
#       8
#     2   2   2   2   2   2   2   2
#     4  11  23  37  59  91 125 160 202 250 308 366
#     4  11  20  34  59  93 131 157 190 239 313 384
#     4  11  20  34  59  95 133 160 189 235 312 385
#     4   9  19  32  54  90 128 162 188 230 295 374
#     4  11  20  33  52  85 125 164 194 236 294 371
#     4  10  23  37  59  86 117 158 202 251 306 353
#     4  10  21  37  59  91 121 157 201 245 306 371
#     4  11  26  45  64  83 114 166 221 264 297 341
#
# _framework density 22.564962000000001
#
# number of rings (size 3 to 8) (size 9 to 14) (size 15 to 20)
#    0.000    1.500    1.250    6.000    5.250    2.000 
#    0.000    0.625    0.000    1.500    0.000    0.000 
#    0.000    0.000    0.000    0.000    0.000    0.000 
#
# Total GULP energy -89244.368882 kJ/mol
# GULP energy per Si atom -5577.773055 kJ/mol
# Density = 2.251360 g / cm^3
# Si number density = 22.564962 Si / 1000 Ang^3
#
#
#
# Elastic Constant Matrix: (Units=GPa)
#
#
# Indices 1 2 3 4 5 6 
#
# 1 26.9148 11.6988 12.3337 -0.3687 -4.5430 -1.2214
# 2 11.6988 152.1433 41.4342 4.2296 -2.2398 1.5432
# 3 12.3337 41.4342 146.7177 -4.9385 -21.8347 6.8246
# 4 -0.3687 4.2296 -4.9385 47.8429 0.9651 -0.5691
# 5 -4.5430 -2.2398 -21.8347 0.9651 13.2578 -1.9251
# 6 -1.2214 1.5432 6.8246 -0.5691 -1.9251 30.0224
#
#
#
# Elastic Compliance Matrix: (Units=1/GPa)
#
#
# Indices 1 2 3 4 5 6 
#
# 1 0.041011 -0.002748 -0.000946 0.000244 0.012424 0.002826
# 2 -0.002748 0.007417 -0.002427 -0.000856 -0.003651 -0.000192
# 3 -0.000946 -0.002427 0.009963 0.000910 0.015439 -0.001171
# 4 0.000244 -0.000856 0.000910 0.021077 -0.000061 0.000243
# 5 0.012424 -0.003651 0.015439 -0.000061 0.105067 0.003920
# 6 0.002826 -0.000192 -0.001171 0.000243 0.003920 0.033956
#
#
# Mechanical properties :
#
#
# Convention : Reuss Voigt Hill
#
# Bulk Modulus (GPa) = 21.66881 50.74545 36.20713
# Shear Modulus (GPa) = 20.31558 35.57857 27.94707
#
# Velocity S-wave (km/s) = 3.00378 3.97510 3.52307
# Velocity P-wave (km/s) = 4.65338 6.60348 5.71226
#
# Compressibility (1/GPa) = 0.04614927
#
# Stress axis : x y z
#
# Youngs Moduli (GPa) = 24.38382 134.82552 100.36758
#
# Poissons Ratio (x) = 0.37056 0.09491
# Poissons Ratio (y) = 0.06702 0.24357
# Poissons Ratio (z) = 0.02306 0.32720
#
# Static dielectric constant tensor:
#      x y z
#    x 1.840640 0.018920 0.043190 
#    y 0.018920 1.858630 0.060260 
#    z 0.043190 0.060260 1.937540 
# 
# From -- ./inp_files/568834.got.cif
#   From: 2010.05.17/outbox.cif.g08.bks.cpg/sg2_285_cif.got.tgz:568834.got - 2010.06.03 11:33:40.
