data_PCOD9003884
_publ_section_title
;
Structure prediction by ZEFSAII (Michael W. Deem and Ramdas Pophale) SiO2 
 PCOD9003884
Probable space group: P -1
;
_chemical_formula_sum "Si O2"
_cell_formula_units_Z 12
_cell_length_a 12.746594
_cell_length_b 12.835457
_cell_length_c 9.048505
_cell_angle_alpha 96.980937
_cell_angle_beta 58.891902
_cell_angle_gamma 145.308930
_cell_volume 564.679138
_symmetry_space_group_name_H-M "P -1"
_symmetry_group_IT_number 2
_symmetry_cell_setting 'triclinic'
loop_
_space_group_symop_operation_xyz
x,y,z
-x,-y,-z
loop_
_atom_site_type_symbol
_atom_site_label
_atom_site_fract_x
_atom_site_fract_y
_atom_site_fract_z
Si Si1 0.549795 0.656033 0.298153
Si Si2 0.990197 0.870103 0.453374
Si Si3 0.496713 0.865712 0.807656
Si Si4 0.187078 0.690860 0.269731
Si Si5 0.956104 0.116981 0.933147
Si Si6 0.176536 0.488696 0.756326
O O1 0.300528 0.407812 0.353789
O O2 0.423113 0.605957 0.532616
O O3 0.786824 0.752752 0.170561
O O4 0.686114 0.858448 0.151121
O O5 0.043255 0.896681 0.245350
O O6 0.000000 0.000000 0.500000
O O7 0.233479 0.997485 0.380424
O O8 0.293243 0.675103 0.794756
O O9 0.599021 0.063780 0.772331
O O10 0.353083 0.739354 0.050400
O O11 0.000000 0.500000 0.500000
O O12 0.998386 0.609290 0.274836
O O13 0.003718 0.277181 0.948469
#
# Coordination Sequence:
#
# PCOD9003884 Si02
#       6
#     2   2   2   2   2   2
#     4  10  21  37  62  95 130 172 211 261 320 384
#     4  11  21  38  63  94 134 168 208 266 322 384
#     4  11  24  42  67  97 128 170 216 266 326 377
#     4  11  26  44  66  95 130 171 221 268 316 381
#     4  10  21  38  61  92 132 170 215 260 317 385
#     4  11  22  43  67  91 131 169 212 271 323 374
#
# _framework density 21.251007999999999
#
# number of rings (size 3 to 8) (size 9 to 14) (size 15 to 20)
#    0.000    1.333    3.333    4.500    2.333    2.667 
#    0.000    0.000    0.000    0.000    0.000    0.000 
#    0.000    0.000    0.000    0.000    0.000    0.000 
#
# Total GULP energy -67063.014847 kJ/mol
# GULP energy per Si atom -5588.584571 kJ/mol
# Density = 2.120264 g / cm^3
# Si number density = 21.251008 Si / 1000 Ang^3
#
#
#
# Elastic Constant Matrix: (Units=GPa)
#
#
# Indices 1 2 3 4 5 6 
#
# 1 66.0387 30.0206 21.7074 -22.0201 2.8997 1.0347
# 2 30.0206 164.2202 45.4585 -17.2080 8.0543 -6.0475
# 3 21.7074 45.4585 94.0462 -39.7654 11.6805 -8.8078
# 4 -22.0201 -17.2080 -39.7654 34.1754 -9.7706 -1.1750
# 5 2.8997 8.0543 11.6805 -9.7706 40.0446 -5.2649
# 6 1.0347 -6.0475 -8.8078 -1.1750 -5.2649 19.3360
#
#
#
# Elastic Compliance Matrix: (Units=1/GPa)
#
#
# Indices 1 2 3 4 5 6 
#
# 1 0.020844 -0.003123 0.003611 0.016763 0.002313 0.001201
# 2 -0.003123 0.007523 -0.004222 -0.003377 -0.000859 0.000158
# 3 0.003611 -0.004222 0.026234 0.031868 0.002425 0.013033
# 4 0.016763 -0.003377 0.031868 0.079684 0.012343 0.020766
# 5 0.002313 -0.000859 0.002425 0.012343 0.028494 0.009221
# 6 0.001201 0.000158 0.013033 0.020766 0.009221 0.061412
#
#
# Mechanical properties :
#
#
# Convention : Reuss Voigt Hill
#
# Bulk Modulus (GPa) = 21.21585 57.63090 39.42337
# Shear Modulus (GPa) = 20.21266 33.85243 27.03254
#
# Velocity S-wave (km/s) = 3.08740 3.99555 3.57046
# Velocity P-wave (km/s) = 4.76597 6.96160 5.96567
#
# Compressibility (1/GPa) = 0.04713457
#
# Stress axis : x y z
#
# Youngs Moduli (GPa) = 47.97501 132.92502 38.11801
#
# Poissons Ratio (x) = 0.41510 -0.13765
# Poissons Ratio (y) = 0.14982 0.16093
# Poissons Ratio (z) = -0.17325 0.56119
#
# Static dielectric constant tensor:
#      x y z
#    x 1.807710 -0.021510 -0.041850 
#    y -0.021510 1.771450 -0.022320 
#    z -0.041850 -0.022320 1.785610 
# 
# From -- ./inp_files/116707.got.cif
#   From: 2010.05.17/outbox.cif.g08.bks.cpg/sg2_59_cif.got.tgz:116707.got - 2010.06.03 11:33:40.
