data_PCOD9003653
_publ_section_title
;
Structure prediction by ZEFSAII (Michael W. Deem and Ramdas Pophale) SiO2 
 PCOD9003653
Probable space group: P -1
;
_chemical_formula_sum "Si O2"
_cell_formula_units_Z 14
_cell_length_a 19.517473
_cell_length_b 5.486807
_cell_length_c 8.557367
_cell_angle_alpha 130.964638
_cell_angle_beta 117.054090
_cell_angle_gamma 57.902867
_cell_volume 578.035466
_symmetry_space_group_name_H-M "P -1"
_symmetry_group_IT_number 2
_symmetry_cell_setting 'triclinic'
loop_
_space_group_symop_operation_xyz
x,y,z
-x,-y,-z
loop_
_atom_site_type_symbol
_atom_site_label
_atom_site_fract_x
_atom_site_fract_y
_atom_site_fract_z
Si Si1 0.907878 0.044271 0.877061
Si Si2 0.773830 0.836649 0.777268
Si Si3 0.946990 0.873736 0.514881
Si Si4 0.519043 0.450834 0.680783
Si Si5 0.342072 0.381941 0.954695
Si Si6 0.196858 0.241818 0.857834
Si Si7 0.367863 0.328783 0.586411
O O1 0.856902 0.788080 0.743780
O O2 0.911767 0.112012 0.727065
O O3 0.854151 0.358291 0.057736
O O4 0.000000 0.000000 0.000000
O O5 0.719199 0.614482 0.565588
O O6 0.795348 0.793249 0.963596
O O7 0.712574 0.236936 0.877004
O O8 0.865566 0.908740 0.348377
O O9 0.000000 0.500000 0.500000
O O10 0.000000 0.000000 0.500000
O O11 0.500000 0.500000 0.500000
O O12 0.431256 0.526589 0.702131
O O13 0.576856 0.050251 0.580647
O O14 0.571447 0.671080 0.895715
O O15 0.287522 0.152201 0.848043
O O16 0.352033 0.355266 0.766980
#
# Coordination Sequence:
#
# PCOD9003653 Si02
#       7
#     2   2   2   2   2   2   2
#     4  11  23  42  64  89 128 167 216 273 330 386
#     4  10  23  39  61  90 124 167 214 264 326 388
#     4  12  27  43  67  98 129 170 225 275 334 398
#     4  10  21  37  61  91 122 162 208 255 322 388
#     4  10  22  39  60  91 126 162 213 261 320 389
#     4  11  24  41  65  91 127 170 216 270 329 394
#     4  10  21  39  60  87 127 160 205 266 317 386
#
# _framework density 24.219967
#
# number of rings (size 3 to 8) (size 9 to 14) (size 15 to 20)
#    0.000    1.429    1.429    3.000    4.000    4.000 
#    0.000    0.000    0.000    0.000    0.000    0.000 
#    0.000    0.000    0.000    0.000    0.000    0.000 
#
# Total GULP energy -78085.402718 kJ/mol
# GULP energy per Si atom -5577.528766 kJ/mol
# Density = 2.416484 g / cm^3
# Si number density = 24.219967 Si / 1000 Ang^3
#
#
#
# Elastic Constant Matrix: (Units=GPa)
#
#
# Indices 1 2 3 4 5 6 
#
# 1 276.7530 55.1654 113.4785 -35.5991 32.6062 1.4957
# 2 55.1654 60.0393 15.6799 -11.4094 20.4223 -19.1041
# 3 113.4785 15.6799 175.2654 -58.4775 45.0669 -4.9338
# 4 -35.5991 -11.4094 -58.4775 53.1653 -12.8310 -11.2358
# 5 32.6062 20.4223 45.0669 -12.8310 58.0398 -11.8775
# 6 1.4957 -19.1041 -4.9338 -11.2358 -11.8775 40.8428
#
#
#
# Elastic Compliance Matrix: (Units=1/GPa)
#
#
# Indices 1 2 3 4 5 6 
#
# 1 0.006734 -0.007551 -0.005430 -0.003893 0.001173 -0.005164
# 2 -0.007551 0.032085 0.009001 0.013781 -0.007298 0.018040
# 3 -0.005430 0.009001 0.015712 0.015671 -0.007102 0.008553
# 4 -0.003893 0.013781 0.015671 0.039849 -0.002171 0.018813
# 5 0.001173 -0.007298 -0.007102 -0.002171 0.024634 0.002252
# 6 -0.005164 0.018040 0.008553 0.018813 0.002252 0.039975
#
#
# Mechanical properties :
#
#
# Convention : Reuss Voigt Hill
#
# Bulk Modulus (GPa) = 21.47287 97.85615 59.66451
# Shear Modulus (GPa) = 27.40134 52.25853 39.82993
#
# Velocity S-wave (km/s) = 3.36721 4.65010 4.05965
# Velocity P-wave (km/s) = 4.89923 8.32599 6.83098
#
# Compressibility (1/GPa) = 0.04657038
#
# Stress axis : x y z
#
# Youngs Moduli (GPa) = 148.49592 31.16719 63.64615
#
# Poissons Ratio (x) = 0.23535 0.34563
# Poissons Ratio (y) = 1.12135 -0.57291
# Poissons Ratio (z) = 0.80639 -0.28055
#
# Static dielectric constant tensor:
#      x y z
#    x 1.956120 -0.006070 0.020650 
#    y -0.006070 2.160730 0.189530 
#    z 0.020650 0.189530 1.772580 
# 
# From -- ./inp_files/11124.got.cif
#   From: 2010.05.17/outbox.cif.g08.bks.cpg/sg2_6_cif.got.tgz:11124.got - 2010.06.03 11:33:40.
