data_PCOD9003240
_publ_section_title
;
Structure prediction by ZEFSAII (Michael W. Deem and Ramdas Pophale) SiO2 
 PCOD9003240
Probable space group: P -1
;
_chemical_formula_sum "Si O2"
_cell_formula_units_Z 14
_cell_length_a 8.236136
_cell_length_b 7.905177
_cell_length_c 20.939159
_cell_angle_alpha 81.556693
_cell_angle_beta 135.353501
_cell_angle_gamma 126.237679
_cell_volume 676.637590
_symmetry_space_group_name_H-M "P -1"
_symmetry_group_IT_number 2
_symmetry_cell_setting 'triclinic'
loop_
_space_group_symop_operation_xyz
x,y,z
-x,-y,-z
loop_
_atom_site_type_symbol
_atom_site_label
_atom_site_fract_x
_atom_site_fract_y
_atom_site_fract_z
Si Si1 0.084890 0.922860 0.358123
Si Si2 0.786532 0.231936 0.479975
Si Si3 0.997626 0.458224 0.170959
Si Si4 0.537078 0.006199 0.726384
Si Si5 0.196224 0.853518 0.759807
Si Si6 0.293966 0.723659 0.028286
Si Si7 0.808621 0.696037 0.161441
O O1 0.043198 0.806090 0.420074
O O2 0.905884 0.730731 0.260994
O O3 0.463474 0.125474 0.433103
O O4 0.946411 0.041716 0.309946
O O5 0.663845 0.076836 0.389780
O O6 0.000000 0.500000 0.500000
O O7 0.059103 0.374501 0.254252
O O8 0.755570 0.482416 0.127879
O O9 0.854284 0.288193 0.079219
O O10 0.309936 0.732010 0.224303
O O11 0.329266 0.827127 0.736215
O O12 0.860706 0.069073 0.794198
O O13 0.493506 0.041829 0.881449
O O14 0.524326 0.683029 0.077775
O O15 0.000000 0.500000 0.000000
#
# Coordination Sequence:
#
# PCOD9003240 Si02
#       7
#     2   2   2   2   2   2   2
#     4   9  21  39  57  87 119 148 193 249 278 344
#     4  10  21  39  64  83 114 154 198 232 300 349
#     4  10  21  37  59  83 122 154 195 233 288 346
#     4   9  21  38  57  86 118 150 192 246 284 342
#     4  11  22  37  60  88 120 155 191 237 297 337
#     4  11  19  38  60  87 118 158 192 243 282 336
#     4   8  19  38  58  80 121 154 189 240 286 335
#
# _framework density 20.690546000000001
#
# number of rings (size 3 to 8) (size 9 to 14) (size 15 to 20)
#    0.857    1.429    1.429    0.857    2.000    1.714 
#    0.000    5.714    0.000    0.000    0.000    0.000 
#    0.000    0.000    0.000    0.000    0.000    0.000 
#
# Total GULP energy -78011.456526 kJ/mol
# GULP energy per Si atom -5572.246895 kJ/mol
# Density = 2.064345 g / cm^3
# Si number density = 20.690546 Si / 1000 Ang^3
#
#
#
# Elastic Constant Matrix: (Units=GPa)
#
#
# Indices 1 2 3 4 5 6 
#
# 1 69.0723 4.3164 31.1570 -19.9786 -13.2045 13.8510
# 2 4.3164 56.7908 21.7461 -18.5531 -4.4665 22.8389
# 3 31.1570 21.7461 84.4875 -16.1857 -16.2520 14.6829
# 4 -19.9786 -18.5531 -16.1857 26.4163 5.2687 -13.8131
# 5 -13.2045 -4.4665 -16.2520 5.2687 17.5751 -2.7102
# 6 13.8510 22.8389 14.6829 -13.8131 -2.7102 24.9053
#
#
#
# Elastic Compliance Matrix: (Units=1/GPa)
#
#
# Indices 1 2 3 4 5 6 
#
# 1 0.024436 0.009875 -0.004922 0.014954 0.010241 -0.010336
# 2 0.009875 0.033808 -0.004451 0.014445 0.003638 -0.025463
# 3 -0.004922 -0.004451 0.017300 0.000648 0.010687 -0.001857
# 4 0.014954 0.014445 0.000648 0.068454 -0.002589 0.015739
# 5 0.010241 0.003638 0.010687 -0.002589 0.074846 -0.008623
# 6 -0.010336 -0.025463 -0.001857 0.015739 -0.008623 0.078136
#
#
# Mechanical properties :
#
#
# Convention : Reuss Voigt Hill
#
# Bulk Modulus (GPa) = 13.06393 36.08771 24.57582
# Shear Modulus (GPa) = 15.55247 23.98809 19.77028
#
# Velocity S-wave (km/s) = 2.74464 3.40865 3.09451
# Velocity P-wave (km/s) = 4.04620 5.74207 4.96705
#
# Compressibility (1/GPa) = 0.07654667
#
# Stress axis : x y z
#
# Youngs Moduli (GPa) = 40.92262 29.57911 57.80451
#
# Poissons Ratio (x) = -0.29209 0.28453
# Poissons Ratio (y) = -0.40410 0.25728
# Poissons Ratio (z) = 0.20143 0.13165
#
# Static dielectric constant tensor:
#      x y z
#    x 1.746060 0.003320 -0.010120 
#    y 0.003320 1.753590 0.008360 
#    z -0.010120 0.008360 1.741210 
# 
# From -- ./inp_files/214218.got.cif
#   From: 2010.05.17/outbox.cif.g08.bks.cpg/sg2_108_cif.got.tgz:214218.got - 2010.06.03 11:33:40.
