data_PCOD9003615
_publ_section_title
;
Structure prediction by ZEFSAII (Michael W. Deem and Ramdas Pophale) SiO2 
 PCOD9003615
Probable space group: P -1
;
_chemical_formula_sum "Si O2"
_cell_formula_units_Z 14
_cell_length_a 16.344258
_cell_length_b 9.731876
_cell_length_c 8.129387
_cell_angle_alpha 93.626947
_cell_angle_beta 60.036906
_cell_angle_gamma 42.679519
_cell_volume 516.652556
_symmetry_space_group_name_H-M "P -1"
_symmetry_group_IT_number 2
_symmetry_cell_setting 'triclinic'
loop_
_space_group_symop_operation_xyz
x,y,z
-x,-y,-z
loop_
_atom_site_type_symbol
_atom_site_label
_atom_site_fract_x
_atom_site_fract_y
_atom_site_fract_z
Si Si1 0.708127 0.288777 0.946987
Si Si2 0.440381 0.252101 0.954078
Si Si3 0.458143 0.144255 0.307464
Si Si4 0.186554 0.126651 0.071725
Si Si5 0.217069 0.981744 0.700087
Si Si6 0.313274 0.568908 0.694256
Si Si7 0.978473 0.765459 0.426534
O O1 0.538467 0.611577 0.073774
O O2 0.657214 0.203540 0.065052
O O3 0.858263 0.056232 0.632462
O O4 0.803328 0.246145 0.004432
O O5 0.450071 0.203962 0.131438
O O6 0.211767 0.503841 0.156879
O O7 0.572919 0.979196 0.685332
O O8 0.318286 0.416132 0.587949
O O9 0.690893 0.893379 0.090282
O O10 0.052690 0.292750 0.384668
O O11 0.092327 0.199361 0.000159
O O12 0.233845 0.793984 0.675411
O O13 0.452058 0.717920 0.493911
O O14 0.118602 0.156596 0.641587
#
# Coordination Sequence:
#
# PCOD9003615 Si02
#       7
#     2   2   2   2   2   2   2
#     4   9  20  35  60  87 111 147 195 239 280 340
#     4  11  23  38  56  85 122 154 188 233 303 341
#     4  10  22  40  58  80 120 158 188 240 282 351
#     4   8  20  38  61  89 107 148 205 228 287 333
#     4   9  17  35  60  91 114 145 190 256 277 323
#     4   9  18  35  58  87 117 145 199 235 284 339
#     4  10  21  37  61  89 117 147 194 244 286 340
#
# _framework density 27.097514
#
# number of rings (size 3 to 8) (size 9 to 14) (size 15 to 20)
#    0.857    1.714    0.000    2.143    2.000    2.286 
#    2.571    5.000    0.000    0.000    0.000    0.000 
#    0.000    0.000    0.000    0.000    0.000    0.000 
#
# Total GULP energy -78090.558453 kJ/mol
# GULP energy per Si atom -5577.897032 kJ/mol
# Density = 2.703584 g / cm^3
# Si number density = 27.097514 Si / 1000 Ang^3
#
#
#
# Elastic Constant Matrix: (Units=GPa)
#
#
# Indices 1 2 3 4 5 6 
#
# 1 106.6359 1.8735 80.4150 9.9236 33.4141 -16.2456
# 2 1.8735 -70.3142 126.5464 -12.3024 33.8041 -25.6209
# 3 80.4150 126.5464 6.0427 -18.0086 31.9447 -5.1786
# 4 9.9236 -12.3024 -18.0086 34.5792 -3.4871 13.5018
# 5 33.4141 33.8041 31.9447 -3.4871 55.8280 11.7865
# 6 -16.2456 -25.6209 -5.1786 13.5018 11.7865 48.2824
#
#
#
# Elastic Compliance Matrix: (Units=1/GPa)
#
#
# Indices 1 2 3 4 5 6 
#
# 1 0.017713 -0.013193 -0.008984 -0.015090 0.001178 0.001928
# 2 -0.013193 0.012580 0.020014 0.016717 -0.010615 0.002300
# 3 -0.008984 0.020014 0.019978 0.013996 -0.019535 0.010595
# 4 -0.015090 0.016717 0.013996 0.048870 -0.004511 -0.007270
# 5 0.001178 -0.010615 -0.019535 -0.004511 0.037758 -0.015288
# 6 0.001928 0.002300 0.010595 -0.007270 -0.015288 0.029482
#
#
# Mechanical properties :
#
#
# Convention : Reuss Voigt Hill
#
# Bulk Modulus (GPa) = 21.76484 51.11492 36.43988
# Shear Modulus (GPa) = 26.87844 16.63989 21.75916
#
# Velocity S-wave (km/s) = 3.15289 2.48074 2.83679
# Velocity P-wave (km/s) = 4.61560 5.20670 4.92003
#
# Compressibility (1/GPa) = 0.04594565
#
# Stress axis : x y z
#
# Youngs Moduli (GPa) = 56.45454 79.48886 50.05567
#
# Poissons Ratio (x) = 1.04869 0.44970
# Poissons Ratio (y) = 0.74480 -1.00181
# Poissons Ratio (z) = 0.50718 -1.59088
#
# Static dielectric constant tensor:
#      x y z
#    x 2.141300 0.039660 0.007770 
#    y 0.039660 2.157560 -0.012180 
#    z 0.007770 -0.012180 2.239780 
# 
# From -- ./inp_files/331181.got.cif
#   From: 2010.05.17/outbox.cif.g08.bks.cpg/sg2_166_cif.got.tgz:331181.got - 2010.06.03 11:33:40.
