data_PCOD9003397
_publ_section_title
;
Structure prediction by ZEFSAII (Michael W. Deem and Ramdas Pophale) SiO2 
 PCOD9003397
Probable space group: P -1
;
_chemical_formula_sum "Si O2"
_cell_formula_units_Z 16
_cell_length_a 5.753983
_cell_length_b 27.258997
_cell_length_c 6.118291
_cell_angle_alpha 53.487761
_cell_angle_beta 72.678676
_cell_angle_gamma 57.101837
_cell_volume 647.144922
_symmetry_space_group_name_H-M "P -1"
_symmetry_group_IT_number 2
_symmetry_cell_setting 'triclinic'
loop_
_space_group_symop_operation_xyz
x,y,z
-x,-y,-z
loop_
_atom_site_type_symbol
_atom_site_label
_atom_site_fract_x
_atom_site_fract_y
_atom_site_fract_z
Si Si1 0.859239 0.725753 0.610760
Si Si2 0.019687 0.204109 0.237921
Si Si3 0.769801 0.605273 0.080695
Si Si4 0.381852 0.814820 0.253697
Si Si5 0.077550 0.039359 0.052665
Si Si6 0.431882 0.533498 0.179008
Si Si7 0.370210 0.700252 0.283596
Si Si8 0.461971 0.055237 0.550094
O O1 0.883204 0.747923 0.787801
O O2 0.662287 0.797408 0.349658
O O3 0.165951 0.686906 0.531168
O O4 0.731794 0.674317 0.784607
O O5 0.287173 0.131833 0.299822
O O6 0.822228 0.189307 0.494604
O O7 0.834898 0.247487 0.977650
O O8 0.622616 0.572220 0.055758
O O9 0.594658 0.632155 0.282454
O O10 0.093844 0.568197 0.161347
O O11 0.471058 0.748618 0.249765
O O12 0.191499 0.888940 0.999081
O O13 0.286660 0.058152 0.809725
O O14 0.232509 0.980321 0.344212
O O15 0.000000 0.000000 0.000000
O O16 0.500000 0.500000 0.500000
O O17 0.500000 0.500000 0.000000
O O18 0.500000 0.000000 0.500000
#
# Coordination Sequence:
#
# PCOD9003397 Si02
#       8
#     2   2   2   2   2   2   2   2
#     4  11  25  43  71 107 148 196 244 323 392 458
#     4  10  21  42  57  96 141 187 247 322 390 465
#     4  12  28  52  85 122 165 207 273 317 387 482
#     4  10  22  38  63  93 143 183 248 321 393 461
#     4  10  21  38  56  89 125 182 243 314 381 461
#     4  12  31  59  90 128 175 225 266 326 388 467
#     4  11  25  43  72 106 147 196 249 315 400 453
#     4  10  21  37  60  83 128 180 248 308 383 464
#
# _framework density 24.723984000000002
#
# number of rings (size 3 to 8) (size 9 to 14) (size 15 to 20)
#    0.000    1.250    1.250    3.000    7.000    3.500 
#    0.000    0.000    0.000    0.000    0.000    0.000 
#    0.000    0.000    0.000    0.000    0.000    0.000 
#
# Total GULP energy -89304.446060 kJ/mol
# GULP energy per Si atom -5581.527879 kJ/mol
# Density = 2.466771 g / cm^3
# Si number density = 24.723984 Si / 1000 Ang^3
#
#
#
# Elastic Constant Matrix: (Units=GPa)
#
#
# Indices 1 2 3 4 5 6 
#
# 1 126.3318 62.2194 39.1333 3.2843 22.2215 -18.7671
# 2 62.2194 135.2436 30.0713 22.7670 2.2660 -12.4817
# 3 39.1333 30.0713 86.5024 -1.5385 23.8091 -10.4327
# 4 3.2843 22.7670 -1.5385 33.9136 -5.7251 -2.4046
# 5 22.2215 2.2660 23.8091 -5.7251 59.3596 11.9326
# 6 -18.7671 -12.4817 -10.4327 -2.4046 11.9326 53.0095
#
#
#
# Elastic Compliance Matrix: (Units=1/GPa)
#
#
# Indices 1 2 3 4 5 6 
#
# 1 0.012322 -0.005044 -0.002203 0.001661 -0.004129 0.003746
# 2 -0.005044 0.011342 -0.002305 -0.006952 0.001766 -0.000281
# 3 -0.002203 -0.002305 0.015320 0.001713 -0.005680 0.003049
# 4 0.001661 -0.006952 0.001713 0.034469 0.002210 0.000354
# 5 -0.004129 0.001766 -0.005680 0.002210 0.022237 -0.007069
# 6 0.003746 -0.000281 0.003049 0.000354 -0.007069 0.022332
#
#
# Mechanical properties :
#
#
# Convention : Reuss Voigt Hill
#
# Bulk Modulus (GPa) = 50.30069 67.88062 59.09066
# Shear Modulus (GPa) = 34.78266 43.70014 39.24140
#
# Velocity S-wave (km/s) = 3.75485 4.20875 3.98826
# Velocity P-wave (km/s) = 6.26000 7.15074 6.72015
#
# Compressibility (1/GPa) = 0.01988044
#
# Stress axis : x y z
#
# Youngs Moduli (GPa) = 81.15754 88.17172 65.27579
#
# Poissons Ratio (x) = 0.44470 0.14381
# Poissons Ratio (y) = 0.40932 0.15043
# Poissons Ratio (z) = 0.17880 0.20320
#
# Static dielectric constant tensor:
#      x y z
#    x 1.946560 -0.017390 -0.003100 
#    y -0.017390 1.943980 -0.036900 
#    z -0.003100 -0.036900 1.928130 
# 
# From -- ./inp_files/14382.got.cif
#   From: 2010.05.17/outbox.cif.g08.bks.cpg/sg2_8_cif.got.tgz:14382.got - 2010.06.03 11:33:40.
