data_PCOD9003905
_publ_section_title
;
Structure prediction by ZEFSAII (Michael W. Deem and Ramdas Pophale) SiO2 
 PCOD9003905
Probable space group: P -1
;
_chemical_formula_sum "Si O2"
_cell_formula_units_Z 15
_cell_length_a 15.765824
_cell_length_b 7.656922
_cell_length_c 14.346151
_cell_angle_alpha 37.900756
_cell_angle_beta 33.975084
_cell_angle_gamma 44.254196
_cell_volume 584.778152
_symmetry_space_group_name_H-M "P -1"
_symmetry_group_IT_number 2
_symmetry_cell_setting 'triclinic'
loop_
_space_group_symop_operation_xyz
x,y,z
-x,-y,-z
loop_
_atom_site_type_symbol
_atom_site_label
_atom_site_fract_x
_atom_site_fract_y
_atom_site_fract_z
Si Si1 0.424258 0.254216 0.533051
Si Si2 0.439852 0.891093 0.200027
Si Si3 0.151953 0.312325 0.245488
Si Si4 0.870843 0.497965 0.540568
Si Si5 0.000000 0.500000 0.000000
Si Si6 0.238504 0.046342 0.075196
Si Si7 0.265745 0.834262 0.643348
Si Si8 0.178418 0.892050 0.905849
O O1 0.407942 0.565725 0.368242
O O2 0.551360 0.237806 0.505453
O O3 0.500000 0.000000 0.500000
O O4 0.264428 0.151716 0.743654
O O5 0.278006 0.100363 0.280417
O O6 0.588401 0.908131 0.119974
O O7 0.500000 0.000000 0.000000
O O8 0.174661 0.200058 0.166395
O O9 0.974624 0.352557 0.420731
O O10 0.194501 0.632236 0.073164
O O11 0.000000 0.500000 0.500000
O O12 0.790432 0.822427 0.456783
O O13 0.760181 0.289595 0.765398
O O14 0.847914 0.342494 0.229156
O O15 0.116125 0.197430 0.048693
O O16 0.242271 0.756352 0.806237
O O17 0.000000 0.000000 0.000000
#
# Coordination Sequence:
#
# PCOD9003905 Si02
#       8
#     2   2   2   2   1   2   2   2
#     4  10  21  37  62  97 131 176 226 278 337 406
#     4  10  21  39  64  99 137 177 220 282 346 399
#     4  11  24  42  65 102 134 176 233 283 342 405
#     4  12  26  41  65  97 133 178 226 286 340 399
#     4  12  20  42  68  94 136 180 224 262 340 416
#     4  11  23  40  69  98 136 183 219 277 339 415
#     4  11  22  40  64  93 135 178 225 269 340 406
#     4  11  22  38  65  98 128 170 226 284 336 393
#
# _framework density 25.650753999999999
#
# number of rings (size 3 to 8) (size 9 to 14) (size 15 to 20)
#    0.000    1.067    5.333    2.800    9.333    1.067 
#    0.000    0.667    2.933    2.400    0.000    0.000 
#    0.000    0.000    0.000    0.000    0.000    0.000 
#
# Total GULP energy -83738.369636 kJ/mol
# GULP energy per Si atom -5582.557976 kJ/mol
# Density = 2.559237 g / cm^3
# Si number density = 25.650754 Si / 1000 Ang^3
#
#
#
# Elastic Constant Matrix: (Units=GPa)
#
#
# Indices 1 2 3 4 5 6 
#
# 1 46.0484 48.7173 43.0926 8.6356 -9.6065 -20.9496
# 2 48.7173 140.3545 76.1165 -33.9442 -2.8293 -29.8292
# 3 43.0926 76.1165 206.3249 -41.3102 -27.7652 -21.5572
# 4 8.6356 -33.9442 -41.3102 59.5523 -3.6409 11.8253
# 5 -9.6065 -2.8293 -27.7652 -3.6409 44.0774 7.5109
# 6 -20.9496 -29.8292 -21.5572 11.8253 7.5109 52.7574
#
#
#
# Elastic Compliance Matrix: (Units=1/GPa)
#
#
# Indices 1 2 3 4 5 6 
#
# 1 0.073263 -0.023800 -0.011623 -0.035928 0.000946 0.018805
# 2 -0.023800 0.018044 0.000746 0.014507 -0.002036 -0.001906
# 3 -0.011623 0.000746 0.009163 0.009386 0.004609 -0.003210
# 4 -0.035928 0.014507 0.009386 0.039356 0.004250 -0.011656
# 5 0.000946 -0.002036 0.004609 0.004250 0.026637 -0.003637
# 6 0.018805 -0.001906 -0.003210 -0.011656 -0.003637 0.027163
#
#
# Mechanical properties :
#
#
# Convention : Reuss Voigt Hill
#
# Bulk Modulus (GPa) = 32.13806 80.95340 56.54573
# Shear Modulus (GPa) = 18.29145 46.26417 32.27781
#
# Velocity S-wave (km/s) = 2.67328 4.25151 3.55118
# Velocity P-wave (km/s) = 4.69945 7.46517 6.23754
#
# Compressibility (1/GPa) = 0.03111576
#
# Stress axis : x y z
#
# Youngs Moduli (GPa) = 13.64954 55.42071 109.13070
#
# Poissons Ratio (x) = 1.31900 1.26840
# Poissons Ratio (y) = 0.32486 -0.08137
# Poissons Ratio (z) = 0.15865 -0.04132
#
# Static dielectric constant tensor:
#      x y z
#    x 2.140510 0.065860 0.004690 
#    y 0.065860 2.085770 0.072200 
#    z 0.004690 0.072200 2.056230 
# 
# From -- ./inp_files/392959.got.cif
#   From: 2010.05.17/outbox.cif.g08.bks.cpg/sg2_197_cif.got.tgz:392959.got - 2010.06.03 11:33:40.
