data_PCOD9003910
_publ_section_title
;
Structure prediction by ZEFSAII (Michael W. Deem and Ramdas Pophale) SiO2 
 PCOD9003910
Probable space group: P -1
;
_chemical_formula_sum "Si O2"
_cell_formula_units_Z 15
_cell_length_a 10.127110
_cell_length_b 15.936026
_cell_length_c 8.077681
_cell_angle_alpha 115.302130
_cell_angle_beta 120.337810
_cell_angle_gamma 34.940624
_cell_volume 644.145659
_symmetry_space_group_name_H-M "P -1"
_symmetry_group_IT_number 2
_symmetry_cell_setting 'triclinic'
loop_
_space_group_symop_operation_xyz
x,y,z
-x,-y,-z
loop_
_atom_site_type_symbol
_atom_site_label
_atom_site_fract_x
_atom_site_fract_y
_atom_site_fract_z
Si Si1 0.355782 0.940310 0.775330
Si Si2 0.360828 0.383557 0.343247
Si Si3 0.411287 0.415543 0.044368
Si Si4 0.376572 0.034890 0.222786
Si Si5 0.506133 0.198916 0.706099
Si Si6 0.162514 0.670849 0.889547
Si Si7 0.000000 0.500000 0.500000
Si Si8 0.193864 0.805551 0.317516
O O1 0.533214 0.769383 0.753138
O O2 0.449223 0.962547 0.707610
O O3 0.073360 0.053861 0.666227
O O4 0.363701 0.987866 0.997703
O O5 0.304308 0.457599 0.194026
O O6 0.134941 0.485427 0.407885
O O7 0.596058 0.318513 0.524855
O O8 0.633917 0.383642 0.148325
O O9 0.500348 0.273311 0.921006
O O10 0.226942 0.538161 0.886964
O O11 0.107861 0.195664 0.231204
O O12 0.458338 0.920818 0.309312
O O13 0.256811 0.330819 0.566015
O O14 0.714910 0.145271 0.678984
O O15 0.183284 0.728091 0.110758
#
# Coordination Sequence:
#
# PCOD9003910 Si02
#       8
#     2   2   2   2   2   2   1   2
#     4  10  21  37  62  99 124 160 211 268 309 377
#     4  11  22  40  64  91 123 178 209 259 309 386
#     4  10  21  38  68  94 121 170 220 249 320 372
#     4  10  21  38  64  95 130 155 209 268 323 355
#     4  10  21  42  65  90 123 175 202 264 307 388
#     4   9  21  39  61  99 129 159 208 275 303 380
#     4  10  26  40  56  92 132 158 214 256 314 364
#     4   9  21  39  62  87 133 158 213 257 316 368
#
# _framework density 23.286660000000001
#
# number of rings (size 3 to 8) (size 9 to 14) (size 15 to 20)
#    0.000    2.133    1.333    0.400    3.733    5.867 
#    0.000    6.667    0.000    0.000    0.000    0.000 
#    0.000    0.000    0.000    0.000    0.000    0.000 
#
# Total GULP energy -83710.575366 kJ/mol
# GULP energy per Si atom -5580.705024 kJ/mol
# Density = 2.323366 g / cm^3
# Si number density = 23.286660 Si / 1000 Ang^3
#
#
#
# Elastic Constant Matrix: (Units=GPa)
#
#
# Indices 1 2 3 4 5 6 
#
# 1 124.9628 101.8525 32.2883 -19.9622 -26.2052 -11.8450
# 2 101.8525 102.8284 10.6563 -13.9556 -4.9423 -4.8493
# 3 32.2883 10.6563 55.2472 4.0802 -20.3356 -0.8721
# 4 -19.9622 -13.9556 4.0802 28.5723 4.5968 1.5101
# 5 -26.2052 -4.9423 -20.3356 4.5968 43.4386 2.7659
# 6 -11.8450 -4.8493 -0.8721 1.5101 2.7659 45.3815
#
#
#
# Elastic Compliance Matrix: (Units=1/GPa)
#
#
# Indices 1 2 3 4 5 6 
#
# 1 0.123156 -0.111353 -0.037817 0.029811 0.039743 0.016105
# 2 -0.111353 0.111480 0.031432 -0.021218 -0.036666 -0.013607
# 3 -0.037817 0.031432 0.034869 -0.015621 -0.000926 -0.005266
# 4 0.029811 -0.021218 -0.015621 0.047018 0.003061 0.003462
# 5 0.039743 -0.036666 -0.000926 0.003061 0.041827 0.003786
# 6 0.016105 -0.013607 -0.005266 0.003462 0.003786 0.024338
#
#
# Mechanical properties :
#
#
# Convention : Reuss Voigt Hill
#
# Bulk Modulus (GPa) = 29.38642 63.62584 46.50613
# Shear Modulus (GPa) = 7.94271 32.69457 20.31864
#
# Velocity S-wave (km/s) = 1.84885 3.75107 2.95709
# Velocity P-wave (km/s) = 4.14783 6.79286 5.62794
#
# Compressibility (1/GPa) = 0.03402932
#
# Stress axis : x y z
#
# Youngs Moduli (GPa) = 8.11977 8.97021 28.67853
#
# Poissons Ratio (x) = 0.99886 1.08454
# Poissons Ratio (y) = 0.90416 -0.90142
# Poissons Ratio (z) = 0.30707 -0.28195
#
# Static dielectric constant tensor:
#      x y z
#    x 1.844390 0.035530 0.059160 
#    y 0.035530 1.809750 0.020910 
#    z 0.059160 0.020910 1.901030 
# 
# From -- ./inp_files/207879.got.cif
#   From: 2010.05.17/outbox.cif.g08.bks.cpg/sg2_104_cif.got.tgz:207879.got - 2010.06.03 11:33:40.
