data_PCOD9003040
_publ_section_title
;
Structure prediction by ZEFSAII (Michael W. Deem and Ramdas Pophale) SiO2 
 PCOD9003040
Probable space group: P -1
;
_chemical_formula_sum "Si O2"
_cell_formula_units_Z 14
_cell_length_a 5.115999
_cell_length_b 17.307070
_cell_length_c 7.894559
_cell_angle_alpha 88.896175
_cell_angle_beta 133.961089
_cell_angle_gamma 98.453829
_cell_volume 494.310837
_symmetry_space_group_name_H-M "P -1"
_symmetry_group_IT_number 2
_symmetry_cell_setting 'triclinic'
loop_
_space_group_symop_operation_xyz
x,y,z
-x,-y,-z
loop_
_atom_site_type_symbol
_atom_site_label
_atom_site_fract_x
_atom_site_fract_y
_atom_site_fract_z
Si Si1 0.008931 0.054380 0.335065
Si Si2 0.550000 0.662842 0.054648
Si Si3 0.815197 0.804147 0.393185
Si Si4 0.402420 0.480119 0.704147
Si Si5 0.826765 0.913105 0.061701
Si Si6 0.710519 0.623941 0.649130
Si Si7 0.633261 0.770391 0.790608
O O1 0.272287 0.137506 0.498366
O O2 0.084278 0.997000 0.217745
O O3 0.592409 0.071088 0.131563
O O4 0.000000 0.000000 0.500000
O O5 0.573381 0.722616 0.222560
O O6 0.630859 0.579531 0.152676
O O7 0.759867 0.717065 0.000098
O O8 0.138559 0.641587 0.799476
O O9 0.846307 0.859019 0.237844
O O10 0.216554 0.784909 0.618979
O O11 0.663631 0.564369 0.791210
O O12 0.499429 0.426778 0.594096
O O13 0.000000 0.500000 0.500000
O O14 0.883084 0.856498 0.931135
O O15 0.614857 0.709079 0.632120
#
# Coordination Sequence:
#
# PCOD9003040 Si02
#       7
#     2   2   2   2   2   2   2
#     4   8  13  25  47  81 115 148 189 227 270 325
#     4  11  22  38  59  84 113 147 186 233 283 336
#     4   9  17  31  53  81 115 149 186 231 276 327
#     4  11  25  43  60  81 111 146 186 234 285 341
#     4   8  15  27  50  81 113 149 189 229 272 325
#     4  11  24  39  59  84 111 146 187 232 286 339
#     4  10  21  37  57  84 115 149 189 234 280 331
#
# _framework density 28.322258999999999
#
# number of rings (size 3 to 8) (size 9 to 14) (size 15 to 20)
#    0.000    2.286    0.000    3.000    0.000    6.857 
#    0.000    0.000    0.000    0.857    0.000   99.000 
#    0.000    0.000    0.000    0.000    0.000    0.000 
#
# Total GULP energy -78329.609892 kJ/mol
# GULP energy per Si atom -5594.972135 kJ/mol
# Density = 2.825780 g / cm^3
# Si number density = 28.322259 Si / 1000 Ang^3
#
#
#
# Elastic Constant Matrix: (Units=GPa)
#
#
# Indices 1 2 3 4 5 6 
#
# 1 56.3332 27.9059 12.2468 0.4904 -6.3238 -5.7093
# 2 27.9059 265.7018 47.5711 19.1579 -10.1628 7.3171
# 3 12.2468 47.5711 82.9817 -5.5962 -18.4878 -3.5324
# 4 0.4904 19.1579 -5.5962 82.7057 -5.7525 -21.1725
# 5 -6.3238 -10.1628 -18.4878 -5.7525 39.6484 8.9985
# 6 -5.7093 7.3171 -3.5324 -21.1725 8.9985 50.2264
#
#
#
# Elastic Compliance Matrix: (Units=1/GPa)
#
#
# Indices 1 2 3 4 5 6 
#
# 1 0.019387 -0.001894 -0.001245 0.000997 0.001598 0.002526
# 2 -0.001894 0.004587 -0.002577 -0.001684 -0.000177 -0.001743
# 3 -0.001245 -0.002577 0.015343 0.002387 0.006375 0.001177
# 4 0.000997 -0.001684 0.002387 0.014356 0.001491 0.006311
# 5 0.001598 -0.000177 0.006375 0.001491 0.029529 -0.004006
# 6 0.002526 -0.001743 0.001177 0.006311 -0.004006 0.023912
#
#
# Mechanical properties :
#
#
# Convention : Reuss Voigt Hill
#
# Bulk Modulus (GPa) = 35.86084 64.49603 50.17844
# Shear Modulus (GPa) = 39.11135 55.66897 47.39016
#
# Velocity S-wave (km/s) = 3.72013 4.43827 4.09497
# Velocity P-wave (km/s) = 5.58048 7.00614 6.33355
#
# Compressibility (1/GPa) = 0.02788557
#
# Stress axis : x y z
#
# Youngs Moduli (GPa) = 51.58119 218.02890 65.17538
#
# Poissons Ratio (x) = 0.41287 0.08114
# Poissons Ratio (y) = 0.09768 0.16796
# Poissons Ratio (z) = 0.06421 0.56187
#
# Static dielectric constant tensor:
#      x y z
#    x 2.271600 -0.005130 -0.176170 
#    y -0.005130 2.224060 0.043220 
#    z -0.176170 0.043220 2.252760 
# 
# From -- ./inp_files/7452.got.cif
#   From: 2010.05.17/outbox.cif.g08.bks.cpg/sg2_4_cif.got.tgz:7452.got - 2010.06.03 11:33:40.
