data_PCOD9003299
_publ_section_title
;
Structure prediction by ZEFSAII (Michael W. Deem and Ramdas Pophale) SiO2 
 PCOD9003299
Probable space group: P -1
;
_chemical_formula_sum "Si O2"
_cell_formula_units_Z 12
_cell_length_a 15.095048
_cell_length_b 13.940046
_cell_length_c 5.364865
_cell_angle_alpha 79.231181
_cell_angle_beta 73.114047
_cell_angle_gamma 141.030658
_cell_volume 494.462059
_symmetry_space_group_name_H-M "P -1"
_symmetry_group_IT_number 2
_symmetry_cell_setting 'triclinic'
loop_
_space_group_symop_operation_xyz
x,y,z
-x,-y,-z
loop_
_atom_site_type_symbol
_atom_site_label
_atom_site_fract_x
_atom_site_fract_y
_atom_site_fract_z
Si Si1 0.514253 0.419477 0.272943
Si Si2 0.611934 0.871978 0.181173
Si Si3 0.731038 0.480388 0.699688
Si Si4 0.817307 0.756583 0.263738
Si Si5 0.906721 0.288538 0.523858
Si Si6 0.710271 0.143139 0.252937
O O1 0.401871 0.252358 0.665717
O O2 0.711772 0.644432 0.136523
O O3 0.354934 0.353830 0.373069
O O4 0.578282 0.398898 0.032297
O O5 0.398190 0.694903 0.317956
O O6 0.655150 0.978184 0.334716
O O7 0.777498 0.066818 0.762970
O O8 0.859063 0.686027 0.361856
O O9 0.868568 0.537281 0.716927
O O10 0.000000 0.000000 0.000000
O O11 0.837179 0.272844 0.334765
O O12 0.834796 0.280126 0.832730
O O13 0.500000 0.000000 0.500000
#
# Coordination Sequence:
#
# PCOD9003299 Si02
#       6
#     2   2   2   2   2   2
#     4  10  21  37  59  87 131 163 219 259 315 367
#     4   9  22  38  64  90 127 168 212 259 320 373
#     4  11  22  38  62  94 126 169 217 265 314 381
#     4  10  22  37  57  88 126 172 215 260 314 372
#     4  10  23  39  68  94 128 168 211 261 323 378
#     4  10  22  44  68  95 129 166 211 264 322 385
#
# _framework density 24.268799999999999
#
# number of rings (size 3 to 8) (size 9 to 14) (size 15 to 20)
#    1.000    1.000    0.000    3.000    4.667    2.000 
#    0.000    1.667    0.000    0.000    0.000    0.000 
#    0.000    0.000    0.000    0.000    0.000    0.000 
#
# Total GULP energy -67032.072168 kJ/mol
# GULP energy per Si atom -5586.006014 kJ/mol
# Density = 2.421356 g / cm^3
# Si number density = 24.268800 Si / 1000 Ang^3
#
#
#
# Elastic Constant Matrix: (Units=GPa)
#
#
# Indices 1 2 3 4 5 6 
#
# 1 99.8986 41.2348 20.3501 3.5229 -16.0727 29.8520
# 2 41.2348 78.3977 37.1102 13.4732 6.2069 24.1646
# 3 20.3501 37.1102 69.8188 7.7020 -4.4791 11.7279
# 4 3.5229 13.4732 7.7020 46.0471 -8.5204 12.0987
# 5 -16.0727 6.2069 -4.4791 -8.5204 35.0492 -11.0744
# 6 29.8520 24.1646 11.7279 12.0987 -11.0744 44.6122
#
#
#
# Elastic Compliance Matrix: (Units=1/GPa)
#
#
# Indices 1 2 3 4 5 6 
#
# 1 0.016226 -0.008628 0.000854 0.004119 0.008356 -0.005451
# 2 -0.008628 0.026923 -0.010718 -0.005955 -0.014025 -0.007859
# 3 0.000854 -0.010718 0.019861 0.000411 0.005313 0.001220
# 4 0.004119 -0.005955 0.000411 0.025746 0.007772 -0.004692
# 5 0.008356 -0.014025 0.005313 0.007772 0.040086 0.008451
# 6 -0.005451 -0.007859 0.001220 -0.004692 0.008451 0.033369
#
#
# Mechanical properties :
#
#
# Convention : Reuss Voigt Hill
#
# Bulk Modulus (GPa) = 38.42299 49.50061 43.96180
# Shear Modulus (GPa) = 24.05350 35.10305 29.57828
#
# Velocity S-wave (km/s) = 3.15163 3.80732 3.49489
# Velocity P-wave (km/s) = 5.39540 6.30624 5.86852
#
# Compressibility (1/GPa) = 0.02602609
#
# Stress axis : x y z
#
# Youngs Moduli (GPa) = 61.63131 37.14303 50.34904
#
# Poissons Ratio (x) = 0.32045 -0.04299
# Poissons Ratio (y) = 0.53173 0.53965
# Poissons Ratio (z) = -0.05263 0.39811
#
# Static dielectric constant tensor:
#      x y z
#    x 1.949810 -0.002980 0.082710 
#    y -0.002980 1.930950 0.037530 
#    z 0.082710 0.037530 2.026870 
# 
# From -- ./inp_files/8290.got.cif
#   From: 2010.05.17/outbox.cif.g08.bks.cpg/sg2_5_cif.got.tgz:8290.got - 2010.06.03 11:33:40.
