data_PCOD9003550
_publ_section_title
;
Structure prediction by ZEFSAII (Michael W. Deem and Ramdas Pophale) SiO2 
 PCOD9003550
Probable space group: P -1
;
_chemical_formula_sum "Si O2"
_cell_formula_units_Z 14
_cell_length_a 11.454281
_cell_length_b 15.202206
_cell_length_c 20.428775
_cell_angle_alpha 17.839205
_cell_angle_beta 142.575748
_cell_angle_gamma 133.847018
_cell_volume 622.880878
_symmetry_space_group_name_H-M "P -1"
_symmetry_group_IT_number 2
_symmetry_cell_setting 'triclinic'
loop_
_space_group_symop_operation_xyz
x,y,z
-x,-y,-z
loop_
_atom_site_type_symbol
_atom_site_label
_atom_site_fract_x
_atom_site_fract_y
_atom_site_fract_z
Si Si1 0.537152 0.429128 0.677788
Si Si2 0.852213 0.171931 0.708619
Si Si3 0.778257 0.830561 0.465052
Si Si4 0.736517 0.953213 0.211146
Si Si5 0.531064 0.568820 0.055789
Si Si6 0.134600 0.457957 0.672351
Si Si7 0.211857 0.409338 0.969611
O O1 0.338411 0.710999 0.411034
O O2 0.678511 0.564843 0.602465
O O3 0.446474 0.188013 0.775748
O O4 0.662740 0.259803 0.917825
O O5 0.821844 0.438582 0.452946
O O6 0.062303 0.163483 0.842896
O O7 0.846384 0.879884 0.874016
O O8 0.783136 0.970888 0.295844
O O9 0.633917 0.091604 0.261989
O O10 0.001966 0.672641 0.705586
O O11 0.938709 0.717102 0.434094
O O12 0.686443 0.498582 0.114368
O O13 0.668176 0.569838 0.178244
O O14 0.388557 0.358894 0.138036
#
# Coordination Sequence:
#
# PCOD9003550 Si02
#       7
#     2   2   2   2   2   2   2
#     4  10  21  37  60  95 131 164 208 261 317 378
#     4  10  21  40  65  93 127 165 209 263 317 375
#     4  12  22  40  66  90 123 172 209 262 315 378
#     4  10  21  37  60  95 131 164 208 261 317 378
#     4  11  24  42  63  90 127 167 210 261 313 374
#     4  10  21  40  65  93 127 165 209 263 317 375
#     4  11  24  42  63  90 127 167 210 261 313 374
#
# _framework density 22.476206999999999
#
# number of rings (size 3 to 8) (size 9 to 14) (size 15 to 20)
#    0.000    1.429    2.857    2.571    0.000    5.714 
#    0.000    0.000    0.000    4.286    0.000    0.000 
#    0.000    0.000    0.000    0.000    0.000    0.000 
#
# Total GULP energy -78236.196990 kJ/mol
# GULP energy per Si atom -5588.299785 kJ/mol
# Density = 2.242505 g / cm^3
# Si number density = 22.476207 Si / 1000 Ang^3
#
#
#
# Elastic Constant Matrix: (Units=GPa)
#
#
# Indices 1 2 3 4 5 6 
#
# 1 57.5739 -8.1059 9.4540 15.6877 5.8375 -0.2897
# 2 -8.1059 271.1336 65.8576 -20.0610 -0.3313 100.4975
# 3 9.4540 65.8576 77.7717 3.4887 12.9614 27.8181
# 4 15.6877 -20.0610 3.4887 52.4353 0.2081 -24.0091
# 5 5.8375 -0.3313 12.9614 0.2081 35.6887 2.6308
# 6 -0.2897 100.4975 27.8181 -24.0091 2.6308 83.5739
#
#
#
# Elastic Compliance Matrix: (Units=1/GPa)
#
#
# Indices 1 2 3 4 5 6 
#
# 1 0.019990 0.001834 -0.002159 -0.006614 -0.002190 -0.003249
# 2 0.001834 0.007732 -0.004050 -0.001143 0.001864 -0.008331
# 3 -0.002159 -0.004050 0.018409 -0.002986 -0.006211 -0.001927
# 4 -0.006614 -0.001143 -0.002986 0.025172 0.001306 0.009536
# 5 -0.002190 0.001864 -0.006211 0.001306 0.030701 -0.000772
# 6 -0.003249 -0.008331 -0.001927 0.009536 -0.000772 0.025377
#
#
# Mechanical properties :
#
#
# Convention : Reuss Voigt Hill
#
# Bulk Modulus (GPa) = 26.75252 60.09896 43.42574
# Shear Modulus (GPa) = 33.64935 56.95783 45.30359
#
# Velocity S-wave (km/s) = 3.87345 5.03948 4.49444
# Velocity P-wave (km/s) = 5.65095 7.78838 6.80412
#
# Compressibility (1/GPa) = 0.03737965
#
# Stress axis : x y z
#
# Youngs Moduli (GPa) = 50.02575 129.32599 54.32222
#
# Poissons Ratio (x) = -0.23722 0.11731
# Poissons Ratio (y) = -0.09176 0.22002
# Poissons Ratio (z) = 0.10803 0.52382
#
# Static dielectric constant tensor:
#      x y z
#    x 1.798800 -0.011920 -0.000180 
#    y -0.011920 1.951570 0.006420 
#    z -0.000180 0.006420 1.831190 
# 
# From -- ./inp_files/187566.got.cif
#   From: 2010.05.17/outbox.cif.g08.bks.cpg/sg2_94_cif.got.tgz:187566.got - 2010.06.03 11:33:40.
