data_PCOD9003744
_publ_section_title
;
Structure prediction by ZEFSAII (Michael W. Deem and Ramdas Pophale) SiO2 
 PCOD9003744
Probable space group: P -1
;
_chemical_formula_sum "Si O2"
_cell_formula_units_Z 16
_cell_length_a 9.111443
_cell_length_b 14.610246
_cell_length_c 9.069719
_cell_angle_alpha 117.009194
_cell_angle_beta 105.281916
_cell_angle_gamma 54.336090
_cell_volume 873.937613
_symmetry_space_group_name_H-M "P -1"
_symmetry_group_IT_number 2
_symmetry_cell_setting 'triclinic'
loop_
_space_group_symop_operation_xyz
x,y,z
-x,-y,-z
loop_
_atom_site_type_symbol
_atom_site_label
_atom_site_fract_x
_atom_site_fract_y
_atom_site_fract_z
Si Si1 0.996570 0.182203 0.906482
Si Si2 0.373125 0.949013 0.918980
Si Si3 0.792952 0.301615 0.648626
Si Si4 0.058544 0.592497 0.753833
Si Si5 0.351355 0.787027 0.018923
Si Si6 0.547743 0.591258 0.154568
Si Si7 0.195158 0.510158 0.409772
Si Si8 0.412502 0.718059 0.663744
O O1 0.945440 0.223153 0.752646
O O2 0.834016 0.173095 0.921811
O O3 0.182017 0.055438 0.885234
O O4 0.996308 0.286933 0.080040
O O5 0.447442 0.827818 0.750852
O O6 0.500000 0.000000 0.000000
O O7 0.355181 0.900117 0.038025
O O8 0.603792 0.348816 0.716070
O O9 0.812583 0.409256 0.670180
O O10 0.761634 0.245165 0.452856
O O11 0.248769 0.484307 0.791599
O O12 0.101362 0.591966 0.590742
O O13 0.908269 0.558420 0.700681
O O14 0.508752 0.695974 0.104502
O O15 0.370456 0.712011 0.820335
O O16 0.500000 0.500000 0.000000
O O17 0.406088 0.408942 0.420787
#
# Coordination Sequence:
#
# PCOD9003744 Si02
#       8
#     2   2   2   2   2   2   2   2
#     4  11  22  39  58  88 113 152 199 235 281 340
#     4  10  23  40  61  83 114 154 198 239 281 342
#     4  11  22  34  62  86 118 147 193 245 285 345
#     4  11  23  36  59  83 127 151 189 238 292 348
#     4   9  21  36  62  84 109 153 192 237 280 338
#     4  11  19  37  58  90 114 151 193 235 288 345
#     4  11  23  37  55  91 118 156 185 239 298 345
#     4  10  21  37  62  83 113 154 193 237 288 341
#
# _framework density 18.307942000000001
#
# number of rings (size 3 to 8) (size 9 to 14) (size 15 to 20)
#    0.750    0.750    3.750    3.000    0.000    2.000 
#    0.000    0.000    0.000    3.000    0.000    0.000 
#    0.000    0.000    0.000    0.000    0.000    0.000 
#
# Total GULP energy -89179.242460 kJ/mol
# GULP energy per Si atom -5573.702654 kJ/mol
# Density = 1.826627 g / cm^3
# Si number density = 18.307942 Si / 1000 Ang^3
#
#
#
# Elastic Constant Matrix: (Units=GPa)
#
#
# Indices 1 2 3 4 5 6 
#
# 1 58.2513 36.8499 15.1153 -14.3686 7.0289 17.3664
# 2 36.8499 106.6390 20.4860 -29.3748 -5.0313 15.4915
# 3 15.1153 20.4860 42.8299 -22.4990 -9.6014 14.4972
# 4 -14.3686 -29.3748 -22.4990 28.1522 2.1726 0.0567
# 5 7.0289 -5.0313 -9.6014 2.1726 19.5309 1.7305
# 6 17.3664 15.4915 14.4972 0.0567 1.7305 30.3372
#
#
#
# Elastic Compliance Matrix: (Units=1/GPa)
#
#
# Indices 1 2 3 4 5 6 
#
# 1 0.028445 -0.006510 -0.002621 0.006654 -0.012970 -0.010979
# 2 -0.006510 0.019080 0.015840 0.028257 0.013177 -0.014390
# 3 -0.002621 0.015840 0.085102 0.080033 0.042371 -0.049822
# 4 0.006654 0.028257 0.080033 0.129781 0.034995 -0.058722
# 5 -0.012970 0.013177 0.042371 0.034995 0.078334 -0.024086
# 6 -0.010979 -0.014390 -0.049822 -0.058722 -0.024086 0.071888
#
#
# Mechanical properties :
#
#
# Convention : Reuss Voigt Hill
#
# Bulk Modulus (GPa) = 6.84722 39.18029 23.01375
# Shear Modulus (GPa) = 11.16340 24.62199 17.89269
#
# Velocity S-wave (km/s) = 2.47200 3.67124 3.12960
# Velocity P-wave (km/s) = 3.44904 6.27836 5.06526
#
# Compressibility (1/GPa) = 0.14604461
#
# Stress axis : x y z
#
# Youngs Moduli (GPa) = 35.15602 52.41104 11.75066
#
# Poissons Ratio (x) = 0.34119 0.03079
# Poissons Ratio (y) = 0.22886 -0.18613
# Poissons Ratio (z) = 0.09213 -0.83018
#
# Static dielectric constant tensor:
#      x y z
#    x 1.609790 0.011150 -0.021960 
#    y 0.011150 1.627650 -0.012170 
#    z -0.021960 -0.012170 1.806240 
# 
# From -- ./inp_files/203209.got.cif
#   From: 2010.05.17/outbox.cif.g08.bks.cpg/sg2_102_cif.got.tgz:203209.got - 2010.06.03 11:33:40.
