data_PCOD9003429
_publ_section_title
;
Structure prediction by ZEFSAII (Michael W. Deem and Ramdas Pophale) SiO2 
 PCOD9003429
Probable space group: P -1
;
_chemical_formula_sum "Si O2"
_cell_formula_units_Z 14
_cell_length_a 23.665046
_cell_length_b 17.412857
_cell_length_c 13.273138
_cell_angle_alpha 156.850493
_cell_angle_beta 22.313839
_cell_angle_gamma 157.174411
_cell_volume 717.952939
_symmetry_space_group_name_H-M "P -1"
_symmetry_group_IT_number 2
_symmetry_cell_setting 'triclinic'
loop_
_space_group_symop_operation_xyz
x,y,z
-x,-y,-z
loop_
_atom_site_type_symbol
_atom_site_label
_atom_site_fract_x
_atom_site_fract_y
_atom_site_fract_z
Si Si1 0.052241 0.645680 0.218305
Si Si2 0.084359 0.844209 0.201600
Si Si3 0.952449 0.411593 0.619495
Si Si4 0.779869 0.753019 0.846694
Si Si5 0.393295 0.092228 0.849063
Si Si6 0.045867 0.210522 0.049358
Si Si7 0.310597 0.466356 0.071032
O O1 0.130887 0.833659 0.229444
O O2 0.118144 0.689075 0.276974
O O3 0.858919 0.605480 0.493818
O O4 0.044260 0.414126 0.921265
O O5 0.000000 0.000000 0.500000
O O6 0.248553 0.922526 0.955715
O O7 0.912138 0.602756 0.879293
O O8 0.158166 0.522556 0.418677
O O9 0.921940 0.241909 0.373177
O O10 0.661429 0.636113 0.996353
O O11 0.697140 0.830735 0.992240
O O12 0.944273 0.967845 0.879927
O O13 0.524582 0.309747 0.956642
O O14 0.500000 0.000000 0.500000
O O15 0.217115 0.282189 0.916888
#
# Coordination Sequence:
#
# PCOD9003429 Si02
#       7
#     2   2   2   2   2   2   2
#     4  10  21  37  60  87 114 154 217 239 278 362
#     4  11  23  40  59  84 123 164 199 240 299 361
#     4   8  17  32  56  84 115 150 200 244 287 346
#     4  11  19  34  59  91 120 157 194 252 294 354
#     4  12  23  36  59  88 123 155 193 253 313 339
#     4   9  17  31  57  87 120 153 197 245 294 347
#     4   9  19  31  49  86 120 145 187 248 297 341
#
# _framework density 19.499886
#
# number of rings (size 3 to 8) (size 9 to 14) (size 15 to 20)
#    0.857    1.143    1.429    4.286    0.000    0.000 
#    0.000    0.000    0.000    1.714    0.000    0.000 
#    0.000    0.000    0.000    0.000    0.000    0.000 
#
# Total GULP energy -77942.899868 kJ/mol
# GULP energy per Si atom -5567.349991 kJ/mol
# Density = 1.945550 g / cm^3
# Si number density = 19.499886 Si / 1000 Ang^3
#
#
#
# Elastic Constant Matrix: (Units=GPa)
#
#
# Indices 1 2 3 4 5 6 
#
# 1 92.7016 34.3536 18.8639 2.1648 -2.3363 -32.1982
# 2 34.3536 75.9409 20.5570 5.0098 1.1673 -12.1267
# 3 18.8639 20.5570 66.4972 14.0034 2.0883 -13.7331
# 4 2.1648 5.0098 14.0034 26.2935 -3.5580 3.1729
# 5 -2.3363 1.1673 2.0883 -3.5580 16.7115 9.2108
# 6 -32.1982 -12.1267 -13.7331 3.1729 9.2108 43.7472
#
#
#
# Elastic Compliance Matrix: (Units=1/GPa)
#
#
# Indices 1 2 3 4 5 6 
#
# 1 0.016967 -0.005531 0.000037 -0.002417 -0.004414 0.012071
# 2 -0.005531 0.016661 -0.003274 -0.001214 -0.001776 -0.000018
# 3 0.000037 -0.003274 0.020855 -0.012874 -0.009900 0.008685
# 4 -0.002417 -0.001214 -0.012874 0.049643 0.019574 -0.013879
# 5 -0.004414 -0.001776 -0.009900 0.019574 0.078407 -0.024777
# 6 0.012071 -0.000018 0.008685 -0.013879 -0.024777 0.040688
#
#
# Mechanical properties :
#
#
# Convention : Reuss Voigt Hill
#
# Bulk Modulus (GPa) = 27.06475 42.52097 34.79286
# Shear Modulus (GPa) = 19.75719 28.10812 23.93266
#
# Velocity S-wave (km/s) = 3.18653 3.80076 3.50712
# Velocity P-wave (km/s) = 5.23910 6.41203 5.85501
#
# Compressibility (1/GPa) = 0.03694843
#
# Stress axis : x y z
#
# Youngs Moduli (GPa) = 58.93719 60.02117 47.94904
#
# Poissons Ratio (x) = 0.33196 -0.00178
# Poissons Ratio (y) = 0.32596 0.15698
# Poissons Ratio (z) = -0.00218 0.19651
#
# Static dielectric constant tensor:
#      x y z
#    x 1.744270 -0.016640 0.030330 
#    y -0.016640 1.693140 0.026360 
#    z 0.030330 0.026360 1.715620 
# 
# From -- ./inp_files/544345.got.cif
#   From: 2010.05.17/outbox.cif.g08.bks.cpg/sg2_273_cif.got.tgz:544345.got - 2010.06.03 11:33:40.
