data_PCOD9003416
_publ_section_title
;
Structure prediction by ZEFSAII (Michael W. Deem and Ramdas Pophale) SiO2 
 PCOD9003416
Probable space group: P -1
;
_chemical_formula_sum "Si O2"
_cell_formula_units_Z 14
_cell_length_a 14.841779
_cell_length_b 7.502943
_cell_length_c 14.495764
_cell_angle_alpha 113.236102
_cell_angle_beta 151.406008
_cell_angle_gamma 83.486412
_cell_volume 602.108425
_symmetry_space_group_name_H-M "P -1"
_symmetry_group_IT_number 2
_symmetry_cell_setting 'triclinic'
loop_
_space_group_symop_operation_xyz
x,y,z
-x,-y,-z
loop_
_atom_site_type_symbol
_atom_site_label
_atom_site_fract_x
_atom_site_fract_y
_atom_site_fract_z
Si Si1 0.733000 0.489065 0.189990
Si Si2 0.272635 0.098899 0.677736
Si Si3 0.069628 0.842834 0.274781
Si Si4 0.997880 0.606672 0.825826
Si Si5 0.200749 0.614884 0.573383
Si Si6 0.468669 0.049667 0.376178
Si Si7 0.825735 0.772905 0.853653
O O1 0.781314 0.744859 0.274847
O O2 0.685402 0.413880 0.240273
O O3 0.945824 0.491959 0.349702
O O4 0.519145 0.291592 0.906327
O O5 0.109407 0.016588 0.426916
O O6 0.276696 0.879199 0.674230
O O7 0.313777 0.905726 0.472311
O O8 0.957046 0.596221 0.169728
O O9 0.918509 0.819047 0.049332
O O10 0.819786 0.527545 0.566118
O O11 0.874774 0.601179 0.808687
O O12 0.238285 0.838043 0.084189
O O13 0.408907 0.246277 0.365807
O O14 0.500000 0.000000 0.500000
O O15 0.000000 0.000000 0.000000
#
# Coordination Sequence:
#
# PCOD9003416 Si02
#       7
#     2   2   2   2   2   2   2
#     4  10  21  38  63  87 117 156 195 242 304 349
#     4  10  22  38  61  88 120 153 197 244 297 357
#     4  11  22  41  60  86 124 155 194 251 292 350
#     4  10  22  39  59  88 122 154 199 244 295 353
#     4  10  21  38  62  88 119 154 196 246 292 357
#     4  11  22  37  59  83 118 159 197 241 290 348
#     4  10  21  37  60  86 117 157 198 239 292 356
#
# _framework density 23.251626999999999
#
# number of rings (size 3 to 8) (size 9 to 14) (size 15 to 20)
#    0.000    1.714    2.857    2.143    4.000    0.571 
#    0.000    0.000   12.571    0.000    0.000    0.000 
#    0.000    0.000    0.000    0.000    0.000    0.000 
#
# Total GULP energy -78106.449689 kJ/mol
# GULP energy per Si atom -5579.032121 kJ/mol
# Density = 2.319870 g / cm^3
# Si number density = 23.251627 Si / 1000 Ang^3
#
#
#
# Elastic Constant Matrix: (Units=GPa)
#
#
# Indices 1 2 3 4 5 6 
#
# 1 39.0637 0.1989 22.4416 -3.6158 -13.7566 4.2090
# 2 0.1989 68.0162 36.2298 1.5992 -19.8531 8.7588
# 3 22.4416 36.2298 59.9482 -0.1892 -24.1085 -9.6048
# 4 -3.6158 1.5992 -0.1892 40.9578 -6.6514 1.9737
# 5 -13.7566 -19.8531 -24.1085 -6.6514 41.0364 -7.6979
# 6 4.2090 8.7588 -9.6048 1.9737 -7.6979 29.3174
#
#
#
# Elastic Compliance Matrix: (Units=1/GPa)
#
#
# Indices 1 2 3 4 5 6 
#
# 1 0.049767 0.022415 -0.034813 0.005079 0.003259 -0.024733
# 2 0.022415 0.036108 -0.033998 0.001716 0.000578 -0.025107
# 3 -0.034813 -0.033998 0.063378 -0.000706 0.016564 0.040315
# 4 0.005079 0.001716 -0.000706 0.025847 0.006000 -0.001638
# 5 0.003259 0.000578 0.016564 0.006000 0.039197 0.014674
# 6 -0.024733 -0.025107 0.040315 -0.001638 0.014674 0.062333
#
#
# Mechanical properties :
#
#
# Convention : Reuss Voigt Hill
#
# Bulk Modulus (GPa) = 17.71105 31.64098 24.67602
# Shear Modulus (GPa) = 12.87858 29.47282 21.17570
#
# Velocity S-wave (km/s) = 2.35602 3.56414 3.02109
# Velocity P-wave (km/s) = 3.87747 5.52948 4.77545
#
# Compressibility (1/GPa) = 0.05646193
#
# Stress axis : x y z
#
# Youngs Moduli (GPa) = 20.09349 27.69496 15.77831
#
# Poissons Ratio (x) = -0.62078 0.54929
# Poissons Ratio (y) = -0.45039 0.53642
# Poissons Ratio (z) = 0.69951 0.94156
#
# Static dielectric constant tensor:
#      x y z
#    x 1.489520 0.144590 0.475820 
#    y 0.144590 1.871450 -0.160460 
#    z 0.475820 -0.160460 1.312330 
# 
# From -- ./inp_files/195965.got.cif
#   From: 2010.05.17/outbox.cif.g08.bks.cpg/sg2_98_cif.got.tgz:195965.got - 2010.06.03 11:33:40.
