data_PCOD9003575
_publ_section_title
;
Structure prediction by ZEFSAII (Michael W. Deem and Ramdas Pophale) SiO2 
 PCOD9003575
Probable space group: P -1
;
_chemical_formula_sum "Si O2"
_cell_formula_units_Z 14
_cell_length_a 11.654074
_cell_length_b 8.088830
_cell_length_c 9.095452
_cell_angle_alpha 92.354164
_cell_angle_beta 51.633823
_cell_angle_gamma 125.125989
_cell_volume 478.418491
_symmetry_space_group_name_H-M "P -1"
_symmetry_group_IT_number 2
_symmetry_cell_setting 'triclinic'
loop_
_space_group_symop_operation_xyz
x,y,z
-x,-y,-z
loop_
_atom_site_type_symbol
_atom_site_label
_atom_site_fract_x
_atom_site_fract_y
_atom_site_fract_z
Si Si1 0.770599 0.270393 0.377468
Si Si2 0.853155 0.134190 0.565652
Si Si3 0.921193 0.845104 0.367678
Si Si4 0.362882 0.681869 0.961124
Si Si5 0.691533 0.047671 0.155130
Si Si6 0.709368 0.573789 0.275786
Si Si7 0.549425 0.406355 0.832031
O O1 0.889303 0.315112 0.433054
O O2 0.536480 0.081205 0.613764
O O3 0.763936 0.440311 0.306258
O O4 0.813844 0.166071 0.214504
O O5 0.930499 0.166190 0.670002
O O6 0.958488 0.060111 0.398355
O O7 0.609124 0.905728 0.758891
O O8 0.892423 0.820863 0.215239
O O9 0.706197 0.612384 0.602471
O O10 0.310699 0.491913 0.881342
O O11 0.251625 0.755324 0.988646
O O12 0.337256 0.638057 0.154527
O O13 0.638614 0.832869 0.110344
O O14 0.500000 0.500000 0.500000
O O15 0.500000 0.500000 0.000000
#
# Coordination Sequence:
#
# PCOD9003575 Si02
#       7
#     2   2   2   2   2   2   2
#     4   9  19  35  61  86 115 152 199 243 291 339
#     4  10  21  39  56  85 122 158 190 243 298 350
#     4  11  23  36  60  86 122 151 202 244 287 345
#     4  10  21  37  61  82 120 149 195 240 300 344
#     4   9  19  34  57  88 112 150 196 242 288 345
#     4  11  19  36  60  91 111 152 202 247 274 348
#     4  12  21  35  57  90 118 152 194 247 288 346
#
# _framework density 29.263085
#
# number of rings (size 3 to 8) (size 9 to 14) (size 15 to 20)
#    0.000    1.714    4.286    1.286    0.000    0.571 
#    0.000    0.000    3.143    4.286    0.000    0.000 
#    0.000    0.000    0.000    0.000    0.000    0.000 
#
# Total GULP energy -78316.249749 kJ/mol
# GULP energy per Si atom -5594.017839 kJ/mol
# Density = 2.919648 g / cm^3
# Si number density = 29.263085 Si / 1000 Ang^3
#
#
#
# Elastic Constant Matrix: (Units=GPa)
#
#
# Indices 1 2 3 4 5 6 
#
# 1 155.1920 39.5697 36.8392 11.8246 20.9194 12.5328
# 2 39.5697 108.9754 54.1106 42.4011 -12.4211 -0.8872
# 3 36.8392 54.1106 126.2024 32.7712 -0.7548 -4.2448
# 4 11.8246 42.4011 32.7712 66.5300 -9.4790 7.1672
# 5 20.9194 -12.4211 -0.7548 -9.4790 31.2293 1.3998
# 6 12.5328 -0.8872 -4.2448 7.1672 1.3998 61.9691
#
#
#
# Elastic Compliance Matrix: (Units=1/GPa)
#
#
# Indices 1 2 3 4 5 6 
#
# 1 0.008702 -0.003560 -0.001254 0.000532 -0.007033 -0.001799
# 2 -0.003560 0.015762 -0.003892 -0.006716 0.006463 0.001310
# 3 -0.001254 -0.003892 0.010756 -0.002934 -0.001397 0.001306
# 4 0.000532 -0.006716 -0.002934 0.021489 0.003557 -0.002970
# 5 -0.007033 0.006463 -0.001397 0.003557 0.040345 0.000097
# 6 -0.001799 0.001310 0.001306 -0.002970 0.000097 0.016951
#
#
# Mechanical properties :
#
#
# Convention : Reuss Voigt Hill
#
# Bulk Modulus (GPa) = 56.15885 72.37877 64.26881
# Shear Modulus (GPa) = 36.40228 49.26904 42.83566
#
# Velocity S-wave (km/s) = 3.53082 4.10769 3.83013
# Velocity P-wave (km/s) = 5.98790 6.87641 6.44748
#
# Compressibility (1/GPa) = 0.01780663
#
# Stress axis : x y z
#
# Youngs Moduli (GPa) = 114.91576 63.44301 92.96800
#
# Poissons Ratio (x) = 0.22587 0.11662
# Poissons Ratio (y) = 0.40913 0.36186
# Poissons Ratio (z) = 0.14415 0.24694
#
# Static dielectric constant tensor:
#      x y z
#    x 2.396890 -0.100050 -0.063620 
#    y -0.100050 2.526150 0.061520 
#    z -0.063620 0.061520 2.314940 
# 
# From -- ./inp_files/239642.got.cif
#   From: 2010.05.17/outbox.cif.g08.bks.cpg/sg2_120_cif.got.tgz:239642.got - 2010.06.03 11:33:40.
