data_PCOD9003268
_publ_section_title
;
Structure prediction by ZEFSAII (Michael W. Deem and Ramdas Pophale) SiO2 
 PCOD9003268
Probable space group: P -1
;
_chemical_formula_sum "Si O2"
_cell_formula_units_Z 12
_cell_length_a 21.721966
_cell_length_b 5.292522
_cell_length_c 5.187303
_cell_angle_alpha 122.254515
_cell_angle_beta 81.613275
_cell_angle_gamma 90.268008
_cell_volume 497.022729
_symmetry_space_group_name_H-M "P -1"
_symmetry_group_IT_number 2
_symmetry_cell_setting 'triclinic'
loop_
_space_group_symop_operation_xyz
x,y,z
-x,-y,-z
loop_
_atom_site_type_symbol
_atom_site_label
_atom_site_fract_x
_atom_site_fract_y
_atom_site_fract_z
Si Si1 0.884225 0.119933 0.800064
Si Si2 0.428716 0.617824 0.175597
Si Si3 0.691051 0.642152 0.750499
Si Si4 0.261671 0.711238 0.966410
Si Si5 0.455434 0.798893 0.761586
Si Si6 0.930114 0.433710 0.432888
O O1 0.813204 0.237035 0.968636
O O2 0.903224 0.246525 0.580984
O O3 0.892305 0.759349 0.601358
O O4 0.926190 0.249820 0.070178
O O5 0.383538 0.383852 0.187248
O O6 0.429526 0.876504 0.533822
O O7 0.500000 0.500000 0.000000
O O8 0.405570 0.721941 0.963908
O O9 0.720138 0.418926 0.832913
O O10 0.713060 0.970192 0.944367
O O11 0.712764 0.522911 0.393468
O O12 0.500000 0.500000 0.500000
O O13 0.500000 0.000000 0.000000
O O14 0.000000 0.500000 0.500000
#
# Coordination Sequence:
#
# PCOD9003268 Si02
#       6
#     2   2   2   2   2   2
#     4  12  24  44  71 100 145 192 232 285 343 406
#     4  10  23  42  66  96 130 172 217 285 363 420
#     4  12  27  46  71 102 138 178 240 297 342 422
#     4  12  26  47  70 102 138 189 239 285 342 406
#     4  10  21  37  59  86 120 159 204 254 329 422
#     4  12  25  44  72 110 145 184 232 286 343 406
#
# _framework density 24.143768999999999
#
# number of rings (size 3 to 8) (size 9 to 14) (size 15 to 20)
#    0.000    0.667    0.000    8.000    0.000    8.000 
#    0.000    0.000    0.000    0.000    0.000    0.000 
#    0.000    0.000    0.000    0.000    0.000    0.000 
#
# Total GULP energy -67194.782960 kJ/mol
# GULP energy per Si atom -5599.565247 kJ/mol
# Density = 2.408882 g / cm^3
# Si number density = 24.143769 Si / 1000 Ang^3
#
#
#
# Elastic Constant Matrix: (Units=GPa)
#
#
# Indices 1 2 3 4 5 6 
#
# 1 81.2614 5.4146 -32.1016 -1.1495 -8.3805 5.5940
# 2 5.4146 128.8070 20.8648 -17.7959 6.8658 -10.0049
# 3 -32.1016 20.8648 116.3177 -14.0161 16.1821 -15.5489
# 4 -1.1495 -17.7959 -14.0161 49.6199 4.5392 4.1183
# 5 -8.3805 6.8658 16.1821 4.5392 32.6430 -6.8995
# 6 5.5940 -10.0049 -15.5489 4.1183 -6.8995 35.0992
#
#
#
# Elastic Compliance Matrix: (Units=1/GPa)
#
#
# Indices 1 2 3 4 5 6 
#
# 1 0.014169 -0.001249 0.003918 0.000886 0.001698 -0.000649
# 2 -0.001249 0.008583 -0.001124 0.002757 -0.001634 0.001503
# 3 0.003918 -0.001124 0.011195 0.002990 -0.004120 0.002854
# 4 0.000886 0.002757 0.002990 0.022641 -0.005351 -0.001739
# 5 0.001698 -0.001634 -0.004120 -0.005351 0.035257 0.004997
# 6 -0.000649 0.001503 0.002854 -0.001739 0.004997 0.031473
#
#
# Mechanical properties :
#
#
# Convention : Reuss Voigt Hill
#
# Bulk Modulus (GPa) = 26.99884 34.97129 30.98507
# Shear Modulus (GPa) = 37.71523 45.61962 41.66743
#
# Velocity S-wave (km/s) = 3.95664 4.35155 4.15879
# Velocity P-wave (km/s) = 5.66393 6.30587 5.99351
#
# Compressibility (1/GPa) = 0.03703863
#
# Stress axis : x y z
#
# Youngs Moduli (GPa) = 70.57487 116.51221 89.32504
#
# Poissons Ratio (x) = 0.14551 -0.35000
# Poissons Ratio (y) = 0.08814 0.10038
# Poissons Ratio (z) = -0.27654 0.13093
#
# Static dielectric constant tensor:
#      x y z
#    x 2.020960 -0.175690 0.012190 
#    y -0.175690 2.323010 0.066950 
#    z 0.012190 0.066950 1.942930 
# 
# From -- ./inp_files/114360.got.cif
#   From: 2010.05.17/outbox.cif.g08.bks.cpg/sg2_58_cif.got.tgz:114360.got - 2010.06.03 11:33:40.
