data_PCOD9003524
_publ_section_title
;
Structure prediction by ZEFSAII (Michael W. Deem and Ramdas Pophale) SiO2 
 PCOD9003524
Probable space group: P -1
;
_chemical_formula_sum "Si O2"
_cell_formula_units_Z 12
_cell_length_a 25.527676
_cell_length_b 5.651499
_cell_length_c 4.916673
_cell_angle_alpha 97.391120
_cell_angle_beta 114.381893
_cell_angle_gamma 51.767200
_cell_volume 499.447464
_symmetry_space_group_name_H-M "P -1"
_symmetry_group_IT_number 2
_symmetry_cell_setting 'triclinic'
loop_
_space_group_symop_operation_xyz
x,y,z
-x,-y,-z
loop_
_atom_site_type_symbol
_atom_site_label
_atom_site_fract_x
_atom_site_fract_y
_atom_site_fract_z
Si Si1 0.161105 0.296420 0.741148
Si Si2 0.586675 0.768132 0.232464
Si Si3 0.281436 0.592904 0.920559
Si Si4 0.914808 0.686943 0.905307
Si Si5 0.205654 0.608418 0.274438
Si Si6 0.444496 0.634609 0.649620
O O1 0.244456 0.483449 0.631384
O O2 0.234566 0.950063 0.798844
O O3 0.103616 0.306665 0.817317
O O4 0.183701 0.450436 0.010022
O O5 0.636590 0.602993 0.048302
O O6 0.596254 0.511431 0.409152
O O7 0.601357 0.999892 0.406409
O O8 0.500000 0.000000 0.000000
O O9 0.262970 0.599979 0.197100
O O10 0.880655 0.571173 0.616001
O O11 0.866922 0.044312 0.782207
O O12 0.000000 0.500000 0.000000
O O13 0.500000 0.500000 0.500000
O O14 0.500000 0.500000 0.000000
#
# Coordination Sequence:
#
# PCOD9003524 Si02
#       6
#     2   2   2   2   2   2
#     4  10  21  39  60  85 125 161 201 252 308 374
#     4  10  23  43  65  94 127 167 217 276 329 385
#     4  10  23  39  60  88 119 162 210 259 312 382
#     4  10  21  37  60  93 122 156 203 252 303 373
#     4  10  22  40  60  87 123 162 207 250 313 378
#     4  10  22  40  62  88 124 158 203 263 330 386
#
# _framework density 24.026551999999999
#
# number of rings (size 3 to 8) (size 9 to 14) (size 15 to 20)
#    0.000    2.000    0.000    2.000    2.333    6.667 
#    3.000    0.000    0.000    0.000    0.000    0.000 
#    0.000    0.000    0.000    0.000    0.000    0.000 
#
# Total GULP energy -67014.261824 kJ/mol
# GULP energy per Si atom -5584.521819 kJ/mol
# Density = 2.397187 g / cm^3
# Si number density = 24.026552 Si / 1000 Ang^3
#
#
#
# Elastic Constant Matrix: (Units=GPa)
#
#
# Indices 1 2 3 4 5 6 
#
# 1 100.2880 74.3941 8.7601 -2.5352 -0.4891 -16.3869
# 2 74.3941 141.5205 19.0336 14.1951 -0.1031 -13.3813
# 3 8.7601 19.0336 110.1973 25.0752 -8.1413 -6.4781
# 4 -2.5352 14.1951 25.0752 33.9069 2.0008 -1.5776
# 5 -0.4891 -0.1031 -8.1413 2.0008 45.8145 7.8230
# 6 -16.3869 -13.3813 -6.4781 -1.5776 7.8230 70.1304
#
#
#
# Elastic Compliance Matrix: (Units=1/GPa)
#
#
# Indices 1 2 3 4 5 6 
#
# 1 0.017719 -0.009569 -0.001099 0.006299 -0.000719 0.002435
# 2 -0.009569 0.012709 -0.000053 -0.006006 0.000174 0.000030
# 3 -0.001099 -0.000053 0.011305 -0.008542 0.002314 0.000327
# 4 0.006299 -0.006006 -0.008542 0.039026 -0.003302 0.000783
# 5 -0.000719 0.000174 0.002314 -0.003302 0.022809 -0.002540
# 6 0.002435 0.000030 0.000327 0.000783 -0.002540 0.015165
#
#
# Mechanical properties :
#
#
# Convention : Reuss Voigt Hill
#
# Bulk Modulus (GPa) = 49.28482 61.82015 55.55249
# Shear Modulus (GPa) = 34.02781 46.62489 40.32635
#
# Velocity S-wave (km/s) = 3.76740 4.40995 4.10128
# Velocity P-wave (km/s) = 6.28344 7.19139 6.75269
#
# Compressibility (1/GPa) = 0.02029022
#
# Stress axis : x y z
#
# Youngs Moduli (GPa) = 56.43622 78.68615 88.45611
#
# Poissons Ratio (x) = 0.75294 0.09723
# Poissons Ratio (y) = 0.54003 0.00471
# Poissons Ratio (z) = 0.06203 0.00419
#
# Static dielectric constant tensor:
#      x y z
#    x 2.034140 0.114410 0.035510 
#    y 0.114410 1.903170 0.001440 
#    z 0.035510 0.001440 1.961220 
# 
# From -- ./inp_files/9082.got.cif
#   From: 2010.05.17/outbox.cif.g08.bks.cpg/sg2_5_cif.got.tgz:9082.got - 2010.06.03 11:33:40.
