data_PCOD9003567
_publ_section_title
;
Structure prediction by ZEFSAII (Michael W. Deem and Ramdas Pophale) SiO2 
 PCOD9003567
Probable space group: P -1
;
_chemical_formula_sum "Si O2"
_cell_formula_units_Z 16
_cell_length_a 21.878979
_cell_length_b 5.017073
_cell_length_c 5.457619
_cell_angle_alpha 96.672662
_cell_angle_beta 80.249780
_cell_angle_gamma 83.308283
_cell_volume 580.716883
_symmetry_space_group_name_H-M "P -1"
_symmetry_group_IT_number 2
_symmetry_cell_setting 'triclinic'
loop_
_space_group_symop_operation_xyz
x,y,z
-x,-y,-z
loop_
_atom_site_type_symbol
_atom_site_label
_atom_site_fract_x
_atom_site_fract_y
_atom_site_fract_z
Si Si1 0.804898 0.088298 0.074122
Si Si2 0.430017 0.657181 0.663424
Si Si3 0.976681 0.231869 0.233405
Si Si4 0.347449 0.262036 0.397578
Si Si5 0.460442 0.802261 0.158950
Si Si6 0.099375 0.080441 0.364238
Si Si7 0.851994 0.565956 0.279255
Si Si8 0.315949 0.110526 0.900748
O O1 0.827942 0.783982 0.114808
O O2 0.735241 0.085999 0.027614
O O3 0.812612 0.317356 0.291747
O O4 0.859709 0.136018 0.856743
O O5 0.390043 0.467244 0.513273
O O6 0.479110 0.725527 0.424301
O O7 0.383023 0.933309 0.784894
O O8 0.448346 0.583505 0.930119
O O9 0.926951 0.470106 0.187315
O O10 0.041930 0.283664 0.311490
O O11 0.934935 0.088117 0.436899
O O12 0.000000 0.000000 0.000000
O O13 0.300672 0.226890 0.649233
O O14 0.393848 0.985221 0.281518
O O15 0.318826 0.313196 0.149847
O O16 0.500000 0.000000 0.000000
O O17 0.149343 0.255623 0.457850
#
# Coordination Sequence:
#
# PCOD9003567 Si02
#       8
#     2   2   2   2   2   2   2   2
#     4  12  29  45  69 100 135 173 230 290 346 418
#     4  10  21  40  65  93 132 184 227 275 345 405
#     4  11  23  47  71  98 137 174 219 276 348 430
#     4  10  22  43  66  95 131 180 233 276 346 411
#     4  10  21  37  61 101 141 173 228 283 334 408
#     4  11  25  44  72 100 132 180 218 280 350 425
#     4  12  26  48  66 103 133 170 225 279 348 421
#     4  10  25  43  65  95 128 176 227 290 339 408
#
# _framework density 27.552150000000001
#
# number of rings (size 3 to 8) (size 9 to 14) (size 15 to 20)
#    0.000    1.250    2.500    1.500    5.250    3.000 
#    0.000    0.000    0.000    0.000    0.000    0.000 
#    0.000    0.000    0.000    0.000    0.000    0.000 
#
# Total GULP energy -89430.552878 kJ/mol
# GULP energy per Si atom -5589.409555 kJ/mol
# Density = 2.748944 g / cm^3
# Si number density = 27.552150 Si / 1000 Ang^3
#
#
#
# Elastic Constant Matrix: (Units=GPa)
#
#
# Indices 1 2 3 4 5 6 
#
# 1 76.6962 8.5775 63.4220 -7.3420 4.6158 25.7434
# 2 8.5775 60.3540 62.8948 2.6333 23.7182 29.3044
# 3 63.4220 62.8948 205.8850 -3.6603 3.9096 4.1498
# 4 -7.3420 2.6333 -3.6603 46.0959 8.8331 9.2121
# 5 4.6158 23.7182 3.9096 8.8331 29.4476 -2.2015
# 6 25.7434 29.3044 4.1498 9.2121 -2.2015 44.3650
#
#
#
# Elastic Compliance Matrix: (Units=1/GPa)
#
#
# Indices 1 2 3 4 5 6 
#
# 1 -0.001347 -0.031715 0.008932 -0.007998 0.028762 0.023983
# 2 -0.031715 -0.037163 0.019050 -0.018794 0.041535 0.047132
# 3 0.008932 0.019050 -0.002779 0.008036 -0.020293 -0.020181
# 4 -0.007998 -0.018794 0.008036 0.017355 0.011109 0.013251
# 5 0.028762 0.041535 -0.020293 0.011109 -0.008001 -0.044931
# 6 0.023983 0.047132 -0.020181 0.013251 -0.044931 -0.025602
#
#
# Mechanical properties :
#
#
# Convention : Reuss Voigt Hill
#
# Bulk Modulus (GPa) = -20.51014 68.08042 23.78514
# Shear Modulus (GPa) = -75.39126 37.85110 -18.77008
#
# Velocity S-wave (km/s) = -5.23665 3.71050 -2.61292
# Velocity P-wave (km/s) = 6.63503 6.56661 0.67203
#
# Compressibility (1/GPa) = -0.04875638
#
# Stress axis : x y z
#
# Youngs Moduli (GPa) = -742.27968 -26.90884 -359.88490
#
# Poissons Ratio (x) = -0.85342 3.21441
# Poissons Ratio (y) = -23.54161 6.85563
# Poissons Ratio (z) = 6.62988 0.51260
#
# Static dielectric constant tensor:
#      x y z
#    x 2.246520 -0.090820 0.136080 
#    y -0.090820 2.241360 -0.111850 
#    z 0.136080 -0.111850 2.272250 
# 
# From -- ./inp_files/121240.got.cif
#   From: 2010.05.17/outbox.cif.g08.bks.cpg/sg2_61_cif.got.tgz:121240.got - 2010.06.03 11:33:40.
