data_PCOD9003766
_publ_section_title
;
Structure prediction by ZEFSAII (Michael W. Deem and Ramdas Pophale) SiO2 
 PCOD9003766
Probable space group: P -1
;
_chemical_formula_sum "Si O2"
_cell_formula_units_Z 16
_cell_length_a 14.677179
_cell_length_b 10.216797
_cell_length_c 15.549092
_cell_angle_alpha 38.049019
_cell_angle_beta 140.279875
_cell_angle_gamma 115.947600
_cell_volume 830.432188
_symmetry_space_group_name_H-M "P -1"
_symmetry_group_IT_number 2
_symmetry_cell_setting 'triclinic'
loop_
_space_group_symop_operation_xyz
x,y,z
-x,-y,-z
loop_
_atom_site_type_symbol
_atom_site_label
_atom_site_fract_x
_atom_site_fract_y
_atom_site_fract_z
Si Si1 0.958660 0.264654 0.744471
Si Si2 0.547750 0.188781 0.776670
Si Si3 0.600094 0.419170 0.202122
Si Si4 0.365711 0.355005 0.728013
Si Si5 0.025703 0.240514 0.994881
Si Si6 0.705455 0.531784 0.694733
Si Si7 0.210950 0.308065 0.793570
Si Si8 0.647087 0.937341 0.576100
O O1 0.047637 0.326843 0.699829
O O2 0.768775 0.399448 0.532879
O O3 0.016715 0.322209 0.847440
O O4 0.009591 0.988493 0.917874
O O5 0.468417 0.200489 0.805786
O O6 0.661333 0.320191 0.798582
O O7 0.405033 0.341530 0.531771
O O8 0.648545 0.931012 0.944007
O O9 0.537691 0.585541 0.156664
O O10 0.755782 0.467093 0.275810
O O11 0.630369 0.161201 0.389774
O O12 0.500000 0.500000 0.000000
O O13 0.254143 0.262752 0.747233
O O14 0.194625 0.153788 0.205415
O O15 0.886850 0.432143 0.850218
O O16 0.661612 0.723987 0.636852
O O17 0.500000 0.000000 0.500000
#
# Coordination Sequence:
#
# PCOD9003766 Si02
#       8
#     2   2   2   2   2   2   2   2
#     4  11  21  40  64  97 122 162 212 269 313 376
#     4  11  21  40  60  99 116 167 211 264 319 367
#     4  10  23  40  61  93 126 163 207 254 320 374
#     4  10  21  37  62  88 125 158 208 264 305 378
#     4  11  23  40  65  90 131 164 211 259 323 374
#     4  11  24  38  65  86 135 161 208 263 319 373
#     4  10  22  37  67  84 132 158 211 265 312 373
#     4  12  26  42  66  93 127 172 215 257 315 389
#
# _framework density 19.267074999999998
#
# number of rings (size 3 to 8) (size 9 to 14) (size 15 to 20)
#    0.750    0.500    3.750    2.625    3.500    0.000 
#    0.000    0.000    0.000    0.750    0.000    0.000 
#    0.000    0.000    0.000    0.000    0.000    0.000 
#
# Total GULP energy -89165.983658 kJ/mol
# GULP energy per Si atom -5572.873979 kJ/mol
# Density = 1.922322 g / cm^3
# Si number density = 19.267075 Si / 1000 Ang^3
#
#
#
# Elastic Constant Matrix: (Units=GPa)
#
#
# Indices 1 2 3 4 5 6 
#
# 1 105.3630 45.8838 41.8309 3.5961 8.4669 -13.0162
# 2 45.8838 81.6042 27.0161 5.8660 3.0839 -8.3773
# 3 41.8309 27.0161 90.8746 4.8779 8.1775 -9.9896
# 4 3.5961 5.8660 4.8779 36.6293 -6.0198 -6.4767
# 5 8.4669 3.0839 8.1775 -6.0198 35.7301 -5.4566
# 6 -13.0162 -8.3773 -9.9896 -6.4767 -5.4566 31.2518
#
#
#
# Elastic Compliance Matrix: (Units=1/GPa)
#
#
# Indices 1 2 3 4 5 6 
#
# 1 0.014426 -0.006370 -0.004343 0.000444 -0.001378 0.002764
# 2 -0.006370 0.016649 -0.001863 -0.001561 0.000382 0.000958
# 3 -0.004343 -0.001863 0.013970 -0.001181 -0.001967 0.001569
# 4 0.000444 -0.001561 -0.001181 0.029893 0.006358 0.006694
# 5 -0.001378 0.000382 -0.001967 0.006358 0.030653 0.005570
# 6 0.002764 0.000958 0.001569 0.006694 0.005570 0.036268
#
#
# Mechanical properties :
#
#
# Convention : Reuss Voigt Hill
#
# Bulk Modulus (GPa) = 50.26667 56.36704 53.31685
# Shear Modulus (GPa) = 28.79521 31.59633 30.19577
#
# Velocity S-wave (km/s) = 3.87011 4.05398 3.96311
# Velocity P-wave (km/s) = 6.79090 7.15766 6.97669
#
# Compressibility (1/GPa) = 0.01989390
#
# Stress axis : x y z
#
# Youngs Moduli (GPa) = 69.31852 60.06541 71.58238
#
# Poissons Ratio (x) = 0.38260 0.31088
# Poissons Ratio (y) = 0.44154 0.13334
# Poissons Ratio (z) = 0.30104 0.11188
#
# Static dielectric constant tensor:
#      x y z
#    x 1.690030 0.012240 -0.055880 
#    y 0.012240 1.667980 -0.013510 
#    z -0.055880 -0.013510 1.762240 
# 
# From -- ./inp_files/527276.got.cif
#   From: 2010.05.17/outbox.cif.g08.bks.cpg/sg2_264_cif.got.tgz:527276.got - 2010.06.03 11:33:40.
