data_PCOD9003205
_publ_section_title
;
Structure prediction by ZEFSAII (Michael W. Deem and Ramdas Pophale) SiO2 
 PCOD9003205
Probable space group: P -1
;
_chemical_formula_sum "Si O2"
_cell_formula_units_Z 16
_cell_length_a 8.958649
_cell_length_b 8.938006
_cell_length_c 14.912553
_cell_angle_alpha 131.674624
_cell_angle_beta 96.882608
_cell_angle_gamma 71.077137
_cell_volume 835.910082
_symmetry_space_group_name_H-M "P -1"
_symmetry_group_IT_number 2
_symmetry_cell_setting 'triclinic'
loop_
_space_group_symop_operation_xyz
x,y,z
-x,-y,-z
loop_
_atom_site_type_symbol
_atom_site_label
_atom_site_fract_x
_atom_site_fract_y
_atom_site_fract_z
Si Si1 0.366638 0.444290 0.200109
Si Si2 0.508134 0.265492 0.436421
Si Si3 0.009871 0.562221 0.629108
Si Si4 0.943564 0.233761 0.631530
Si Si5 0.695665 0.864019 0.779049
Si Si6 0.251417 0.172430 0.729914
Si Si7 0.355862 0.402323 0.664299
Si Si8 0.438382 0.313613 0.954738
O O1 0.235373 0.670619 0.306094
O O2 0.332400 0.274531 0.195705
O O3 0.540701 0.459396 0.236268
O O4 0.359230 0.377136 0.070934
O O5 0.500000 0.500000 0.500000
O O6 0.385974 0.200855 0.339247
O O7 0.456137 0.268480 0.536280
O O8 0.676608 0.082980 0.362697
O O9 0.961882 0.390462 0.616969
O O10 0.881727 0.788103 0.737021
O O11 0.000000 0.500000 0.500000
O O12 0.187592 0.539364 0.663283
O O13 0.064937 0.240215 0.722525
O O14 0.000000 0.000000 0.500000
O O15 0.595938 0.105865 0.887998
O O16 0.324361 0.257986 0.683410
O O17 0.315177 0.264180 0.857173
O O18 0.500000 0.500000 0.000000
#
# Coordination Sequence:
#
# PCOD9003205 Si02
#       8
#     2   2   2   2   2   2   2   2
#     4  11  22  40  64  85 121 164 202 251 301 349
#     4  11  20  33  60  89 119 155 195 248 304 370
#     4  10  21  37  58  90 125 152 191 245 305 367
#     4  10  23  39  62  92 127 154 193 253 312 366
#     4  10  22  39  60  89 119 156 202 253 302 354
#     4  10  23  39  59  89 121 161 205 245 303 356
#     4  11  20  36  61  88 122 157 195 244 311 361
#     4  11  23  42  65  83 120 165 216 249 286 356
#
# _framework density 19.140813999999999
#
# number of rings (size 3 to 8) (size 9 to 14) (size 15 to 20)
#    0.000    1.500    3.750    1.500    1.750    2.500 
#    0.000    0.625    2.750    0.000    0.000    0.000 
#    0.000    0.000    0.000    0.000    0.000    0.000 
#
# Total GULP energy -89346.739423 kJ/mol
# GULP energy per Si atom -5584.171214 kJ/mol
# Density = 1.909725 g / cm^3
# Si number density = 19.140814 Si / 1000 Ang^3
#
#
#
# Elastic Constant Matrix: (Units=GPa)
#
#
# Indices 1 2 3 4 5 6 
#
# 1 86.7108 30.8009 32.0933 4.6502 0.5764 -22.6186
# 2 30.8009 84.9851 49.5893 1.1175 1.7790 -17.5220
# 3 32.0933 49.5893 113.7994 -4.1242 -2.6023 -10.1632
# 4 4.6502 1.1175 -4.1242 43.9983 -4.6235 1.5334
# 5 0.5764 1.7790 -2.6023 -4.6235 14.3944 1.2882
# 6 -22.6186 -17.5220 -10.1632 1.5334 1.2882 24.8449
#
#
#
# Elastic Compliance Matrix: (Units=1/GPa)
#
#
# Indices 1 2 3 4 5 6 
#
# 1 0.016863 -0.001427 -0.003111 -0.002839 -0.003173 0.013413
# 2 -0.001427 0.018357 -0.006955 -0.001798 -0.004867 0.009166
# 3 -0.003111 -0.006955 0.012611 0.002236 0.004245 -0.002937
# 4 -0.002839 -0.001798 0.002236 0.024402 0.009018 -0.004911
# 5 -0.003173 -0.004867 0.004245 0.009018 0.074670 -0.009013
# 6 0.013413 0.009166 -0.002937 -0.004911 -0.009013 0.058494
#
#
# Mechanical properties :
#
#
# Convention : Reuss Voigt Hill
#
# Bulk Modulus (GPa) = 40.24902 56.71803 48.48352
# Shear Modulus (GPa) = 21.12673 28.18165 24.65419
#
# Velocity S-wave (km/s) = 3.32588 3.84126 3.59282
# Velocity P-wave (km/s) = 5.98516 7.02638 6.52657
#
# Compressibility (1/GPa) = 0.02484533
#
# Stress axis : x y z
#
# Youngs Moduli (GPa) = 59.30102 54.47371 79.29351
#
# Poissons Ratio (x) = 0.07773 0.24672
# Poissons Ratio (y) = 0.08462 0.55148
# Poissons Ratio (z) = 0.18451 0.37886
#
# Static dielectric constant tensor:
#      x y z
#    x 1.670600 -0.022970 -0.009040 
#    y -0.022970 1.668590 0.009460 
#    z -0.009040 0.009460 1.653930 
# 
# From -- ./inp_files/207681.got.cif
#   From: 2010.05.17/outbox.cif.g08.bks.cpg/sg2_104_cif.got.tgz:207681.got - 2010.06.03 11:33:40.
