data_PCOD9003872
_publ_section_title
;
Structure prediction by ZEFSAII (Michael W. Deem and Ramdas Pophale) SiO2 
 PCOD9003872
Probable space group: P -1
;
_chemical_formula_sum "Si O2"
_cell_formula_units_Z 14
_cell_length_a 7.616104
_cell_length_b 12.806155
_cell_length_c 10.626635
_cell_angle_alpha 43.929779
_cell_angle_beta 130.905980
_cell_angle_gamma 122.586869
_cell_volume 539.004411
_symmetry_space_group_name_H-M "P -1"
_symmetry_group_IT_number 2
_symmetry_cell_setting 'triclinic'
loop_
_space_group_symop_operation_xyz
x,y,z
-x,-y,-z
loop_
_atom_site_type_symbol
_atom_site_label
_atom_site_fract_x
_atom_site_fract_y
_atom_site_fract_z
Si Si1 0.104895 0.101837 0.291873
Si Si2 0.776115 0.862377 0.199059
Si Si3 0.960439 0.612266 0.115700
Si Si4 0.636287 0.387674 0.072735
Si Si5 0.447870 0.666834 0.378356
Si Si6 0.622686 0.072954 0.247588
Si Si7 0.272840 0.453406 0.672199
O O1 0.871294 0.114252 0.255661
O O2 0.314256 0.060798 0.514561
O O3 0.175919 0.260192 0.118320
O O4 0.000705 0.977806 0.244658
O O5 0.637356 0.806583 0.311714
O O6 0.831402 0.697419 0.321747
O O7 0.599895 0.926432 0.956236
O O8 0.905170 0.458254 0.146164
O O9 0.886543 0.557934 0.269033
O O10 0.220944 0.692243 0.171600
O O11 0.601802 0.208752 0.219968
O O12 0.500000 0.500000 0.000000
O O13 0.527371 0.412339 0.865653
O O14 0.500000 0.500000 0.500000
O O15 0.345397 0.621137 0.506459
#
# Coordination Sequence:
#
# PCOD9003872 Si02
#       7
#     2   2   2   2   2   2   2
#     4  11  24  39  66  98 133 173 211 266 330 396
#     4  10  21  43  63  92 135 164 222 267 314 393
#     4  11  22  40  62  97 132 163 219 267 324 394
#     4   9  21  42  64  88 128 168 215 274 314 381
#     4  10  21  37  62  95 122 168 217 269 319 376
#     4  10  22  41  64  93 127 175 214 264 324 379
#     4   9  21  40  64  91 127 168 214 268 329 374
#
# _framework density 25.973813
#
# number of rings (size 3 to 8) (size 9 to 14) (size 15 to 20)
#    0.000    2.000    1.429    0.857    4.000    3.429 
#    0.000    6.429    0.000    0.000    0.000    0.000 
#    0.000    0.000    0.000    0.000    0.000    0.000 
#
# Total GULP energy -77979.204143 kJ/mol
# GULP energy per Si atom -5569.943153 kJ/mol
# Density = 2.591470 g / cm^3
# Si number density = 25.973813 Si / 1000 Ang^3
#
#
#
# Elastic Constant Matrix: (Units=GPa)
#
#
# Indices 1 2 3 4 5 6 
#
# 1 41.3897 9.6831 19.9293 -3.8887 -7.3179 -5.2548
# 2 9.6831 97.3421 26.6501 4.8986 -16.0325 -2.7176
# 3 19.9293 26.6501 169.9302 -12.3993 -11.2770 2.8147
# 4 -3.8887 4.8986 -12.3993 23.9129 6.6538 1.3337
# 5 -7.3179 -16.0325 -11.2770 6.6538 26.5084 -7.8694
# 6 -5.2548 -2.7176 2.8147 1.3337 -7.8694 32.4996
#
#
#
# Elastic Compliance Matrix: (Units=1/GPa)
#
#
# Indices 1 2 3 4 5 6 
#
# 1 0.027918 -0.000561 -0.002717 0.000648 0.008013 0.006616
# 2 -0.000561 0.012849 -0.001854 -0.006559 0.009582 0.003734
# 3 -0.002717 -0.001854 0.006760 0.003610 -0.000319 -0.001405
# 4 0.000648 -0.006559 0.003610 0.050231 -0.016913 -0.006913
# 5 0.008013 0.009582 -0.000319 -0.016913 0.054603 0.016040
# 6 0.006616 0.003734 -0.001405 -0.006913 0.016040 0.036441
#
#
# Mechanical properties :
#
#
# Convention : Reuss Voigt Hill
#
# Bulk Modulus (GPa) = 26.83666 46.79853 36.81760
# Shear Modulus (GPa) = 23.64227 33.41081 28.52654
#
# Velocity S-wave (km/s) = 3.02028 3.59043 3.31763
# Velocity P-wave (km/s) = 4.74525 5.93675 5.37412
#
# Compressibility (1/GPa) = 0.03726246
#
# Stress axis : x y z
#
# Youngs Moduli (GPa) = 35.81970 77.82711 147.93686
#
# Poissons Ratio (x) = 0.04369 0.40189
# Poissons Ratio (y) = 0.02011 0.27424
# Poissons Ratio (z) = 0.09731 0.14428
#
# Static dielectric constant tensor:
#      x y z
#    x 2.218980 -0.039350 0.054820 
#    y -0.039350 2.147680 0.115550 
#    z 0.054820 0.115550 2.163680 
# 
# From -- ./inp_files/203707.got.cif
#   From: 2010.05.17/outbox.cif.g08.bks.cpg/sg2_102_cif.got.tgz:203707.got - 2010.06.03 11:33:40.
