data_PCOD9003260
_publ_section_title
;
Structure prediction by ZEFSAII (Michael W. Deem and Ramdas Pophale) SiO2 
 PCOD9003260
Probable space group: P -1
;
_chemical_formula_sum "Si O2"
_cell_formula_units_Z 16
_cell_length_a 9.668523
_cell_length_b 6.742631
_cell_length_c 22.883949
_cell_angle_alpha 57.340210
_cell_angle_beta 43.145245
_cell_angle_gamma 45.159613
_cell_volume 722.415673
_symmetry_space_group_name_H-M "P -1"
_symmetry_group_IT_number 2
_symmetry_cell_setting 'triclinic'
loop_
_space_group_symop_operation_xyz
x,y,z
-x,-y,-z
loop_
_atom_site_type_symbol
_atom_site_label
_atom_site_fract_x
_atom_site_fract_y
_atom_site_fract_z
Si Si1 0.214152 0.053020 0.420455
Si Si2 0.594613 0.449293 0.412373
Si Si3 0.895298 0.771419 0.102722
Si Si4 0.459387 0.890104 0.611441
Si Si5 0.673265 0.406305 0.076501
Si Si6 0.264884 0.630531 0.801941
Si Si7 0.826559 0.236388 0.867179
Si Si8 0.006377 0.505489 0.681074
O O1 0.297728 0.128142 0.442311
O O2 0.143412 0.291613 0.357465
O O3 0.445642 0.752704 0.379478
O O4 0.000000 0.000000 0.500000
O O5 0.500000 0.500000 0.500000
O O6 0.541392 0.243837 0.427987
O O7 0.870699 0.353580 0.344857
O O8 0.067385 0.738744 0.108412
O O9 0.764454 0.607974 0.178493
O O10 0.072643 0.641634 0.013268
O O11 0.712662 0.103657 0.098899
O O12 0.412601 0.718234 0.702366
O O13 0.232890 0.208858 0.635470
O O14 0.632370 0.457874 0.150109
O O15 0.453241 0.647202 0.068794
O O16 0.001315 0.914964 0.845164
O O17 0.860904 0.427677 0.780384
#
# Coordination Sequence:
#
# PCOD9003260 Si02
#       8
#     2   2   2   2   2   2   2   2
#     4  11  23  42  62  92 118 153 202 251 305 367
#     4  11  23  43  62  89 119 156 199 251 308 364
#     4  10  21  37  60  90 124 162 202 245 300 351
#     4  10  24  40  63  86 122 160 202 251 309 360
#     4  10  21  37  60  90 125 160 201 251 294 351
#     4  10  21  39  58  88 120 160 202 248 299 356
#     4  10  21  37  59  85 123 159 202 249 296 355
#     4  10  22  41  60  87 121 158 203 253 302 362
#
# _framework density 22.147914
#
# number of rings (size 3 to 8) (size 9 to 14) (size 15 to 20)
#    0.000    1.750    1.250    2.250    0.000    8.000 
#    0.000    0.000    0.000    0.000    0.000    0.000 
#    0.000    0.000    0.000    0.000    0.000    0.000 
#
# Total GULP energy -89475.527882 kJ/mol
# GULP energy per Si atom -5592.220493 kJ/mol
# Density = 2.209750 g / cm^3
# Si number density = 22.147914 Si / 1000 Ang^3
#
#
#
# Elastic Constant Matrix: (Units=GPa)
#
#
# Indices 1 2 3 4 5 6 
#
# 1 111.0070 47.2736 6.1847 2.8093 -1.4195 5.3899
# 2 47.2736 45.6483 10.3254 -15.5005 -3.5395 4.3306
# 3 6.1847 10.3254 55.0606 -6.7459 9.3508 9.0863
# 4 2.8093 -15.5005 -6.7459 32.5723 -1.1312 1.1604
# 5 -1.4195 -3.5395 9.3508 -1.1312 33.8330 -5.3138
# 6 5.3899 4.3306 9.0863 1.1604 -5.3138 37.3812
#
#
#
# Elastic Compliance Matrix: (Units=1/GPa)
#
#
# Indices 1 2 3 4 5 6 
#
# 1 0.020688 -0.026828 0.001467 -0.014340 -0.002854 -0.000192
# 2 -0.026828 0.062358 -0.005899 0.031101 0.007789 -0.001780
# 3 0.001467 -0.005899 0.021500 0.001471 -0.007367 -0.005847
# 4 -0.014340 0.031101 0.001471 0.047262 0.003373 -0.002881
# 5 -0.002854 0.007789 -0.007367 0.003373 0.033333 0.005933
# 6 -0.000192 -0.001780 -0.005847 -0.002881 0.005933 0.029339
#
#
# Mechanical properties :
#
#
# Convention : Reuss Voigt Hill
#
# Bulk Modulus (GPa) = 23.79584 37.69816 30.74700
# Shear Modulus (GPa) = 17.18165 30.61945 23.90055
#
# Velocity S-wave (km/s) = 2.78828 3.72223 3.28858
# Velocity P-wave (km/s) = 4.59711 5.96082 5.32282
#
# Compressibility (1/GPa) = 0.04202415
#
# Stress axis : x y z
#
# Youngs Moduli (GPa) = 48.33827 16.03649 46.51270
#
# Poissons Ratio (x) = 0.43023 -0.06822
# Poissons Ratio (y) = 1.29683 0.27437
# Poissons Ratio (z) = -0.07090 0.09460
#
# Static dielectric constant tensor:
#      x y z
#    x 1.826790 0.009330 0.000860 
#    y 0.009330 1.795800 -0.003410 
#    z 0.000860 -0.003410 1.842330 
# 
# From -- ./inp_files/47725.got.cif
#   From: 2010.05.17/outbox.cif.g08.bks.cpg/sg2_24_cif.got.tgz:47725.got - 2010.06.03 11:33:40.
