data_PCOD9003091
_publ_section_title
;
Structure prediction by ZEFSAII (Michael W. Deem and Ramdas Pophale) SiO2 
 PCOD9003091
Probable space group: P -1
;
_chemical_formula_sum "Si O2"
_cell_formula_units_Z 14
_cell_length_a 33.856322
_cell_length_b 10.714072
_cell_length_c 7.045090
_cell_angle_alpha 59.805890
_cell_angle_beta 132.572470
_cell_angle_gamma 155.378877
_cell_volume 729.856550
_symmetry_space_group_name_H-M "P -1"
_symmetry_group_IT_number 2
_symmetry_cell_setting 'triclinic'
loop_
_space_group_symop_operation_xyz
x,y,z
-x,-y,-z
loop_
_atom_site_type_symbol
_atom_site_label
_atom_site_fract_x
_atom_site_fract_y
_atom_site_fract_z
Si Si1 0.061321 0.686096 0.859812
Si Si2 0.683158 0.243700 0.216372
Si Si3 0.290497 0.373680 0.952316
Si Si4 0.153793 0.238019 0.349197
Si Si5 0.489159 0.302233 0.622119
Si Si6 0.915773 0.511779 0.207440
Si Si7 0.276565 0.733974 0.093760
O O1 0.095956 0.627301 0.897235
O O2 0.970827 0.558463 0.529905
O O3 0.000000 0.500000 0.000000
O O4 0.183612 0.071625 0.976207
O O5 0.798698 0.536141 0.507236
O O6 0.713392 0.246912 0.112965
O O7 0.580965 0.916174 0.249891
O O8 0.648779 0.330165 0.011727
O O9 0.384870 0.475506 0.151482
O O10 0.223479 0.259628 0.625440
O O11 0.202081 0.417609 0.173306
O O12 0.015352 0.869258 0.197485
O O13 0.500000 0.500000 0.500000
O O14 0.405297 0.046167 0.372987
O O15 0.795508 0.300714 0.039272
#
# Coordination Sequence:
#
# PCOD9003091 Si02
#       7
#     2   2   2   2   2   2   2
#     4  10  22  39  62  88 119 161 195 237 301 347
#     4   9  22  39  59  90 114 156 205 233 297 355
#     4   9  20  43  58  85 121 156 197 245 286 356
#     4   8  20  37  57  84 119 157 189 245 297 337
#     4  11  23  41  61  84 121 156 197 251 297 338
#     4  10  21  37  57  89 123 152 199 244 288 356
#     4  11  22  36  61  90 115 155 199 245 296 347
#
# _framework density 19.181850000000001
#
# number of rings (size 3 to 8) (size 9 to 14) (size 15 to 20)
#    0.857    1.429    0.000    1.714    2.000    5.143 
#    0.000    0.000    0.000    0.000    0.000    0.000 
#    0.000    0.000    0.000    0.000    0.000    0.000 
#
# Total GULP energy -78077.128191 kJ/mol
# GULP energy per Si atom -5576.937728 kJ/mol
# Density = 1.913819 g / cm^3
# Si number density = 19.181850 Si / 1000 Ang^3
#
#
#
# Elastic Constant Matrix: (Units=GPa)
#
#
# Indices 1 2 3 4 5 6 
#
# 1 83.3321 34.8225 44.5374 -17.4638 6.8201 7.1931
# 2 34.8225 114.0273 34.7964 -32.8852 -7.9489 7.3608
# 3 44.5374 34.7964 57.6847 -9.0139 -1.1792 14.7069
# 4 -17.4638 -32.8852 -9.0139 26.4436 5.1358 4.1432
# 5 6.8201 -7.9489 -1.1792 5.1358 33.3445 -4.9687
# 6 7.1931 7.3608 14.7069 4.1432 -4.9687 19.3479
#
#
#
# Elastic Compliance Matrix: (Units=1/GPa)
#
#
# Indices 1 2 3 4 5 6 
#
# 1 0.024160 0.001254 -0.017192 0.013286 -0.007469 -0.001154
# 2 0.001254 0.016533 -0.006027 0.020527 -0.000696 -0.006749
# 3 -0.017192 -0.006027 0.039018 -0.002545 0.000839 -0.020214
# 4 0.013286 0.020527 -0.002545 0.079065 -0.014793 -0.031544
# 5 -0.007469 -0.000696 0.000839 -0.014793 0.035862 0.014781
# 6 -0.001154 -0.006749 -0.020214 -0.031544 0.014781 0.080598
#
#
# Mechanical properties :
#
#
# Convention : Reuss Voigt Hill
#
# Bulk Modulus (GPa) = 27.94854 53.70630 40.82742
# Shear Modulus (GPa) = 15.10143 25.21971 20.16057
#
# Velocity S-wave (km/s) = 2.80889 3.62991 3.24547
# Velocity P-wave (km/s) = 5.01216 6.75482 5.94766
#
# Compressibility (1/GPa) = 0.03578005
#
# Stress axis : x y z
#
# Youngs Moduli (GPa) = 41.39079 60.48434 25.62921
#
# Poissons Ratio (x) = -0.07582 0.44062
# Poissons Ratio (y) = -0.05188 0.15447
# Poissons Ratio (z) = 0.71160 0.36454
#
# Static dielectric constant tensor:
#      x y z
#    x 1.641460 -0.038280 0.022750 
#    y -0.038280 1.682640 -0.007000 
#    z 0.022750 -0.007000 1.680020 
# 
# From -- ./inp_files/126406.got.cif
#   From: 2010.05.17/outbox.cif.g08.bks.cpg/sg2_64_cif.got.tgz:126406.got - 2010.06.03 11:33:40.
