data_PCOD9003648
_publ_section_title
;
Structure prediction by ZEFSAII (Michael W. Deem and Ramdas Pophale) SiO2 
 PCOD9003648
Probable space group: P -1
;
_chemical_formula_sum "Si O2"
_cell_formula_units_Z 16
_cell_length_a 11.248943
_cell_length_b 9.561546
_cell_length_c 11.540630
_cell_angle_alpha 67.271761
_cell_angle_beta 64.676731
_cell_angle_gamma 35.348985
_cell_volume 647.470505
_symmetry_space_group_name_H-M "P -1"
_symmetry_group_IT_number 2
_symmetry_cell_setting 'triclinic'
loop_
_space_group_symop_operation_xyz
x,y,z
-x,-y,-z
loop_
_atom_site_type_symbol
_atom_site_label
_atom_site_fract_x
_atom_site_fract_y
_atom_site_fract_z
Si Si1 0.789838 0.882477 0.487376
Si Si2 0.651805 0.164017 0.230342
Si Si3 0.110614 0.767029 0.785810
Si Si4 0.940040 0.740082 0.080631
Si Si5 0.736592 0.637280 0.732082
Si Si6 0.860518 0.196596 0.597647
Si Si7 0.505274 0.658926 0.362077
Si Si8 0.560127 0.894075 0.134569
O O1 0.800911 0.702142 0.587656
O O2 0.019547 0.754068 0.444039
O O3 0.713625 0.976971 0.357655
O O4 0.618189 0.135802 0.552600
O O5 0.736870 0.244511 0.217690
O O6 0.401518 0.378717 0.251458
O O7 0.778647 0.012277 0.109093
O O8 0.242806 0.586955 0.676715
O O9 0.912292 0.039561 0.734314
O O10 0.050666 0.703387 0.931047
O O11 0.801535 0.716998 0.116649
O O12 0.093861 0.565751 0.179236
O O13 0.568653 0.887048 0.793595
O O14 0.622775 0.381026 0.595132
O O15 0.000000 0.000000 0.500000
O O16 0.485022 0.791546 0.218951
O O17 0.500000 0.000000 0.000000
#
# Coordination Sequence:
#
# PCOD9003648 Si02
#       8
#     2   2   2   2   2   2   2   2
#     4   9  20  40  63  88 121 157 199 252 300 350
#     4  10  23  41  60  86 122 162 204 247 290 351
#     4  11  23  39  62  88 122 159 197 246 297 356
#     4  11  24  40  61  90 120 160 203 241 298 357
#     4  10  22  40  62  88 120 158 202 248 297 354
#     4   9  20  37  58  88 121 151 191 241 295 354
#     4  10  21  37  61  91 118 152 195 245 305 352
#     4  10  21  38  60  88 123 155 193 246 298 360
#
# _framework density 24.711549999999999
#
# number of rings (size 3 to 8) (size 9 to 14) (size 15 to 20)
#    0.000    2.000    0.000    2.250    0.000   13.500 
#    0.000    6.250    0.000    0.000    0.000    0.000 
#    0.000    0.000    0.000    0.000    0.000    0.000 
#
# Total GULP energy -89428.498170 kJ/mol
# GULP energy per Si atom -5589.281136 kJ/mol
# Density = 2.465531 g / cm^3
# Si number density = 24.711550 Si / 1000 Ang^3
#
#
#
# Elastic Constant Matrix: (Units=GPa)
#
#
# Indices 1 2 3 4 5 6 
#
# 1 85.1123 27.1281 15.1725 0.2170 -2.2535 -24.6583
# 2 27.1281 98.2452 36.6386 17.6728 -7.4660 -13.8288
# 3 15.1725 36.6386 129.5702 19.1128 -6.8124 -2.5483
# 4 0.2170 17.6728 19.1128 40.1809 -3.2160 2.4149
# 5 -2.2535 -7.4660 -6.8124 -3.2160 29.6890 -3.2167
# 6 -24.6583 -13.8288 -2.5483 2.4149 -3.2167 44.1270
#
#
#
# Elastic Compliance Matrix: (Units=1/GPa)
#
#
# Indices 1 2 3 4 5 6 
#
# 1 0.015022 -0.002899 -0.000921 0.001276 0.001145 0.007446
# 2 -0.002899 0.013347 -0.002575 -0.004612 0.002354 0.002838
# 3 -0.000921 -0.002575 0.009044 -0.003053 0.000966 -0.000562
# 4 0.001276 -0.004612 -0.003053 0.028592 0.001074 -0.002395
# 5 0.001145 0.002354 0.000966 0.001074 0.035126 0.003935
# 6 0.007446 0.002838 -0.000562 -0.002395 0.003935 0.028098
#
#
# Mechanical properties :
#
#
# Convention : Reuss Voigt Hill
#
# Bulk Modulus (GPa) = 40.61141 52.31178 46.46160
# Shear Modulus (GPa) = 33.28344 38.39861 35.84102
#
# Velocity S-wave (km/s) = 3.67396 3.94620 3.81251
# Velocity P-wave (km/s) = 5.87088 6.47906 6.18245
#
# Compressibility (1/GPa) = 0.02462362
#
# Stress axis : x y z
#
# Youngs Moduli (GPa) = 66.57077 74.92115 110.57180
#
# Poissons Ratio (x) = 0.21719 0.10182
# Poissons Ratio (y) = 0.19298 0.28471
# Poissons Ratio (z) = 0.06130 0.19291
#
# Static dielectric constant tensor:
#      x y z
#    x 1.962050 -0.007280 0.018660 
#    y -0.007280 2.059940 -0.013510 
#    z 0.018660 -0.013510 1.937580 
# 
# From -- ./inp_files/69981.got.cif
#   From: 2010.05.17/outbox.cif.g08.bks.cpg/sg2_35_cif.got.tgz:69981.got - 2010.06.03 11:33:40.
