data_PCOD9003641
_publ_section_title
;
Structure prediction by ZEFSAII (Michael W. Deem and Ramdas Pophale) SiO2 
 PCOD9003641
Probable space group: P -1
;
_chemical_formula_sum "Si O2"
_cell_formula_units_Z 16
_cell_length_a 8.244612
_cell_length_b 6.867584
_cell_length_c 22.940821
_cell_angle_alpha 43.454471
_cell_angle_beta 55.942798
_cell_angle_gamma 62.117973
_cell_volume 735.867809
_symmetry_space_group_name_H-M "P -1"
_symmetry_group_IT_number 2
_symmetry_cell_setting 'triclinic'
loop_
_space_group_symop_operation_xyz
x,y,z
-x,-y,-z
loop_
_atom_site_type_symbol
_atom_site_label
_atom_site_fract_x
_atom_site_fract_y
_atom_site_fract_z
Si Si1 0.543199 0.179747 0.507767
Si Si2 0.166340 0.379366 0.225073
Si Si3 0.778149 0.489262 0.065569
Si Si4 0.847184 0.801591 0.601299
Si Si5 0.290894 0.984723 0.106906
Si Si6 0.487778 0.780813 0.899196
Si Si7 0.188286 0.375578 0.611514
Si Si8 0.911175 0.230682 0.206175
O O1 0.336792 0.350778 0.532259
O O2 0.702341 0.407972 0.417129
O O3 0.500000 0.000000 0.500000
O O4 0.641091 0.948450 0.585690
O O5 0.154453 0.219821 0.323807
O O6 0.218304 0.696625 0.160590
O O7 0.346302 0.248563 0.177532
O O8 0.976805 0.360855 0.225690
O O9 0.706054 0.235990 0.096103
O O10 0.774719 0.431770 0.146998
O O11 0.000000 0.500000 0.000000
O O12 0.670992 0.790243 0.000271
O O13 0.958525 0.496858 0.623995
O O14 0.000000 0.000000 0.500000
O O15 0.469909 0.968042 0.120602
O O16 0.110635 0.137635 0.149218
O O17 0.500000 0.500000 0.000000
O O18 0.187265 0.057363 0.702572
#
# Coordination Sequence:
#
# PCOD9003641 Si02
#       8
#     2   2   2   2   2   2   2   2
#     4  10  24  44  65  97 131 166 226 276 329 401
#     4  11  22  39  63  91 127 172 223 266 324 405
#     4   9  19  37  60  86 122 165 209 266 324 386
#     4  10  23  44  66  96 131 175 223 268 333 396
#     4   9  19  39  60  87 121 164 218 260 325 392
#     4   9  20  38  60  87 123 162 212 275 321 387
#     4  10  22  43  65  94 133 169 216 276 333 385
#     4  10  21  37  61  90 126 166 216 265 326 388
#
# _framework density 21.743034999999999
#
# number of rings (size 3 to 8) (size 9 to 14) (size 15 to 20)
#    0.000    2.250    1.250    0.750    5.250    3.000 
#    6.750    2.500    0.000    0.000    0.000    0.000 
#    0.000    0.000    0.000    0.000    0.000    0.000 
#
# Total GULP energy -89139.183083 kJ/mol
# GULP energy per Si atom -5571.198943 kJ/mol
# Density = 2.169355 g / cm^3
# Si number density = 21.743035 Si / 1000 Ang^3
#
#
#
# Elastic Constant Matrix: (Units=GPa)
#
#
# Indices 1 2 3 4 5 6 
#
# 1 126.9690 59.7642 45.5763 -4.4463 15.0930 39.5153
# 2 59.7642 108.5015 33.7208 -3.5100 8.7044 27.3561
# 3 45.5763 33.7208 119.4625 -6.8572 18.4311 28.3179
# 4 -4.4463 -3.5100 -6.8572 29.8470 2.8929 -9.7255
# 5 15.0930 8.7044 18.4311 2.8929 31.6938 7.9721
# 6 39.5153 27.3561 28.3179 -9.7255 7.9721 50.5276
#
#
#
# Elastic Compliance Matrix: (Units=1/GPa)
#
#
# Indices 1 2 3 4 5 6 
#
# 1 0.013018 -0.004860 -0.001808 -0.000920 -0.002125 -0.006378
# 2 -0.004860 0.012902 -0.001218 -0.000348 0.000164 -0.002595
# 3 -0.001808 -0.001218 0.010910 0.001546 -0.004528 -0.003029
# 4 -0.000920 -0.000348 0.001546 0.036860 -0.005753 0.008044
# 5 -0.002125 0.000164 -0.004528 -0.005753 0.036365 -0.002734
# 6 -0.006378 -0.002595 -0.003029 0.008044 -0.002734 0.029861
#
#
# Mechanical properties :
#
#
# Convention : Reuss Voigt Hill
#
# Bulk Modulus (GPa) = 47.48707 70.33952 58.91330
# Shear Modulus (GPa) = 30.73042 36.80513 33.76778
#
# Velocity S-wave (km/s) = 3.76353 4.11875 3.94514
# Velocity P-wave (km/s) = 6.38538 7.41885 6.92143
#
# Compressibility (1/GPa) = 0.02105836
#
# Stress axis : x y z
#
# Youngs Moduli (GPa) = 76.81877 77.51000 91.66189
#
# Poissons Ratio (x) = 0.37668 0.16570
# Poissons Ratio (y) = 0.37332 0.11163
# Poissons Ratio (z) = 0.13886 0.09440
#
# Static dielectric constant tensor:
#      x y z
#    x 1.919530 -0.062850 0.029670 
#    y -0.062850 1.855390 -0.019390 
#    z 0.029670 -0.019390 1.863990 
# 
# From -- ./inp_files/536344.got.cif
#   From: 2010.05.17/outbox.cif.g08.bks.cpg/sg2_269_cif.got.tgz:536344.got - 2010.06.03 11:33:40.
