data_PCOD9003339
_publ_section_title
;
Structure prediction by ZEFSAII (Michael W. Deem and Ramdas Pophale) SiO2 
 PCOD9003339
Probable space group: P -1
;
_chemical_formula_sum "Si O2"
_cell_formula_units_Z 16
_cell_length_a 27.453689
_cell_length_b 27.238626
_cell_length_c 9.008157
_cell_angle_alpha 40.337652
_cell_angle_beta 139.919858
_cell_angle_gamma 169.262453
_cell_volume 804.972275
_symmetry_space_group_name_H-M "P -1"
_symmetry_group_IT_number 2
_symmetry_cell_setting 'triclinic'
loop_
_space_group_symop_operation_xyz
x,y,z
-x,-y,-z
loop_
_atom_site_type_symbol
_atom_site_label
_atom_site_fract_x
_atom_site_fract_y
_atom_site_fract_z
Si Si1 0.078397 0.880723 0.120572
Si Si2 0.326311 0.617727 0.304490
Si Si3 0.774897 0.742024 0.660666
Si Si4 0.629528 0.338757 0.335676
Si Si5 0.726097 0.272308 0.213559
Si Si6 0.731702 0.763965 0.839185
Si Si7 0.861833 0.060133 0.519318
Si Si8 0.730131 0.277029 0.569937
O O1 0.104995 0.918038 0.275090
O O2 0.903777 0.639728 0.233337
O O3 0.377702 0.150745 0.144951
O O4 0.898359 0.776239 0.881102
O O5 0.346390 0.643345 0.470836
O O6 0.133799 0.361589 0.408997
O O7 0.624806 0.889446 0.324582
O O8 0.234116 0.607597 0.042786
O O9 0.500000 0.500000 0.500000
O O10 0.737499 0.736055 0.753381
O O11 0.000000 0.000000 0.500000
O O12 0.614643 0.242061 0.452574
O O13 0.724712 0.278617 0.374670
O O14 0.966568 0.449371 0.316616
O O15 0.450774 0.967125 0.238672
O O16 0.754810 0.877353 0.629676
O O17 0.500000 0.500000 0.000000
O O18 0.000000 0.000000 0.000000
#
# Coordination Sequence:
#
# PCOD9003339 Si02
#       8
#     2   2   2   2   2   2   2   2
#     4  10  21  40  63  84 125 165 197 256 316 370
#     4  10  21  37  59  90 121 149 197 264 303 345
#     4  12  26  44  64  96 136 166 212 276 327 372
#     4  10  21  37  61  89 114 158 205 243 307 373
#     4  10  21  38  59  83 120 156 194 250 301 356
#     4  12  24  42  72  93 122 178 223 258 313 397
#     4  10  21  39  63  89 119 159 211 255 304 368
#     4  10  21  38  59  84 117 161 198 234 302 385
#
# _framework density 19.876462
#
# number of rings (size 3 to 8) (size 9 to 14) (size 15 to 20)
#    0.000    1.500    1.250    3.750    3.500    1.000 
#    6.750    0.000    0.000    0.000    0.000    0.000 
#    0.000    0.000    0.000    0.000    0.000    0.000 
#
# Total GULP energy -89237.021743 kJ/mol
# GULP energy per Si atom -5577.313859 kJ/mol
# Density = 1.983122 g / cm^3
# Si number density = 19.876462 Si / 1000 Ang^3
#
#
#
# Elastic Constant Matrix: (Units=GPa)
#
#
# Indices 1 2 3 4 5 6 
#
# 1 68.0614 27.9459 24.5255 -2.4903 11.5518 -0.1895
# 2 27.9459 141.1774 36.0078 0.4466 -7.3691 9.9344
# 3 24.5255 36.0078 84.9626 5.0393 16.1848 1.3782
# 4 -2.4903 0.4466 5.0393 38.0644 1.7059 8.3072
# 5 11.5518 -7.3691 16.1848 1.7059 28.0880 -1.8765
# 6 -0.1895 9.9344 1.3782 8.3072 -1.8765 22.0473
#
#
#
# Elastic Compliance Matrix: (Units=1/GPa)
#
#
# Indices 1 2 3 4 5 6 
#
# 1 0.018264 -0.003348 -0.002647 0.001770 -0.006934 0.000574
# 2 -0.003348 0.009367 -0.004113 0.000776 0.005905 -0.003782
# 3 -0.002647 -0.004113 0.016118 -0.002028 -0.009100 0.000813
# 4 0.001770 0.000776 -0.002028 0.029214 -0.001890 -0.011376
# 5 -0.006934 0.005905 -0.009100 -0.001890 0.045525 0.002436
# 6 0.000574 -0.003782 0.000813 -0.011376 0.002436 0.051509
#
#
# Mechanical properties :
#
#
# Convention : Reuss Voigt Hill
#
# Bulk Modulus (GPa) = 42.49243 52.35110 47.42176
# Shear Modulus (GPa) = 25.24532 31.35475 28.30004
#
# Velocity S-wave (km/s) = 3.56773 3.97606 3.77742
# Velocity P-wave (km/s) = 6.19647 6.89015 6.55250
#
# Compressibility (1/GPa) = 0.02353361
#
# Stress axis : x y z
#
# Youngs Moduli (GPa) = 54.75136 106.75821 62.04433
#
# Poissons Ratio (x) = 0.35746 0.16420
# Poissons Ratio (y) = 0.18333 0.25517
# Poissons Ratio (z) = 0.14490 0.43907
#
# Static dielectric constant tensor:
#      x y z
#    x 1.677920 -0.000690 0.010450 
#    y -0.000690 1.680760 -0.003920 
#    z 0.010450 -0.003920 1.687790 
# 
# From -- ./inp_files/51557.got.cif
#   From: 2010.05.17/outbox.cif.g08.bks.cpg/sg2_26_cif.got.tgz:51557.got - 2010.06.03 11:33:40.
