data_PCOD9003727
_publ_section_title
;
Structure prediction by ZEFSAII (Michael W. Deem and Ramdas Pophale) SiO2 
 PCOD9003727
Probable space group: P -1
;
_chemical_formula_sum "Si O2"
_cell_formula_units_Z 14
_cell_length_a 22.130821
_cell_length_b 5.047862
_cell_length_c 5.337212
_cell_angle_alpha 97.162114
_cell_angle_beta 73.479778
_cell_angle_gamma 68.403643
_cell_volume 513.605687
_symmetry_space_group_name_H-M "P -1"
_symmetry_group_IT_number 2
_symmetry_cell_setting 'triclinic'
loop_
_space_group_symop_operation_xyz
x,y,z
-x,-y,-z
loop_
_atom_site_type_symbol
_atom_site_label
_atom_site_fract_x
_atom_site_fract_y
_atom_site_fract_z
Si Si1 0.451721 0.882999 0.699067
Si Si2 0.416429 0.784401 0.231104
Si Si3 0.158317 0.324583 0.754906
Si Si4 0.908262 0.054428 0.364175
Si Si5 0.675328 0.498091 0.967257
Si Si6 0.955870 0.398339 0.730759
Si Si7 0.290658 0.386531 0.557924
O O1 0.437590 0.678756 0.481732
O O2 0.500000 0.000000 0.500000
O O3 0.379204 0.165656 0.873676
O O4 0.472113 0.768851 0.948229
O O5 0.366740 0.127403 0.387120
O O6 0.369400 0.656682 0.123313
O O7 0.125204 0.664311 0.742795
O O8 0.238482 0.247159 0.684911
O O9 0.141728 0.110088 0.566678
O O10 0.111561 0.335424 0.049505
O O11 0.925455 0.191048 0.607968
O O12 0.984153 0.800672 0.169449
O O13 0.708002 0.403031 0.192951
O O14 0.728657 0.481573 0.682977
O O15 0.000000 0.500000 0.500000
#
# Coordination Sequence:
#
# PCOD9003727 Si02
#       7
#     2   2   2   2   2   2   2
#     4  10  21  37  61  97 131 167 220 267 322 397
#     4  10  21  40  62  90 129 174 211 272 329 384
#     4  12  27  42  67  96 130 174 223 278 340 414
#     4  11  26  44  65  98 130 169 217 277 344 406
#     4  10  22  43  63  91 129 173 215 273 332 385
#     4  11  25  44  70  96 133 171 218 281 346 411
#     4  10  25  41  63  91 127 166 222 272 326 401
#
# _framework density 27.258268999999999
#
# number of rings (size 3 to 8) (size 9 to 14) (size 15 to 20)
#    0.000    1.429    1.429    2.143    8.000    1.143 
#    0.000    0.000    0.000    0.000    0.000    0.000 
#    0.000    0.000    0.000    0.000    0.000    0.000 
#
# Total GULP energy -78283.874245 kJ/mol
# GULP energy per Si atom -5591.705303 kJ/mol
# Density = 2.719623 g / cm^3
# Si number density = 27.258269 Si / 1000 Ang^3
#
#
#
# Elastic Constant Matrix: (Units=GPa)
#
#
# Indices 1 2 3 4 5 6 
#
# 1 122.7019 18.9999 75.7172 -6.3532 9.0193 43.2413
# 2 18.9999 96.1540 44.6186 -14.4757 8.9136 11.7232
# 3 75.7172 44.6186 208.2742 -22.2662 21.8943 9.9123
# 4 -6.3532 -14.4757 -22.2662 41.8564 9.0176 2.9498
# 5 9.0193 8.9136 21.8943 9.0176 51.1985 9.5817
# 6 43.2413 11.7232 9.9123 2.9498 9.5817 51.0719
#
#
#
# Elastic Compliance Matrix: (Units=1/GPa)
#
#
# Indices 1 2 3 4 5 6 
#
# 1 0.015820 0.000870 -0.005475 0.000318 0.001757 -0.012880
# 2 0.000870 0.012347 -0.002269 0.003716 -0.001410 -0.003080
# 3 -0.005475 -0.002269 0.007733 0.002904 -0.003225 0.004093
# 4 0.000318 0.003716 0.002904 0.028326 -0.006542 -0.002095
# 5 0.001757 -0.001410 -0.003225 -0.006542 0.022831 -0.004444
# 6 -0.012880 -0.003080 0.004093 -0.002095 -0.004444 0.031352
#
#
# Mechanical properties :
#
#
# Convention : Reuss Voigt Hill
#
# Bulk Modulus (GPa) = 45.14588 78.42239 61.78413
# Shear Modulus (GPa) = 35.83154 48.01164 41.92159
#
# Velocity S-wave (km/s) = 3.62956 4.20141 3.92591
# Velocity P-wave (km/s) = 5.84493 7.23660 6.57767
#
# Compressibility (1/GPa) = 0.02215042
#
# Stress axis : x y z
#
# Youngs Moduli (GPa) = 63.21066 80.99266 129.32083
#
# Poissons Ratio (x) = -0.07047 0.70809
# Poissons Ratio (y) = -0.05500 0.29346
# Poissons Ratio (z) = 0.34611 0.18379
#
# Static dielectric constant tensor:
#      x y z
#    x 2.165070 -0.088400 0.051300 
#    y -0.088400 2.281270 -0.062810 
#    z 0.051300 -0.062810 2.162620 
# 
# From -- ./inp_files/9675.got.cif
#   From: 2010.05.17/outbox.cif.g08.bks.cpg/sg2_5_cif.got.tgz:9675.got - 2010.06.03 11:33:40.
