data_PCOD9003154
_publ_section_title
;
Structure prediction by ZEFSAII (Michael W. Deem and Ramdas Pophale) SiO2 
 PCOD9003154
Probable space group: P -1
;
_chemical_formula_sum "Si O2"
_cell_formula_units_Z 16
_cell_length_a 12.105604
_cell_length_b 6.714070
_cell_length_c 12.686315
_cell_angle_alpha 101.424076
_cell_angle_beta 47.657219
_cell_angle_gamma 78.974635
_cell_volume 667.823567
_symmetry_space_group_name_H-M "P -1"
_symmetry_group_IT_number 2
_symmetry_cell_setting 'triclinic'
loop_
_space_group_symop_operation_xyz
x,y,z
-x,-y,-z
loop_
_atom_site_type_symbol
_atom_site_label
_atom_site_fract_x
_atom_site_fract_y
_atom_site_fract_z
Si Si1 0.164501 0.156546 0.458454
Si Si2 0.835499 0.007594 0.873845
Si Si3 0.783401 0.276894 0.717598
Si Si4 0.370655 0.648641 0.778181
Si Si5 0.384114 0.249601 0.464259
Si Si6 0.329069 0.227038 0.151913
Si Si7 0.333633 0.231222 0.736942
Si Si8 0.122265 0.975839 0.822900
O O1 0.211577 0.252573 0.541600
O O2 0.254392 0.220530 0.313093
O O3 0.967283 0.259818 0.578906
O O4 0.237763 0.882434 0.374641
O O5 0.794812 0.147904 0.806427
O O6 0.801438 0.791570 0.849898
O O7 0.709025 0.157411 0.061968
O O8 0.021830 0.957898 0.784891
O O9 0.656466 0.539799 0.837535
O O10 0.561365 0.590337 0.623390
O O11 0.319389 0.454857 0.825948
O O12 0.284553 0.752132 0.730924
O O13 0.391542 0.262105 0.586078
O O14 0.525123 0.991756 0.322852
O O15 0.500000 0.000000 0.000000
O O16 0.175858 0.178788 0.815789
O O17 0.000000 0.000000 0.000000
#
# Coordination Sequence:
#
# PCOD9003154 Si02
#       8
#     2   2   2   2   2   2   2   2
#     4  10  22  41  64  90 122 162 208 257 312 368
#     4  10  22  37  59  88 118 158 203 250 308 367
#     4  10  23  42  63  90 122 161 209 258 310 374
#     4  10  21  37  58  87 123 161 202 252 307 365
#     4  10  21  37  58  87 120 156 206 256 301 367
#     4  11  24  41  62  91 124 158 204 258 314 372
#     4  10  21  37  58  86 120 160 201 249 309 365
#     4   9  20  36  54  84 119 150 195 245 293 362
#
# _framework density 23.958424000000001
#
# number of rings (size 3 to 8) (size 9 to 14) (size 15 to 20)
#    0.000    2.000    0.000    2.250    0.000   12.000 
#    0.000    0.000    0.000    0.000    0.000    0.000 
#    0.000    0.000    0.000    0.000    0.000    0.000 
#
# Total GULP energy -89382.742245 kJ/mol
# GULP energy per Si atom -5586.421390 kJ/mol
# Density = 2.390389 g / cm^3
# Si number density = 23.958424 Si / 1000 Ang^3
#
#
#
# Elastic Constant Matrix: (Units=GPa)
#
#
# Indices 1 2 3 4 5 6 
#
# 1 61.2869 7.5169 -6.9467 2.8170 -12.7845 18.6512
# 2 7.5169 106.2078 16.0237 6.0336 -7.0181 17.2180
# 3 -6.9467 16.0237 58.3676 -12.4085 -1.6528 -1.2760
# 4 2.8170 6.0336 -12.4085 42.8616 8.9022 0.2617
# 5 -12.7845 -7.0181 -1.6528 8.9022 21.6814 -10.7831
# 6 18.6512 17.2180 -1.2760 0.2617 -10.7831 29.4525
#
#
#
# Elastic Compliance Matrix: (Units=1/GPa)
#
#
# Indices 1 2 3 4 5 6 
#
# 1 0.021712 0.000684 0.001821 -0.002790 0.008953 -0.010768
# 2 0.000684 0.011280 -0.003756 -0.003051 0.001783 -0.006511
# 3 0.001821 -0.003756 0.019722 0.006173 -0.000314 0.001727
# 4 -0.002790 -0.003051 0.006173 0.028850 -0.014960 -0.001916
# 5 0.008953 0.001783 -0.000314 -0.014960 0.067022 0.017945
# 6 -0.010768 -0.006511 0.001727 -0.001916 0.017945 0.051240
#
#
# Mechanical properties :
#
#
# Convention : Reuss Voigt Hill
#
# Bulk Modulus (GPa) = 19.91487 28.78335 24.34911
# Shear Modulus (GPa) = 22.82430 32.75033 27.78731
#
# Velocity S-wave (km/s) = 3.08987 3.70126 3.40930
# Velocity P-wave (km/s) = 4.58912 5.50506 5.06783
#
# Compressibility (1/GPa) = 0.05021373
#
# Stress axis : x y z
#
# Youngs Moduli (GPa) = 46.05748 88.64996 50.70519
#
# Poissons Ratio (x) = -0.06066 -0.09235
# Poissons Ratio (y) = -0.03152 0.19044
# Poissons Ratio (z) = -0.08388 0.33295
#
# Static dielectric constant tensor:
#      x y z
#    x 2.021630 0.031540 -0.051080 
#    y 0.031540 1.957840 0.018570 
#    z -0.051080 0.018570 1.914400 
# 
# From -- ./inp_files/94656.got.cif
#   From: 2010.05.17/outbox.cif.g08.bks.cpg/sg2_48_cif.got.tgz:94656.got - 2010.06.03 11:33:40.
