data_PCOD9003370
_publ_section_title
;
Structure prediction by ZEFSAII (Michael W. Deem and Ramdas Pophale) SiO2 
 PCOD9003370
Probable space group: P -1
;
_chemical_formula_sum "Si O2"
_cell_formula_units_Z 16
_cell_length_a 11.442814
_cell_length_b 10.826147
_cell_length_c 9.344707
_cell_angle_alpha 101.373006
_cell_angle_beta 80.210944
_cell_angle_gamma 138.293509
_cell_volume 754.608347
_symmetry_space_group_name_H-M "P -1"
_symmetry_group_IT_number 2
_symmetry_cell_setting 'triclinic'
loop_
_space_group_symop_operation_xyz
x,y,z
-x,-y,-z
loop_
_atom_site_type_symbol
_atom_site_label
_atom_site_fract_x
_atom_site_fract_y
_atom_site_fract_z
Si Si1 0.086559 0.133383 0.148157
Si Si2 0.888677 0.533752 0.489667
Si Si3 0.474198 0.841574 0.396956
Si Si4 0.828167 0.023600 0.760032
Si Si5 0.463803 0.991079 0.172921
Si Si6 0.820585 0.387618 0.176390
Si Si7 0.073723 0.358844 0.017736
Si Si8 0.860232 0.039993 0.423589
O O1 0.134395 0.309225 0.116438
O O2 0.938557 0.014171 0.276919
O O3 0.231809 0.152085 0.186517
O O4 0.000000 0.000000 0.000000
O O5 0.691865 0.363763 0.551503
O O6 0.893789 0.535708 0.317246
O O7 0.000000 0.500000 0.500000
O O8 0.002242 0.737608 0.568020
O O9 0.500000 0.000000 0.500000
O O10 0.433015 0.843589 0.240623
O O11 0.660030 0.918433 0.398738
O O12 0.868970 0.016453 0.585577
O O13 0.686125 0.023619 0.777377
O O14 0.969887 0.197085 0.880046
O O15 0.645363 0.193360 0.233562
O O16 0.500000 0.000000 0.000000
O O17 0.943652 0.364344 0.110270
O O18 0.790913 0.448385 0.055370
#
# Coordination Sequence:
#
# PCOD9003370 Si02
#       8
#     2   2   2   2   2   2   2   2
#     4  10  24  42  67  88 121 174 223 260 315 389
#     4  12  21  35  63  96 133 168 203 262 325 382
#     4  12  23  38  62 101 132 162 211 263 324 387
#     4  11  21  40  64  90 120 171 218 248 316 388
#     4  12  23  37  60  93 131 165 203 264 327 374
#     4  11  21  36  62  93 130 161 201 267 326 372
#     4  10  21  37  59  92 123 162 213 254 308 387
#     4  12  23  42  66  92 130 169 217 268 322 378
#
# _framework density 21.203053000000001
#
# number of rings (size 3 to 8) (size 9 to 14) (size 15 to 20)
#    0.000    0.750    6.250    1.875    1.750    1.000 
#    0.000    0.625    5.500    2.250    0.000    0.000 
#    0.000    0.000    0.000    0.000    0.000    0.000 
#
# Total GULP energy -89213.784087 kJ/mol
# GULP energy per Si atom -5575.861505 kJ/mol
# Density = 2.115479 g / cm^3
# Si number density = 21.203053 Si / 1000 Ang^3
#
#
#
# Elastic Constant Matrix: (Units=GPa)
#
#
# Indices 1 2 3 4 5 6 
#
# 1 80.4075 36.7808 40.8794 -16.1557 19.5178 -7.5788
# 2 36.7808 79.8236 21.3962 -22.6813 6.6085 -0.4417
# 3 40.8794 21.3962 153.7626 -13.8568 7.4194 -5.6353
# 4 -16.1557 -22.6813 -13.8568 31.8181 -15.6525 10.0865
# 5 19.5178 6.6085 7.4194 -15.6525 32.1226 -9.6459
# 6 -7.5788 -0.4417 -5.6353 10.0865 -9.6459 27.8921
#
#
#
# Elastic Compliance Matrix: (Units=1/GPa)
#
#
# Indices 1 2 3 4 5 6 
#
# 1 0.020434 -0.008381 -0.003966 -0.003273 -0.010744 0.002086
# 2 -0.008381 0.019995 0.000292 0.015022 0.006728 -0.005007
# 3 -0.003966 0.000292 0.007650 0.002328 0.001793 0.000251
# 4 -0.003273 0.015022 0.002328 0.056400 0.021943 -0.012988
# 5 -0.010744 0.006728 0.001793 0.021943 0.048468 0.006376
# 6 0.002086 -0.005007 0.000251 -0.012988 0.006376 0.043293
#
#
# Mechanical properties :
#
#
# Convention : Reuss Voigt Hill
#
# Bulk Modulus (GPa) = 41.72509 56.90072 49.31290
# Shear Modulus (GPa) = 21.89710 32.69572 27.29641
#
# Velocity S-wave (km/s) = 3.21710 3.93113 3.59190
# Velocity P-wave (km/s) = 5.78975 6.89198 6.36477
#
# Compressibility (1/GPa) = 0.02396639
#
# Stress axis : x y z
#
# Youngs Moduli (GPa) = 48.93813 50.01253 130.71991
#
# Poissons Ratio (x) = 0.41917 0.51849
# Poissons Ratio (y) = 0.41017 -0.03811
# Poissons Ratio (z) = 0.19411 -0.01458
#
# Static dielectric constant tensor:
#      x y z
#    x 1.783570 -0.022990 0.029520 
#    y -0.022990 1.793810 0.046830 
#    z 0.029520 0.046830 1.986350 
# 
# From -- ./inp_files/259011.got.cif
#   From: 2010.05.17/outbox.cif.g08.bks.cpg/sg2_130_cif.got.tgz:259011.got - 2010.06.03 11:33:40.
