data_PCOD9003795
_publ_section_title
;
Structure prediction by ZEFSAII (Michael W. Deem and Ramdas Pophale) SiO2 
 PCOD9003795
Probable space group: P -1
;
_chemical_formula_sum "Si O2"
_cell_formula_units_Z 16
_cell_length_a 14.238769
_cell_length_b 11.013553
_cell_length_c 8.132129
_cell_angle_alpha 41.075369
_cell_angle_beta 73.006532
_cell_angle_gamma 88.249328
_cell_volume 763.918205
_symmetry_space_group_name_H-M "P -1"
_symmetry_group_IT_number 2
_symmetry_cell_setting 'triclinic'
loop_
_space_group_symop_operation_xyz
x,y,z
-x,-y,-z
loop_
_atom_site_type_symbol
_atom_site_label
_atom_site_fract_x
_atom_site_fract_y
_atom_site_fract_z
Si Si1 0.135361 0.074670 0.692336
Si Si2 0.254580 0.241109 0.159043
Si Si3 0.433402 0.541357 0.339251
Si Si4 0.967748 0.684040 0.271208
Si Si5 0.222242 0.523320 0.640689
Si Si6 0.477517 0.988113 0.783699
Si Si7 0.674328 0.050458 0.797391
Si Si8 0.368949 0.219562 0.435531
O O1 0.157932 0.120698 0.441215
O O2 0.083634 0.222335 0.653612
O O3 0.251128 0.117447 0.661024
O O4 0.064577 0.858414 0.981835
O O5 0.347496 0.285716 0.197633
O O6 0.280473 0.111140 0.134700
O O7 0.236442 0.431199 0.901320
O O8 0.500000 0.500000 0.500000
O O9 0.317975 0.508774 0.497064
O O10 0.426873 0.395560 0.342263
O O11 0.468651 0.762736 0.033593
O O12 0.882559 0.604969 0.255383
O O13 0.000000 0.500000 0.500000
O O14 0.237190 0.751814 0.410281
O O15 0.595605 0.097886 0.656450
O O16 0.431224 0.064981 0.572141
O O17 0.401598 0.019816 0.936736
#
# Coordination Sequence:
#
# PCOD9003795 Si02
#       8
#     2   2   2   2   2   2   2   2
#     4   9  24  43  63  91 123 158 205 257 323 367
#     4  10  23  40  60  88 133 166 196 254 321 369
#     4  11  21  38  65  93 122 163 213 257 303 365
#     4  11  24  43  69  94 116 160 217 263 307 372
#     4  11  22  38  63  91 123 161 209 254 309 370
#     4  10  21  37  62  90 123 165 216 252 296 363
#     4  10  22  37  60  93 124 164 208 253 302 367
#     4  10  21  39  62  86 125 166 199 259 309 367
#
# _framework density 20.944652000000001
#
# number of rings (size 3 to 8) (size 9 to 14) (size 15 to 20)
#    0.750    1.000    1.250    3.750    3.500    4.000 
#    0.000    5.625    0.000    0.000    0.000    0.000 
#    0.000    0.000    0.000    0.000    0.000    0.000 
#
# Total GULP energy -89374.005434 kJ/mol
# GULP energy per Si atom -5585.875340 kJ/mol
# Density = 2.089698 g / cm^3
# Si number density = 20.944652 Si / 1000 Ang^3
#
#
#
# Elastic Constant Matrix: (Units=GPa)
#
#
# Indices 1 2 3 4 5 6 
#
# 1 77.9419 22.4159 29.5096 -10.0792 4.3223 10.6856
# 2 22.4159 93.0250 42.0689 -22.4906 -6.1125 4.4164
# 3 29.5096 42.0689 79.4988 -17.0035 -3.3197 1.4802
# 4 -10.0792 -22.4906 -17.0035 29.6614 -0.5634 -4.9987
# 5 4.3223 -6.1125 -3.3197 -0.5634 42.3671 2.8388
# 6 10.6856 4.4164 1.4802 -4.9987 2.8388 28.5219
#
#
#
# Elastic Compliance Matrix: (Units=1/GPa)
#
#
# Indices 1 2 3 4 5 6 
#
# 1 0.016041 -0.001266 -0.005129 0.000630 -0.001861 -0.005252
# 2 -0.001266 0.015951 -0.006142 0.008105 0.002088 -0.000464
# 3 -0.005129 -0.006142 0.018755 0.004816 0.000994 0.002645
# 4 0.000630 0.008105 0.004816 0.043840 0.001679 0.005775
# 5 -0.001861 0.002088 0.000994 0.001679 0.024315 -0.001804
# 6 -0.005252 -0.000464 0.002645 0.005775 -0.001804 0.038155
#
#
# Mechanical properties :
#
#
# Convention : Reuss Voigt Hill
#
# Bulk Modulus (GPa) = 38.95177 48.71718 43.83447
# Shear Modulus (GPa) = 26.22070 30.54152 28.38111
#
# Velocity S-wave (km/s) = 3.54206 3.82278 3.68510
# Velocity P-wave (km/s) = 5.94694 6.54182 6.25146
#
# Compressibility (1/GPa) = 0.02567278
#
# Stress axis : x y z
#
# Youngs Moduli (GPa) = 62.34045 62.69119 53.31877
#
# Poissons Ratio (x) = 0.07939 0.27350
# Poissons Ratio (y) = 0.07894 0.32746
# Poissons Ratio (z) = 0.31977 0.38502
#
# Static dielectric constant tensor:
#      x y z
#    x 1.743230 0.014300 0.001990 
#    y 0.014300 1.779120 0.029210 
#    z 0.001990 0.029210 1.774300 
# 
# From -- ./inp_files/306229.got.cif
#   From: 2010.05.17/outbox.cif.g08.bks.cpg/sg2_154_cif.got.tgz:306229.got - 2010.06.03 11:33:40.
