data_PCOD9003405
_publ_section_title
;
Structure prediction by ZEFSAII (Michael W. Deem and Ramdas Pophale) SiO2 
 PCOD9003405
Probable space group: P -1
;
_chemical_formula_sum "Si O2"
_cell_formula_units_Z 16
_cell_length_a 12.324831
_cell_length_b 8.582863
_cell_length_c 13.963921
_cell_angle_alpha 51.608869
_cell_angle_beta 30.131932
_cell_angle_gamma 55.991335
_cell_volume 580.262511
_symmetry_space_group_name_H-M "P -1"
_symmetry_group_IT_number 2
_symmetry_cell_setting 'triclinic'
loop_
_space_group_symop_operation_xyz
x,y,z
-x,-y,-z
loop_
_atom_site_type_symbol
_atom_site_label
_atom_site_fract_x
_atom_site_fract_y
_atom_site_fract_z
Si Si1 0.323313 0.115893 0.225458
Si Si2 0.874057 0.156845 0.658123
Si Si3 0.306387 0.667559 0.094910
Si Si4 0.697738 0.082869 0.431212
Si Si5 0.609028 0.693178 0.560615
Si Si6 0.440666 0.649306 0.400743
Si Si7 0.218497 0.506563 0.039697
Si Si8 0.103901 0.245031 0.077826
O O1 0.320543 0.290279 0.079680
O O2 0.104785 0.178118 0.425582
O O3 0.289299 0.910966 0.273959
O O4 0.550997 0.139623 0.094493
O O5 0.800536 0.331485 0.719742
O O6 0.885221 0.961746 0.792078
O O7 0.150053 0.630620 0.139529
O O8 0.500000 0.500000 0.000000
O O9 0.481263 0.165501 0.511395
O O10 0.675956 0.161189 0.527712
O O11 0.895434 0.200740 0.191033
O O12 0.731503 0.847217 0.475199
O O13 0.683309 0.485383 0.530837
O O14 0.406474 0.627787 0.803213
O O15 0.500000 0.500000 0.500000
O O16 0.671840 0.705814 0.159884
O O17 0.051695 0.432623 0.117132
#
# Coordination Sequence:
#
# PCOD9003405 Si02
#       8
#     2   2   2   2   2   2   2   2
#     4   9  20  39  59  84 120 162 198 252 308 356
#     4  10  21  37  61  92 120 153 213 251 292 379
#     4  10  21  37  60  85 120 163 192 250 311 357
#     4  10  21  40  64  86 124 167 201 254 316 352
#     4   9  20  39  61  91 123 157 212 256 293 380
#     4   9  20  39  60  86 121 160 204 252 299 365
#     4   9  20  37  56  86 125 151 202 252 296 365
#     4  10  22  39  59  91 122 160 205 252 302 361
#
# _framework density 27.573725
#
# number of rings (size 3 to 8) (size 9 to 14) (size 15 to 20)
#    0.000    2.500    0.000    0.375    3.500    6.500 
#    2.250   19.375    0.000    0.000    0.000    0.000 
#    0.000    0.000    0.000    0.000    0.000    0.000 
#
# Total GULP energy -89458.109918 kJ/mol
# GULP energy per Si atom -5591.131870 kJ/mol
# Density = 2.751097 g / cm^3
# Si number density = 27.573725 Si / 1000 Ang^3
#
#
#
# Elastic Constant Matrix: (Units=GPa)
#
#
# Indices 1 2 3 4 5 6 
#
# 1 74.7588 51.5516 31.4100 -7.4339 -13.3101 40.5630
# 2 51.5516 199.0385 64.9461 7.6879 -4.7078 56.1282
# 3 31.4100 64.9461 168.5766 3.1901 -9.1124 33.8548
# 4 -7.4339 7.6879 3.1901 56.6472 11.2319 3.2970
# 5 -13.3101 -4.7078 -9.1124 11.2319 44.9545 -10.6958
# 6 40.5630 56.1282 33.8548 3.2970 -10.6958 59.1603
#
#
#
# Elastic Compliance Matrix: (Units=1/GPa)
#
#
# Indices 1 2 3 4 5 6 
#
# 1 0.023082 -0.002095 -0.000791 0.003645 0.002414 -0.013152
# 2 -0.002095 0.007459 -0.001543 -0.000685 -0.001153 -0.004928
# 3 -0.000791 -0.001543 0.007101 -0.000314 0.000666 -0.001920
# 4 0.003645 -0.000685 -0.000314 0.019396 -0.004762 -0.003611
# 5 0.002414 -0.001153 0.000666 -0.004762 0.025081 0.003858
# 6 -0.013152 -0.004928 -0.001920 -0.003611 0.003858 0.032593
#
#
# Mechanical properties :
#
#
# Convention : Reuss Voigt Hill
#
# Bulk Modulus (GPa) = 34.74080 82.02104 58.38092
# Shear Modulus (GPa) = 37.54721 51.78348 44.66535
#
# Velocity S-wave (km/s) = 3.69413 4.33829 4.02910
# Velocity P-wave (km/s) = 5.55176 7.40979 6.54703
#
# Compressibility (1/GPa) = 0.02878460
#
# Stress axis : x y z
#
# Youngs Moduli (GPa) = 43.32418 134.06592 140.81905
#
# Poissons Ratio (x) = 0.28087 0.11134
# Poissons Ratio (y) = 0.09076 0.21730
# Poissons Ratio (z) = 0.03426 0.20688
#
# Static dielectric constant tensor:
#      x y z
#    x 2.361060 0.010290 0.011380 
#    y 0.010290 2.260010 -0.008260 
#    z 0.011380 -0.008260 2.132810 
# 
# From -- ./inp_files/529464.got.cif
#   From: 2010.05.17/outbox.cif.g08.bks.cpg/sg2_265_cif.got.tgz:529464.got - 2010.06.03 11:33:40.
