data_PCOD9003195
_publ_section_title
;
Structure prediction by ZEFSAII (Michael W. Deem and Ramdas Pophale) SiO2 
 PCOD9003195
Probable space group: P -1
;
_chemical_formula_sum "Si O2"
_cell_formula_units_Z 16
_cell_length_a 23.001687
_cell_length_b 9.044913
_cell_length_c 7.370650
_cell_angle_alpha 35.349647
_cell_angle_beta 51.523968
_cell_angle_gamma 50.934526
_cell_volume 668.577780
_symmetry_space_group_name_H-M "P -1"
_symmetry_group_IT_number 2
_symmetry_cell_setting 'triclinic'
loop_
_space_group_symop_operation_xyz
x,y,z
-x,-y,-z
loop_
_atom_site_type_symbol
_atom_site_label
_atom_site_fract_x
_atom_site_fract_y
_atom_site_fract_z
Si Si1 0.235237 0.055221 0.730727
Si Si2 0.934056 0.823124 0.131276
Si Si3 0.443165 0.429327 0.532999
Si Si4 0.497342 0.144508 0.170027
Si Si5 0.010485 0.251311 0.490249
Si Si6 0.277324 0.501736 0.682599
Si Si7 0.186946 0.086168 0.215752
Si Si8 0.322685 0.471750 0.194552
O O1 0.156686 0.071744 0.761643
O O2 0.268219 0.304637 0.383404
O O3 0.208824 0.071530 0.975961
O O4 0.298766 0.774817 0.871839
O O5 0.975916 0.773544 0.293658
O O6 0.956265 0.542663 0.267264
O O7 0.966299 0.033070 0.748274
O O8 0.500000 0.500000 0.500000
O O9 0.351849 0.482721 0.680590
O O10 0.472966 0.115108 0.752697
O O11 0.452123 0.643767 0.146945
O O12 0.409859 0.314007 0.140123
O O13 0.500000 0.000000 0.500000
O O14 0.095742 0.198983 0.299361
O O15 0.308785 0.470410 0.442570
O O16 0.217180 0.788071 0.529030
O O17 0.234254 0.274921 0.023852
#
# Coordination Sequence:
#
# PCOD9003195 Si02
#       8
#     2   2   2   2   2   2   2   2
#     4  10  21  37  58  89 122 149 195 262 304 343
#     4  10  21  38  59  83 118 155 190 252 296 354
#     4  12  26  44  64  96 136 166 212 275 325 370
#     4  12  24  42  72  93 122 178 223 258 313 394
#     4  10  21  38  59  83 116 157 199 231 301 380
#     4  10  21  39  62  84 125 163 195 256 314 364
#     4  10  21  37  60  88 114 157 202 241 305 373
#     4  10  21  38  62  90 119 157 211 256 301 366
#
# _framework density 23.931395999999999
#
# number of rings (size 3 to 8) (size 9 to 14) (size 15 to 20)
#    0.000    1.500    1.250    3.750    3.500    1.000 
#    6.750    0.000    0.000    0.000    0.000    0.000 
#    0.000    0.000    0.000    0.000    0.000    0.000 
#
# Total GULP energy -89573.930247 kJ/mol
# GULP energy per Si atom -5598.370640 kJ/mol
# Density = 2.387693 g / cm^3
# Si number density = 23.931396 Si / 1000 Ang^3
#
#
#
# Elastic Constant Matrix: (Units=GPa)
#
#
# Indices 1 2 3 4 5 6 
#
# 1 67.2215 1.7230 18.5167 -7.7670 -8.9213 -10.3224
# 2 1.7230 87.1483 34.4740 -15.4453 6.3299 -20.0231
# 3 18.5167 34.4740 116.4553 -22.1485 -21.6362 2.9053
# 4 -7.7670 -15.4453 -22.1485 37.7379 -10.0901 3.1314
# 5 -8.9213 6.3299 -21.6362 -10.0901 34.2645 2.6667
# 6 -10.3224 -20.0231 2.9053 3.1314 2.6667 30.5360
#
#
#
# Elastic Compliance Matrix: (Units=1/GPa)
#
#
# Indices 1 2 3 4 5 6 
#
# 1 0.017411 0.002779 -0.002637 0.003296 0.002751 0.007381
# 2 0.002779 0.018580 -0.007990 -0.000119 -0.008931 0.014675
# 3 -0.002637 -0.007990 0.016485 0.010754 0.015154 -0.010125
# 4 0.003296 -0.000119 0.010754 0.039168 0.019650 -0.005720
# 5 0.002751 -0.008931 0.015154 0.019650 0.047884 -0.012565
# 6 0.007381 0.014675 -0.010125 -0.005720 -0.012565 0.047513
#
#
# Mechanical properties :
#
#
# Convention : Reuss Voigt Hill
#
# Bulk Modulus (GPa) = 27.18944 42.25028 34.71986
# Shear Modulus (GPa) = 23.25617 34.91510 29.08563
#
# Velocity S-wave (km/s) = 3.12073 3.82379 3.49001
# Velocity P-wave (km/s) = 4.93673 6.09821 5.54795
#
# Compressibility (1/GPa) = 0.03677899
#
# Stress axis : x y z
#
# Youngs Moduli (GPa) = 57.43608 53.82184 60.66168
#
# Poissons Ratio (x) = -0.14958 0.15998
# Poissons Ratio (y) = -0.15962 0.48469
# Poissons Ratio (z) = 0.15147 0.43004
#
# Static dielectric constant tensor:
#      x y z
#    x 1.999380 0.102870 0.175970 
#    y 0.102870 1.919410 0.052150 
#    z 0.175970 0.052150 2.110430 
# 
# From -- ./inp_files/138955.got.cif
#   From: 2010.05.17/outbox.cif.g08.bks.cpg/sg2_70_cif.got.tgz:138955.got - 2010.06.03 11:33:40.
