data_PCOD9003718
_publ_section_title
;
Structure prediction by ZEFSAII (Michael W. Deem and Ramdas Pophale) SiO2 
 PCOD9003718
Probable space group: P -1
;
_chemical_formula_sum "Si O2"
_cell_formula_units_Z 16
_cell_length_a 17.489921
_cell_length_b 13.797147
_cell_length_c 8.789578
_cell_angle_alpha 134.150982
_cell_angle_beta 133.218960
_cell_angle_gamma 32.708558
_cell_volume 795.268443
_symmetry_space_group_name_H-M "P -1"
_symmetry_group_IT_number 2
_symmetry_cell_setting 'triclinic'
loop_
_space_group_symop_operation_xyz
x,y,z
-x,-y,-z
loop_
_atom_site_type_symbol
_atom_site_label
_atom_site_fract_x
_atom_site_fract_y
_atom_site_fract_z
Si Si1 0.116573 0.329785 0.730863
Si Si2 0.343246 0.136258 0.559351
Si Si3 0.607446 0.475983 0.002102
Si Si4 0.406159 0.902883 0.132366
Si Si5 0.667862 0.348294 0.619778
Si Si6 0.833888 0.943080 0.262696
Si Si7 0.844800 0.420880 0.779016
Si Si8 0.787793 0.527842 0.477906
O O1 0.216238 0.249278 0.631008
O O2 0.183771 0.161904 0.755669
O O3 0.956841 0.416368 0.568064
O O4 0.108827 0.482497 0.968294
O O5 0.490263 0.068919 0.754950
O O6 0.298521 0.276517 0.513180
O O7 0.373578 0.967456 0.334509
O O8 0.666666 0.337787 0.789873
O O9 0.500000 0.500000 0.000000
O O10 0.505572 0.682154 0.012988
O O11 0.736030 0.437219 0.225841
O O12 0.256960 0.017213 0.965915
O O13 0.500000 0.500000 0.500000
O O14 0.743894 0.419038 0.745520
O O15 0.761358 0.143351 0.448947
O O16 0.006431 0.792932 0.295953
O O17 0.766171 0.530104 0.631962
#
# Coordination Sequence:
#
# PCOD9003718 Si02
#       8
#     2   2   2   2   2   2   2   2
#     4  11  23  40  68  97 128 171 220 266 326 386
#     4  10  21  37  61  96 129 165 216 265 328 379
#     4  11  24  42  64  90 130 174 216 265 326 384
#     4  10  21  39  59  90 130 168 209 271 319 382
#     4  12  25  45  67  96 131 175 223 263 325 392
#     4  11  24  42  66  98 133 166 223 266 325 386
#     4  11  23  44  69  97 131 176 213 271 325 386
#     4  10  21  40  64  92 126 167 210 269 323 380
#
# _framework density 20.118991000000001
#
# number of rings (size 3 to 8) (size 9 to 14) (size 15 to 20)
#    0.000    1.250    1.250    6.000    1.750    1.500 
#    2.250    2.500    0.000    0.000    0.000    0.000 
#    0.000    0.000    0.000    0.000    0.000    0.000 
#
# Total GULP energy -89379.127253 kJ/mol
# GULP energy per Si atom -5586.195453 kJ/mol
# Density = 2.007320 g / cm^3
# Si number density = 20.118991 Si / 1000 Ang^3
#
#
#
# Elastic Constant Matrix: (Units=GPa)
#
#
# Indices 1 2 3 4 5 6 
#
# 1 121.6039 15.7330 42.6159 -3.5401 0.0807 -20.3779
# 2 15.7330 48.5772 18.7667 1.7365 3.8402 -7.1476
# 3 42.6159 18.7667 107.7238 -4.6450 4.4404 -17.8634
# 4 -3.5401 1.7365 -4.6450 33.6720 -2.7691 -2.8605
# 5 0.0807 3.8402 4.4404 -2.7691 30.1272 4.6127
# 6 -20.3779 -7.1476 -17.8634 -2.8605 4.6127 16.6366
#
#
#
# Elastic Compliance Matrix: (Units=1/GPa)
#
#
# Indices 1 2 3 4 5 6 
#
# 1 0.011091 -0.001039 -0.002188 0.001793 -0.001158 0.011419
# 2 -0.001039 0.023215 -0.002380 -0.001355 -0.003796 0.006965
# 3 -0.002188 -0.002380 0.012630 0.002328 -0.003038 0.011101
# 4 0.001793 -0.001355 0.002328 0.031158 0.001294 0.009112
# 5 -0.001158 -0.003796 -0.003038 0.001294 0.036738 -0.016275
# 6 0.011419 0.006965 0.011101 0.009112 -0.016275 0.095086
#
#
# Mechanical properties :
#
#
# Convention : Reuss Voigt Hill
#
# Bulk Modulus (GPa) = 27.99466 48.01511 38.00488
# Shear Modulus (GPa) = 21.45549 29.47312 25.46431
#
# Velocity S-wave (km/s) = 3.26917 3.83161 3.56151
# Velocity P-wave (km/s) = 5.30987 6.59487 5.98694
#
# Compressibility (1/GPa) = 0.03572110
#
# Stress axis : x y z
#
# Youngs Moduli (GPa) = 90.16195 43.07506 79.17850
#
# Poissons Ratio (x) = 0.04476 0.17325
# Poissons Ratio (y) = 0.09370 0.18846
# Poissons Ratio (z) = 0.19728 0.10253
#
# Static dielectric constant tensor:
#      x y z
#    x 1.713110 0.011040 -0.000060 
#    y 0.011040 1.707920 0.008640 
#    z -0.000060 0.008640 1.728400 
# 
# From -- ./inp_files/184086.got.cif
#   From: 2010.05.17/outbox.cif.g08.bks.cpg/sg2_93_cif.got.tgz:184086.got - 2010.06.03 11:33:40.
