data_PCOD9003573
_publ_section_title
;
Structure prediction by ZEFSAII (Michael W. Deem and Ramdas Pophale) SiO2 
 PCOD9003573
Probable space group: P -1
;
_chemical_formula_sum "Si O2"
_cell_formula_units_Z 14
_cell_length_a 10.917070
_cell_length_b 12.531287
_cell_length_c 12.895614
_cell_angle_alpha 32.802996
_cell_angle_beta 131.945946
_cell_angle_gamma 125.995086
_cell_volume 709.396695
_symmetry_space_group_name_H-M "P -1"
_symmetry_group_IT_number 2
_symmetry_cell_setting 'triclinic'
loop_
_space_group_symop_operation_xyz
x,y,z
-x,-y,-z
loop_
_atom_site_type_symbol
_atom_site_label
_atom_site_fract_x
_atom_site_fract_y
_atom_site_fract_z
Si Si1 0.290379 0.770224 0.049570
Si Si2 0.617144 0.718312 0.992245
Si Si3 0.267419 0.323665 0.467731
Si Si4 0.368557 0.054039 0.573662
Si Si5 0.313494 0.389698 0.102751
Si Si6 0.337703 0.162970 0.861511
Si Si7 0.103441 0.735187 0.768091
O O1 0.301296 0.553669 0.277631
O O2 0.461840 0.819325 0.044369
O O3 0.145092 0.776992 0.877776
O O4 0.278416 0.936484 0.993299
O O5 0.715522 0.671492 0.982840
O O6 0.520936 0.917401 0.756633
O O7 0.479339 0.536914 0.078416
O O8 0.712440 0.751414 0.127107
O O9 0.384671 0.193785 0.570505
O O10 0.282118 0.274856 0.636311
O O11 0.085046 0.265095 0.369447
O O12 0.339485 0.201284 0.342595
O O13 0.213164 0.897657 0.632425
O O14 0.171705 0.521532 0.957924
#
# Coordination Sequence:
#
# PCOD9003573 Si02
#       7
#     2   2   2   2   2   2   2
#     4  11  21  37  56  85 120 150 187 235 288 336
#     4  10  21  39  56  85 114 152 193 234 277 333
#     4  12  23  34  61  88 118 152 183 233 296 340
#     4  11  19  35  60  85 111 144 196 235 282 325
#     4  10  21  37  61  81 115 150 195 238 270 334
#     4  11  21  37  55  86 123 145 183 239 286 343
#     4  11  22  38  56  91 115 148 194 233 281 341
#
# _framework density 19.735078999999999
#
# number of rings (size 3 to 8) (size 9 to 14) (size 15 to 20)
#    0.000    1.143    5.714    2.571    0.000    1.143 
#    0.000    0.714    0.000    1.714    0.000    0.000 
#    0.000    0.000    0.000    0.000    0.000    0.000 
#
# Total GULP energy -78279.464257 kJ/mol
# GULP energy per Si atom -5591.390304 kJ/mol
# Density = 1.969016 g / cm^3
# Si number density = 19.735079 Si / 1000 Ang^3
#
#
#
# Elastic Constant Matrix: (Units=GPa)
#
#
# Indices 1 2 3 4 5 6 
#
# 1 29.6439 39.8479 14.7146 -2.1490 -14.1505 -14.8024
# 2 39.8479 122.7661 37.5336 1.4812 -12.1838 -34.4373
# 3 14.7146 37.5336 80.1458 -7.6030 -28.9994 5.7438
# 4 -2.1490 1.4812 -7.6030 31.8520 3.5547 -3.0134
# 5 -14.1505 -12.1838 -28.9994 3.5547 26.3444 2.1925
# 6 -14.8024 -34.4373 5.7438 -3.0134 2.1925 28.3937
#
#
#
# Elastic Compliance Matrix: (Units=1/GPa)
#
#
# Indices 1 2 3 4 5 6 
#
# 1 0.091636 -0.026064 0.013405 0.005949 0.050272 0.010199
# 2 -0.026064 0.026426 -0.017863 -0.002443 -0.023076 0.023599
# 3 0.013405 -0.017863 0.034262 0.003359 0.038216 -0.024202
# 4 0.005949 -0.002443 0.003359 0.032861 0.001091 0.002862
# 5 0.050272 -0.023076 0.038216 0.001091 0.097618 -0.016933
# 6 0.010199 0.023599 -0.024202 0.002862 -0.016933 0.075665
#
#
# Mechanical properties :
#
#
# Convention : Reuss Voigt Hill
#
# Bulk Modulus (GPa) = 10.95515 46.30536 28.63026
# Shear Modulus (GPa) = 11.11258 26.68198 18.89728
#
# Velocity S-wave (km/s) = 2.37552 3.68095 3.09778
# Velocity P-wave (km/s) = 3.61764 6.44828 5.22817
#
# Compressibility (1/GPa) = 0.09128124
#
# Stress axis : x y z
#
# Youngs Moduli (GPa) = 10.91269 37.84147 29.18643
#
# Poissons Ratio (x) = 0.98630 -0.39125
# Poissons Ratio (y) = 0.28443 0.52136
# Poissons Ratio (z) = -0.14629 0.67597
#
# Static dielectric constant tensor:
#      x y z
#    x 1.688780 -0.002340 -0.004280 
#    y -0.002340 1.714240 -0.005720 
#    z -0.004280 -0.005720 1.704440 
# 
# From -- ./inp_files/518618.got.cif
#   From: 2010.05.17/outbox.cif.g08.bks.cpg/sg2_260_cif.got.tgz:518618.got - 2010.06.03 11:33:40.
