data_PCOD9003494
_publ_section_title
;
Structure prediction by ZEFSAII (Michael W. Deem and Ramdas Pophale) SiO2 
 PCOD9003494
Probable space group: P -1
;
_chemical_formula_sum "Si O2"
_cell_formula_units_Z 16
_cell_length_a 8.649514
_cell_length_b 11.560010
_cell_length_c 9.420356
_cell_angle_alpha 83.485699
_cell_angle_beta 77.647751
_cell_angle_gamma 130.028804
_cell_volume 663.691892
_symmetry_space_group_name_H-M "P -1"
_symmetry_group_IT_number 2
_symmetry_cell_setting 'triclinic'
loop_
_space_group_symop_operation_xyz
x,y,z
-x,-y,-z
loop_
_atom_site_type_symbol
_atom_site_label
_atom_site_fract_x
_atom_site_fract_y
_atom_site_fract_z
Si Si1 0.313841 0.642767 0.850462
Si Si2 0.891910 0.824316 0.998338
Si Si3 0.829489 0.137725 0.461005
Si Si4 0.444552 0.603771 0.287732
Si Si5 0.515409 0.157186 0.614022
Si Si6 0.687441 0.094887 0.068278
Si Si7 0.933171 0.543803 0.801260
Si Si8 0.241862 0.254003 0.301105
O O1 0.318576 0.778579 0.884428
O O2 0.552153 0.727039 0.745161
O O3 0.124586 0.548023 0.783224
O O4 0.210648 0.517101 0.018668
O O5 0.662178 0.704947 0.139939
O O6 0.837451 0.791439 0.844191
O O7 0.062556 0.813716 0.023712
O O8 0.000000 0.000000 0.000000
O O9 0.736428 0.192167 0.571909
O O10 0.941761 0.276874 0.299037
O O11 0.020336 0.142331 0.453734
O O12 0.622296 0.959579 0.475830
O O13 0.481225 0.701507 0.404726
O O14 0.251385 0.581888 0.256526
O O15 0.348696 0.426744 0.319523
O O16 0.378988 0.039954 0.789728
O O17 0.500000 0.000000 0.000000
#
# Coordination Sequence:
#
# PCOD9003494 Si02
#       8
#     2   2   2   2   2   2   2   2
#     4  11  22  36  59  93 131 156 199 252 320 368
#     4  12  21  38  60  93 127 158 211 256 307 365
#     4  10  22  42  69  85 119 169 218 253 292 378
#     4  11  22  37  61  90 121 159 210 260 299 369
#     4  11  22  42  65  92 120 164 216 251 309 363
#     4  12  23  38  61  96 129 159 197 259 322 366
#     4  10  21  37  60  91 119 165 195 255 307 359
#     4  11  22  37  62  92 122 167 207 255 309 359
#
# _framework density 24.107572000000001
#
# number of rings (size 3 to 8) (size 9 to 14) (size 15 to 20)
#    0.000    1.000    5.000    2.625    5.250    2.000 
#    0.000    0.625    2.750    1.500    0.000    0.000 
#    0.000    0.000    0.000    0.000    0.000    0.000 
#
# Total GULP energy -89219.903190 kJ/mol
# GULP energy per Si atom -5576.243949 kJ/mol
# Density = 2.405270 g / cm^3
# Si number density = 24.107572 Si / 1000 Ang^3
#
#
#
# Elastic Constant Matrix: (Units=GPa)
#
#
# Indices 1 2 3 4 5 6 
#
# 1 116.1675 48.2756 33.4865 -0.8071 -53.5439 16.8898
# 2 48.2756 119.7827 20.5602 16.0090 -22.4130 -11.6252
# 3 33.4865 20.5602 56.3512 4.8539 -36.7520 -1.3504
# 4 -0.8071 16.0090 4.8539 27.7549 -6.8794 -13.7504
# 5 -53.5439 -22.4130 -36.7520 -6.8794 58.0318 -8.6096
# 6 16.8898 -11.6252 -1.3504 -13.7504 -8.6096 42.5723
#
#
#
# Elastic Compliance Matrix: (Units=1/GPa)
#
#
# Indices 1 2 3 4 5 6 
#
# 1 0.018541 -0.005847 0.000443 0.005587 0.015189 -0.004062
# 2 -0.005847 0.011640 -0.001563 -0.005510 -0.002060 0.003252
# 3 0.000443 -0.001563 0.031682 0.003491 0.021145 0.005806
# 4 0.005587 -0.005510 0.003491 0.049546 0.013350 0.015092
# 5 0.015189 -0.002060 0.021145 0.013350 0.046584 0.007815
# 6 -0.004062 0.003252 0.005806 0.015092 0.007815 0.032629
#
#
# Mechanical properties :
#
#
# Convention : Reuss Voigt Hill
#
# Bulk Modulus (GPa) = 20.86487 55.21623 38.04055
# Shear Modulus (GPa) = 22.67253 38.33705 30.50479
#
# Velocity S-wave (km/s) = 3.07004 3.99212 3.56105
# Velocity P-wave (km/s) = 4.60875 6.64855 5.72030
#
# Compressibility (1/GPa) = 0.04792745
#
# Stress axis : x y z
#
# Youngs Moduli (GPa) = 53.93531 85.91075 31.56393
#
# Poissons Ratio (x) = 0.50235 -0.01399
# Poissons Ratio (y) = 0.31538 0.04934
# Poissons Ratio (z) = -0.02390 0.13430
#
# Static dielectric constant tensor:
#      x y z
#    x 2.068030 -0.004030 0.019600 
#    y -0.004030 1.951430 -0.008490 
#    z 0.019600 -0.008490 1.962630 
# 
# From -- ./inp_files/390385.got.cif
#   From: 2010.05.17/outbox.cif.g08.bks.cpg/sg2_196_cif.got.tgz:390385.got - 2010.06.03 11:33:40.
