data_PCOD9003426
_publ_section_title
;
Structure prediction by ZEFSAII (Michael W. Deem and Ramdas Pophale) SiO2 
 PCOD9003426
Probable space group: P -1
;
_chemical_formula_sum "Si O2"
_cell_formula_units_Z 16
_cell_length_a 5.770592
_cell_length_b 16.444367
_cell_length_c 15.428626
_cell_angle_alpha 35.099012
_cell_angle_beta 120.715885
_cell_angle_gamma 127.073942
_cell_volume 671.171248
_symmetry_space_group_name_H-M "P -1"
_symmetry_group_IT_number 2
_symmetry_cell_setting 'triclinic'
loop_
_space_group_symop_operation_xyz
x,y,z
-x,-y,-z
loop_
_atom_site_type_symbol
_atom_site_label
_atom_site_fract_x
_atom_site_fract_y
_atom_site_fract_z
Si Si1 0.788757 0.653041 0.823650
Si Si2 0.935304 0.652857 0.367323
Si Si3 0.921682 0.638423 0.673865
Si Si4 0.956493 0.170454 0.934804
Si Si5 0.687474 0.852388 0.216279
Si Si6 0.516474 0.889848 0.523850
Si Si7 0.565387 0.836887 0.395545
Si Si8 0.861006 0.607618 0.071872
O O1 0.975351 0.645235 0.782395
O O2 0.725645 0.806205 0.667968
O O3 0.472391 0.513757 0.878746
O O4 0.915839 0.650665 0.944240
O O5 0.874084 0.718694 0.206959
O O6 0.233912 0.769907 0.362249
O O7 0.000000 0.500000 0.500000
O O8 0.706931 0.685991 0.357729
O O9 0.655965 0.693367 0.563065
O O10 0.193106 0.762246 0.569792
O O11 0.923042 0.477416 0.784714
O O12 0.628272 0.164282 0.863833
O O13 0.088851 0.252596 0.977543
O O14 0.920138 0.994102 0.085483
O O15 0.726868 0.904472 0.278664
O O16 0.607637 0.940443 0.398479
O O17 0.500000 0.000000 0.500000
#
# Coordination Sequence:
#
# PCOD9003426 Si02
#       8
#     2   2   2   2   2   2   2   2
#     4   9  21  38  56  90 124 162 214 259 318 379
#     4  11  25  39  67  96 128 167 216 266 321 379
#     4  10  21  37  61  86 127 158 212 266 313 378
#     4  10  24  40  65  91 128 173 212 260 328 380
#     4  10  23  45  60  94 133 166 215 268 317 394
#     4  10  22  39  61  92 125 163 209 265 319 378
#     4  10  23  39  63  92 125 167 210 265 321 375
#     4  10  21  37  60  86 123 166 211 262 314 384
#
# _framework density 23.838922
#
# number of rings (size 3 to 8) (size 9 to 14) (size 15 to 20)
#    0.000    2.000    0.000    1.500    8.750    6.000 
#    0.000    0.000    0.000    0.000    0.000    0.000 
#    0.000    0.000    0.000    0.000    0.000    0.000 
#
# Total GULP energy -89353.463109 kJ/mol
# GULP energy per Si atom -5584.591444 kJ/mol
# Density = 2.378466 g / cm^3
# Si number density = 23.838922 Si / 1000 Ang^3
#
#
#
# Elastic Constant Matrix: (Units=GPa)
#
#
# Indices 1 2 3 4 5 6 
#
# 1 56.3399 18.5079 18.7052 0.9530 -5.0103 -24.1499
# 2 18.5079 95.9817 46.5509 0.4920 -6.1926 -29.4761
# 3 18.7052 46.5509 76.2658 5.0933 -2.3816 -15.8356
# 4 0.9530 0.4920 5.0933 36.8966 -13.8935 6.8741
# 5 -5.0103 -6.1926 -2.3816 -13.8935 47.1011 6.3419
# 6 -24.1499 -29.4761 -15.8356 6.8741 6.3419 30.9427
#
#
#
# Elastic Compliance Matrix: (Units=1/GPa)
#
#
# Indices 1 2 3 4 5 6 
#
# 1 0.028838 0.004330 -0.003921 -0.005849 -0.001828 0.026299
# 2 0.004330 0.019488 -0.009044 -0.002743 -0.000676 0.018062
# 3 -0.003921 -0.009044 0.019589 -0.002857 -0.001359 -0.000738
# 4 -0.005849 -0.002743 -0.002857 0.035742 0.011978 -0.019035
# 5 -0.001828 -0.000676 -0.001359 0.011978 0.025856 -0.010726
# 6 0.026299 0.018062 -0.000738 -0.019035 -0.010726 0.076099
#
#
# Mechanical properties :
#
#
# Convention : Reuss Voigt Hill
#
# Bulk Modulus (GPa) = 19.74596 44.01282 31.87939
# Shear Modulus (GPa) = 20.85365 32.64297 26.74831
#
# Velocity S-wave (km/s) = 2.96087 3.70444 3.35333
# Velocity P-wave (km/s) = 4.47102 6.06629 5.32869
#
# Compressibility (1/GPa) = 0.05064326
#
# Stress axis : x y z
#
# Youngs Moduli (GPa) = 34.67588 51.31446 51.04807
#
# Poissons Ratio (x) = -0.22217 0.20018
# Poissons Ratio (y) = -0.15013 0.46169
# Poissons Ratio (z) = 0.13598 0.46410
#
# Static dielectric constant tensor:
#      x y z
#    x 1.986570 -0.043310 -0.022730 
#    y -0.043310 1.885750 -0.001920 
#    z -0.022730 -0.001920 1.938120 
# 
# From -- ./inp_files/98155.got.cif
#   From: 2010.05.17/outbox.cif.g08.bks.cpg/sg2_50_cif.got.tgz:98155.got - 2010.06.03 11:33:40.
