data_PCOD9003886
_publ_section_title
;
Structure prediction by ZEFSAII (Michael W. Deem and Ramdas Pophale) SiO2 
 PCOD9003886
Probable space group: P -1
;
_chemical_formula_sum "Si O2"
_cell_formula_units_Z 14
_cell_length_a 14.907935
_cell_length_b 27.117513
_cell_length_c 26.376301
_cell_angle_alpha 11.176530
_cell_angle_beta 160.102795
_cell_angle_gamma 162.514494
_cell_volume 619.072770
_symmetry_space_group_name_H-M "P -1"
_symmetry_group_IT_number 2
_symmetry_cell_setting 'triclinic'
loop_
_space_group_symop_operation_xyz
x,y,z
-x,-y,-z
loop_
_atom_site_type_symbol
_atom_site_label
_atom_site_fract_x
_atom_site_fract_y
_atom_site_fract_z
Si Si1 0.248028 0.513734 0.817205
Si Si2 0.093336 0.015088 0.476000
Si Si3 0.332723 0.867418 0.287270
Si Si4 0.810482 0.689796 0.263893
Si Si5 0.960458 0.484532 0.115534
Si Si6 0.305132 0.662238 0.225118
Si Si7 0.298237 0.056906 0.236444
O O1 0.347381 0.823341 0.531398
O O2 0.969160 0.457089 0.761100
O O3 0.500000 0.500000 0.000000
O O4 0.180699 0.254284 0.003991
O O5 0.449508 0.124210 0.561084
O O6 0.961894 0.716655 0.676616
O O7 0.033581 0.248004 0.180635
O O8 0.000000 0.000000 0.500000
O O9 0.331513 0.652077 0.460873
O O10 0.999342 0.748366 0.252705
O O11 0.417667 0.184091 0.992844
O O12 0.045735 0.868966 0.251017
O O13 0.170545 0.598201 0.161605
O O14 0.618644 0.280745 0.157923
O O15 0.500000 0.500000 0.500000
O O16 0.500000 0.000000 0.000000
#
# Coordination Sequence:
#
# PCOD9003886 Si02
#       7
#     2   2   2   2   2   2   2
#     4  12  26  45  76 109 143 180 244 316 352 436
#     4  12  26  47  69 101 142 191 250 292 343 444
#     4  10  21  38  63  92 132 175 222 284 350 397
#     4  10  21  37  62  95 133 172 214 285 355 411
#     4  12  26  47  78  99 139 198 243 296 373 431
#     4  12  28  52  75 106 153 193 240 304 379 439
#     4  12  24  43  74 107 141 179 247 297 364 434
#
# _framework density 22.614464999999999
#
# number of rings (size 3 to 8) (size 9 to 14) (size 15 to 20)
#    0.000    0.571    2.857    5.143    6.000    0.000 
#   15.429    0.000    0.000    0.000    0.000    0.000 
#    0.000    0.000    0.000    0.000    0.000    0.000 
#
# Total GULP energy -78363.003631 kJ/mol
# GULP energy per Si atom -5597.357402 kJ/mol
# Density = 2.256299 g / cm^3
# Si number density = 22.614465 Si / 1000 Ang^3
#
#
#
# Elastic Constant Matrix: (Units=GPa)
#
#
# Indices 1 2 3 4 5 6 
#
# 1 122.9394 53.7583 98.3394 -1.0075 11.8112 -17.4621
# 2 53.7583 91.1658 60.5174 -3.7226 12.9532 -28.5502
# 3 98.3394 60.5174 257.9038 -5.3377 9.6596 -15.9976
# 4 -1.0075 -3.7226 -5.3377 38.5628 -9.5030 10.7139
# 5 11.8112 12.9532 9.6596 -9.5030 45.2057 -3.8892
# 6 -17.4621 -28.5502 -15.9976 10.7139 -3.8892 42.1400
#
#
#
# Elastic Compliance Matrix: (Units=1/GPa)
#
#
# Indices 1 2 3 4 5 6 
#
# 1 0.013796 -0.005009 -0.003994 -0.001327 -0.001508 0.001005
# 2 -0.005009 0.018637 -0.001758 -0.002192 -0.003244 0.010142
# 3 -0.003994 -0.001758 0.005763 0.000861 0.000425 -0.000838
# 4 -0.001327 -0.002192 0.000861 0.029774 0.006302 -0.008696
# 5 -0.001508 -0.003244 0.000425 0.006302 0.024506 -0.002002
# 6 0.001005 0.010142 -0.000838 -0.008696 -0.002002 0.032726
#
#
# Mechanical properties :
#
#
# Convention : Reuss Voigt Hill
#
# Bulk Modulus (GPa) = 59.97302 99.69325 79.83314
# Shear Modulus (GPa) = 32.83394 42.47464 37.65429
#
# Velocity S-wave (km/s) = 3.81451 4.33853 4.08493
# Velocity P-wave (km/s) = 6.78071 8.32326 7.59127
#
# Compressibility (1/GPa) = 0.01667416
#
# Stress axis : x y z
#
# Youngs Moduli (GPa) = 72.48635 53.65572 173.53183
#
# Poissons Ratio (x) = 0.26877 0.69301
# Poissons Ratio (y) = 0.36309 0.30508
# Poissons Ratio (z) = 0.28948 0.09433
#
# Static dielectric constant tensor:
#      x y z
#    x 1.852160 0.023810 0.019400 
#    y 0.023810 1.852050 -0.024540 
#    z 0.019400 -0.024540 1.870480 
# 
# From -- ./inp_files/619977.got.cif
#   From: 2010.05.17/outbox.cif.g08.bks.cpg/sg2_310_cif.got.tgz:619977.got - 2010.06.03 11:33:40.
