data_PCOD9003408
_publ_section_title
;
Structure prediction by ZEFSAII (Michael W. Deem and Ramdas Pophale) SiO2 
 PCOD9003408
Probable space group: P -1
;
_chemical_formula_sum "Si O2"
_cell_formula_units_Z 13
_cell_length_a 15.682647
_cell_length_b 11.346393
_cell_length_c 15.342718
_cell_angle_alpha 27.477666
_cell_angle_beta 25.362601
_cell_angle_gamma 28.319327
_cell_volume 495.026829
_symmetry_space_group_name_H-M "P -1"
_symmetry_group_IT_number 2
_symmetry_cell_setting 'triclinic'
loop_
_space_group_symop_operation_xyz
x,y,z
-x,-y,-z
loop_
_atom_site_type_symbol
_atom_site_label
_atom_site_fract_x
_atom_site_fract_y
_atom_site_fract_z
Si Si1 0.801640 0.564702 0.888752
Si Si2 0.889768 0.124413 0.232122
Si Si3 0.497598 0.584652 0.846230
Si Si4 0.000000 0.000000 0.500000
Si Si5 0.192480 0.191222 0.028253
Si Si6 0.182371 0.183532 0.665750
Si Si7 0.327446 0.838679 0.408210
O O1 0.984948 0.351019 0.800001
O O2 0.837151 0.848072 0.680869
O O3 0.798407 0.424315 0.074054
O O4 0.584142 0.612237 0.006232
O O5 0.738942 0.142032 0.442880
O O6 0.131300 0.056610 0.087133
O O7 0.879327 0.920484 0.299846
O O8 0.714157 0.601587 0.599108
O O9 0.333646 0.906792 0.761436
O O10 0.500000 0.500000 0.000000
O O11 0.219327 0.700024 0.532489
O O12 0.850481 0.972026 0.743853
O O13 0.426483 0.208645 0.800238
O O14 0.000000 0.500000 0.000000
#
# Coordination Sequence:
#
# PCOD9003408 Si02
#       7
#     2   2   2   1   2   2   2
#     4  11  24  40  63  94 134 174 215 266 317 381
#     4  10  23  41  64  96 131 171 216 266 323 384
#     4  10  21  37  60  85 121 173 218 262 310 366
#     4  10  24  46  70  96 126 162 212 274 334 392
#     4  11  25  45  70  95 128 170 216 273 333 393
#     4  10  23  41  60  93 135 173 217 262 313 380
#     4  11  25  43  68 100 129 167 219 270 329 392
#
# _framework density 26.261203999999999
#
# number of rings (size 3 to 8) (size 9 to 14) (size 15 to 20)
#    0.000    1.538    0.000    4.154    0.000   17.231 
#    0.000    3.077    0.000    0.000    0.000    0.000 
#    0.000    0.000    0.000    0.000    0.000    0.000 
#
# Total GULP energy -72647.703876 kJ/mol
# GULP energy per Si atom -5588.284914 kJ/mol
# Density = 2.620143 g / cm^3
# Si number density = 26.261204 Si / 1000 Ang^3
#
#
#
# Elastic Constant Matrix: (Units=GPa)
#
#
# Indices 1 2 3 4 5 6 
#
# 1 210.4249 47.1066 93.2216 16.2407 28.3868 -24.1648
# 2 47.1066 87.9739 42.7249 8.0708 3.8089 -9.8647
# 3 93.2216 42.7249 172.6228 27.8360 16.7922 -16.7325
# 4 16.2407 8.0708 27.8360 55.9030 -8.3068 -14.5134
# 5 28.3868 3.8089 16.7922 -8.3068 58.6479 1.4865
# 6 -24.1648 -9.8647 -16.7325 -14.5134 1.4865 38.9020
#
#
#
# Elastic Compliance Matrix: (Units=1/GPa)
#
#
# Indices 1 2 3 4 5 6 
#
# 1 0.007125 -0.002018 -0.002821 -0.000035 -0.002586 0.002787
# 2 -0.002018 0.013641 -0.002264 0.000183 0.000733 0.001272
# 3 -0.002821 -0.002264 0.008560 -0.003277 -0.001407 0.000187
# 4 -0.000035 0.000183 -0.003277 0.021790 0.003862 0.006597
# 5 -0.002586 0.000733 -0.001407 0.003862 0.019238 -0.001320
# 6 0.002787 0.001272 0.000187 0.006597 -0.001320 0.030351
#
#
# Mechanical properties :
#
#
# Convention : Reuss Voigt Hill
#
# Bulk Modulus (GPa) = 66.13493 93.01420 79.57457
# Shear Modulus (GPa) = 41.68316 49.88848 45.78582
#
# Velocity S-wave (km/s) = 3.98836 4.36329 4.18003
# Velocity P-wave (km/s) = 6.81524 7.80257 7.32556
#
# Compressibility (1/GPa) = 0.01512060
#
# Stress axis : x y z
#
# Youngs Moduli (GPa) = 140.34425 73.30799 116.81806
#
# Poissons Ratio (x) = 0.14790 0.32958
# Poissons Ratio (y) = 0.28315 0.26450
# Poissons Ratio (z) = 0.39596 0.16598
#
# Static dielectric constant tensor:
#      x y z
#    x 2.149900 -0.097210 -0.143690 
#    y -0.097210 2.242790 -0.022220 
#    z -0.143690 -0.022220 2.162920 
# 
# From -- ./inp_files/531446.got.cif
#   From: 2010.05.17/outbox.cif.g08.bks.cpg/sg2_266_cif.got.tgz:531446.got - 2010.06.03 11:33:40.
