data_PCOD9003016
_publ_section_title
;
Structure prediction by ZEFSAII (Michael W. Deem and Ramdas Pophale) SiO2 
 PCOD9003016
Probable space group: P -1
;
_chemical_formula_sum "Si O2"
_cell_formula_units_Z 16
_cell_length_a 19.043227
_cell_length_b 21.690989
_cell_length_c 8.897240
_cell_angle_alpha 140.459404
_cell_angle_beta 41.037261
_cell_angle_gamma 160.920248
_cell_volume 759.056157
_symmetry_space_group_name_H-M "P -1"
_symmetry_group_IT_number 2
_symmetry_cell_setting 'triclinic'
loop_
_space_group_symop_operation_xyz
x,y,z
-x,-y,-z
loop_
_atom_site_type_symbol
_atom_site_label
_atom_site_fract_x
_atom_site_fract_y
_atom_site_fract_z
Si Si1 0.447121 0.180810 0.352112
Si Si2 0.471006 0.582926 0.137707
Si Si3 0.352595 0.769378 0.613917
Si Si4 0.711070 0.405901 0.074695
Si Si5 0.415260 0.209846 0.920981
Si Si6 0.037338 0.775058 0.731167
Si Si7 0.849596 0.188642 0.040753
Si Si8 0.080922 0.614490 0.239697
O O1 0.397090 0.233568 0.634007
O O2 0.511371 0.143878 0.291128
O O3 0.650284 0.375122 0.287818
O O4 0.265688 0.996154 0.189257
O O5 0.547767 0.664419 0.997545
O O6 0.216875 0.409669 0.226899
O O7 0.500000 0.500000 0.000000
O O8 0.445725 0.768054 0.339824
O O9 0.113429 0.547144 0.631443
O O10 0.314676 0.849499 0.777458
O O11 0.938883 0.621541 0.045881
O O12 0.520495 0.299084 0.081838
O O13 0.727627 0.301707 0.849031
O O14 0.172308 0.979650 0.878884
O O15 0.126679 0.764358 0.449107
O O16 0.085337 0.777017 0.827316
O O17 0.000000 0.500000 0.000000
#
# Coordination Sequence:
#
# PCOD9003016 Si02
#       8
#     2   2   2   2   2   2   2   2
#     4  11  22  41  62  98 127 165 212 260 308 372
#     4  11  26  50  68  88 123 160 213 279 324 370
#     4  10  21  37  56  96 140 174 203 243 304 373
#     4  11  21  37  62  94 137 168 201 253 307 371
#     4  11  23  40  67  92 127 167 212 252 321 378
#     4  12  23  41  66  94 126 169 214 258 314 380
#     4  11  23  36  65  95 136 169 209 248 308 378
#     4  11  20  34  58  93 137 176 203 243 300 374
#
# _framework density 21.078807999999999
#
# number of rings (size 3 to 8) (size 9 to 14) (size 15 to 20)
#    0.000    1.000    6.250    1.125    1.750    9.500 
#    0.000    1.250    0.000    0.000    0.000    0.000 
#    0.000    0.000    0.000    0.000    0.000    0.000 
#
# Total GULP energy -89362.132472 kJ/mol
# GULP energy per Si atom -5585.133280 kJ/mol
# Density = 2.103083 g / cm^3
# Si number density = 21.078808 Si / 1000 Ang^3
#
#
#
# Elastic Constant Matrix: (Units=GPa)
#
#
# Indices 1 2 3 4 5 6 
#
# 1 143.3788 27.5615 49.5411 18.7061 -5.8136 -6.8086
# 2 27.5615 69.1014 8.2912 16.6503 -1.5963 -15.9372
# 3 49.5411 8.2912 38.9982 16.5997 -0.7654 9.8207
# 4 18.7061 16.6503 16.5997 26.0748 -9.0480 10.9021
# 5 -5.8136 -1.5963 -0.7654 -9.0480 31.1065 4.9471
# 6 -6.8086 -15.9372 9.8207 10.9021 4.9471 26.4277
#
#
#
# Elastic Compliance Matrix: (Units=1/GPa)
#
#
# Indices 1 2 3 4 5 6 
#
# 1 0.015559 0.000747 -0.021807 -0.004213 -0.001124 0.014511
# 2 0.000747 0.036837 0.000811 -0.051336 -0.020372 0.047097
# 3 -0.021807 0.000811 0.067091 -0.020804 -0.005173 -0.020510
# 4 -0.004213 -0.051336 -0.020804 0.145299 0.053316 -0.094232
# 5 -0.001124 -0.020372 -0.005173 0.053316 0.053044 -0.042577
# 6 0.014511 0.047097 -0.020510 -0.094232 -0.042577 0.124444
#
#
# Mechanical properties :
#
#
# Convention : Reuss Voigt Hill
#
# Bulk Modulus (GPa) = 12.66006 46.91845 29.78926
# Shear Modulus (GPa) = 9.82118 27.79410 18.80764
#
# Velocity S-wave (km/s) = 2.16088 3.63517 2.99030
# Velocity P-wave (km/s) = 3.49928 6.31871 5.10740
#
# Compressibility (1/GPa) = 0.07898854
#
# Stress axis : x y z
#
# Youngs Moduli (GPa) = 64.27118 27.14630 14.90511
#
# Poissons Ratio (x) = -0.02027 0.32504
# Poissons Ratio (y) = -0.04798 -0.01209
# Poissons Ratio (z) = 1.40156 -0.02201
#
# Static dielectric constant tensor:
#      x y z
#    x 1.775140 -0.017480 0.018960 
#    y -0.017480 1.802800 0.006440 
#    z 0.018960 0.006440 1.762250 
# 
# From -- ./inp_files/208520.got.cif
#   From: 2010.05.17/outbox.cif.g08.bks.cpg/sg2_105_cif.got.tgz:208520.got - 2010.06.03 11:33:40.
