data_PCOD9003788
_publ_section_title
;
Structure prediction by ZEFSAII (Michael W. Deem and Ramdas Pophale) SiO2 
 PCOD9003788
Probable space group: P -1
;
_chemical_formula_sum "Si O2"
_cell_formula_units_Z 12
_cell_length_a 5.368012
_cell_length_b 8.633505
_cell_length_c 12.662907
_cell_angle_alpha 80.248908
_cell_angle_beta 113.137910
_cell_angle_gamma 73.483780
_cell_volume 490.387334
_symmetry_space_group_name_H-M "P -1"
_symmetry_group_IT_number 2
_symmetry_cell_setting 'triclinic'
loop_
_space_group_symop_operation_xyz
x,y,z
-x,-y,-z
loop_
_atom_site_type_symbol
_atom_site_label
_atom_site_fract_x
_atom_site_fract_y
_atom_site_fract_z
Si Si1 0.170541 0.644338 0.499342
Si Si2 0.083894 0.034674 0.893698
Si Si3 0.629227 0.727608 0.991574
Si Si4 0.686780 0.361357 0.705050
Si Si5 0.668779 0.801609 0.564541
Si Si6 0.074613 0.400362 0.165450
O O1 0.350931 0.461490 0.604154
O O2 0.128504 0.628977 0.369427
O O3 0.412022 0.729169 0.531717
O O4 0.898092 0.744474 0.513927
O O5 0.791629 0.162482 0.772540
O O6 0.290892 0.852125 0.902111
O O7 0.264479 0.157571 0.924561
O O8 0.000000 0.000000 0.000000
O O9 0.801994 0.694003 0.913030
O O10 0.740928 0.539082 0.082865
O O11 0.754897 0.472835 0.794682
O O12 0.850245 0.730603 0.710645
O O13 0.500000 0.000000 0.500000
#
# Coordination Sequence:
#
# PCOD9003788 Si02
#       6
#     2   2   2   2   2   2
#     4  10  23  43  65  93 127 171 208 257 314 377
#     4  10  21  37  62  90 120 159 208 255 314 371
#     4   9  20  41  59  87 123 161 207 255 312 372
#     4   9  21  40  62  91 124 165 209 258 312 376
#     4  11  24  41  66  96 130 163 213 259 317 369
#     4   9  20  40  62  87 123 165 206 260 312 371
#
# _framework density 24.470455999999999
#
# number of rings (size 3 to 8) (size 9 to 14) (size 15 to 20)
#    0.000    2.333    0.000    0.500    4.667    7.333 
#    9.000    2.500    0.000    0.000    0.000    0.000 
#    0.000    0.000    0.000    0.000    0.000    0.000 
#
# Total GULP energy -67073.637263 kJ/mol
# GULP energy per Si atom -5589.469772 kJ/mol
# Density = 2.441476 g / cm^3
# Si number density = 24.470456 Si / 1000 Ang^3
#
#
#
# Elastic Constant Matrix: (Units=GPa)
#
#
# Indices 1 2 3 4 5 6 
#
# 1 102.3006 60.0894 23.4308 -2.4106 -12.7203 -24.9708
# 2 60.0894 193.9381 80.5309 -50.2608 -2.9842 -52.9288
# 3 23.4308 80.5309 104.4359 -16.7468 -10.0078 -8.8397
# 4 -2.4106 -50.2608 -16.7468 53.8500 6.8009 5.6948
# 5 -12.7203 -2.9842 -10.0078 6.8009 20.1802 7.3406
# 6 -24.9708 -52.9288 -8.8397 5.6948 7.3406 41.6399
#
#
#
# Elastic Compliance Matrix: (Units=1/GPa)
#
#
# Indices 1 2 3 4 5 6 
#
# 1 0.014704 -0.007769 0.002588 -0.007178 0.012448 -0.001720
# 2 -0.007769 0.025649 -0.015078 0.019221 -0.024686 0.026466
# 3 0.002588 -0.015078 0.019651 -0.008440 0.017589 -0.015389
# 4 -0.007178 0.019221 -0.008440 0.034716 -0.024053 0.017828
# 5 0.012448 -0.024686 0.017589 -0.024053 0.081979 -0.031343
# 6 -0.001720 0.026466 -0.015389 0.017828 -0.031343 0.056445
#
#
# Mechanical properties :
#
#
# Convention : Reuss Voigt Hill
#
# Bulk Modulus (GPa) = 51.31936 80.97521 66.14728
# Shear Modulus (GPa) = 17.84699 38.90892 28.37795
#
# Velocity S-wave (km/s) = 2.70354 3.99185 3.40911
# Velocity P-wave (km/s) = 5.54644 7.37627 6.52581
#
# Compressibility (1/GPa) = 0.01948582
#
# Stress axis : x y z
#
# Youngs Moduli (GPa) = 68.00694 38.98795 50.88765
#
# Poissons Ratio (x) = 0.30288 -0.13168
# Poissons Ratio (y) = 0.52832 0.76730
# Poissons Ratio (z) = -0.17598 0.58787
#
# Static dielectric constant tensor:
#      x y z
#    x 1.977350 0.071800 0.108680 
#    y 0.071800 2.005870 0.006390 
#    z 0.108680 0.006390 2.022840 
# 
# From -- ./inp_files/19117.got.cif
#   From: 2010.05.17/outbox.cif.g08.bks.cpg/sg2_10_cif.got.tgz:19117.got - 2010.06.03 11:33:40.
