data_PCOD9003055
_publ_section_title
;
Structure prediction by ZEFSAII (Michael W. Deem and Ramdas Pophale) SiO2 
 PCOD9003055
Probable space group: P -1
;
_chemical_formula_sum "Si O2"
_cell_formula_units_Z 16
_cell_length_a 16.413933
_cell_length_b 15.491237
_cell_length_c 8.513802
_cell_angle_alpha 124.645639
_cell_angle_beta 111.534315
_cell_angle_gamma 25.139359
_cell_volume 685.817457
_symmetry_space_group_name_H-M "P -1"
_symmetry_group_IT_number 2
_symmetry_cell_setting 'triclinic'
loop_
_space_group_symop_operation_xyz
x,y,z
-x,-y,-z
loop_
_atom_site_type_symbol
_atom_site_label
_atom_site_fract_x
_atom_site_fract_y
_atom_site_fract_z
Si Si1 0.722729 0.911521 0.191112
Si Si2 0.827427 0.333118 0.667940
Si Si3 0.183604 0.797393 0.208923
Si Si4 0.655411 0.360468 0.188786
Si Si5 0.009599 0.470891 0.734115
Si Si6 0.724036 0.522384 0.495547
Si Si7 0.013504 0.646015 0.709899
Si Si8 0.317595 0.872430 0.850687
O O1 0.851767 0.737943 0.255097
O O2 0.477749 0.183123 0.338031
O O3 0.765403 0.981384 0.217439
O O4 0.791748 0.749229 0.944945
O O5 0.848578 0.282753 0.816466
O O6 0.847983 0.403984 0.626285
O O7 0.570936 0.602436 0.751349
O O8 0.995900 0.070826 0.433972
O O9 0.412766 0.591856 0.217876
O O10 0.208748 0.784313 0.026088
O O11 0.658543 0.472511 0.377880
O O12 0.734186 0.188934 0.194492
O O13 0.103881 0.478814 0.743995
O O14 0.987609 0.424839 0.517957
O O15 0.850724 0.405791 0.306453
O O16 0.784434 0.940015 0.897164
#
# Coordination Sequence:
#
# PCOD9003055 Si02
#       8
#     2   2   2   2   2   2   2   2
#     4   9  20  38  61  87 111 143 194 242 296 344
#     4   9  19  35  53  79 113 147 197 237 271 327
#     4   9  19  36  56  77 112 164 200 229 272 320
#     4  10  21  37  57  84 125 159 190 233 277 340
#     4   9  20  42  64  82 110 148 193 252 296 337
#     4  11  23  36  56  89 121 156 192 230 286 352
#     4  10  21  38  63  87 113 151 194 239 295 344
#     4   9  19  36  58  85 119 157 190 230 285 345
#
# _framework density 23.329823000000001
#
# number of rings (size 3 to 8) (size 9 to 14) (size 15 to 20)
#    0.000    2.500    0.000    0.750    0.000   11.500 
#    0.000   11.250    0.000    0.000    0.000    0.000 
#    0.000    0.000    0.000    0.000    0.000    0.000 
#
# Total GULP energy -89107.549818 kJ/mol
# GULP energy per Si atom -5569.221864 kJ/mol
# Density = 2.327672 g / cm^3
# Si number density = 23.329823 Si / 1000 Ang^3
#
#
#
# Elastic Constant Matrix: (Units=GPa)
#
#
# Indices 1 2 3 4 5 6 
#
# 1 82.3390 50.0242 33.6407 3.6270 -13.5304 25.2622
# 2 50.0242 120.8735 65.6109 20.1705 -10.9758 29.9883
# 3 33.6407 65.6109 126.9128 12.6841 -29.8457 16.0638
# 4 3.6270 20.1705 12.6841 25.2467 1.8537 3.9395
# 5 -13.5304 -10.9758 -29.8457 1.8537 36.0187 -3.2849
# 6 25.2622 29.9883 16.0638 3.9395 -3.2849 25.0965
#
#
#
# Elastic Compliance Matrix: (Units=1/GPa)
#
#
# Indices 1 2 3 4 5 6 
#
# 1 0.020113 -0.004659 -0.000376 0.002936 0.004366 -0.014328
# 2 -0.004659 0.017479 -0.006005 -0.008368 -0.001999 -0.011302
# 3 -0.000376 -0.006005 0.013492 -0.002707 0.009400 0.000573
# 4 0.002936 -0.008368 -0.002707 0.047601 -0.006093 0.000506
# 5 0.004366 -0.001999 0.009400 -0.006093 0.036691 -0.002264
# 6 -0.014328 -0.011302 0.000573 0.000506 -0.002264 0.067030
#
#
# Mechanical properties :
#
#
# Convention : Reuss Voigt Hill
#
# Bulk Modulus (GPa) = 34.47660 69.85300 52.16480
# Shear Modulus (GPa) = 21.35348 29.32902 25.34125
#
# Velocity S-wave (km/s) = 3.02865 3.54947 3.29936
# Velocity P-wave (km/s) = 5.20003 6.84141 6.07640
#
# Compressibility (1/GPa) = 0.02900518
#
# Stress axis : x y z
#
# Youngs Moduli (GPa) = 49.71965 57.21026 74.11747
#
# Poissons Ratio (x) = 0.26652 0.02788
# Poissons Ratio (y) = 0.23162 0.44507
# Poissons Ratio (z) = 0.01870 0.34354
#
# Static dielectric constant tensor:
#      x y z
#    x 2.026670 0.039640 -0.021950 
#    y 0.039640 1.923590 -0.049710 
#    z -0.021950 -0.049710 1.835660 
# 
# From -- ./inp_files/335741.got.cif
#   From: 2010.05.17/outbox.cif.g08.bks.cpg/sg2_168_cif.got.tgz:335741.got - 2010.06.03 11:33:40.
