data_PCOD9003318
_publ_section_title
;
Structure prediction by ZEFSAII (Michael W. Deem and Ramdas Pophale) SiO2 
 PCOD9003318
Probable space group: P -1
;
_chemical_formula_sum "Si O2"
_cell_formula_units_Z 14
_cell_length_a 20.152146
_cell_length_b 8.192382
_cell_length_c 9.911729
_cell_angle_alpha 99.538296
_cell_angle_beta 132.540760
_cell_angle_gamma 42.742209
_cell_volume 613.601295
_symmetry_space_group_name_H-M "P -1"
_symmetry_group_IT_number 2
_symmetry_cell_setting 'triclinic'
loop_
_space_group_symop_operation_xyz
x,y,z
-x,-y,-z
loop_
_atom_site_type_symbol
_atom_site_label
_atom_site_fract_x
_atom_site_fract_y
_atom_site_fract_z
Si Si1 0.196102 0.378727 0.993804
Si Si2 0.794930 0.854250 0.277123
Si Si3 0.463587 0.905550 0.841379
Si Si4 0.835640 0.141626 0.250926
Si Si5 0.191565 0.776782 0.066530
Si Si6 0.899511 0.800583 0.820522
Si Si7 0.589465 0.084377 0.516808
O O1 0.170957 0.615431 0.980519
O O2 0.316811 0.146387 0.258084
O O3 0.269433 0.161274 0.938725
O O4 0.998108 0.636721 0.792737
O O5 0.000000 0.500000 0.500000
O O6 0.685000 0.968681 0.270979
O O7 0.791569 0.054998 0.271858
O O8 0.417324 0.023386 0.639138
O O9 0.651235 0.523715 0.040658
O O10 0.500000 0.000000 0.000000
O O11 0.863575 0.039438 0.120562
O O12 0.000000 0.000000 0.500000
O O13 0.398033 0.452283 0.337222
O O14 0.088023 0.035169 0.076765
O O15 0.701796 0.058131 0.606374
O O16 0.000000 0.500000 0.000000
#
# Coordination Sequence:
#
# PCOD9003318 Si02
#       7
#     2   2   2   2   2   2   2
#     4  11  23  41  65  95 126 166 211 261 319 379
#     4  12  24  44  67  95 132 172 214 267 323 384
#     4  11  24  43  67  97 130 170 216 265 323 386
#     4  11  24  42  65  94 129 171 217 265 321 386
#     4  11  22  40  63  93 126 162 212 266 318 377
#     4  10  21  37  59  88 122 162 204 255 313 373
#     4  10  22  41  63  92 126 163 208 261 318 379
#
# _framework density 22.816120000000002
#
# number of rings (size 3 to 8) (size 9 to 14) (size 15 to 20)
#    0.000    1.143    0.000    7.714    0.000    4.571 
#    0.000    5.714    0.000    0.000    0.000    0.000 
#    0.000    0.000    0.000    0.000    0.000    0.000 
#
# Total GULP energy -78100.296130 kJ/mol
# GULP energy per Si atom -5578.592581 kJ/mol
# Density = 2.276419 g / cm^3
# Si number density = 22.816120 Si / 1000 Ang^3
#
#
#
# Elastic Constant Matrix: (Units=GPa)
#
#
# Indices 1 2 3 4 5 6 
#
# 1 91.0986 17.7992 23.7184 -4.3954 8.6869 -5.7312
# 2 17.7992 87.6818 16.8917 16.5994 -6.8940 -12.0624
# 3 23.7184 16.8917 93.3393 3.0871 -4.0255 -7.4152
# 4 -4.3954 16.5994 3.0871 29.5727 -10.2014 4.4735
# 5 8.6869 -6.8940 -4.0255 -10.2014 40.6360 6.5114
# 6 -5.7312 -12.0624 -7.4152 4.4735 6.5114 41.3050
#
#
#
# Elastic Compliance Matrix: (Units=1/GPa)
#
#
# Indices 1 2 3 4 5 6 
#
# 1 0.012692 -0.002643 -0.002906 0.002573 -0.002907 0.000647
# 2 -0.002643 0.014562 -0.001295 -0.009189 -0.000148 0.004672
# 3 -0.002906 -0.001295 0.011860 -0.000717 0.001198 0.001237
# 4 0.002573 -0.009189 -0.000717 0.044357 0.010381 -0.008896
# 5 -0.002907 -0.000148 0.001198 0.010381 0.028876 -0.005908
# 6 0.000647 0.004672 0.001237 -0.008896 -0.005908 0.027781
#
#
# Mechanical properties :
#
#
# Convention : Reuss Voigt Hill
#
# Bulk Modulus (GPa) = 39.33038 43.21540 41.27289
# Shear Modulus (GPa) = 30.80878 36.55010 33.67944
#
# Velocity S-wave (km/s) = 3.67864 4.00677 3.84620
# Velocity P-wave (km/s) = 5.94294 6.35511 6.15248
#
# Compressibility (1/GPa) = 0.02542564
#
# Stress axis : x y z
#
# Youngs Moduli (GPa) = 78.78824 68.67390 84.31719
#
# Poissons Ratio (x) = 0.18152 0.24502
# Poissons Ratio (y) = 0.20826 0.10918
# Poissons Ratio (z) = 0.22895 0.08892
#
# Static dielectric constant tensor:
#      x y z
#    x 1.976520 0.006590 0.023740 
#    y 0.006590 1.619630 0.109660 
#    z 0.023740 0.109660 1.937330 
# 
# From -- ./inp_files/159763.got.cif
#   From: 2010.05.17/outbox.cif.g08.bks.cpg/sg2_80_cif.got.tgz:159763.got - 2010.06.03 11:33:40.
