data_PCOD9003503
_publ_section_title
;
Structure prediction by ZEFSAII (Michael W. Deem and Ramdas Pophale) SiO2 
 PCOD9003503
Probable space group: P -1
;
_chemical_formula_sum "Si O2"
_cell_formula_units_Z 15
_cell_length_a 11.743330
_cell_length_b 10.348189
_cell_length_c 11.734208
_cell_angle_alpha 101.290367
_cell_angle_beta 106.809913
_cell_angle_gamma 141.916796
_cell_volume 586.817862
_symmetry_space_group_name_H-M "P -1"
_symmetry_group_IT_number 2
_symmetry_cell_setting 'triclinic'
loop_
_space_group_symop_operation_xyz
x,y,z
-x,-y,-z
loop_
_atom_site_type_symbol
_atom_site_label
_atom_site_fract_x
_atom_site_fract_y
_atom_site_fract_z
Si Si1 0.899645 0.512999 0.117635
Si Si2 0.632733 0.946150 0.243131
Si Si3 0.488770 0.896448 0.664951
Si Si4 0.092835 0.903428 0.433474
Si Si5 0.341908 0.563109 0.385879
Si Si6 0.500000 0.500000 0.500000
Si Si7 0.449552 0.601022 0.735731
Si Si8 0.849760 0.160637 0.096413
O O1 0.800608 0.264081 0.067436
O O2 0.976473 0.664997 0.283310
O O3 0.184496 0.785622 0.180311
O O4 0.666045 0.358560 0.955461
O O5 0.626829 0.082619 0.324941
O O6 0.744741 0.967921 0.381453
O O7 0.827038 0.137112 0.222709
O O8 0.412410 0.774089 0.495422
O O9 0.367633 0.658967 0.663859
O O10 0.829692 0.729113 0.348391
O O11 0.355353 0.211151 0.486315
O O12 0.227439 0.331007 0.387017
O O13 0.154823 0.414954 0.202155
O O14 0.580005 0.644027 0.683249
O O15 0.653161 0.857148 0.934359
#
# Coordination Sequence:
#
# PCOD9003503 Si02
#       8
#     2   2   2   2   2   1   2   2
#     4  11  22  38  59 100 135 174 205 252 299 387
#     4  12  21  35  62  94 134 175 200 245 304 384
#     4  10  21  37  60  91 132 173 206 246 311 365
#     4  11  24  41  64  96 134 166 207 251 319 374
#     4  10  24  43  66  92 121 169 213 267 309 377
#     4  10  24  48  70  86 116 166 216 266 338 360
#     4  11  23  42  65  90 125 165 210 273 308 373
#     4  12  23  39  63  96 132 164 216 254 312 372
#
# _framework density 25.561596000000002
#
# number of rings (size 3 to 8) (size 9 to 14) (size 15 to 20)
#    0.000    1.067    2.667    4.800    1.867    4.800 
#    0.000    0.000    0.000    2.400    0.000    0.000 
#    0.000    0.000    0.000    0.000    0.000    0.000 
#
# Total GULP energy -83611.476183 kJ/mol
# GULP energy per Si atom -5574.098412 kJ/mol
# Density = 2.550342 g / cm^3
# Si number density = 25.561596 Si / 1000 Ang^3
#
#
#
# Elastic Constant Matrix: (Units=GPa)
#
#
# Indices 1 2 3 4 5 6 
#
# 1 98.1474 47.4725 60.0340 -2.0802 -16.1757 5.5376
# 2 47.4725 81.0649 54.6323 -4.3492 -21.5529 23.7240
# 3 60.0340 54.6323 182.3953 9.9388 -3.2436 7.3610
# 4 -2.0802 -4.3492 9.9388 42.7963 3.5461 -0.9664
# 5 -16.1757 -21.5529 -3.2436 3.5461 43.5119 4.5072
# 6 5.5376 23.7240 7.3610 -0.9664 4.5072 32.7969
#
#
#
# Elastic Compliance Matrix: (Units=1/GPa)
#
#
# Indices 1 2 3 4 5 6 
#
# 1 0.015903 -0.007939 -0.003011 0.000636 0.001333 0.003569
# 2 -0.007939 0.031030 -0.005689 0.002435 0.014043 -0.021687
# 3 -0.003011 -0.005689 0.008108 -0.002246 -0.003483 0.003216
# 4 0.000636 0.002435 -0.002246 0.024207 -0.000639 -0.000564
# 5 0.001333 0.014043 -0.003483 -0.000639 0.031673 -0.013973
# 6 0.003569 -0.021687 0.003216 -0.000564 -0.013973 0.046757
#
#
# Mechanical properties :
#
#
# Convention : Reuss Voigt Hill
#
# Bulk Modulus (GPa) = 45.95163 76.20947 61.08055
# Shear Modulus (GPa) = 25.22562 37.11893 31.17228
#
# Velocity S-wave (km/s) = 3.14484 3.81483 3.49592
# Velocity P-wave (km/s) = 5.58592 7.02016 6.34370
#
# Compressibility (1/GPa) = 0.02176202
#
# Stress axis : x y z
#
# Youngs Moduli (GPa) = 62.88293 32.22688 123.33015
#
# Poissons Ratio (x) = 0.25586 0.37136
# Poissons Ratio (y) = 0.49926 0.70161
# Poissons Ratio (z) = 0.18935 0.18333
#
# Static dielectric constant tensor:
#      x y z
#    x 2.058440 0.132810 0.039280 
#    y 0.132810 2.306170 -0.009960 
#    z 0.039280 -0.009960 2.075840 
# 
# From -- ./inp_files/348925.got.cif
#   From: 2010.05.17/outbox.cif.g08.bks.cpg/sg2_175_cif.got.tgz:348925.got - 2010.06.03 11:33:40.
