data_PCOD9003399
_publ_section_title
;
Structure prediction by ZEFSAII (Michael W. Deem and Ramdas Pophale) SiO2 
 PCOD9003399
Probable space group: P -1
;
_chemical_formula_sum "Si O2"
_cell_formula_units_Z 16
_cell_length_a 6.848158
_cell_length_b 9.056972
_cell_length_c 18.429047
_cell_angle_alpha 64.064153
_cell_angle_beta 126.124790
_cell_angle_gamma 96.601505
_cell_volume 814.060385
_symmetry_space_group_name_H-M "P -1"
_symmetry_group_IT_number 2
_symmetry_cell_setting 'triclinic'
loop_
_space_group_symop_operation_xyz
x,y,z
-x,-y,-z
loop_
_atom_site_type_symbol
_atom_site_label
_atom_site_fract_x
_atom_site_fract_y
_atom_site_fract_z
Si Si1 0.228307 0.943312 0.158452
Si Si2 0.056671 0.833145 0.594990
Si Si3 0.525716 0.511045 0.089686
Si Si4 0.662415 0.116648 0.970717
Si Si5 0.707237 0.387228 0.663004
Si Si6 0.910648 0.665861 0.729761
Si Si7 0.150977 0.453207 0.471558
Si Si8 0.610894 0.766287 0.783335
O O1 0.350619 0.895604 0.116928
O O2 0.218748 0.775969 0.237086
O O3 0.372438 0.063377 0.208493
O O4 0.950453 0.047321 0.065577
O O5 0.348418 0.786283 0.681727
O O6 0.930065 0.823296 0.648373
O O7 0.953692 0.693031 0.558452
O O8 0.000000 0.000000 0.500000
O O9 0.426838 0.695704 0.059590
O O10 0.381247 0.382194 0.125077
O O11 0.815601 0.448454 0.184414
O O12 0.500000 0.500000 0.000000
O O13 0.500000 0.000000 0.000000
O O14 0.733521 0.551185 0.680344
O O15 0.433161 0.398002 0.570144
O O16 0.868673 0.399195 0.623852
O O17 0.820324 0.721524 0.778037
O O18 0.000000 0.500000 0.500000
#
# Coordination Sequence:
#
# PCOD9003399 Si02
#       8
#     2   2   2   2   2   2   2   2
#     4  11  24  39  60  90 119 154 196 241 295 346
#     4  10  22  39  58  87 121 152 193 241 293 350
#     4  11  23  40  62  87 119 157 197 241 290 348
#     4  11  24  41  61  87 120 155 196 244 291 345
#     4  10  21  38  58  85 117 148 195 242 284 347
#     4  10  22  39  60  87 117 156 199 239 291 348
#     4  10  21  37  60  85 112 153 194 235 290 344
#     4  11  23  39  61  88 119 155 196 241 292 350
#
# _framework density 19.654561000000001
#
# number of rings (size 3 to 8) (size 9 to 14) (size 15 to 20)
#    0.000    1.500    0.000    4.500    0.000    9.500 
#    0.000    0.000    0.000    0.000    0.000    0.000 
#    0.000    0.000    0.000    0.000    0.000    0.000 
#
# Total GULP energy -89400.208193 kJ/mol
# GULP energy per Si atom -5587.513012 kJ/mol
# Density = 1.960983 g / cm^3
# Si number density = 19.654561 Si / 1000 Ang^3
#
#
#
# Elastic Constant Matrix: (Units=GPa)
#
#
# Indices 1 2 3 4 5 6 
#
# 1 138.3055 65.9051 58.2827 -9.0865 -41.0421 -9.8619
# 2 65.9051 112.7776 51.6436 -7.0523 -22.0547 1.4109
# 3 58.2827 51.6436 111.8076 -12.2135 -32.0574 -0.7077
# 4 -9.0865 -7.0523 -12.2135 41.2313 13.4031 -5.4132
# 5 -41.0421 -22.0547 -32.0574 13.4031 43.7309 6.2758
# 6 -9.8619 1.4109 -0.7077 -5.4132 6.2758 34.0203
#
#
#
# Elastic Compliance Matrix: (Units=1/GPa)
#
#
# Indices 1 2 3 4 5 6 
#
# 1 0.013119 -0.005159 -0.002246 -0.000957 0.008023 0.002338
# 2 -0.005159 0.013512 -0.003692 -0.000053 -0.000421 -0.002064
# 3 -0.002246 -0.003692 0.013598 0.000825 0.005915 -0.001175
# 4 -0.000957 -0.000053 0.000825 0.028278 -0.009857 0.006060
# 5 0.008023 -0.000421 0.005915 -0.009857 0.038430 -0.006192
# 6 0.002338 -0.002064 -0.001175 0.006060 -0.006192 0.032240
#
#
# Mechanical properties :
#
#
# Convention : Reuss Voigt Hill
#
# Bulk Modulus (GPa) = 55.43775 79.39483 67.41629
# Shear Modulus (GPa) = 29.87178 36.26711 33.06944
#
# Velocity S-wave (km/s) = 3.90274 4.30027 4.10632
# Velocity P-wave (km/s) = 6.96963 8.07089 7.54039
#
# Compressibility (1/GPa) = 0.01803825
#
# Stress axis : x y z
#
# Youngs Moduli (GPa) = 76.22270 74.00631 73.53888
#
# Poissons Ratio (x) = 0.38177 0.16514
# Poissons Ratio (y) = 0.39320 0.27148
# Poissons Ratio (z) = 0.17116 0.27321
#
# Static dielectric constant tensor:
#      x y z
#    x 1.691360 0.013230 -0.004970 
#    y 0.013230 1.654740 0.009780 
#    z -0.004970 0.009780 1.703810 
# 
# From -- ./inp_files/39852.got.cif
#   From: 2010.05.17/outbox.cif.g08.bks.cpg/sg2_20_cif.got.tgz:39852.got - 2010.06.03 11:33:40.
