data_PCOD9003216
_publ_section_title
;
Structure prediction by ZEFSAII (Michael W. Deem and Ramdas Pophale) SiO2 
 PCOD9003216
Probable space group: P -1
;
_chemical_formula_sum "Si O2"
_cell_formula_units_Z 14
_cell_length_a 17.075878
_cell_length_b 14.066966
_cell_length_c 9.127314
_cell_angle_alpha 130.749398
_cell_angle_beta 55.252739
_cell_angle_gamma 161.809122
_cell_volume 506.712486
_symmetry_space_group_name_H-M "P -1"
_symmetry_group_IT_number 2
_symmetry_cell_setting 'triclinic'
loop_
_space_group_symop_operation_xyz
x,y,z
-x,-y,-z
loop_
_atom_site_type_symbol
_atom_site_label
_atom_site_fract_x
_atom_site_fract_y
_atom_site_fract_z
Si Si1 0.238685 0.166070 0.297988
Si Si2 0.012331 0.416318 0.269005
Si Si3 0.735662 0.406141 0.069005
Si Si4 0.373700 0.435626 0.950813
Si Si5 0.116925 0.527066 0.709984
Si Si6 0.105480 0.316023 0.278539
Si Si7 0.417241 0.202883 0.380067
O O1 0.434264 0.329933 0.152112
O O2 0.283717 0.160039 0.402798
O O3 0.327821 0.419337 0.446792
O O4 0.950719 0.775296 0.176646
O O5 0.836393 0.275118 0.196808
O O6 0.000000 0.500000 0.500000
O O7 0.962899 0.229332 0.224032
O O8 0.254733 0.669903 0.161372
O O9 0.501631 0.199686 0.173862
O O10 0.818969 0.425278 0.142274
O O11 0.101838 0.038319 0.800329
O O12 0.500000 0.500000 0.000000
O O13 0.319594 0.501272 0.149660
O O14 0.224101 0.550625 0.512068
O O15 0.807936 0.128658 0.615780
#
# Coordination Sequence:
#
# PCOD9003216 Si02
#       7
#     2   2   2   2   2   2   2
#     4  10  21  37  58  92 127 157 198 258 304 369
#     4  10  22  43  64  86 125 167 206 254 305 364
#     4  11  22  38  65  92 118 164 209 252 311 361
#     4  11  22  36  63  89 126 158 206 249 303 367
#     4  10  22  40  64  90 128 160 209 253 299 367
#     4  10  22  40  60  90 123 166 199 251 310 355
#     4  10  21  38  61  91 127 160 199 253 312 363
#
# _framework density 27.629079000000001
#
# number of rings (size 3 to 8) (size 9 to 14) (size 15 to 20)
#    0.000    1.714    1.429    2.571    2.000    1.714 
#    0.000    2.857    0.000   18.857    0.000    0.000 
#    0.000    0.000    0.000    0.000    0.000    0.000 
#
# Total GULP energy -78343.214270 kJ/mol
# GULP energy per Si atom -5595.943876 kJ/mol
# Density = 2.756619 g / cm^3
# Si number density = 27.629079 Si / 1000 Ang^3
#
#
#
# Elastic Constant Matrix: (Units=GPa)
#
#
# Indices 1 2 3 4 5 6 
#
# 1 128.0213 26.2743 41.7832 0.1455 -12.3913 -18.2012
# 2 26.2743 76.0740 67.8464 3.1449 -9.9538 -13.5663
# 3 41.7832 67.8464 200.4783 -30.8748 -16.8132 0.6951
# 4 0.1455 3.1449 -30.8748 51.5686 1.3049 -1.6197
# 5 -12.3913 -9.9538 -16.8132 1.3049 51.0681 -5.4958
# 6 -18.2012 -13.5663 0.6951 -1.6197 -5.4958 34.9495
#
#
#
# Elastic Compliance Matrix: (Units=1/GPa)
#
#
# Indices 1 2 3 4 5 6 
#
# 1 0.009421 -0.000405 -0.001812 -0.000983 0.002182 0.005083
# 2 -0.000405 0.023105 -0.008504 -0.006284 0.002742 0.009067
# 3 -0.001812 -0.008504 0.009193 0.005891 0.000338 -0.004102
# 4 -0.000983 -0.006284 0.005891 0.023249 -0.000338 -0.002044
# 5 0.002182 0.002742 0.000338 -0.000338 0.021361 0.005537
# 6 0.005083 0.009067 -0.004102 -0.002044 0.005537 0.035637
#
#
# Mechanical properties :
#
#
# Convention : Reuss Voigt Hill
#
# Bulk Modulus (GPa) = 49.31827 75.15349 62.23588
# Shear Modulus (GPa) = 33.29629 45.42855 39.36242
#
# Velocity S-wave (km/s) = 3.47525 4.05931 3.77858
# Velocity P-wave (km/s) = 5.83027 7.01645 6.45068
#
# Compressibility (1/GPa) = 0.02027646
#
# Stress axis : x y z
#
# Youngs Moduli (GPa) = 106.14827 43.28146 108.77281
#
# Poissons Ratio (x) = 0.01752 0.19714
# Poissons Ratio (y) = 0.04297 0.92501
# Poissons Ratio (z) = 0.19238 0.36807
#
# Static dielectric constant tensor:
#      x y z
#    x 2.126580 0.020620 0.022480 
#    y 0.020620 2.273720 0.128040 
#    z 0.022480 0.128040 2.163770 
# 
# From -- ./inp_files/68095.got.cif
#   From: 2010.05.17/outbox.cif.g08.bks.cpg/sg2_35_cif.got.tgz:68095.got - 2010.06.03 11:33:40.
