data_PCOD9003188
_publ_section_title
;
Structure prediction by ZEFSAII (Michael W. Deem and Ramdas Pophale) SiO2 
 PCOD9003188
Probable space group: P -1
;
_chemical_formula_sum "Si O2"
_cell_formula_units_Z 16
_cell_length_a 17.308083
_cell_length_b 12.541869
_cell_length_c 7.717546
_cell_angle_alpha 84.148281
_cell_angle_beta 105.736964
_cell_angle_gamma 153.536862
_cell_volume 678.716148
_symmetry_space_group_name_H-M "P -1"
_symmetry_group_IT_number 2
_symmetry_cell_setting 'triclinic'
loop_
_space_group_symop_operation_xyz
x,y,z
-x,-y,-z
loop_
_atom_site_type_symbol
_atom_site_label
_atom_site_fract_x
_atom_site_fract_y
_atom_site_fract_z
Si Si1 0.440994 0.296024 0.130543
Si Si2 0.808365 0.243613 0.319321
Si Si3 0.909017 0.835095 0.705079
Si Si4 0.045290 0.774793 0.817606
Si Si5 0.695556 0.968774 0.567638
Si Si6 0.238500 0.379717 0.973069
Si Si7 0.887004 0.530904 0.106258
Si Si8 0.655028 0.700502 0.412593
O O1 0.441762 0.228184 0.323604
O O2 0.560810 0.386675 0.037443
O O3 0.541278 0.529678 0.201249
O O4 0.221710 0.038820 0.989148
O O5 0.867976 0.216169 0.240225
O O6 0.762385 0.290117 0.164765
O O7 0.000000 0.500000 0.500000
O O8 0.656274 0.020468 0.407145
O O9 0.813199 0.801720 0.521237
O O10 0.954969 0.771269 0.676062
O O11 0.772146 0.653716 0.820961
O O12 0.093855 0.119288 0.844445
O O13 0.898467 0.545094 0.902684
O O14 0.722651 0.900842 0.464245
O O15 0.898493 0.231630 0.738554
O O16 0.164091 0.409397 0.888483
O O17 0.500000 0.500000 0.500000
#
# Coordination Sequence:
#
# PCOD9003188 Si02
#       8
#     2   2   2   2   2   2   2   2
#     4  10  23  37  58  90 129 160 194 249 310 358
#     4  10  21  37  65  88 115 160 214 251 297 352
#     4  10  22  39  62  88 125 160 201 249 295 370
#     4  10  22  40  63  93 121 156 207 250 302 363
#     4   9  19  38  54  86 123 160 201 245 292 365
#     4  10  21  37  62  89 123 159 205 247 303 356
#     4   9  18  39  63  86 117 159 207 252 292 351
#     4  10  21  37  58  88 129 162 190 244 305 359
#
# _framework density 23.573920000000001
#
# number of rings (size 3 to 8) (size 9 to 14) (size 15 to 20)
#    0.000    2.250    1.250    0.375    7.000    5.000 
#    0.000    1.250    0.000    4.500    0.000    0.000 
#    0.000    0.000    0.000    0.000    0.000    0.000 
#
# Total GULP energy -89398.428048 kJ/mol
# GULP energy per Si atom -5587.401753 kJ/mol
# Density = 2.352026 g / cm^3
# Si number density = 23.573920 Si / 1000 Ang^3
#
#
#
# Elastic Constant Matrix: (Units=GPa)
#
#
# Indices 1 2 3 4 5 6 
#
# 1 74.0920 30.7091 21.9393 -30.5288 7.3200 -13.2295
# 2 30.7091 85.9144 23.7003 -45.3664 20.0801 -3.9094
# 3 21.9393 23.7003 66.0022 -14.9168 3.6557 -13.6057
# 4 -30.5288 -45.3664 -14.9168 43.8301 -10.8294 5.0384
# 5 7.3200 20.0801 3.6557 -10.8294 30.1569 -9.5005
# 6 -13.2295 -3.9094 -13.6057 5.0384 -9.5005 38.5715
#
#
#
# Elastic Compliance Matrix: (Units=1/GPa)
#
#
# Indices 1 2 3 4 5 6 
#
# 1 0.020454 0.000672 -0.003084 0.013695 0.001306 0.004528
# 2 0.000672 0.029407 -0.005056 0.027035 -0.010934 -0.004797
# 3 -0.003084 -0.005056 0.018863 -0.000805 0.003441 0.006036
# 4 0.013695 0.027035 -0.000805 0.060182 0.000174 -0.000665
# 5 0.001306 -0.010934 0.003441 0.000174 0.043295 0.011195
# 6 0.004528 -0.004797 0.006036 -0.000665 0.011195 0.031966
#
#
# Mechanical properties :
#
#
# Convention : Reuss Voigt Hill
#
# Bulk Modulus (GPa) = 18.59170 42.07844 30.33507
# Shear Modulus (GPa) = 21.09415 32.48904 26.79159
#
# Velocity S-wave (km/s) = 2.99458 3.71641 3.37485
# Velocity P-wave (km/s) = 4.45650 6.02527 5.29926
#
# Compressibility (1/GPa) = 0.05378745
#
# Stress axis : x y z
#
# Youngs Moduli (GPa) = 48.89102 34.00587 53.01261
#
# Poissons Ratio (x) = -0.02285 0.16349
# Poissons Ratio (y) = -0.03285 0.26804
# Poissons Ratio (z) = 0.15078 0.17194
#
# Static dielectric constant tensor:
#      x y z
#    x 1.896500 -0.040520 0.001700 
#    y -0.040520 2.000180 -0.036340 
#    z 0.001700 -0.036340 1.955050 
# 
# From -- ./inp_files/216767.got.cif
#   From: 2010.05.17/outbox.cif.g08.bks.cpg/sg2_109_cif.got.tgz:216767.got - 2010.06.03 11:33:40.
