data_PCOD9003849
_publ_section_title
;
Structure prediction by ZEFSAII (Michael W. Deem and Ramdas Pophale) SiO2 
 PCOD9003849
Probable space group: P -1
;
_chemical_formula_sum "Si O2"
_cell_formula_units_Z 12
_cell_length_a 5.211567
_cell_length_b 21.792512
_cell_length_c 23.530452
_cell_angle_alpha 167.916810
_cell_angle_beta 56.397553
_cell_angle_gamma 125.028608
_cell_volume 457.613225
_symmetry_space_group_name_H-M "P -1"
_symmetry_group_IT_number 2
_symmetry_cell_setting 'triclinic'
loop_
_space_group_symop_operation_xyz
x,y,z
-x,-y,-z
loop_
_atom_site_type_symbol
_atom_site_label
_atom_site_fract_x
_atom_site_fract_y
_atom_site_fract_z
Si Si1 0.635397 0.857554 0.408541
Si Si2 0.312628 0.265563 0.517549
Si Si3 0.050259 0.866221 0.081582
Si Si4 0.864874 0.558730 0.653367
Si Si5 0.549735 0.160162 0.803274
Si Si6 0.585448 0.158245 0.217314
O O1 0.500000 0.000000 0.500000
O O2 0.454503 0.960953 0.578837
O O3 0.627695 0.502734 0.084808
O O4 0.000000 0.000000 0.500000
O O5 0.689126 0.404355 0.590859
O O6 0.204179 0.075477 0.303209
O O7 0.226580 0.040438 0.376436
O O8 0.152361 0.551748 0.794175
O O9 0.685469 0.823757 0.100482
O O10 0.212103 0.034565 0.158131
O O11 0.730965 0.353561 0.430422
O O12 0.242615 0.662106 0.695278
O O13 0.723820 0.856788 0.932378
#
# Coordination Sequence:
#
# PCOD9003849 Si02
#       6
#     2   2   2   2   2   2
#     4  12  30  52  78 106 139 180 223 280 350 428
#     4  10  21  37  62  93 131 175 220 274 334 392
#     4  10  21  37  62  93 131 175 220 274 334 392
#     4   8  14  27  49  80 120 169 218 264 319 382
#     4  12  26  44  73 100 136 170 226 276 343 414
#     4   8  14  27  49  80 120 169 218 264 319 382
#
# _framework density 26.223020999999999
#
# number of rings (size 3 to 8) (size 9 to 14) (size 15 to 20)
#    0.000    2.000    0.000    3.000    7.000    0.000 
#    0.000    0.833    0.000    0.000    0.000   25.667 
#    0.000    0.000    0.000    0.000    0.000    0.000 
#
# Total GULP energy -67095.683823 kJ/mol
# GULP energy per Si atom -5591.306985 kJ/mol
# Density = 2.616334 g / cm^3
# Si number density = 26.223021 Si / 1000 Ang^3
#
#
#
# Elastic Constant Matrix: (Units=GPa)
#
#
# Indices 1 2 3 4 5 6 
#
# 1 85.1000 27.4072 32.0823 21.5235 -6.0413 -6.1140
# 2 27.4072 70.8951 39.7548 1.9155 -13.3859 2.1747
# 3 32.0823 39.7548 250.8125 17.4549 2.5099 -27.4208
# 4 21.5235 1.9155 17.4549 76.7716 -0.4801 -15.2070
# 5 -6.0413 -13.3859 2.5099 -0.4801 39.1948 -7.3444
# 6 -6.1140 2.1747 -27.4208 -15.2070 -7.3444 50.9593
#
#
#
# Elastic Compliance Matrix: (Units=1/GPa)
#
#
# Indices 1 2 3 4 5 6 
#
# 1 0.014686 -0.005041 -0.000768 -0.003704 0.000649 0.000552
# 2 -0.005041 0.018567 -0.002620 0.001253 0.005438 -0.001649
# 3 -0.000768 -0.002620 0.004792 -0.000345 -0.000880 0.002368
# 4 -0.003704 0.001253 -0.000345 0.014883 0.000787 0.003871
# 5 0.000649 0.005438 -0.000880 0.000787 0.028226 0.003675
# 6 0.000552 -0.001649 0.002368 0.003871 0.003675 0.022719
#
#
# Mechanical properties :
#
#
# Convention : Reuss Voigt Hill
#
# Bulk Modulus (GPa) = 47.19803 67.25513 57.22658
# Shear Modulus (GPa) = 39.12529 53.88936 46.50732
#
# Velocity S-wave (km/s) = 3.86686 4.53817 4.21590
# Velocity P-wave (km/s) = 6.16235 7.29130 6.75047
#
# Compressibility (1/GPa) = 0.02118733
#
# Stress axis : x y z
#
# Youngs Moduli (GPa) = 68.08987 53.85902 208.66656
#
# Poissons Ratio (x) = 0.27152 0.16023
# Poissons Ratio (y) = 0.34326 0.54671
# Poissons Ratio (z) = 0.05229 0.14111
#
# Static dielectric constant tensor:
#      x y z
#    x 2.034790 0.123420 -0.044800 
#    y 0.123420 2.247470 -0.005760 
#    z -0.044800 -0.005760 2.028390 
# 
# From -- ./inp_files/5121.got.cif
#   From: 2010.05.17/outbox.cif.g08.bks.cpg/sg2_3_cif.got.tgz:5121.got - 2010.06.03 11:33:40.
