data_PCOD9003801
_publ_section_title
;
Structure prediction by ZEFSAII (Michael W. Deem and Ramdas Pophale) SiO2 
 PCOD9003801
Probable space group: P -1
;
_chemical_formula_sum "Si O2"
_cell_formula_units_Z 14
_cell_length_a 5.607119
_cell_length_b 24.350148
_cell_length_c 9.414410
_cell_angle_alpha 27.938103
_cell_angle_beta 76.121472
_cell_angle_gamma 71.746194
_cell_volume 569.956340
_symmetry_space_group_name_H-M "P -1"
_symmetry_group_IT_number 2
_symmetry_cell_setting 'triclinic'
loop_
_space_group_symop_operation_xyz
x,y,z
-x,-y,-z
loop_
_atom_site_type_symbol
_atom_site_label
_atom_site_fract_x
_atom_site_fract_y
_atom_site_fract_z
Si Si1 0.150611 0.546627 0.496386
Si Si2 0.543189 0.331564 0.291719
Si Si3 0.187979 0.572668 0.744088
Si Si4 0.533459 0.296204 0.065278
Si Si5 0.685135 0.835908 0.113429
Si Si6 0.308978 0.119941 0.306772
Si Si7 0.914508 0.027065 0.114565
O O1 0.103481 0.606606 0.520483
O O2 0.305684 0.414344 0.826184
O O3 0.261641 0.646055 0.171516
O O4 0.000000 0.500000 0.500000
O O5 0.767611 0.327673 0.379722
O O6 0.336215 0.279404 0.525661
O O7 0.455240 0.472008 0.935761
O O8 0.599281 0.260614 0.299394
O O9 0.000000 0.500000 0.000000
O O10 0.453972 0.195053 0.214730
O O11 0.754237 0.814067 0.986592
O O12 0.387060 0.908329 0.996710
O O13 0.886478 0.903391 0.000939
O O14 0.500000 0.000000 0.500000
O O15 0.096977 0.081339 0.523620
O O16 0.000000 0.000000 0.000000
#
# Coordination Sequence:
#
# PCOD9003801 Si02
#       7
#     2   2   2   2   2   2   2
#     4  10  21  39  62  98 126 170 218 272 344 403
#     4  10  22  39  62  95 126 177 221 275 347 404
#     4  10  21  37  62  90 135 166 217 280 336 414
#     4  10  21  42  64  90 134 167 224 278 335 410
#     4  11  24  43  68  97 135 174 231 283 341 414
#     4  10  23  45  68  98 134 182 230 282 345 407
#     4  11  24  45  69  96 133 175 229 289 342 406
#
# _framework density 24.563285
#
# number of rings (size 3 to 8) (size 9 to 14) (size 15 to 20)
#    0.000    1.714    0.000    3.429    2.000    4.571 
#   12.857    0.000    0.000    0.000    0.000    0.000 
#    0.000    0.000    0.000    0.000    0.000    0.000 
#
# Total GULP energy -78097.521000 kJ/mol
# GULP energy per Si atom -5578.394357 kJ/mol
# Density = 2.450738 g / cm^3
# Si number density = 24.563285 Si / 1000 Ang^3
#
#
#
# Elastic Constant Matrix: (Units=GPa)
#
#
# Indices 1 2 3 4 5 6 
#
# 1 148.0912 99.8732 61.0217 15.8138 -25.7915 46.9818
# 2 99.8732 235.5161 88.9090 55.0688 -16.0385 68.4667
# 3 61.0217 88.9090 164.7743 42.0897 -30.1284 22.6214
# 4 15.8138 55.0688 42.0897 65.4551 -3.2687 1.4050
# 5 -25.7915 -16.0385 -30.1284 -3.2687 59.8728 -17.3992
# 6 46.9818 68.4667 22.6214 1.4050 -17.3992 68.7006
#
#
#
# Elastic Compliance Matrix: (Units=1/GPa)
#
#
# Indices 1 2 3 4 5 6 
#
# 1 0.010875 -0.003180 -0.001864 0.001417 0.002053 -0.003163
# 2 -0.003180 0.009728 -0.001894 -0.006150 -0.002181 -0.007323
# 3 -0.001864 -0.001894 0.009215 -0.003734 0.003435 0.001074
# 4 0.001417 -0.006150 -0.003734 0.022384 0.000032 0.005940
# 5 0.002053 -0.002181 0.003435 0.000032 0.020107 0.004730
# 6 -0.003163 -0.007323 0.001074 0.005940 0.004730 0.024740
#
#
# Mechanical properties :
#
#
# Convention : Reuss Voigt Hill
#
# Bulk Modulus (GPa) = 62.72342 116.44327 89.58335
# Shear Modulus (GPa) = 43.01490 58.71087 50.86289
#
# Velocity S-wave (km/s) = 4.18926 4.89426 4.55542
# Velocity P-wave (km/s) = 6.99934 8.91329 8.01366
#
# Compressibility (1/GPa) = 0.01594301
#
# Stress axis : x y z
#
# Youngs Moduli (GPa) = 91.95471 102.79957 108.51382
#
# Poissons Ratio (x) = 0.32690 0.20225
# Poissons Ratio (y) = 0.29242 0.20549
# Poissons Ratio (z) = 0.17139 0.19467
#
# Static dielectric constant tensor:
#      x y z
#    x 2.026830 -0.176020 0.142040 
#    y -0.176020 1.679880 -0.054850 
#    z 0.142040 -0.054850 2.039280 
# 
# From -- ./inp_files/76588.got.cif
#   From: 2010.05.17/outbox.cif.g08.bks.cpg/sg2_39_cif.got.tgz:76588.got - 2010.06.03 11:33:40.
