data_PCOD9003948
_publ_section_title
;
Structure prediction by ZEFSAII (Michael W. Deem and Ramdas Pophale) SiO2 
 PCOD9003948
Probable space group: P -1
;
_chemical_formula_sum "Si O2"
_cell_formula_units_Z 16
_cell_length_a 17.893084
_cell_length_b 7.949675
_cell_length_c 12.606024
_cell_angle_alpha 41.700961
_cell_angle_beta 44.540932
_cell_angle_gamma 37.523248
_cell_volume 693.630955
_symmetry_space_group_name_H-M "P -1"
_symmetry_group_IT_number 2
_symmetry_cell_setting 'triclinic'
loop_
_space_group_symop_operation_xyz
x,y,z
-x,-y,-z
loop_
_atom_site_type_symbol
_atom_site_label
_atom_site_fract_x
_atom_site_fract_y
_atom_site_fract_z
Si Si1 0.001168 0.731808 0.565456
Si Si2 0.210955 0.750970 0.606464
Si Si3 0.340269 0.773437 0.949469
Si Si4 0.570338 0.078823 0.012077
Si Si5 0.380717 0.896357 0.276629
Si Si6 0.025011 0.965366 0.866058
Si Si7 0.809836 0.483457 0.705245
Si Si8 0.887729 0.670296 0.166009
O O1 0.128096 0.532034 0.460713
O O2 0.020046 0.506883 0.744657
O O3 0.000000 0.000000 0.500000
O O4 0.882459 0.927804 0.513761
O O5 0.167214 0.529338 0.719645
O O6 0.165575 0.826066 0.739798
O O7 0.350406 0.661099 0.467622
O O8 0.377737 0.948914 0.908720
O O9 0.245303 0.992353 0.850195
O O10 0.458598 0.444902 0.945835
O O11 0.258774 0.696577 0.144238
O O12 0.517334 0.862736 0.156438
O O13 0.657441 0.026108 0.846011
O O14 0.297191 0.189795 0.297257
O O15 0.927415 0.294210 0.757173
O O16 0.975252 0.755886 0.972829
O O17 0.000000 0.000000 0.000000
#
# Coordination Sequence:
#
# PCOD9003948 Si02
#       8
#     2   2   2   2   2   2   2   2
#     4   9  20  35  58  90 120 155 194 238 282 360
#     4  10  22  38  57  87 125 160 193 236 291 363
#     4   9  19  39  65  85 112 155 202 251 297 353
#     4   9  20  40  65  87 112 153 206 257 302 343
#     4  10  21  37  63  88 114 155 203 247 297 356
#     4  10  22  36  55  87 125 157 189 239 293 355
#     4   9  20  36  59  87 119 154 201 236 293 367
#     4  10  21  38  59  88 118 158 195 238 296 357
#
# _framework density 23.067021
#
# number of rings (size 3 to 8) (size 9 to 14) (size 15 to 20)
#    0.000    2.500    0.000    0.375    7.000    3.000 
#    0.000    1.250    0.000    0.000    0.000    0.000 
#    0.000    0.000    0.000    0.000    0.000    0.000 
#
# Total GULP energy -89092.839641 kJ/mol
# GULP energy per Si atom -5568.302478 kJ/mol
# Density = 2.301452 g / cm^3
# Si number density = 23.067021 Si / 1000 Ang^3
#
#
#
# Elastic Constant Matrix: (Units=GPa)
#
#
# Indices 1 2 3 4 5 6 
#
# 1 62.8475 3.5281 13.0921 -2.6432 -9.0411 18.8820
# 2 3.5281 39.5856 22.0175 -3.7219 -0.0254 1.9617
# 3 13.0921 22.0175 88.4964 2.4738 -27.3587 12.1115
# 4 -2.6432 -3.7219 2.4738 40.2033 -0.5175 4.7042
# 5 -9.0411 -0.0254 -27.3587 -0.5175 30.9972 -7.8875
# 6 18.8820 1.9617 12.1115 4.7042 -7.8875 31.2007
#
#
#
# Elastic Compliance Matrix: (Units=1/GPa)
#
#
# Indices 1 2 3 4 5 6 
#
# 1 0.020026 -0.000667 -0.000514 0.002682 0.002465 -0.011659
# 2 -0.000667 0.031702 -0.010862 0.003477 -0.009793 -0.000373
# 3 -0.000514 -0.010862 0.019521 -0.001777 0.016495 -0.002146
# 4 0.002682 0.003477 -0.001777 0.026106 -0.001755 -0.005532
# 5 0.002465 -0.009793 0.016495 -0.001755 0.048860 0.005337
# 6 -0.011659 -0.000373 -0.002146 -0.005532 0.005337 0.042146
#
#
# Mechanical properties :
#
#
# Convention : Reuss Voigt Hill
#
# Bulk Modulus (GPa) = 21.20322 29.80054 25.50188
# Shear Modulus (GPa) = 21.91356 30.63301 26.27328
#
# Velocity S-wave (km/s) = 3.08554 3.64813 3.37857
# Velocity P-wave (km/s) = 4.68039 5.54006 5.12827
#
# Compressibility (1/GPa) = 0.04716266
#
# Stress axis : x y z
#
# Youngs Moduli (GPa) = 49.93394 31.54391 51.22625
#
# Poissons Ratio (x) = 0.02105 0.02632
# Poissons Ratio (y) = 0.03333 0.55643
# Poissons Ratio (z) = 0.02566 0.34263
#
# Static dielectric constant tensor:
#      x y z
#    x 1.990300 0.045820 -0.058680 
#    y 0.045820 1.984620 -0.045460 
#    z -0.058680 -0.045460 1.891430 
# 
# From -- ./inp_files/469753.got.cif
#   From: 2010.05.17/outbox.cif.g08.bks.cpg/sg2_235_cif.got.tgz:469753.got - 2010.06.03 11:33:40.
