data_PCOD9003126
_publ_section_title
;
Structure prediction by ZEFSAII (Michael W. Deem and Ramdas Pophale) SiO2 
 PCOD9003126
Probable space group: P -1
;
_chemical_formula_sum "Si O2"
_cell_formula_units_Z 10
_cell_length_a 5.189370
_cell_length_b 5.286615
_cell_length_c 18.812497
_cell_angle_alpha 74.381411
_cell_angle_beta 67.770849
_cell_angle_gamma 59.384225
_cell_volume 409.247357
_symmetry_space_group_name_H-M "P -1"
_symmetry_group_IT_number 2
_symmetry_cell_setting 'triclinic'
loop_
_space_group_symop_operation_xyz
x,y,z
-x,-y,-z
loop_
_atom_site_type_symbol
_atom_site_label
_atom_site_fract_x
_atom_site_fract_y
_atom_site_fract_z
Si Si1 0.160721 0.700599 0.552948
Si Si2 0.480524 0.130006 0.412892
Si Si3 0.356823 0.555463 0.213466
Si Si4 0.373343 0.342866 0.969029
Si Si5 0.615864 0.863938 0.271356
O O1 0.500000 0.500000 0.500000
O O2 0.246569 0.769911 0.617000
O O3 0.874661 0.617695 0.584189
O O4 0.000000 0.000000 0.500000
O O5 0.553833 0.896817 0.360168
O O6 0.500000 0.000000 0.500000
O O7 0.509438 0.621671 0.123386
O O8 0.493030 0.204571 0.235301
O O9 0.442963 0.708467 0.258743
O O10 0.985195 0.693397 0.232775
O O11 0.500000 0.500000 0.000000
O O12 0.000000 0.500000 0.000000
O O13 0.500000 0.000000 0.000000
#
# Coordination Sequence:
#
# PCOD9003126 Si02
#       5
#     2   2   2   2   2
#     4  10  21  37  58  84 117 155 210 281 332 380
#     4  10  23  41  63  92 125 174 231 281 331 394
#     4  12  26  47  69 104 141 179 224 275 344 411
#     4  12  24  44  74 106 138 179 224 275 330 405
#     4  12  26  45  69  98 141 185 224 284 344 400
#
# _framework density 24.435099000000001
#
# number of rings (size 3 to 8) (size 9 to 14) (size 15 to 20)
#    0.000    0.800    0.000    7.200    0.000    9.600 
#    0.000    0.000    0.000    0.000    0.000    0.000 
#    0.000    0.000    0.000    0.000    0.000    0.000 
#
# Total GULP energy -56017.055725 kJ/mol
# GULP energy per Si atom -5601.705573 kJ/mol
# Density = 2.437948 g / cm^3
# Si number density = 24.435099 Si / 1000 Ang^3
#
#
#
# Elastic Constant Matrix: (Units=GPa)
#
#
# Indices 1 2 3 4 5 6 
#
# 1 212.3051 78.2814 12.2231 4.9977 26.5421 -22.7939
# 2 78.2814 190.6236 31.1177 -16.3000 -5.2702 -14.2754
# 3 12.2231 31.1177 126.6321 -1.9850 -10.0320 2.3539
# 4 4.9977 -16.3000 -1.9850 39.1455 6.6720 -9.7003
# 5 26.5421 -5.2702 -10.0320 6.6720 52.7714 14.2636
# 6 -22.7939 -14.2754 2.3539 -9.7003 14.2636 66.2028
#
#
#
# Elastic Compliance Matrix: (Units=1/GPa)
#
#
# Indices 1 2 3 4 5 6 
#
# 1 0.006493 -0.002582 -0.000381 -0.000585 -0.004201 0.002512
# 2 -0.002582 0.006888 -0.001323 0.003158 0.001101 0.000869
# 3 -0.000381 -0.001323 0.008437 -0.000750 0.002104 -0.001280
# 4 -0.000585 0.003158 -0.000750 0.029153 -0.004789 0.005810
# 5 -0.004201 0.001101 0.002104 -0.004789 0.024119 -0.007182
# 6 0.002512 0.000869 -0.001280 0.005810 -0.007182 0.018601
#
#
# Mechanical properties :
#
#
# Convention : Reuss Voigt Hill
#
# Bulk Modulus (GPa) = 75.49180 85.86723 80.67951
# Shear Modulus (GPa) = 46.86941 58.81984 52.84463
#
# Velocity S-wave (km/s) = 4.38438 4.91163 4.65548
# Velocity P-wave (km/s) = 7.52279 8.20870 7.87322
#
# Compressibility (1/GPa) = 0.01324647
#
# Stress axis : x y z
#
# Youngs Moduli (GPa) = 154.01466 145.18287 118.51984
#
# Poissons Ratio (x) = 0.37490 0.04514
# Poissons Ratio (y) = 0.39771 0.15677
# Poissons Ratio (z) = 0.05865 0.19204
#
# Static dielectric constant tensor:
#      x y z
#    x 2.161600 0.203250 -0.032480 
#    y 0.203250 2.182670 -0.030670 
#    z -0.032480 -0.030670 1.964450 
# 
# From -- ./inp_files/5174.got.cif
#   From: 2010.05.17/outbox.cif.g08.bks.cpg/sg2_3_cif.got.tgz:5174.got - 2010.06.03 11:33:40.
