data_PCOD9003192
_publ_section_title
;
Structure prediction by ZEFSAII (Michael W. Deem and Ramdas Pophale) SiO2 
 PCOD9003192
Probable space group: P -1
;
_chemical_formula_sum "Si O2"
_cell_formula_units_Z 14
_cell_length_a 12.271170
_cell_length_b 6.299375
_cell_length_c 10.680538
_cell_angle_alpha 63.776873
_cell_angle_beta 90.952226
_cell_angle_gamma 120.445089
_cell_volume 615.157064
_symmetry_space_group_name_H-M "P -1"
_symmetry_group_IT_number 2
_symmetry_cell_setting 'triclinic'
loop_
_space_group_symop_operation_xyz
x,y,z
-x,-y,-z
loop_
_atom_site_type_symbol
_atom_site_label
_atom_site_fract_x
_atom_site_fract_y
_atom_site_fract_z
Si Si1 0.714417 0.902461 0.956267
Si Si2 0.906962 0.968121 0.751381
Si Si3 0.211484 0.328423 0.600738
Si Si4 0.300535 0.925676 0.349744
Si Si5 0.329631 0.616264 0.792336
Si Si6 0.605136 0.825941 0.449490
Si Si7 0.146164 0.582432 0.002756
O O1 0.859112 0.001797 0.878671
O O2 0.653448 0.959766 0.819947
O O3 0.749951 0.105592 0.021516
O O4 0.633907 0.573269 0.079381
O O5 0.859719 0.640028 0.839618
O O6 0.824064 0.046190 0.643806
O O7 0.058285 0.154426 0.673366
O O8 0.253293 0.599297 0.444177
O O9 0.258637 0.135989 0.596814
O O10 0.286832 0.470685 0.694371
O O11 0.391492 0.104761 0.421878
O O12 0.414736 0.955220 0.684362
O O13 0.202857 0.557988 0.879903
O O14 0.500000 0.500000 0.500000
O O15 0.000000 0.500000 0.000000
#
# Coordination Sequence:
#
# PCOD9003192 Si02
#       7
#     2   2   2   2   2   2   2
#     4   9  20  36  56  87 130 153 186 240 291 357
#     4   9  20  34  56  94 125 154 192 230 293 362
#     4  11  21  38  62  85 126 160 194 244 295 352
#     4   9  23  38  58  91 124 155 196 239 303 355
#     4  10  21  37  58  89 117 154 201 236 293 358
#     4  11  25  43  63  84 112 158 211 254 294 346
#     4  11  19  32  59  90 128 163 190 227 290 362
#
# _framework density 22.758416
#
# number of rings (size 3 to 8) (size 9 to 14) (size 15 to 20)
#    0.857    1.143    0.000    3.857    2.000    6.286 
#    0.000    0.714    0.000    2.571    0.000    0.000 
#    0.000    0.000    0.000    0.000    0.000    0.000 
#
# Total GULP energy -78142.011991 kJ/mol
# GULP energy per Si atom -5581.572285 kJ/mol
# Density = 2.270662 g / cm^3
# Si number density = 22.758416 Si / 1000 Ang^3
#
#
#
# Elastic Constant Matrix: (Units=GPa)
#
#
# Indices 1 2 3 4 5 6 
#
# 1 73.5795 13.8840 18.2698 -1.7652 2.2729 -9.0248
# 2 13.8840 82.8680 49.2974 -16.5824 4.6481 -11.5402
# 3 18.2698 49.2974 156.8760 -27.5865 24.1039 -8.9536
# 4 -1.7652 -16.5824 -27.5865 44.1591 -12.2854 -4.0533
# 5 2.2729 4.6481 24.1039 -12.2854 21.5706 -7.6871
# 6 -9.0248 -11.5402 -8.9536 -4.0533 -7.6871 30.6452
#
#
#
# Elastic Compliance Matrix: (Units=1/GPa)
#
#
# Indices 1 2 3 4 5 6 
#
# 1 0.014574 -0.001168 -0.001343 0.000130 0.001680 0.003898
# 2 -0.001168 0.017045 -0.004958 0.006232 0.008217 0.007511
# 3 -0.001343 -0.004958 0.009683 0.001369 -0.009405 -0.001612
# 4 0.000130 0.006232 0.001369 0.032500 0.019929 0.012083
# 5 0.001680 0.008217 -0.009405 0.019929 0.074138 0.022074
# 6 0.003898 0.007511 -0.001612 0.012083 0.022074 0.043273
#
#
# Mechanical properties :
#
#
# Convention : Reuss Voigt Hill
#
# Bulk Modulus (GPa) = 37.93189 52.91399 45.42294
# Shear Modulus (GPa) = 23.26250 34.73313 28.99782
#
# Velocity S-wave (km/s) = 3.20058 3.91086 3.57341
# Velocity P-wave (km/s) = 5.51014 6.61013 6.08504
#
# Compressibility (1/GPa) = 0.02636304
#
# Stress axis : x y z
#
# Youngs Moduli (GPa) = 68.61537 58.66867 103.27702
#
# Poissons Ratio (x) = 0.06853 0.13870
# Poissons Ratio (y) = 0.08015 0.51206
# Poissons Ratio (z) = 0.09215 0.29089
#
# Static dielectric constant tensor:
#      x y z
#    x 1.872290 -0.004860 0.009120 
#    y -0.004860 1.809050 -0.026750 
#    z 0.009120 -0.026750 1.855930 
# 
# From -- ./inp_files/440248.got.cif
#   From: 2010.05.17/outbox.cif.g08.bks.cpg/sg2_221_cif.got.tgz:440248.got - 2010.06.03 11:33:40.
