data_PCOD9003254
_publ_section_title
;
Structure prediction by ZEFSAII (Michael W. Deem and Ramdas Pophale) SiO2 
 PCOD9003254
Probable space group: P -1
;
_chemical_formula_sum "Si O2"
_cell_formula_units_Z 12
_cell_length_a 5.273305
_cell_length_b 18.183442
_cell_length_c 6.485640
_cell_angle_alpha 125.700117
_cell_angle_beta 110.514881
_cell_angle_gamma 93.711907
_cell_volume 442.367911
_symmetry_space_group_name_H-M "P -1"
_symmetry_group_IT_number 2
_symmetry_cell_setting 'triclinic'
loop_
_space_group_symop_operation_xyz
x,y,z
-x,-y,-z
loop_
_atom_site_type_symbol
_atom_site_label
_atom_site_fract_x
_atom_site_fract_y
_atom_site_fract_z
Si Si1 0.310535 0.023552 0.803176
Si Si2 0.702263 0.141749 0.728266
Si Si3 0.734835 0.685351 0.767996
Si Si4 0.693837 0.818151 0.674830
Si Si5 0.190286 0.484010 0.714202
Si Si6 0.753233 0.650820 0.195152
O O1 0.511178 0.086213 0.777515
O O2 0.151796 0.923843 0.471338
O O3 0.154321 0.082147 0.993881
O O4 0.500000 0.000000 0.000000
O O5 0.506006 0.165415 0.534669
O O6 0.936383 0.239486 0.037821
O O7 0.555195 0.744480 0.705235
O O8 0.659192 0.583234 0.469209
O O9 0.739293 0.666133 0.976357
O O10 0.854172 0.755712 0.500194
O O11 0.077736 0.414876 0.768348
O O12 0.000000 0.500000 0.500000
O O13 0.413643 0.584974 0.020942
#
# Coordination Sequence:
#
# PCOD9003254 Si02
#       6
#     2   2   2   2   2   2
#     4   9  20  39  61  83 115 153 191 237 282 335
#     4  10  21  39  59  85 116 151 193 234 284 337
#     4  11  23  37  60  87 115 151 190 235 287 342
#     4  10  21  37  59  85 115 150 189 236 282 335
#     4  10  22  39  59  84 115 153 192 233 284 339
#     4  10  22  39  57  87 119 147 191 237 283 340
#
# _framework density 27.126745
#
# number of rings (size 3 to 8) (size 9 to 14) (size 15 to 20)
#    0.000    2.000    0.000    2.500    0.000    8.000 
#    0.000    8.333    0.000    0.000    0.000    0.000 
#    0.000    0.000    0.000    0.000    0.000    0.000 
#
# Total GULP energy -66946.047468 kJ/mol
# GULP energy per Si atom -5578.837289 kJ/mol
# Density = 2.706500 g / cm^3
# Si number density = 27.126745 Si / 1000 Ang^3
#
#
#
# Elastic Constant Matrix: (Units=GPa)
#
#
# Indices 1 2 3 4 5 6 
#
# 1 47.9305 38.1034 33.3727 -6.2324 -2.5072 6.2599
# 2 38.1034 183.7672 60.3552 -67.4041 -6.4226 -1.4251
# 3 33.3727 60.3552 206.2134 -58.6960 -9.2569 -10.0075
# 4 -6.2324 -67.4041 -58.6960 59.8334 -16.1694 -8.5720
# 5 -2.5072 -6.4226 -9.2569 -16.1694 42.4566 1.5721
# 6 6.2599 -1.4251 -10.0075 -8.5720 1.5721 37.3366
#
#
#
# Elastic Compliance Matrix: (Units=1/GPa)
#
#
# Indices 1 2 3 4 5 6 
#
# 1 0.041990 -0.018662 -0.013660 -0.037362 -0.016837 -0.019283
# 2 -0.018662 0.020528 0.008882 0.036586 0.017357 0.013962
# 3 -0.013660 0.008882 0.013275 0.026872 0.013229 0.011800
# 4 -0.037362 0.036586 0.026872 0.097645 0.045065 0.035384
# 5 -0.016837 0.017357 0.013229 0.045065 0.044658 0.015497
# 6 -0.019283 0.013962 0.011800 0.035384 0.015497 0.041183
#
#
# Mechanical properties :
#
#
# Convention : Reuss Voigt Hill
#
# Bulk Modulus (GPa) = 34.58462 77.95264 56.26863
# Shear Modulus (GPa) = 15.83297 48.33065 32.08181
#
# Velocity S-wave (km/s) = 2.41854 4.22555 3.44272
# Velocity P-wave (km/s) = 4.53608 7.25299 6.04905
#
# Compressibility (1/GPa) = 0.02891459
#
# Stress axis : x y z
#
# Youngs Moduli (GPa) = 23.81540 48.71347 75.32682
#
# Poissons Ratio (x) = 0.90910 1.02893
# Poissons Ratio (y) = 0.44445 -0.66908
# Poissons Ratio (z) = 0.32531 -0.43269
#
# Static dielectric constant tensor:
#      x y z
#    x 2.208100 -0.029300 -0.036450 
#    y -0.029300 2.278390 -0.052790 
#    z -0.036450 -0.052790 2.045230 
# 
# From -- ./inp_files/4471.got.cif
#   From: 2010.05.17/outbox.cif.g08.bks.cpg/sg2_3_cif.got.tgz:4471.got - 2010.06.03 11:33:40.
