data_PCOD9003700
_publ_section_title
;
Structure prediction by ZEFSAII (Michael W. Deem and Ramdas Pophale) SiO2 
 PCOD9003700
Probable space group: P -1
;
_chemical_formula_sum "Si O2"
_cell_formula_units_Z 14
_cell_length_a 9.311986
_cell_length_b 9.451910
_cell_length_c 11.053429
_cell_angle_alpha 126.996194
_cell_angle_beta 108.021227
_cell_angle_gamma 61.199578
_cell_volume 680.637101
_symmetry_space_group_name_H-M "P -1"
_symmetry_group_IT_number 2
_symmetry_cell_setting 'triclinic'
loop_
_space_group_symop_operation_xyz
x,y,z
-x,-y,-z
loop_
_atom_site_type_symbol
_atom_site_label
_atom_site_fract_x
_atom_site_fract_y
_atom_site_fract_z
Si Si1 0.621776 0.177246 0.707019
Si Si2 0.113103 0.868591 0.067123
Si Si3 0.403298 0.701022 0.645639
Si Si4 0.029171 0.299220 0.846295
Si Si5 0.591922 0.902091 0.217922
Si Si6 0.837480 0.188025 0.556046
Si Si7 0.436108 0.632602 0.903178
O O1 0.772236 0.063955 0.779755
O O2 0.477472 0.113001 0.675414
O O3 0.695914 0.157978 0.582854
O O4 0.549938 0.408014 0.834590
O O5 0.002994 0.819092 0.111547
O O6 0.255983 0.690662 0.945559
O O7 0.000000 0.000000 0.000000
O O8 0.500000 0.500000 0.500000
O O9 0.225158 0.761261 0.569086
O O10 0.410952 0.668119 0.772460
O O11 0.459467 0.877428 0.723789
O O12 0.211893 0.196191 0.790404
O O13 0.893052 0.330246 0.722848
O O14 0.000000 0.500000 0.000000
O O15 0.518621 0.774948 0.050720
O O16 0.000000 0.000000 0.500000
#
# Coordination Sequence:
#
# PCOD9003700 Si02
#       7
#     2   2   2   2   2   2   2
#     4  10  22  42  66  93 127 167 214 263 317 381
#     4  10  21  37  61  94 126 160 205 264 313 360
#     4  12  25  42  64  95 132 173 209 264 317 384
#     4  11  22  40  69  95 124 163 216 265 315 376
#     4  11  22  41  69  96 122 171 219 261 311 382
#     4  11  23  45  64  90 131 171 208 260 329 374
#     4  11  22  43  68  93 129 167 217 259 317 381
#
# _framework density 20.568966
#
# number of rings (size 3 to 8) (size 9 to 14) (size 15 to 20)
#    0.000    1.143    2.857    5.571    2.000    1.714 
#    0.000    0.000    0.000    4.286    0.000    0.000 
#    0.000    0.000    0.000    0.000    0.000    0.000 
#
# Total GULP energy -78115.728684 kJ/mol
# GULP energy per Si atom -5579.694906 kJ/mol
# Density = 2.052215 g / cm^3
# Si number density = 20.568966 Si / 1000 Ang^3
#
#
#
# Elastic Constant Matrix: (Units=GPa)
#
#
# Indices 1 2 3 4 5 6 
#
# 1 147.3479 34.4948 31.4912 -0.6275 -10.2918 3.6234
# 2 34.4948 108.4244 34.2081 -12.6073 11.7864 -7.5038
# 3 31.4912 34.2081 103.0004 -8.6547 8.9809 5.7264
# 4 -0.6275 -12.6073 -8.6547 46.6824 -3.0419 -1.9925
# 5 -10.2918 11.7864 8.9809 -3.0419 38.1174 -0.8139
# 6 3.6234 -7.5038 5.7264 -1.9925 -0.8139 31.1094
#
#
#
# Elastic Compliance Matrix: (Units=1/GPa)
#
#
# Indices 1 2 3 4 5 6 
#
# 1 0.008032 -0.002474 -0.001922 -0.000750 0.003302 -0.001140
# 2 -0.002474 0.011842 -0.002875 0.002572 -0.003367 0.003750
# 3 -0.001922 -0.002875 0.011694 0.001101 -0.002353 -0.002613
# 4 -0.000750 0.002572 0.001101 0.022431 0.000575 0.001957
# 5 0.003302 -0.003367 -0.002353 0.000575 0.028768 0.000026
# 6 -0.001140 0.003750 -0.002613 0.001957 0.000026 0.033789
#
#
# Mechanical properties :
#
#
# Convention : Reuss Voigt Hill
#
# Bulk Modulus (GPa) = 58.73327 62.12899 60.43113
# Shear Modulus (GPa) = 36.55666 40.42040 38.48853
#
# Velocity S-wave (km/s) = 4.22034 4.43777 4.33042
# Velocity P-wave (km/s) = 7.23635 7.51859 7.37882
#
# Compressibility (1/GPa) = 0.01702613
#
# Stress axis : x y z
#
# Youngs Moduli (GPa) = 124.50102 84.44512 85.51352
#
# Poissons Ratio (x) = 0.20894 0.16432
# Poissons Ratio (y) = 0.30804 0.24587
# Poissons Ratio (z) = 0.23923 0.24280
#
# Static dielectric constant tensor:
#      x y z
#    x 1.567660 -0.276760 0.054220 
#    y -0.276760 1.399550 0.053350 
#    z 0.054220 0.053350 1.796470 
# 
# From -- ./inp_files/157896.got.cif
#   From: 2010.05.17/outbox.cif.g08.bks.cpg/sg2_79_cif.got.tgz:157896.got - 2010.06.03 11:33:40.
