data_PCOD9003185
_publ_section_title
;
Structure prediction by ZEFSAII (Michael W. Deem and Ramdas Pophale) SiO2 
 PCOD9003185
Probable space group: P -1
;
_chemical_formula_sum "Si O2"
_cell_formula_units_Z 14
_cell_length_a 11.952446
_cell_length_b 12.867255
_cell_length_c 5.619570
_cell_angle_alpha 94.493408
_cell_angle_beta 61.380892
_cell_angle_gamma 73.323130
_cell_volume 702.419699
_symmetry_space_group_name_H-M "P -1"
_symmetry_group_IT_number 2
_symmetry_cell_setting 'triclinic'
loop_
_space_group_symop_operation_xyz
x,y,z
-x,-y,-z
loop_
_atom_site_type_symbol
_atom_site_label
_atom_site_fract_x
_atom_site_fract_y
_atom_site_fract_z
Si Si1 0.721619 0.101211 0.128630
Si Si2 0.880066 0.856304 0.790977
Si Si3 0.801016 0.651860 0.761043
Si Si4 0.046406 0.797215 0.107497
Si Si5 0.562240 0.815589 0.800704
Si Si6 0.396627 0.990630 0.398822
Si Si7 0.064462 0.556626 0.137065
O O1 0.565560 0.177591 0.232266
O O2 0.713663 0.054611 0.391693
O O3 0.826773 0.162042 0.004250
O O4 0.773956 0.984598 0.907663
O O5 0.806978 0.765945 0.889141
O O6 0.964597 0.832626 0.450676
O O7 0.968040 0.843434 0.944372
O O8 0.664182 0.694483 0.751593
O O9 0.811596 0.547728 0.897133
O O10 0.941674 0.607786 0.460782
O O11 0.094718 0.661818 0.026676
O O12 0.655668 0.881591 0.614164
O O13 0.487032 0.897141 0.108440
O O14 0.500000 0.000000 0.500000
O O15 0.000000 0.500000 0.000000
#
# Coordination Sequence:
#
# PCOD9003185 Si02
#       7
#     2   2   2   2   2   2   2
#     4  11  24  37  59  92 130 166 199 250 313 389
#     4  11  23  39  65  92 128 168 205 255 308 373
#     4  10  21  38  64  91 115 160 214 260 314 354
#     4  11  25  41  63  93 129 167 209 255 312 366
#     4  10  21  37  58  88 124 160 204 260 306 374
#     4   9  19  34  55  84 122 163 199 241 302 369
#     4  10  21  40  63  87 117 159 214 267 302 363
#
# _framework density 19.931106
#
# number of rings (size 3 to 8) (size 9 to 14) (size 15 to 20)
#    0.000    1.714    1.429    3.429    8.000    2.286 
#    0.000    0.714    0.000    1.714    0.000    0.000 
#    0.000    0.000    0.000    0.000    0.000    0.000 
#
# Total GULP energy -78046.633075 kJ/mol
# GULP energy per Si atom -5574.759505 kJ/mol
# Density = 1.988574 g / cm^3
# Si number density = 19.931106 Si / 1000 Ang^3
#
#
#
# Elastic Constant Matrix: (Units=GPa)
#
#
# Indices 1 2 3 4 5 6 
#
# 1 93.1054 61.1275 14.1763 -3.7514 -8.6748 -21.0589
# 2 61.1275 135.3911 24.9252 -0.5899 -17.9960 -16.1662
# 3 14.1763 24.9252 52.6289 -20.0151 -0.9497 3.3280
# 4 -3.7514 -0.5899 -20.0151 22.8445 3.0105 0.4755
# 5 -8.6748 -17.9960 -0.9497 3.0105 25.5278 -3.1444
# 6 -21.0589 -16.1662 3.3280 0.4755 -3.1444 44.2278
#
#
#
# Elastic Compliance Matrix: (Units=1/GPa)
#
#
# Indices 1 2 3 4 5 6 
#
# 1 0.016622 -0.006294 -0.001489 0.000908 0.001769 0.005842
# 2 -0.006294 0.013096 -0.007877 -0.008742 0.008208 0.003060
# 3 -0.001489 -0.007877 0.035668 0.032197 -0.009427 -0.007288
# 4 0.000908 -0.008742 0.032197 0.073928 -0.014237 -0.006993
# 5 0.001769 0.008208 -0.009427 -0.014237 0.047888 0.008109
# 6 0.005842 0.003060 -0.007288 -0.006993 0.008109 0.027711
#
#
# Mechanical properties :
#
#
# Convention : Reuss Voigt Hill
#
# Bulk Modulus (GPa) = 29.35436 53.50928 41.43182
# Shear Modulus (GPa) = 19.41080 30.57978 24.99529
#
# Velocity S-wave (km/s) = 3.12411 3.92123 3.54515
# Velocity P-wave (km/s) = 5.27004 6.88526 6.13107
#
# Compressibility (1/GPa) = 0.03406649
#
# Stress axis : x y z
#
# Youngs Moduli (GPa) = 60.16034 76.35748 28.03632
#
# Poissons Ratio (x) = 0.48060 0.04174
# Poissons Ratio (y) = 0.37866 0.22085
# Poissons Ratio (z) = 0.08956 0.60149
#
# Static dielectric constant tensor:
#      x y z
#    x 1.741240 -0.051890 0.057140 
#    y -0.051890 1.724810 -0.022020 
#    z 0.057140 -0.022020 1.804880 
# 
# From -- ./inp_files/46002.got.cif
#   From: 2010.05.17/outbox.cif.g08.bks.cpg/sg2_24_cif.got.tgz:46002.got - 2010.06.03 11:33:40.
