data_PCOD9003824
_publ_section_title
;
Structure prediction by ZEFSAII (Michael W. Deem and Ramdas Pophale) SiO2 
 PCOD9003824
Probable space group: P -1
;
_chemical_formula_sum "Si O2"
_cell_formula_units_Z 16
_cell_length_a 22.401419
_cell_length_b 18.607496
_cell_length_c 12.940682
_cell_angle_alpha 141.673898
_cell_angle_beta 29.273188
_cell_angle_gamma 162.859158
_cell_volume 730.922642
_symmetry_space_group_name_H-M "P -1"
_symmetry_group_IT_number 2
_symmetry_cell_setting 'triclinic'
loop_
_space_group_symop_operation_xyz
x,y,z
-x,-y,-z
loop_
_atom_site_type_symbol
_atom_site_label
_atom_site_fract_x
_atom_site_fract_y
_atom_site_fract_z
Si Si1 0.557843 0.328274 0.032078
Si Si2 0.232858 0.678147 0.149430
Si Si3 0.256302 0.072981 0.635859
Si Si4 0.563479 0.450033 0.770505
Si Si5 0.542264 0.574515 0.403930
Si Si6 0.708244 0.268954 0.123191
Si Si7 0.211909 0.508480 0.345523
Si Si8 0.043118 0.165274 0.576130
O O1 0.591496 0.495862 0.179856
O O2 0.764518 0.435042 0.913616
O O3 0.584763 0.310584 0.853714
O O4 0.257724 0.041244 0.203459
O O5 0.971366 0.534367 0.409055
O O6 0.504729 0.984831 0.111704
O O7 0.239891 0.662175 0.998553
O O8 0.312925 0.201638 0.794364
O O9 0.243750 0.146329 0.637266
O O10 0.519561 0.210873 0.388936
O O11 0.995605 0.770356 0.688766
O O12 0.649544 0.414758 0.671337
O O13 0.805275 0.694082 0.602860
O O14 0.500000 0.500000 0.000000
O O15 0.500000 0.500000 0.500000
O O16 0.261082 0.395646 0.589160
O O17 0.000000 0.500000 0.000000
O O18 0.000000 0.000000 0.500000
#
# Coordination Sequence:
#
# PCOD9003824 Si02
#       8
#     2   2   2   2   2   2   2   2
#     4  11  23  42  60  91 129 168 213 257 316 382
#     4  10  23  39  67  91 124 172 212 260 319 374
#     4  10  23  40  61  96 126 161 214 261 315 384
#     4  11  23  40  67  92 127 168 206 263 322 375
#     4  10  21  37  62  92 123 159 208 268 319 370
#     4  10  21  38  66  96 123 160 214 267 317 375
#     4  11  24  43  63  91 132 170 212 261 317 377
#     4   9  21  37  60  89 122 159 212 251 310 379
#
# _framework density 21.890142999999998
#
# number of rings (size 3 to 8) (size 9 to 14) (size 15 to 20)
#    0.000    1.750    0.000    4.125   12.250    2.000 
#    2.250    0.000    0.000    4.500    0.000    0.000 
#    0.000    0.000    0.000    0.000    0.000    0.000 
#
# Total GULP energy -89395.889937 kJ/mol
# GULP energy per Si atom -5587.243121 kJ/mol
# Density = 2.184032 g / cm^3
# Si number density = 21.890143 Si / 1000 Ang^3
#
#
#
# Elastic Constant Matrix: (Units=GPa)
#
#
# Indices 1 2 3 4 5 6 
#
# 1 116.0378 3.3389 28.2952 -1.6330 -0.9097 3.4536
# 2 3.3389 41.4743 1.1979 3.1902 0.7435 6.1852
# 3 28.2952 1.1979 85.3252 -1.8696 10.3448 -2.1789
# 4 -1.6330 3.1902 -1.8696 26.3630 -4.8892 4.4072
# 5 -0.9097 0.7435 10.3448 -4.8892 43.6598 4.4326
# 6 3.4536 6.1852 -2.1789 4.4072 4.4326 30.4442
#
#
#
# Elastic Compliance Matrix: (Units=1/GPa)
#
#
# Indices 1 2 3 4 5 6 
#
# 1 0.009510 -0.000535 -0.003316 0.000904 0.001249 -0.001520
# 2 -0.000535 0.025045 -0.000328 -0.002329 -0.000144 -0.004693
# 3 -0.003316 -0.000328 0.013285 -0.000180 -0.003426 0.001918
# 4 0.000904 -0.002329 -0.000180 0.040272 0.005244 -0.006236
# 5 0.001249 -0.000144 -0.003426 0.005244 0.024812 -0.004729
# 6 -0.001520 -0.004693 0.001918 -0.006236 -0.004729 0.035701
#
#
# Mechanical properties :
#
#
# Convention : Reuss Voigt Hill
#
# Bulk Modulus (GPa) = 25.32815 34.27794 29.80304
# Shear Modulus (GPa) = 29.38687 34.09376 31.74031
#
# Velocity S-wave (km/s) = 3.66795 3.95079 3.81199
# Velocity P-wave (km/s) = 5.43453 6.04191 5.74625
#
# Compressibility (1/GPa) = 0.03948177
#
# Stress axis : x y z
#
# Youngs Moduli (GPa) = 105.15539 39.92738 75.27462
#
# Poissons Ratio (x) = 0.02136 0.24965
# Poissons Ratio (y) = 0.05626 0.02466
# Poissons Ratio (z) = 0.34874 0.01308
#
# Static dielectric constant tensor:
#      x y z
#    x 1.771000 0.018920 -0.015080 
#    y 0.018920 1.820300 -0.004730 
#    z -0.015080 -0.004730 1.823940 
# 
# From -- ./inp_files/472424.got.cif
#   From: 2010.05.17/outbox.cif.g08.bks.cpg/sg2_237_cif.got.tgz:472424.got - 2010.06.03 11:33:40.
