data_PCOD9003441
_publ_section_title
;
Structure prediction by ZEFSAII (Michael W. Deem and Ramdas Pophale) SiO2 
 PCOD9003441
Probable space group: P -1
;
_chemical_formula_sum "Si O2"
_cell_formula_units_Z 16
_cell_length_a 8.391107
_cell_length_b 17.317219
_cell_length_c 8.179605
_cell_angle_alpha 56.977591
_cell_angle_beta 131.156137
_cell_angle_gamma 95.299437
_cell_volume 680.320382
_symmetry_space_group_name_H-M "P -1"
_symmetry_group_IT_number 2
_symmetry_cell_setting 'triclinic'
loop_
_space_group_symop_operation_xyz
x,y,z
-x,-y,-z
loop_
_atom_site_type_symbol
_atom_site_label
_atom_site_fract_x
_atom_site_fract_y
_atom_site_fract_z
Si Si1 0.288671 0.051886 0.175459
Si Si2 0.215097 0.876780 0.128770
Si Si3 0.163885 0.608479 0.258998
Si Si4 0.761767 0.552450 0.937488
Si Si5 0.438296 0.380588 0.639043
Si Si6 0.930179 0.689359 0.562828
Si Si7 0.557419 0.885351 0.113058
Si Si8 0.298154 0.684006 0.579367
O O1 0.500000 0.000000 0.500000
O O2 0.241963 0.968531 0.133849
O O3 0.364282 0.114778 0.021794
O O4 0.051896 0.107490 0.055685
O O5 0.331321 0.869026 0.038584
O O6 0.351297 0.775391 0.442060
O O7 0.340421 0.489245 0.534595
O O8 0.285118 0.655652 0.155512
O O9 0.155821 0.657789 0.370665
O O10 0.930499 0.603896 0.045558
O O11 0.647788 0.595795 0.635727
O O12 0.546937 0.588938 0.875859
O O13 0.911679 0.431694 0.158781
O O14 0.292327 0.319751 0.670771
O O15 0.777771 0.789694 0.451441
O O16 0.124427 0.715877 0.575480
O O17 0.500000 0.000000 0.000000
#
# Coordination Sequence:
#
# PCOD9003441 Si02
#       8
#     2   2   2   2   2   2   2   2
#     4  10  22  43  71  93 127 164 215 271 325 387
#     4  10  22  42  67  94 132 166 209 270 326 382
#     4   9  18  34  55  79 120 160 212 251 307 360
#     4  10  21  37  60  87 126 170 215 258 310 380
#     4   9  19  35  58  84 120 165 212 263 308 369
#     4  11  20  37  60  88 129 167 212 262 315 378
#     4  10  21  40  69  96 122 170 212 266 332 377
#     4  11  22  37  60  91 132 169 208 258 319 380
#
# _framework density 23.518329999999999
#
# number of rings (size 3 to 8) (size 9 to 14) (size 15 to 20)
#    0.000    2.000    1.250    3.375    0.000    3.500 
#    0.000    3.750    5.500    0.000    0.000    0.000 
#    0.000    0.000    0.000    0.000    0.000    0.000 
#
# Total GULP energy -89168.646650 kJ/mol
# GULP energy per Si atom -5573.040416 kJ/mol
# Density = 2.346480 g / cm^3
# Si number density = 23.518330 Si / 1000 Ang^3
#
#
#
# Elastic Constant Matrix: (Units=GPa)
#
#
# Indices 1 2 3 4 5 6 
#
# 1 192.2027 22.7699 60.7781 -13.6537 25.0248 14.9462
# 2 22.7699 56.1033 24.0623 -19.9364 11.7415 13.9151
# 3 60.7781 24.0623 92.5159 -14.5455 24.1360 4.3931
# 4 -13.6537 -19.9364 -14.5455 39.4277 1.0652 2.3536
# 5 25.0248 11.7415 24.1360 1.0652 38.8111 -13.7442
# 6 14.9462 13.9151 4.3931 2.3536 -13.7442 38.5454
#
#
#
# Elastic Compliance Matrix: (Units=1/GPa)
#
#
# Indices 1 2 3 4 5 6 
#
# 1 0.007255 0.001639 -0.003253 0.002572 -0.004980 -0.004967
# 2 0.001639 0.032842 -0.001130 0.018423 -0.017822 -0.019842
# 3 -0.003253 -0.001130 0.016664 0.004937 -0.009439 -0.003897
# 4 0.002572 0.018423 0.004937 0.038858 -0.017301 -0.016752
# 5 -0.004980 -0.017822 -0.009439 -0.017301 0.050852 0.028629
# 6 -0.004967 -0.019842 -0.003897 -0.016752 0.028629 0.046708
#
#
# Mechanical properties :
#
#
# Convention : Reuss Voigt Hill
#
# Bulk Modulus (GPa) = 19.50400 61.78249 40.64325
# Shear Modulus (GPa) = 23.17431 38.90430 31.03930
#
# Velocity S-wave (km/s) = 3.14247 4.07161 3.63684
# Velocity P-wave (km/s) = 4.63443 6.95924 5.91223
#
# Compressibility (1/GPa) = 0.05127152
#
# Stress axis : x y z
#
# Youngs Moduli (GPa) = 137.84376 30.44917 60.01107
#
# Poissons Ratio (x) = -0.04990 0.19520
# Poissons Ratio (y) = -0.22590 0.06783
# Poissons Ratio (z) = 0.44836 0.03442
#
# Static dielectric constant tensor:
#      x y z
#    x 2.024900 -0.003670 -0.032770 
#    y -0.003670 1.929050 -0.066090 
#    z -0.032770 -0.066090 1.983670 
# 
# From -- ./inp_files/217163.got.cif
#   From: 2010.05.17/outbox.cif.g08.bks.cpg/sg2_109_cif.got.tgz:217163.got - 2010.06.03 11:33:40.
