data_PCOD9003335
_publ_section_title
;
Structure prediction by ZEFSAII (Michael W. Deem and Ramdas Pophale) SiO2 
 PCOD9003335
Probable space group: P -1
;
_chemical_formula_sum "Si O2"
_cell_formula_units_Z 16
_cell_length_a 14.008653
_cell_length_b 9.873382
_cell_length_c 19.463225
_cell_angle_alpha 53.448524
_cell_angle_beta 149.092470
_cell_angle_gamma 148.266915
_cell_volume 631.226519
_symmetry_space_group_name_H-M "P -1"
_symmetry_group_IT_number 2
_symmetry_cell_setting 'triclinic'
loop_
_space_group_symop_operation_xyz
x,y,z
-x,-y,-z
loop_
_atom_site_type_symbol
_atom_site_label
_atom_site_fract_x
_atom_site_fract_y
_atom_site_fract_z
Si Si1 0.228735 0.898339 0.042779
Si Si2 0.517636 0.714127 0.439913
Si Si3 0.326623 0.647091 0.484804
Si Si4 0.697948 0.943584 0.334729
Si Si5 0.591382 0.631530 0.130499
Si Si6 0.154198 0.410361 0.809294
Si Si7 0.563200 0.566648 0.761968
Si Si8 0.166526 0.838454 0.862538
O O1 0.382247 0.830445 0.171754
O O2 0.539859 0.251877 0.132212
O O3 0.122003 0.813388 0.923530
O O4 0.923202 0.751877 0.936654
O O5 0.500000 0.500000 0.500000
O O6 0.559023 0.811904 0.512088
O O7 0.728482 0.925305 0.440648
O O8 0.140865 0.481742 0.262222
O O9 0.520659 0.707785 0.650038
O O10 0.157778 0.704902 0.361578
O O11 0.006274 0.280142 0.394172
O O12 0.621223 0.718075 0.311344
O O13 0.807805 0.724766 0.173549
O O14 0.543057 0.476247 0.212566
O O15 0.776472 0.925221 0.192365
O O16 0.260527 0.446548 0.942584
O O17 0.500000 0.000000 0.000000
#
# Coordination Sequence:
#
# PCOD9003335 Si02
#       8
#     2   2   2   2   2   2   2   2
#     4  10  21  37  59  89 125 152 209 257 299 371
#     4  12  23  37  61  91 132 162 197 252 318 370
#     4  11  24  41  61  91 130 165 203 253 311 372
#     4  11  23  38  60  94 129 165 201 246 318 379
#     4  10  22  38  68  86 116 165 208 254 303 367
#     4   9  22  45  61  85 117 167 212 249 308 366
#     4  12  22  36  61  93 123 155 202 261 309 358
#     4  11  21  37  62  92 119 157 202 253 306 367
#
# _framework density 25.347476
#
# number of rings (size 3 to 8) (size 9 to 14) (size 15 to 20)
#    0.000    1.250    2.500    4.500    5.250    1.000 
#    0.000    0.000    0.000    7.500    0.000    0.000 
#    0.000    0.000    0.000    0.000    0.000    0.000 
#
# Total GULP energy -89483.224340 kJ/mol
# GULP energy per Si atom -5592.701521 kJ/mol
# Density = 2.528978 g / cm^3
# Si number density = 25.347476 Si / 1000 Ang^3
#
#
#
# Elastic Constant Matrix: (Units=GPa)
#
#
# Indices 1 2 3 4 5 6 
#
# 1 106.6802 27.9478 37.3400 -21.0528 -7.5525 20.4885
# 2 27.9478 49.2674 20.1908 -14.8483 -6.4197 10.9867
# 3 37.3400 20.1908 145.4154 -13.3898 6.5703 1.4543
# 4 -21.0528 -14.8483 -13.3898 57.6972 -0.6190 -2.8204
# 5 -7.5525 -6.4197 6.5703 -0.6190 39.4013 -13.6759
# 6 20.4885 10.9867 1.4543 -2.8204 -13.6759 43.7373
#
#
#
# Elastic Compliance Matrix: (Units=1/GPa)
#
#
# Indices 1 2 3 4 5 6 
#
# 1 0.012809 -0.004365 -0.002412 0.002781 0.000648 -0.004442
# 2 -0.004365 0.026109 -0.002180 0.004488 0.002704 -0.003307
# 3 -0.002412 -0.002180 0.007911 0.000418 -0.001828 0.000870
# 4 0.002781 0.004488 0.000418 0.019572 0.001225 -0.000799
# 5 0.000648 0.002704 -0.001828 0.001225 0.029139 0.008268
# 6 -0.004442 -0.003307 0.000870 -0.000799 0.008268 0.028280
#
#
# Mechanical properties :
#
#
# Convention : Reuss Voigt Hill
#
# Bulk Modulus (GPa) = 34.58329 52.48001 43.53165
# Shear Modulus (GPa) = 33.03092 42.55945 37.79518
#
# Velocity S-wave (km/s) = 3.61380 4.10206 3.86564
# Velocity P-wave (km/s) = 5.57548 6.57153 6.09389
#
# Compressibility (1/GPa) = 0.02891570
#
# Stress axis : x y z
#
# Youngs Moduli (GPa) = 78.06876 38.30073 126.40139
#
# Poissons Ratio (x) = 0.16717 0.30487
# Poissons Ratio (y) = 0.34075 0.27559
# Poissons Ratio (z) = 0.18830 0.08351
#
# Static dielectric constant tensor:
#      x y z
#    x 1.992810 -0.045860 -0.025580 
#    y -0.045860 2.062530 0.025490 
#    z -0.025580 0.025490 2.107890 
# 
# From -- ./inp_files/458389.got.cif
#   From: 2010.05.17/outbox.cif.g08.bks.cpg/sg2_230_cif.got.tgz:458389.got - 2010.06.03 11:33:40.
