data_PCOD9003866
_publ_section_title
;
Structure prediction by ZEFSAII (Michael W. Deem and Ramdas Pophale) SiO2 
 PCOD9003866
Probable space group: P -1
;
_chemical_formula_sum "Si O2"
_cell_formula_units_Z 12
_cell_length_a 11.065913
_cell_length_b 14.810434
_cell_length_c 14.152888
_cell_angle_alpha 40.944728
_cell_angle_beta 149.139355
_cell_angle_gamma 150.433334
_cell_volume 586.746255
_symmetry_space_group_name_H-M "P -1"
_symmetry_group_IT_number 2
_symmetry_cell_setting 'triclinic'
loop_
_space_group_symop_operation_xyz
x,y,z
-x,-y,-z
loop_
_atom_site_type_symbol
_atom_site_label
_atom_site_fract_x
_atom_site_fract_y
_atom_site_fract_z
Si Si1 0.239638 0.261656 0.271134
Si Si2 0.764308 0.302986 0.950133
Si Si3 0.436077 0.321136 0.563642
Si Si4 0.090621 0.131096 0.655789
Si Si5 0.207408 0.779447 0.479327
Si Si6 0.334244 0.503791 0.794790
O O1 0.422756 0.312786 0.450512
O O2 0.427887 0.417845 0.196254
O O3 0.159613 0.081137 0.321286
O O4 0.919830 0.214690 0.124061
O O5 0.697212 0.322894 0.781863
O O6 0.430683 0.200809 0.855876
O O7 0.000000 0.500000 0.000000
O O8 0.500000 0.500000 0.500000
O O9 0.124230 0.161305 0.540755
O O10 0.011079 0.239214 0.570651
O O11 0.286592 0.650914 0.658678
O O12 0.995403 0.687567 0.313479
O O13 0.500000 0.000000 0.500000
O O14 0.500000 0.500000 0.000000
#
# Coordination Sequence:
#
# PCOD9003866 Si02
#       6
#     2   2   2   2   2   2
#     4  12  21  44  64  97 136 168 228 277 337 407
#     4  10  21  37  62  94 131 168 212 269 334 391
#     4  10  21  37  64  94 128 173 213 263 342 394
#     4  10  23  41  65 100 129 175 221 273 340 407
#     4  11  23  50  72  96 141 183 228 287 341 410
#     4  11  27  46  74 102 133 182 239 285 338 406
#
# _framework density 20.451771000000001
#
# number of rings (size 3 to 8) (size 9 to 14) (size 15 to 20)
#    1.000    0.333    3.333    3.000    0.000    4.667 
#    3.000    0.000    0.000    0.000    0.000    0.000 
#    0.000    0.000    0.000    0.000    0.000    0.000 
#
# Total GULP energy -66874.761585 kJ/mol
# GULP energy per Si atom -5572.896799 kJ/mol
# Density = 2.040522 g / cm^3
# Si number density = 20.451771 Si / 1000 Ang^3
#
#
#
# Elastic Constant Matrix: (Units=GPa)
#
#
# Indices 1 2 3 4 5 6 
#
# 1 90.2604 32.2732 44.7588 8.9600 -2.4924 -11.9518
# 2 32.2732 122.9223 40.5198 12.9127 -6.5859 -5.9516
# 3 44.7588 40.5198 135.3741 12.3819 -21.0813 -14.3514
# 4 8.9600 12.9127 12.3819 24.1726 -8.9265 2.9222
# 5 -2.4924 -6.5859 -21.0813 -8.9265 42.8899 -9.5759
# 6 -11.9518 -5.9516 -14.3514 2.9222 -9.5759 32.7440
#
#
#
# Elastic Compliance Matrix: (Units=1/GPa)
#
#
# Indices 1 2 3 4 5 6 
#
# 1 0.014366 -0.002143 -0.003682 -0.003138 -0.001253 0.003154
# 2 -0.002143 0.009692 -0.001851 -0.003557 -0.000191 0.000430
# 3 -0.003682 -0.001851 0.010662 -0.001667 0.005453 0.004736
# 4 -0.003138 -0.003557 -0.001667 0.048632 0.007533 -0.004659
# 5 -0.001253 -0.000191 0.005453 0.007533 0.029673 0.009903
# 6 0.003154 0.000430 0.004736 -0.004659 0.009903 0.037157
#
#
# Mechanical properties :
#
#
# Convention : Reuss Voigt Hill
#
# Bulk Modulus (GPa) = 51.63213 64.85117 58.24165
# Shear Modulus (GPa) = 29.07147 35.36162 32.21655
#
# Velocity S-wave (km/s) = 3.77432 4.16267 3.97324
# Velocity P-wave (km/s) = 6.65542 7.40823 7.04189
#
# Compressibility (1/GPa) = 0.01936778
#
# Stress axis : x y z
#
# Youngs Moduli (GPa) = 69.61054 103.17397 93.78935
#
# Poissons Ratio (x) = 0.22107 0.34534
# Poissons Ratio (y) = 0.14915 0.17364
# Poissons Ratio (z) = 0.25631 0.19102
#
# Static dielectric constant tensor:
#      x y z
#    x 1.548040 0.206110 -0.325300 
#    y 0.206110 1.769030 0.268610 
#    z -0.325300 0.268610 1.125140 
# 
# From -- ./inp_files/520775.got.cif
#   From: 2010.05.17/outbox.cif.g08.bks.cpg/sg2_261_cif.got.tgz:520775.got - 2010.06.03 11:33:40.
