data_PCOD9003702
_publ_section_title
;
Structure prediction by ZEFSAII (Michael W. Deem and Ramdas Pophale) SiO2 
 PCOD9003702
Probable space group: P -1
;
_chemical_formula_sum "Si O2"
_cell_formula_units_Z 16
_cell_length_a 25.353832
_cell_length_b 12.639677
_cell_length_c 11.543108
_cell_angle_alpha 156.895595
_cell_angle_beta 151.907378
_cell_angle_gamma 28.386551
_cell_volume 635.091546
_symmetry_space_group_name_H-M "P -1"
_symmetry_group_IT_number 2
_symmetry_cell_setting 'triclinic'
loop_
_space_group_symop_operation_xyz
x,y,z
-x,-y,-z
loop_
_atom_site_type_symbol
_atom_site_label
_atom_site_fract_x
_atom_site_fract_y
_atom_site_fract_z
Si Si1 0.086931 0.975052 0.984273
Si Si2 0.785847 0.536256 0.731445
Si Si3 0.455703 0.046885 0.827617
Si Si4 0.595304 0.426373 0.419061
Si Si5 0.068576 0.388380 0.699813
Si Si6 0.247777 0.518934 0.010516
Si Si7 0.244940 0.629349 0.732270
Si Si8 0.632927 0.977473 0.709053
O O1 0.165908 0.832153 0.881610
O O2 0.969265 0.887349 0.656446
O O3 0.160474 0.802907 0.062934
O O4 0.044941 0.319752 0.256794
O O5 0.691399 0.439603 0.524039
O O6 0.827987 0.344999 0.504285
O O7 0.711170 0.849319 0.846424
O O8 0.886961 0.557950 0.033839
O O9 0.302902 0.285831 0.521784
O O10 0.542724 0.175776 0.058997
O O11 0.323870 0.285959 0.828548
O O12 0.500000 0.000000 0.000000
O O13 0.662257 0.405146 0.651434
O O14 0.481148 0.731754 0.507787
O O15 0.173556 0.379540 0.806639
O O16 0.353466 0.732612 0.013901
O O17 0.500000 0.000000 0.500000
#
# Coordination Sequence:
#
# PCOD9003702 Si02
#       8
#     2   2   2   2   2   2   2   2
#     4  12  26  43  64  92 127 167 219 263 316 358
#     4   9  25  40  68  92 131 161 218 252 313 378
#     4  10  21  37  61  94 128 162 204 253 315 378
#     4  10  22  38  64  97 126 168 201 254 316 380
#     4  11  26  43  65  92 120 172 215 268 314 361
#     4  10  23  42  64  90 130 161 215 259 314 380
#     4  10  24  42  64  98 125 166 209 256 312 371
#     4  10  22  42  67  94 131 161 205 248 317 377
#
# _framework density 25.193218999999999
#
# number of rings (size 3 to 8) (size 9 to 14) (size 15 to 20)
#    0.750    1.000    0.000    3.375    3.500   12.000 
#    0.000    0.000    0.000    0.000    0.000    0.000 
#    0.000    0.000    0.000    0.000    0.000    0.000 
#
# Total GULP energy -89673.689593 kJ/mol
# GULP energy per Si atom -5604.605600 kJ/mol
# Density = 2.513588 g / cm^3
# Si number density = 25.193219 Si / 1000 Ang^3
#
#
#
# Elastic Constant Matrix: (Units=GPa)
#
#
# Indices 1 2 3 4 5 6 
#
# 1 94.6874 -10.0542 28.2820 -5.2165 -11.1105 -1.8963
# 2 -10.0542 45.8003 26.6539 -4.5085 -1.3334 0.4869
# 3 28.2820 26.6539 70.1391 3.5779 -9.9087 6.1579
# 4 -5.2165 -4.5085 3.5779 39.4940 0.0843 -1.3551
# 5 -11.1105 -1.3334 -9.9087 0.0843 22.3290 -6.9051
# 6 -1.8963 0.4869 6.1579 -1.3551 -6.9051 28.1569
#
#
#
# Elastic Compliance Matrix: (Units=1/GPa)
#
#
# Indices 1 2 3 4 5 6 
#
# 1 0.015412 0.009541 -0.009696 0.004146 0.005310 0.004495
# 2 0.009541 0.034961 -0.017838 0.007015 0.000233 0.004334
# 3 -0.009696 -0.017838 0.026303 -0.005893 0.004146 -0.005364
# 4 0.004146 0.007015 -0.005893 0.027302 0.000668 0.002925
# 5 0.005310 0.000233 0.004146 0.000668 0.053148 0.012513
# 6 0.004495 0.004334 -0.005364 0.002925 0.012513 0.040125
#
#
# Mechanical properties :
#
#
# Convention : Reuss Voigt Hill
#
# Bulk Modulus (GPa) = 24.57676 33.37670 28.97673
# Shear Modulus (GPa) = 20.25926 29.04565 24.65246
#
# Velocity S-wave (km/s) = 2.83884 3.39914 3.13155
# Velocity P-wave (km/s) = 4.53010 5.35562 4.96006
#
# Compressibility (1/GPa) = 0.04068885
#
# Stress axis : x y z
#
# Youngs Moduli (GPa) = 64.88535 28.60341 38.01813
#
# Poissons Ratio (x) = -0.27290 0.36863
# Poissons Ratio (y) = -0.61907 0.67818
# Poissons Ratio (z) = 0.62914 0.51024
#
# Static dielectric constant tensor:
#      x y z
#    x 1.972530 0.002680 -0.032010 
#    y 0.002680 1.987600 -0.027450 
#    z -0.032010 -0.027450 1.956180 
# 
# From -- ./inp_files/476589.got.cif
#   From: 2010.05.17/outbox.cif.g08.bks.cpg/sg2_239_cif.got.tgz:476589.got - 2010.06.03 11:33:40.
