data_PCOD9003006
_publ_section_title
;
Structure prediction by ZEFSAII (Michael W. Deem and Ramdas Pophale) SiO2 
 PCOD9003006
Probable space group: P -1
;
_chemical_formula_sum "Si O2"
_cell_formula_units_Z 16
_cell_length_a 14.160580
_cell_length_b 11.937671
_cell_length_c 15.380207
_cell_angle_alpha 30.358249
_cell_angle_beta 126.209513
_cell_angle_gamma 138.127536
_cell_volume 866.678449
_symmetry_space_group_name_H-M "P -1"
_symmetry_group_IT_number 2
_symmetry_cell_setting 'triclinic'
loop_
_space_group_symop_operation_xyz
x,y,z
-x,-y,-z
loop_
_atom_site_type_symbol
_atom_site_label
_atom_site_fract_x
_atom_site_fract_y
_atom_site_fract_z
Si Si1 0.327140 0.114297 0.902905
Si Si2 0.708738 0.434957 0.017263
Si Si3 0.528107 0.074281 0.323249
Si Si4 0.618008 0.885060 0.262512
Si Si5 0.890381 0.875585 0.444523
Si Si6 0.988398 0.267872 0.087309
Si Si7 0.468645 0.324724 0.284623
Si Si8 0.655474 0.269439 0.698459
O O1 0.405313 0.193096 0.798963
O O2 0.384220 0.397079 0.790839
O O3 0.161212 0.908529 0.925997
O O4 0.356055 0.943655 0.097469
O O5 0.641931 0.288407 0.171376
O O6 0.660716 0.190339 0.088151
O O7 0.642659 0.597195 0.843904
O O8 0.879086 0.611097 0.986059
O O9 0.494187 0.219852 0.279728
O O10 0.575327 0.903047 0.513994
O O11 0.387246 0.861983 0.331914
O O12 0.757160 0.904209 0.359827
O O13 0.474563 0.708372 0.359634
O O14 0.806677 0.555166 0.598361
O O15 0.981643 0.053869 0.292466
O O16 0.000000 0.000000 0.500000
O O17 0.000000 0.500000 0.000000
#
# Coordination Sequence:
#
# PCOD9003006 Si02
#       8
#     2   2   2   2   2   2   2   2
#     4  11  21  37  61  88 125 166 194 254 314 358
#     4  11  22  40  65  91 125 164 203 253 307 372
#     4  10  23  43  67  94 118 156 216 261 308 356
#     4  10  21  37  56  89 126 156 204 253 302 375
#     4  11  23  35  57  87 128 168 199 248 304 373
#     4  11  22  40  54  85 135 166 198 240 307 380
#     4  11  23  42  70  90 120 158 210 268 306 353
#     4  11  22  37  61  90 119 163 206 255 304 365
#
# _framework density 18.461288
#
# number of rings (size 3 to 8) (size 9 to 14) (size 15 to 20)
#    0.000    1.250    5.000    3.375    0.000    3.000 
#    0.000    0.625    0.000    2.250    0.000    0.000 
#    0.000    0.000    0.000    0.000    0.000    0.000 
#
# Total GULP energy -89275.873122 kJ/mol
# GULP energy per Si atom -5579.742070 kJ/mol
# Density = 1.841927 g / cm^3
# Si number density = 18.461288 Si / 1000 Ang^3
#
#
#
# Elastic Constant Matrix: (Units=GPa)
#
#
# Indices 1 2 3 4 5 6 
#
# 1 59.2365 55.2583 35.7037 -1.0565 0.3224 -7.4115
# 2 55.2583 123.3894 40.3426 -0.3448 -5.0238 -23.9112
# 3 35.7037 40.3426 92.5889 11.4106 6.3871 -8.2914
# 4 -1.0565 -0.3448 11.4106 33.2084 0.3188 -2.7655
# 5 0.3224 -5.0238 6.3871 0.3188 28.2366 -6.5733
# 6 -7.4115 -23.9112 -8.2914 -2.7655 -6.5733 25.3591
#
#
#
# Elastic Compliance Matrix: (Units=1/GPa)
#
#
# Indices 1 2 3 4 5 6 
#
# 1 0.033801 -0.013876 -0.007738 0.003110 -0.002550 -0.006057
# 2 -0.013876 0.018002 -0.001889 0.001518 0.007102 0.014308
# 3 -0.007738 -0.001889 0.015511 -0.005606 -0.003827 -0.000574
# 4 0.003110 0.001518 -0.005606 0.032518 0.002213 0.004627
# 5 -0.002550 0.007102 -0.003827 0.002213 0.041184 0.015617
# 6 -0.006057 0.014308 -0.000574 0.004627 0.015617 0.055519
#
#
# Mechanical properties :
#
#
# Convention : Reuss Voigt Hill
#
# Bulk Modulus (GPa) = 49.24080 59.75823 54.49952
# Shear Modulus (GPa) = 19.97510 26.95484 23.46497
#
# Velocity S-wave (km/s) = 3.29294 3.82524 3.56903
# Velocity P-wave (km/s) = 6.41781 7.20761 6.82415
#
# Compressibility (1/GPa) = 0.02030836
#
# Stress axis : x y z
#
# Youngs Moduli (GPa) = 29.58452 55.54801 64.47156
#
# Poissons Ratio (x) = 0.77081 0.49888
# Poissons Ratio (y) = 0.41053 0.12177
# Poissons Ratio (z) = 0.22892 0.10491
#
# Static dielectric constant tensor:
#      x y z
#    x 1.626940 0.019730 0.011270 
#    y 0.019730 1.673560 -0.004580 
#    z 0.011270 -0.004580 1.690120 
# 
# From -- ./inp_files/331382.got.cif
#   From: 2010.05.17/outbox.cif.g08.bks.cpg/sg2_166_cif.got.tgz:331382.got - 2010.06.03 11:33:40.
