data_PCOD9003331
_publ_section_title
;
Structure prediction by ZEFSAII (Michael W. Deem and Ramdas Pophale) SiO2 
 PCOD9003331
Probable space group: P -1
;
_chemical_formula_sum "Si O2"
_cell_formula_units_Z 14
_cell_length_a 13.904500
_cell_length_b 8.968507
_cell_length_c 14.912667
_cell_angle_alpha 81.769992
_cell_angle_beta 28.981576
_cell_angle_gamma 61.056247
_cell_volume 591.796569
_symmetry_space_group_name_H-M "P -1"
_symmetry_group_IT_number 2
_symmetry_cell_setting 'triclinic'
loop_
_space_group_symop_operation_xyz
x,y,z
-x,-y,-z
loop_
_atom_site_type_symbol
_atom_site_label
_atom_site_fract_x
_atom_site_fract_y
_atom_site_fract_z
Si Si1 0.586523 0.313458 0.547436
Si Si2 0.323186 0.006168 0.362513
Si Si3 0.772508 0.708852 0.234789
Si Si4 0.770024 0.965987 0.766353
Si Si5 0.277606 0.923121 0.015440
Si Si6 0.387270 0.459546 0.363943
Si Si7 0.227456 0.225698 0.580794
O O1 0.564761 0.198626 0.653565
O O2 0.446921 0.311629 0.575006
O O3 0.462625 0.530146 0.679657
O O4 0.931159 0.147535 0.258526
O O5 0.231831 0.997208 0.340589
O O6 0.098830 0.209475 0.601557
O O7 0.543166 0.023783 0.159700
O O8 0.912225 0.691012 0.213914
O O9 0.557387 0.963558 0.351155
O O10 0.000000 0.500000 0.000000
O O11 0.096936 0.712754 0.542598
O O12 0.707263 0.116049 0.886480
O O13 0.500000 0.000000 0.000000
O O14 0.402120 0.716586 0.872481
O O15 0.255470 0.381256 0.517941
#
# Coordination Sequence:
#
# PCOD9003331 Si02
#       7
#     2   2   2   2   2   2   2
#     4  10  22  39  59  86 120 156 198 247 301 352
#     4   9  19  39  61  82 121 160 193 243 291 345
#     4  10  22  41  63  88 118 155 199 248 303 360
#     4   9  19  36  60  89 122 160 201 241 291 350
#     4   9  20  38  57  85 121 155 198 245 290 351
#     4  10  21  37  59  89 122 157 199 246 295 351
#     4   9  21  39  59  87 118 151 199 245 294 356
#
# _framework density 23.656777000000002
#
# number of rings (size 3 to 8) (size 9 to 14) (size 15 to 20)
#    0.000    2.571    0.000    0.000    0.000   20.571 
#    0.000   10.714    0.000    0.000    0.000    0.000 
#    0.000    0.000    0.000    0.000    0.000    0.000 
#
# Total GULP energy -77997.194837 kJ/mol
# GULP energy per Si atom -5571.228203 kJ/mol
# Density = 2.360293 g / cm^3
# Si number density = 23.656777 Si / 1000 Ang^3
#
#
#
# Elastic Constant Matrix: (Units=GPa)
#
#
# Indices 1 2 3 4 5 6 
#
# 1 99.3098 29.5763 24.6871 -7.1024 28.0440 1.6625
# 2 29.5763 82.6004 17.0586 -0.7422 23.9509 11.5676
# 3 24.6871 17.0586 88.3730 12.7356 19.7032 -4.7714
# 4 -7.1024 -0.7422 12.7356 23.0967 9.1816 11.2624
# 5 28.0440 23.9509 19.7032 9.1816 39.3603 -12.3430
# 6 1.6625 11.5676 -4.7714 11.2624 -12.3430 31.8076
#
#
#
# Elastic Compliance Matrix: (Units=1/GPa)
#
#
# Indices 1 2 3 4 5 6 
#
# 1 0.031091 0.018167 -0.011588 0.069967 -0.062191 -0.058877
# 2 0.018167 0.039769 -0.011751 0.077345 -0.072045 -0.072518
# 3 -0.011588 -0.011751 0.018603 -0.039537 0.025176 0.031439
# 4 0.069967 0.077345 -0.039537 0.279430 -0.210814 -0.218463
# 5 -0.062191 -0.072045 0.025176 -0.210814 0.209445 0.189148
# 6 -0.058877 -0.072518 0.031439 -0.218463 0.189148 0.216358
#
#
# Mechanical properties :
#
#
# Convention : Reuss Voigt Hill
#
# Bulk Modulus (GPa) = 12.63904 45.88080 29.25992
# Shear Modulus (GPa) = 6.01387 32.11702 19.06544
#
# Velocity S-wave (km/s) = 1.59614 3.68859 2.84195
# Velocity P-wave (km/s) = 2.95823 6.13004 4.81293
#
# Compressibility (1/GPa) = 0.07911993
#
# Stress axis : x y z
#
# Youngs Moduli (GPa) = 32.16360 25.14530 53.75439
#
# Poissons Ratio (x) = -0.45682 0.62292
# Poissons Ratio (y) = -0.58433 0.63165
# Poissons Ratio (z) = 0.37272 0.29547
#
# Static dielectric constant tensor:
#      x y z
#    x 2.066630 -0.029460 -0.028230 
#    y -0.029460 2.011040 -0.036130 
#    z -0.028230 -0.036130 1.982640 
# 
# From -- ./inp_files/337944.got.cif
#   From: 2010.05.17/outbox.cif.g08.bks.cpg/sg2_169_cif.got.tgz:337944.got - 2010.06.03 11:33:40.
