data_PCOD9003306
_publ_section_title
;
Structure prediction by ZEFSAII (Michael W. Deem and Ramdas Pophale) SiO2 
 PCOD9003306
Probable space group: P -1
;
_chemical_formula_sum "Si O2"
_cell_formula_units_Z 10
_cell_length_a 10.997097
_cell_length_b 13.319947
_cell_length_c 7.240103
_cell_angle_alpha 138.914382
_cell_angle_beta 37.039785
_cell_angle_gamma 138.093296
_cell_volume 391.650801
_symmetry_space_group_name_H-M "P -1"
_symmetry_group_IT_number 2
_symmetry_cell_setting 'triclinic'
loop_
_space_group_symop_operation_xyz
x,y,z
-x,-y,-z
loop_
_atom_site_type_symbol
_atom_site_label
_atom_site_fract_x
_atom_site_fract_y
_atom_site_fract_z
Si Si1 0.035089 0.338444 0.160832
Si Si2 0.070348 0.229173 0.366577
Si Si3 0.489636 0.531059 0.835579
Si Si4 0.559226 0.878666 0.127990
Si Si5 0.810447 0.074132 0.794350
O O1 0.000000 0.500000 0.500000
O O2 0.028088 0.241706 0.222536
O O3 0.273446 0.380185 0.835669
O O4 0.856924 0.231230 0.087970
O O5 0.859873 0.151047 0.637447
O O6 0.208759 0.115144 0.068866
O O7 0.256467 0.407440 0.447184
O O8 0.428954 0.687406 0.061456
O O9 0.500000 0.500000 0.000000
O O10 0.500000 0.000000 0.500000
O O11 0.599311 0.937421 0.948229
O O12 0.000000 0.000000 0.500000
#
# Coordination Sequence:
#
# PCOD9003306 Si02
#       5
#     2   2   2   2   2
#     4  11  21  36  63  88 116 157 200 238 296 352
#     4   8  20  38  58  84 119 151 196 241 292 339
#     4   8  17  35  54  83 113 154 187 236 288 342
#     4   9  17  34  60  82 116 156 189 235 296 346
#     4  10  21  37  59  88 118 153 196 245 292 346
#
# _framework density 25.532948999999999
#
# number of rings (size 3 to 8) (size 9 to 14) (size 15 to 20)
#    1.200    1.600    0.000    1.200    0.000    4.800 
#    0.000    0.000    4.400    4.800    0.000    0.000 
#    0.000    0.000    0.000    0.000    0.000    0.000 
#
# Total GULP energy -55718.530244 kJ/mol
# GULP energy per Si atom -5571.853024 kJ/mol
# Density = 2.547483 g / cm^3
# Si number density = 25.532949 Si / 1000 Ang^3
#
#
#
# Elastic Constant Matrix: (Units=GPa)
#
#
# Indices 1 2 3 4 5 6 
#
# 1 37.5030 44.5771 15.4995 -18.1404 7.5128 -21.9151
# 2 44.5771 170.8813 44.5123 -49.1399 11.8428 -25.8724
# 3 15.4995 44.5123 80.6125 -30.5121 3.1254 -4.7546
# 4 -18.1404 -49.1399 -30.5121 56.2899 3.5992 6.9749
# 5 7.5128 11.8428 3.1254 3.5992 31.4965 -17.5852
# 6 -21.9151 -25.8724 -4.7546 6.9749 -17.5852 50.8050
#
#
#
# Elastic Compliance Matrix: (Units=1/GPa)
#
#
# Indices 1 2 3 4 5 6 
#
# 1 0.049561 -0.008371 -0.001790 0.005707 -0.000153 0.016111
# 2 -0.008371 0.010216 -0.001927 0.005342 -0.002337 -0.000131
# 3 -0.001790 -0.001927 0.016464 0.007070 -0.002418 -0.002020
# 4 0.005707 0.005342 0.007070 0.028697 -0.007794 -0.000794
# 5 -0.000153 -0.002337 -0.002418 -0.007794 0.041605 0.013988
# 6 0.016111 -0.000131 -0.002020 -0.000794 0.013988 0.031328
#
#
# Mechanical properties :
#
#
# Convention : Reuss Voigt Hill
#
# Bulk Modulus (GPa) = 19.20727 55.35274 37.28000
# Shear Modulus (GPa) = 22.78927 40.01214 31.40071
#
# Velocity S-wave (km/s) = 2.99079 3.96293 3.51067
# Velocity P-wave (km/s) = 4.41195 6.53190 5.57365
#
# Compressibility (1/GPa) = 0.05206362
#
# Stress axis : x y z
#
# Youngs Moduli (GPa) = 20.17735 97.88673 60.73904
#
# Poissons Ratio (x) = 0.81943 0.10875
# Poissons Ratio (y) = 0.16891 0.11702
# Poissons Ratio (z) = 0.03613 0.18860
#
# Static dielectric constant tensor:
#      x y z
#    x 2.064680 0.034590 -0.044520 
#    y 0.034590 2.154490 -0.058190 
#    z -0.044520 -0.058190 2.049340 
# 
# From -- ./inp_files/145352.got.cif
#   From: 2010.05.17/outbox.cif.g08.bks.cpg/sg2_73_cif.got.tgz:145352.got - 2010.06.03 11:33:40.
