data_PCOD9003858
_publ_section_title
;
Structure prediction by ZEFSAII (Michael W. Deem and Ramdas Pophale) SiO2 
 PCOD9003858
Probable space group: P -1
;
_chemical_formula_sum "Si O2"
_cell_formula_units_Z 16
_cell_length_a 7.324248
_cell_length_b 17.076382
_cell_length_c 11.838127
_cell_angle_alpha 33.672721
_cell_angle_beta 123.582314
_cell_angle_gamma 113.305413
_cell_volume 677.163607
_symmetry_space_group_name_H-M "P -1"
_symmetry_group_IT_number 2
_symmetry_cell_setting 'triclinic'
loop_
_space_group_symop_operation_xyz
x,y,z
-x,-y,-z
loop_
_atom_site_type_symbol
_atom_site_label
_atom_site_fract_x
_atom_site_fract_y
_atom_site_fract_z
Si Si1 0.648661 0.983734 0.844931
Si Si2 0.837057 0.406188 0.686619
Si Si3 0.131797 0.905404 0.005979
Si Si4 0.536221 0.664704 0.178111
Si Si5 0.198155 0.674397 0.850109
Si Si6 0.609482 0.867292 0.621281
Si Si7 0.837020 0.584030 0.012376
Si Si8 0.984458 0.007485 0.619991
O O1 0.886489 0.981838 0.865102
O O2 0.459077 0.074180 0.596586
O O3 0.603960 0.820846 0.030623
O O4 0.690657 0.054741 0.892742
O O5 0.740662 0.541028 0.415692
O O6 0.643694 0.368719 0.750757
O O7 0.881714 0.262286 0.801737
O O8 0.030655 0.441486 0.794122
O O9 0.176668 0.969645 0.820918
O O10 0.412615 0.662407 0.018413
O O11 0.143682 0.835029 0.590942
O O12 0.995627 0.650324 0.894771
O O13 0.206952 0.559044 0.893169
O O14 0.617443 0.698424 0.819144
O O15 0.500000 0.000000 0.500000
O O16 0.853603 0.872034 0.750825
O O17 0.000000 0.000000 0.500000
#
# Coordination Sequence:
#
# PCOD9003858 Si02
#       8
#     2   2   2   2   2   2   2   2
#     4  11  25  42  63  92 127 169 212 255 317 378
#     4  10  21  41  60  91 128 164 203 258 317 369
#     4  11  25  43  63  90 129 169 209 260 315 382
#     4  10  22  39  62  91 127 161 207 262 310 373
#     4  10  21  37  62  94 125 158 209 260 317 372
#     4  12  22  41  67  90 124 168 214 262 312 376
#     4  10  21  38  62  92 126 164 202 260 320 375
#     4  12  21  41  67  93 122 167 213 264 320 370
#
# _framework density 23.627966000000001
#
# number of rings (size 3 to 8) (size 9 to 14) (size 15 to 20)
#    0.000    1.250    5.000    0.750    3.500    1.000 
#    0.000    0.625    0.000    0.000    0.000    0.000 
#    0.000    0.000    0.000    0.000    0.000    0.000 
#
# Total GULP energy -89349.244754 kJ/mol
# GULP energy per Si atom -5584.327797 kJ/mol
# Density = 2.357419 g / cm^3
# Si number density = 23.627966 Si / 1000 Ang^3
#
#
#
# Elastic Constant Matrix: (Units=GPa)
#
#
# Indices 1 2 3 4 5 6 
#
# 1 45.6941 27.8778 15.9574 0.2683 -3.0281 2.3169
# 2 27.8778 240.3983 113.8157 1.7866 1.6740 1.6745
# 3 15.9574 113.8157 194.4261 -2.4465 1.4143 -0.2398
# 4 0.2683 1.7866 -2.4465 52.0837 -5.4882 1.9167
# 5 -3.0281 1.6740 1.4143 -5.4882 26.0888 -7.3146
# 6 2.3169 1.6745 -0.2398 1.9167 -7.3146 34.2373
#
#
#
# Elastic Compliance Matrix: (Units=1/GPa)
#
#
# Indices 1 2 3 4 5 6 
#
# 1 0.023837 -0.002551 -0.000481 0.000266 0.002755 -0.000918
# 2 -0.002551 0.006040 -0.003327 -0.000411 -0.000664 -0.000265
# 3 -0.000481 -0.003327 0.007137 0.000436 -0.000080 0.000204
# 4 0.000266 -0.000411 0.000436 0.019674 0.004111 -0.000218
# 5 0.002755 -0.000664 -0.000080 0.004111 0.041968 0.008582
# 6 -0.000918 -0.000265 0.000204 -0.000218 0.008582 0.031130
#
#
# Mechanical properties :
#
#
# Convention : Reuss Voigt Hill
#
# Bulk Modulus (GPa) = 41.16020 88.42451 64.79236
# Shear Modulus (GPa) = 33.19968 44.00646 38.60307
#
# Velocity S-wave (km/s) = 3.75253 4.32032 4.04640
# Velocity P-wave (km/s) = 6.01941 7.89885 7.02229
#
# Compressibility (1/GPa) = 0.02429531
#
# Stress axis : x y z
#
# Youngs Moduli (GPa) = 41.95215 165.55031 140.11713
#
# Poissons Ratio (x) = 0.42239 0.06734
# Poissons Ratio (y) = 0.10704 0.46621
# Poissons Ratio (z) = 0.02016 0.55084
#
# Static dielectric constant tensor:
#      x y z
#    x 2.215450 -0.031750 0.000550 
#    y -0.031750 1.845620 -0.000040 
#    z 0.000550 -0.000040 1.801530 
# 
# From -- ./inp_files/187804.got.cif
#   From: 2010.05.17/outbox.cif.g08.bks.cpg/sg2_94_cif.got.tgz:187804.got - 2010.06.03 11:33:40.
