data_PCOD9003366
_publ_section_title
;
Structure prediction by ZEFSAII (Michael W. Deem and Ramdas Pophale) SiO2 
 PCOD9003366
Probable space group: P -1
;
_chemical_formula_sum "Si O2"
_cell_formula_units_Z 16
_cell_length_a 8.957203
_cell_length_b 24.100355
_cell_length_c 12.444420
_cell_angle_alpha 162.637586
_cell_angle_beta 114.140793
_cell_angle_gamma 59.160321
_cell_volume 653.633879
_symmetry_space_group_name_H-M "P -1"
_symmetry_group_IT_number 2
_symmetry_cell_setting 'triclinic'
loop_
_space_group_symop_operation_xyz
x,y,z
-x,-y,-z
loop_
_atom_site_type_symbol
_atom_site_label
_atom_site_fract_x
_atom_site_fract_y
_atom_site_fract_z
Si Si1 0.145688 0.679674 0.893285
Si Si2 0.750813 0.229044 0.588595
Si Si3 0.277143 0.339698 0.996652
Si Si4 0.065310 0.418417 0.540885
Si Si5 0.389084 0.284095 0.518225
Si Si6 0.162117 0.970893 0.274825
Si Si7 0.472140 0.281654 0.172384
Si Si8 0.511466 0.131720 0.490787
O O1 0.072223 0.628273 0.886704
O O2 0.346282 0.485145 0.578578
O O3 0.014651 0.657279 0.720961
O O4 0.157074 0.882934 0.229908
O O5 0.601897 0.225837 0.453498
O O6 0.680713 0.168181 0.566219
O O7 0.709174 0.469306 0.028205
O O8 0.962601 0.076543 0.358215
O O9 0.390637 0.312399 0.872225
O O10 0.240375 0.137371 0.612945
O O11 0.394288 0.326335 0.111269
O O12 0.076848 0.527241 0.303114
O O13 0.266495 0.259074 0.343525
O O14 0.393822 0.164875 0.408635
O O15 0.312517 0.789800 0.910076
O O16 0.440550 0.089996 0.853810
#
# Coordination Sequence:
#
# PCOD9003366 Si02
#       8
#     2   2   2   2   2   2   2   2
#     4  10  24  38  60  83 123 155 197 235 296 339
#     4   9  20  35  59  92 116 147 193 241 289 347
#     4  10  21  37  59  92 118 145 200 240 300 342
#     4  10  21  38  58  90 114 157 197 238 282 364
#     4   9  19  38  57  89 123 148 190 244 294 338
#     4  11  20  38  62  85 117 152 192 251 286 342
#     4  10  22  41  56  89 120 154 195 240 292 350
#     4   9  19  35  60  86 119 150 183 248 293 339
#
# _framework density 24.478534
#
# number of rings (size 3 to 8) (size 9 to 14) (size 15 to 20)
#    0.750    1.500    1.250    1.875    5.250    3.000 
#    0.000    2.500    0.000    3.750    0.000    0.000 
#    0.000    0.000    0.000    0.000    0.000    0.000 
#
# Total GULP energy -89464.831854 kJ/mol
# GULP energy per Si atom -5591.551991 kJ/mol
# Density = 2.442282 g / cm^3
# Si number density = 24.478534 Si / 1000 Ang^3
#
#
#
# Elastic Constant Matrix: (Units=GPa)
#
#
# Indices 1 2 3 4 5 6 
#
# 1 113.6047 25.5300 36.1126 4.6552 -24.4176 -24.5361
# 2 25.5300 58.8295 26.0083 9.6782 -16.3917 -20.7087
# 3 36.1126 26.0083 79.5034 20.5149 -15.0851 -14.0812
# 4 4.6552 9.6782 20.5149 28.9500 -3.8254 -8.0025
# 5 -24.4176 -16.3917 -15.0851 -3.8254 45.4436 15.0811
# 6 -24.5361 -20.7087 -14.0812 -8.0025 15.0811 33.5965
#
#
#
# Elastic Compliance Matrix: (Units=1/GPa)
#
#
# Indices 1 2 3 4 5 6 
#
# 1 0.012259 -0.000957 -0.004557 0.003625 0.003062 0.005942
# 2 -0.000957 0.024304 -0.004724 -0.001283 0.003049 0.010628
# 3 -0.004557 -0.004724 0.019209 -0.011545 0.001837 -0.001764
# 4 0.003625 -0.001283 -0.011545 0.044676 -0.001326 0.008255
# 5 0.003062 0.003049 0.001837 -0.001326 0.027886 -0.007948
# 6 0.005942 0.010628 -0.001764 0.008255 -0.007948 0.045450
#
#
# Mechanical properties :
#
#
# Convention : Reuss Voigt Hill
#
# Bulk Modulus (GPa) = 28.33263 47.47106 37.90185
# Shear Modulus (GPa) = 24.26884 32.55044 28.40964
#
# Velocity S-wave (km/s) = 3.15212 3.65054 3.41045
# Velocity P-wave (km/s) = 4.98472 6.09947 5.57005
#
# Compressibility (1/GPa) = 0.03529499
#
# Stress axis : x y z
#
# Youngs Moduli (GPa) = 81.57151 41.14608 52.05960
#
# Poissons Ratio (x) = 0.03936 0.23726
# Poissons Ratio (y) = 0.07804 0.24594
# Poissons Ratio (z) = 0.37176 0.19438
#
# Static dielectric constant tensor:
#      x y z
#    x 1.976600 -0.030270 0.007030 
#    y -0.030270 1.931100 -0.030340 
#    z 0.007030 -0.030340 2.012950 
# 
# From -- ./inp_files/508935.got.cif
#   From: 2010.05.17/outbox.cif.g08.bks.cpg/sg2_255_cif.got.tgz:508935.got - 2010.06.03 11:33:40.
