data_PCOD9003371
_publ_section_title
;
Structure prediction by ZEFSAII (Michael W. Deem and Ramdas Pophale) SiO2 
 PCOD9003371
Probable space group: P -1
;
_chemical_formula_sum "Si O2"
_cell_formula_units_Z 16
_cell_length_a 12.554399
_cell_length_b 9.534491
_cell_length_c 19.055226
_cell_angle_alpha 133.619735
_cell_angle_beta 144.388120
_cell_angle_gamma 72.355346
_cell_volume 760.839880
_symmetry_space_group_name_H-M "P -1"
_symmetry_group_IT_number 2
_symmetry_cell_setting 'triclinic'
loop_
_space_group_symop_operation_xyz
x,y,z
-x,-y,-z
loop_
_atom_site_type_symbol
_atom_site_label
_atom_site_fract_x
_atom_site_fract_y
_atom_site_fract_z
Si Si1 0.011283 0.914590 0.330043
Si Si2 0.590906 0.967554 0.884120
Si Si3 0.773357 0.773497 0.005518
Si Si4 0.475621 0.696185 0.588524
Si Si5 0.515117 0.757183 0.374455
Si Si6 0.939923 0.311598 0.465191
Si Si7 0.252560 0.952789 0.266172
Si Si8 0.958481 0.523005 0.265686
O O1 0.847063 0.798685 0.133995
O O2 0.940321 0.716051 0.282661
O O3 0.017699 0.142381 0.434428
O O4 0.267183 0.025930 0.478355
O O5 0.555936 0.781345 0.741027
O O6 0.336745 0.872135 0.735770
O O7 0.715044 0.951391 0.011772
O O8 0.752360 0.244813 0.039123
O O9 0.989409 0.841461 0.097867
O O10 0.556280 0.499130 0.777269
O O11 0.500000 0.500000 0.500000
O O12 0.208549 0.590985 0.405306
O O13 0.643615 0.940823 0.717141
O O14 0.303953 0.766803 0.252569
O O15 0.598260 0.821358 0.521152
O O16 0.045870 0.448816 0.643205
O O17 0.000000 0.500000 0.500000
#
# Coordination Sequence:
#
# PCOD9003371 Si02
#       8
#     2   2   2   2   2   2   2   2
#     4  11  24  42  68  96 127 170 213 267 324 373
#     4  11  26  43  63  98 129 168 217 261 319 387
#     4  11  23  38  63  95 128 166 216 259 313 382
#     4  11  23  41  65  91 134 175 213 259 320 378
#     4  10  21  39  61  91 130 163 212 263 314 372
#     4  11  25  46  70  93 126 169 213 266 326 382
#     4  10  21  37  59  92 124 171 210 255 316 372
#     4  11  25  44  66  96 131 163 217 268 317 385
#
# _framework density 21.029392000000001
#
# number of rings (size 3 to 8) (size 9 to 14) (size 15 to 20)
#    0.000    1.250    1.250    3.750    1.750   10.500 
#    0.000    0.000    0.000    0.000    0.000    0.000 
#    0.000    0.000    0.000    0.000    0.000    0.000 
#
# Total GULP energy -89466.980802 kJ/mol
# GULP energy per Si atom -5591.686300 kJ/mol
# Density = 2.098153 g / cm^3
# Si number density = 21.029392 Si / 1000 Ang^3
#
#
#
# Elastic Constant Matrix: (Units=GPa)
#
#
# Indices 1 2 3 4 5 6 
#
# 1 84.2344 28.4451 22.5986 -2.8430 -11.5024 2.8673
# 2 28.4451 97.8933 40.6753 4.5107 -9.1320 -0.9611
# 3 22.5986 40.6753 62.9194 9.3844 0.0722 4.7515
# 4 -2.8430 4.5107 9.3844 28.7543 -8.7013 -1.0463
# 5 -11.5024 -9.1320 0.0722 -8.7013 14.6755 5.5711
# 6 2.8673 -0.9611 4.7515 -1.0463 5.5711 32.6566
#
#
#
# Elastic Compliance Matrix: (Units=1/GPa)
#
#
# Indices 1 2 3 4 5 6 
#
# 1 0.017273 -0.000683 -0.007029 0.010210 0.020607 -0.003702
# 2 -0.000683 0.015739 -0.010636 0.004556 0.011944 0.000179
# 3 -0.007029 -0.010636 0.027486 -0.014204 -0.020433 -0.000664
# 4 0.010210 0.004556 -0.014204 0.052843 0.043947 -0.004500
# 5 0.020607 0.011944 -0.020433 0.043947 0.124858 -0.018377
# 6 -0.003702 0.000179 -0.000664 -0.004500 -0.018377 0.034040
#
#
# Mechanical properties :
#
#
# Convention : Reuss Voigt Hill
#
# Bulk Modulus (GPa) = 42.01450 47.60944 44.81197
# Shear Modulus (GPa) = 15.77938 25.43916 20.60927
#
# Velocity S-wave (km/s) = 2.74222 3.48184 3.13393
# Velocity P-wave (km/s) = 5.48167 6.23321 5.86948
#
# Compressibility (1/GPa) = 0.02380130
#
# Stress axis : x y z
#
# Youngs Moduli (GPa) = 57.89533 63.53600 36.38182
#
# Poissons Ratio (x) = 0.04338 0.25574
# Poissons Ratio (y) = 0.03953 0.38697
# Poissons Ratio (z) = 0.40696 0.67579
#
# Static dielectric constant tensor:
#      x y z
#    x 1.740040 0.009640 -0.013430 
#    y 0.009640 1.767770 0.002560 
#    z -0.013430 0.002560 1.724000 
# 
# From -- ./inp_files/81404.got.cif
#   From: 2010.05.17/outbox.cif.g08.bks.cpg/sg2_41_cif.got.tgz:81404.got - 2010.06.03 11:33:40.
