data_PCOD9003475
_publ_section_title
;
Structure prediction by ZEFSAII (Michael W. Deem and Ramdas Pophale) SiO2 
 PCOD9003475
Probable space group: P -1
;
_chemical_formula_sum "Si O2"
_cell_formula_units_Z 16
_cell_length_a 19.847267
_cell_length_b 9.342076
_cell_length_c 26.722670
_cell_angle_alpha 149.350752
_cell_angle_beta 162.117020
_cell_angle_gamma 38.143829
_cell_volume 758.957019
_symmetry_space_group_name_H-M "P -1"
_symmetry_group_IT_number 2
_symmetry_cell_setting 'triclinic'
loop_
_space_group_symop_operation_xyz
x,y,z
-x,-y,-z
loop_
_atom_site_type_symbol
_atom_site_label
_atom_site_fract_x
_atom_site_fract_y
_atom_site_fract_z
Si Si1 0.664740 0.695726 0.377286
Si Si2 0.247277 0.328001 0.267582
Si Si3 0.902190 0.187885 0.221665
Si Si4 0.838649 0.532624 0.595368
Si Si5 0.366881 0.439592 0.177422
Si Si6 0.908392 0.092920 0.880679
Si Si7 0.131079 0.824242 0.394155
Si Si8 0.255895 0.819864 0.785409
O O1 0.453504 0.535881 0.211252
O O2 0.768768 0.456000 0.350216
O O3 0.854217 0.849151 0.596584
O O4 0.653755 0.941648 0.403161
O O5 0.500000 0.500000 0.500000
O O6 0.103416 0.549942 0.255403
O O7 0.215963 0.064089 0.204849
O O8 0.153361 0.228534 0.116719
O O9 0.769419 0.262312 0.198674
O O10 0.972926 0.434802 0.304831
O O11 0.767351 0.886019 0.015187
O O12 0.591390 0.476683 0.380050
O O13 0.846107 0.294110 0.570311
O O14 0.891766 0.841255 0.753269
O O15 0.212330 0.659995 0.149615
O O16 0.924074 0.983511 0.293117
O O17 0.500000 0.000000 0.000000
#
# Coordination Sequence:
#
# PCOD9003475 Si02
#       8
#     2   2   2   2   2   2   2   2
#     4  10  21  39  67  91 118 155 212 265 306 359
#     4  10  21  37  60  95 124 160 209 257 308 354
#     4  10  21  39  60  87 125 157 205 252 305 367
#     4  10  24  40  57  91 133 168 201 248 313 374
#     4  11  21  39  63  91 124 171 211 247 304 367
#     4  10  21  37  60  89 129 163 209 253 298 366
#     4  10  21  41  62  91 129 158 201 266 307 359
#     4  11  21  41  69  95 112 158 215 262 312 365
#
# _framework density 21.081562999999999
#
# number of rings (size 3 to 8) (size 9 to 14) (size 15 to 20)
#    0.000    1.750    1.250    4.125    0.000    3.500 
#    4.500    6.250    0.000    0.000    0.000    0.000 
#    0.000    0.000    0.000    0.000    0.000    0.000 
#
# Total GULP energy -89363.019159 kJ/mol
# GULP energy per Si atom -5585.188697 kJ/mol
# Density = 2.103358 g / cm^3
# Si number density = 21.081563 Si / 1000 Ang^3
#
#
#
# Elastic Constant Matrix: (Units=GPa)
#
#
# Indices 1 2 3 4 5 6 
#
# 1 77.9561 24.7946 27.0185 -4.7483 0.4239 21.4266
# 2 24.7946 73.7004 31.0799 7.8897 -11.8654 3.4444
# 3 27.0185 31.0799 143.0950 -0.4072 -2.2762 10.9066
# 4 -4.7483 7.8897 -0.4072 19.5078 -1.8220 4.6233
# 5 0.4239 -11.8654 -2.2762 -1.8220 32.9362 9.3523
# 6 21.4266 3.4444 10.9066 4.6233 9.3523 32.5219
#
#
#
# Elastic Compliance Matrix: (Units=1/GPa)
#
#
# Indices 1 2 3 4 5 6 
#
# 1 0.019781 -0.006325 -0.001227 0.010865 0.001977 -0.014064
# 2 -0.006325 0.018681 -0.003039 -0.009392 0.005218 0.003043
# 3 -0.001227 -0.003039 0.008023 0.001531 0.000071 -0.001798
# 4 0.010865 -0.009392 0.001531 0.062194 0.004823 -0.016906
# 5 0.001977 0.005218 0.000071 0.004823 0.036169 -0.012965
# 6 -0.014064 0.003043 -0.001798 -0.016906 -0.012965 0.046427
#
#
# Mechanical properties :
#
#
# Convention : Reuss Voigt Hill
#
# Bulk Modulus (GPa) = 39.52039 51.17084 45.34562
# Shear Modulus (GPa) = 22.63552 31.11708 26.87630
#
# Velocity S-wave (km/s) = 3.28031 3.84609 3.57441
# Velocity P-wave (km/s) = 5.75624 6.63692 6.21221
#
# Compressibility (1/GPa) = 0.02530339
#
# Stress axis : x y z
#
# Youngs Moduli (GPa) = 50.55238 53.52976 124.64794
#
# Poissons Ratio (x) = 0.33859 0.15293
# Poissons Ratio (y) = 0.31975 0.37879
# Poissons Ratio (z) = 0.06202 0.16267
#
# Static dielectric constant tensor:
#      x y z
#    x 1.820690 0.014260 0.016710 
#    y 0.014260 1.743120 0.000010 
#    z 0.016710 0.000010 1.777700 
# 
# From -- ./inp_files/620696.got.cif
#   From: 2010.05.17/outbox.cif.g08.bks.cpg/sg2_311_cif.got.tgz:620696.got - 2010.06.03 11:33:40.
