data_PCOD9003876
_publ_section_title
;
Structure prediction by ZEFSAII (Michael W. Deem and Ramdas Pophale) SiO2 
 PCOD9003876
Probable space group: P -1
;
_chemical_formula_sum "Si O2"
_cell_formula_units_Z 16
_cell_length_a 18.352623
_cell_length_b 14.472569
_cell_length_c 5.301939
_cell_angle_alpha 72.347997
_cell_angle_beta 96.135460
_cell_angle_gamma 149.061900
_cell_volume 655.300780
_symmetry_space_group_name_H-M "P -1"
_symmetry_group_IT_number 2
_symmetry_cell_setting 'triclinic'
loop_
_space_group_symop_operation_xyz
x,y,z
-x,-y,-z
loop_
_atom_site_type_symbol
_atom_site_label
_atom_site_fract_x
_atom_site_fract_y
_atom_site_fract_z
Si Si1 0.916841 0.052440 0.540186
Si Si2 0.669951 0.577303 0.433456
Si Si3 0.662289 0.790570 0.329314
Si Si4 0.828293 0.119184 0.744324
Si Si5 0.145328 0.230022 0.138487
Si Si6 0.370983 0.818653 0.299546
Si Si7 0.611376 0.986462 0.456237
Si Si8 0.133711 0.658393 0.116659
O O1 0.742968 0.859882 0.563227
O O2 0.941944 0.181152 0.585245
O O3 0.928756 0.962814 0.758506
O O4 0.015062 0.151897 0.243327
O O5 0.655897 0.677336 0.291293
O O6 0.499026 0.349179 0.582402
O O7 0.750346 0.653869 0.668266
O O8 0.762571 0.640638 0.183684
O O9 0.768590 0.984642 0.058744
O O10 0.679606 0.978385 0.650106
O O11 0.900709 0.303478 0.708369
O O12 0.366316 0.892927 0.458391
O O13 0.211115 0.647945 0.248585
O O14 0.440365 0.799797 0.454513
O O15 0.500000 0.000000 0.000000
O O16 0.726247 0.130077 0.150564
O O17 0.000000 0.500000 0.000000
#
# Coordination Sequence:
#
# PCOD9003876 Si02
#       8
#     2   2   2   2   2   2   2   2
#     4  10  22  36  63  91 129 174 227 268 337 400
#     4  10  22  39  63  96 134 176 233 278 331 396
#     4  10  22  36  63  93 129 170 224 278 331 398
#     4  11  21  36  60  95 128 169 223 276 341 390
#     4  10  22  39  63  95 133 179 229 281 332 405
#     4   8  16  33  60  89 117 151 206 253 317 400
#     4   9  18  35  60  90 117 160 206 267 319 404
#     4  10  21  37  62  95 126 163 214 271 329 403
#
# _framework density 24.416269
#
# number of rings (size 3 to 8) (size 9 to 14) (size 15 to 20)
#    0.000    2.250    1.250    0.750    3.500    5.000 
#    0.000    0.000    0.000   39.000    0.000    0.000 
#    0.000    0.000    0.000    0.000    0.000    0.000 
#
# Total GULP energy -89364.689701 kJ/mol
# GULP energy per Si atom -5585.293106 kJ/mol
# Density = 2.436070 g / cm^3
# Si number density = 24.416269 Si / 1000 Ang^3
#
#
#
# Elastic Constant Matrix: (Units=GPa)
#
#
# Indices 1 2 3 4 5 6 
#
# 1 167.2474 65.7199 37.4139 14.0525 -20.4084 17.9403
# 2 65.7199 112.1232 24.2069 9.7548 -2.0730 33.5774
# 3 37.4139 24.2069 69.5716 8.3322 -16.2418 2.2216
# 4 14.0525 9.7548 8.3322 30.4011 7.1360 7.8817
# 5 -20.4084 -2.0730 -16.2418 7.1360 49.6864 10.5152
# 6 17.9403 33.5774 2.2216 7.8817 10.5152 41.6998
#
#
#
# Elastic Compliance Matrix: (Units=1/GPa)
#
#
# Indices 1 2 3 4 5 6 
#
# 1 0.008813 -0.004229 -0.002163 -0.002738 0.003251 -0.000574
# 2 -0.004229 0.014993 -0.002648 0.000495 0.000118 -0.010236
# 3 -0.002163 -0.002648 0.018218 -0.004819 0.005296 0.001667
# 4 -0.002738 0.000495 -0.004819 0.038148 -0.007238 -0.004349
# 5 0.003251 0.000118 0.005296 -0.007238 0.025695 -0.006887
# 6 -0.000574 -0.010236 0.001667 -0.004349 -0.006887 0.034940
#
#
# Mechanical properties :
#
#
# Convention : Reuss Voigt Hill
#
# Bulk Modulus (GPa) = 41.75959 67.06929 54.41444
# Shear Modulus (GPa) = 29.96394 39.13092 34.54743
#
# Velocity S-wave (km/s) = 3.50696 4.00766 3.76564
# Velocity P-wave (km/s) = 5.79126 6.99599 6.42194
#
# Compressibility (1/GPa) = 0.02394660
#
# Stress axis : x y z
#
# Youngs Moduli (GPa) = 113.46945 66.69610 54.88995
#
# Poissons Ratio (x) = 0.28203 0.11872
# Poissons Ratio (y) = 0.47981 0.14533
# Poissons Ratio (z) = 0.24541 0.17659
#
# Static dielectric constant tensor:
#      x y z
#    x 2.011230 -0.009570 0.010460 
#    y -0.009570 2.002750 0.046520 
#    z 0.010460 0.046520 1.996140 
# 
# From -- ./inp_files/110808.got.cif
#   From: 2010.05.17/outbox.cif.g08.bks.cpg/sg2_56_cif.got.tgz:110808.got - 2010.06.03 11:33:40.
