data_PCOD9003592
_publ_section_title
;
Structure prediction by ZEFSAII (Michael W. Deem and Ramdas Pophale) SiO2 
 PCOD9003592
Probable space group: P -1
;
_chemical_formula_sum "Si O2"
_cell_formula_units_Z 16
_cell_length_a 11.630023
_cell_length_b 10.533573
_cell_length_c 9.168905
_cell_angle_alpha 132.211918
_cell_angle_beta 98.103190
_cell_angle_gamma 57.798815
_cell_volume 660.401385
_symmetry_space_group_name_H-M "P -1"
_symmetry_group_IT_number 2
_symmetry_cell_setting 'triclinic'
loop_
_space_group_symop_operation_xyz
x,y,z
-x,-y,-z
loop_
_atom_site_type_symbol
_atom_site_label
_atom_site_fract_x
_atom_site_fract_y
_atom_site_fract_z
Si Si1 0.048283 0.045968 0.890940
Si Si2 0.855753 0.862352 0.427113
Si Si3 0.843651 0.620897 0.489249
Si Si4 0.255743 0.714533 0.146030
Si Si5 0.246747 0.204007 0.112372
Si Si6 0.380353 0.352858 0.702478
Si Si7 0.169024 0.669518 0.397037
Si Si8 0.375335 0.066849 0.736427
O O1 0.150149 0.822840 0.643420
O O2 0.899984 0.199004 0.888410
O O3 0.131679 0.150868 0.020821
O O4 0.000000 0.000000 0.000000
O O5 0.871692 0.683724 0.389403
O O6 0.783530 0.873495 0.274533
O O7 0.010255 0.809130 0.403798
O O8 0.752417 0.077325 0.666940
O O9 0.733121 0.822127 0.729712
O O10 0.754892 0.536733 0.350753
O O11 0.000000 0.500000 0.500000
O O12 0.269714 0.629385 0.247700
O O13 0.373582 0.542632 0.921880
O O14 0.197791 0.448804 0.280290
O O15 0.374141 0.085572 0.924217
O O16 0.377314 0.227296 0.748477
O O17 0.511509 0.168203 0.487685
#
# Coordination Sequence:
#
# PCOD9003592 Si02
#       8
#     2   2   2   2   2   2   2   2
#     4  11  25  38  60  96 132 158 202 258 319 378
#     4  10  21  37  61  86 128 153 204 254 316 378
#     4  11  22  38  60  92 120 160 206 255 315 378
#     4  11  21  37  59  90 123 160 198 266 311 360
#     4  12  22  38  67  87 127 169 202 258 318 366
#     4  10  23  39  61  86 125 158 216 257 300 376
#     4  11  22  37  59  98 125 156 206 258 313 375
#     4  10  22  41  59  89 116 169 212 252 305 374
#
# _framework density 24.227691
#
# number of rings (size 3 to 8) (size 9 to 14) (size 15 to 20)
#    0.000    1.250    2.500    5.250    3.500    2.000 
#    0.000    0.000    0.000    1.500    0.000    0.000 
#    0.000    0.000    0.000    0.000    0.000    0.000 
#
# Total GULP energy -89175.986568 kJ/mol
# GULP energy per Si atom -5573.499160 kJ/mol
# Density = 2.417255 g / cm^3
# Si number density = 24.227691 Si / 1000 Ang^3
#
#
#
# Elastic Constant Matrix: (Units=GPa)
#
#
# Indices 1 2 3 4 5 6 
#
# 1 44.1613 14.5934 18.0503 -9.9288 7.5618 2.6312
# 2 14.5934 54.8582 11.2694 -13.9332 1.0770 7.5282
# 3 18.0503 11.2694 152.4209 -18.4058 -15.9094 2.7672
# 4 -9.9288 -13.9332 -18.4058 44.3708 8.0600 2.0870
# 5 7.5618 1.0770 -15.9094 8.0600 40.4593 -7.7208
# 6 2.6312 7.5282 2.7672 2.0870 -7.7208 26.4695
#
#
#
# Elastic Compliance Matrix: (Units=1/GPa)
#
#
# Indices 1 2 3 4 5 6 
#
# 1 0.028342 -0.004884 -0.003154 0.005169 -0.008180 -0.003892
# 2 -0.004884 0.022284 -0.000414 0.006516 -0.002486 -0.007048
# 3 -0.003154 -0.000414 0.007501 0.001651 0.003314 0.000483
# 4 0.005169 0.006516 0.001651 0.028096 -0.007407 -0.006915
# 5 -0.008180 -0.002486 0.003314 -0.007407 0.031160 0.010847
# 6 -0.003892 -0.007048 0.000483 -0.006915 0.010847 0.043829
#
#
# Mechanical properties :
#
#
# Convention : Reuss Voigt Hill
#
# Bulk Modulus (GPa) = 24.25818 37.69630 30.97724
# Shear Modulus (GPa) = 26.06094 36.09508 31.07801
#
# Velocity S-wave (km/s) = 3.28330 3.86402 3.58543
# Velocity P-wave (km/s) = 4.94041 5.95823 5.47303
#
# Compressibility (1/GPa) = 0.04122321
#
# Stress axis : x y z
#
# Youngs Moduli (GPa) = 35.28312 44.87496 133.30832
#
# Poissons Ratio (x) = 0.21917 0.42049
# Poissons Ratio (y) = 0.17233 0.05517
# Poissons Ratio (z) = 0.11129 0.01857
#
# Static dielectric constant tensor:
#      x y z
#    x 2.018420 -0.015640 -0.031450 
#    y -0.015640 1.997840 0.013380 
#    z -0.031450 0.013380 1.964380 
# 
# From -- ./inp_files/281422.got.cif
#   From: 2010.05.17/outbox.cif.g08.bks.cpg/sg2_141_cif.got.tgz:281422.got - 2010.06.03 11:33:40.
