data_PCOD9003694
_publ_section_title
;
Structure prediction by ZEFSAII (Michael W. Deem and Ramdas Pophale) SiO2 
 PCOD9003694
Probable space group: P -1
;
_chemical_formula_sum "Si O2"
_cell_formula_units_Z 16
_cell_length_a 13.394692
_cell_length_b 12.599259
_cell_length_c 9.533833
_cell_angle_alpha 125.601868
_cell_angle_beta 138.433113
_cell_angle_gamma 80.275576
_cell_volume 754.556064
_symmetry_space_group_name_H-M "P -1"
_symmetry_group_IT_number 2
_symmetry_cell_setting 'triclinic'
loop_
_space_group_symop_operation_xyz
x,y,z
-x,-y,-z
loop_
_atom_site_type_symbol
_atom_site_label
_atom_site_fract_x
_atom_site_fract_y
_atom_site_fract_z
Si Si1 0.807720 0.724670 0.819303
Si Si2 0.322713 0.388950 0.811686
Si Si3 0.241531 0.640209 0.869831
Si Si4 0.167613 0.838665 0.138385
Si Si5 0.175952 0.556500 0.424258
Si Si6 0.647794 0.830004 0.516016
Si Si7 0.667407 0.579980 0.835755
Si Si8 0.780111 0.338880 0.742638
O O1 0.743095 0.553893 0.567454
O O2 0.684490 0.782589 0.670244
O O3 0.803842 0.707946 0.971360
O O4 0.996224 0.820008 0.020256
O O5 0.212865 0.475388 0.752041
O O6 0.261980 0.235437 0.546126
O O7 0.500000 0.500000 0.000000
O O8 0.346142 0.366065 0.982711
O O9 0.198027 0.632402 0.654401
O O10 0.138669 0.704045 0.899282
O O11 0.445038 0.751166 0.203308
O O12 0.280408 0.816275 0.361588
O O13 0.265175 0.993819 0.279434
O O14 0.249718 0.672835 0.463607
O O15 0.983236 0.439396 0.075575
O O16 0.500000 0.500000 0.500000
O O17 0.708941 0.445962 0.801934
#
# Coordination Sequence:
#
# PCOD9003694 Si02
#       8
#     2   2   2   2   2   2   2   2
#     4  10  22  39  63  88 128 167 206 253 315 367
#     4  10  21  37  61  94 121 152 204 265 297 356
#     4  11  21  38  65  92 122 159 217 259 303 357
#     4  11  23  41  60  91 131 171 200 254 313 378
#     4   9  19  37  60  90 119 155 201 260 306 357
#     4  11  23  40  61  93 130 165 209 256 307 365
#     4  11  21  37  65  94 119 158 212 261 308 359
#     4   9  20  36  59  87 125 153 197 253 316 362
#
# _framework density 21.204521
#
# number of rings (size 3 to 8) (size 9 to 14) (size 15 to 20)
#    0.000    1.750    2.500    3.000    5.250    3.000 
#    0.000    2.500    0.000    0.000    0.000    0.000 
#    0.000    0.000    0.000    0.000    0.000    0.000 
#
# Total GULP energy -89244.176814 kJ/mol
# GULP energy per Si atom -5577.761051 kJ/mol
# Density = 2.115626 g / cm^3
# Si number density = 21.204521 Si / 1000 Ang^3
#
#
#
# Elastic Constant Matrix: (Units=GPa)
#
#
# Indices 1 2 3 4 5 6 
#
# 1 84.4940 29.9238 24.4433 -5.3877 -18.7339 23.5504
# 2 29.9238 130.6658 32.6162 -13.8335 -6.3418 12.6125
# 3 24.4433 32.6162 45.3320 -17.3228 -6.2081 9.7948
# 4 -5.3877 -13.8335 -17.3228 24.7549 5.8794 -9.9123
# 5 -18.7339 -6.3418 -6.2081 5.8794 42.2460 -14.2159
# 6 23.5504 12.6125 9.7948 -9.9123 -14.2159 30.0897
#
#
#
# Elastic Compliance Matrix: (Units=1/GPa)
#
#
# Indices 1 2 3 4 5 6 
#
# 1 0.018750 -0.001575 -0.009293 -0.009090 0.003890 -0.012146
# 2 -0.001575 0.009559 -0.005574 0.000851 -0.000511 -0.000920
# 3 -0.009293 -0.005574 0.039305 0.024359 -0.001122 0.004310
# 4 -0.009090 0.000851 0.024359 0.064067 -0.003011 0.018511
# 5 0.003890 -0.000511 -0.001122 -0.003011 0.029024 0.010255
# 6 -0.012146 -0.000920 0.004310 0.018511 0.010255 0.052666
#
#
# Mechanical properties :
#
#
# Convention : Reuss Voigt Hill
#
# Bulk Modulus (GPa) = 28.79505 48.27315 38.53410
# Shear Modulus (GPa) = 19.39240 30.98535 25.18888
#
# Velocity S-wave (km/s) = 3.02742 3.82679 3.45033
# Velocity P-wave (km/s) = 5.08227 6.50697 5.83825
#
# Compressibility (1/GPa) = 0.03472819
#
# Stress axis : x y z
#
# Youngs Moduli (GPa) = 53.33386 104.60799 25.44235
#
# Poissons Ratio (x) = 0.16480 0.23644
# Poissons Ratio (y) = 0.08402 0.14183
# Poissons Ratio (z) = 0.49563 0.58313
#
# Static dielectric constant tensor:
#      x y z
#    x 1.899030 0.009330 0.040940 
#    y 0.009330 1.823750 -0.058130 
#    z 0.040940 -0.058130 1.780300 
# 
# From -- ./inp_files/305843.got.cif
#   From: 2010.05.17/outbox.cif.g08.bks.cpg/sg2_153_cif.got.tgz:305843.got - 2010.06.03 11:33:40.
