data_PCOD9003989
_publ_section_title
;
Structure prediction by ZEFSAII (Michael W. Deem and Ramdas Pophale) SiO2 
 PCOD9003989
Probable space group: P -1
;
_chemical_formula_sum "Si O2"
_cell_formula_units_Z 16
_cell_length_a 9.670043
_cell_length_b 14.073283
_cell_length_c 8.260550
_cell_angle_alpha 48.888511
_cell_angle_beta 60.565294
_cell_angle_gamma 85.238500
_cell_volume 686.489723
_symmetry_space_group_name_H-M "P -1"
_symmetry_group_IT_number 2
_symmetry_cell_setting 'triclinic'
loop_
_space_group_symop_operation_xyz
x,y,z
-x,-y,-z
loop_
_atom_site_type_symbol
_atom_site_label
_atom_site_fract_x
_atom_site_fract_y
_atom_site_fract_z
Si Si1 0.199380 0.602639 0.415270
Si Si2 0.845691 0.601505 0.615242
Si Si3 0.012835 0.382569 0.010511
Si Si4 0.474392 0.808219 0.864554
Si Si5 0.752838 0.017557 0.292566
Si Si6 0.928254 0.871647 0.800430
Si Si7 0.314375 0.208314 0.691366
Si Si8 0.649249 0.364311 0.172855
O O1 0.172799 0.530024 0.336901
O O2 0.048095 0.660747 0.468531
O O3 0.385522 0.718084 0.170744
O O4 0.154527 0.474114 0.701229
O O5 0.777526 0.698459 0.445753
O O6 0.727516 0.526881 0.919026
O O7 0.064744 0.256384 0.160877
O O8 0.814843 0.322148 0.134940
O O9 0.000000 0.500000 0.000000
O O10 0.658695 0.923054 0.606580
O O11 0.463320 0.704959 0.840448
O O12 0.347249 0.885153 0.804194
O O13 0.733161 0.922144 0.254047
O O14 0.940935 0.100208 0.153664
O O15 0.000000 0.000000 0.500000
O O16 0.752092 0.835669 0.039690
O O17 0.516352 0.299741 0.464625
#
# Coordination Sequence:
#
# PCOD9003989 Si02
#       8
#     2   2   2   2   2   2   2   2
#     4   9  17  33  59  87 112 152 200 251 305 356
#     4   9  16  30  60  91 119 143 186 257 317 356
#     4  11  23  42  62  83 121 174 212 244 302 384
#     4   9  17  35  65  94 116 149 202 262 310 359
#     4  10  21  37  63  92 126 158 201 256 311 372
#     4  12  26  44  59  88 136 172 206 252 312 374
#     4  11  21  37  63  95 120 157 202 259 316 361
#     4   9  19  36  62  92 119 146 200 263 313 360
#
# _framework density 23.306974
#
# number of rings (size 3 to 8) (size 9 to 14) (size 15 to 20)
#    0.000    2.000    2.500    2.250    0.000    3.000 
#    2.250    1.250    0.000    0.000    0.000    0.000 
#    0.000    0.000    0.000    0.000    0.000    0.000 
#
# Total GULP energy -89170.637315 kJ/mol
# GULP energy per Si atom -5573.164832 kJ/mol
# Density = 2.325393 g / cm^3
# Si number density = 23.306974 Si / 1000 Ang^3
#
#
#
# Elastic Constant Matrix: (Units=GPa)
#
#
# Indices 1 2 3 4 5 6 
#
# 1 26.1793 19.3445 19.6681 -4.5580 -5.7443 -2.7151
# 2 19.3445 97.7882 41.6512 0.6505 1.7497 -8.5854
# 3 19.6681 41.6512 190.8920 6.2065 -12.7564 -17.7673
# 4 -4.5580 0.6505 6.2065 23.5405 -1.6713 1.7624
# 5 -5.7443 1.7497 -12.7564 -1.6713 31.3451 -9.0013
# 6 -2.7151 -8.5854 -17.7673 1.7624 -9.0013 22.9195
#
#
#
# Elastic Compliance Matrix: (Units=1/GPa)
#
#
# Indices 1 2 3 4 5 6 
#
# 1 0.051550 -0.008989 -0.002638 0.011381 0.010629 0.003994
# 2 -0.008989 0.013002 -0.001916 -0.001899 -0.002870 0.001339
# 3 -0.002638 -0.001916 0.006836 -0.002427 0.004008 0.006030
# 4 0.011381 -0.001899 -0.002427 0.045840 0.002568 -0.003761
# 5 0.010629 -0.002870 0.004008 0.002568 0.041328 0.019325
# 6 0.003994 0.001339 0.006030 -0.003761 0.019325 0.057159
#
#
# Mechanical properties :
#
#
# Convention : Reuss Voigt Hill
#
# Bulk Modulus (GPa) = 22.57235 52.90966 37.74101
# Shear Modulus (GPa) = 19.41215 31.17408 25.29311
#
# Velocity S-wave (km/s) = 2.88911 3.66121 3.29784
# Velocity P-wave (km/s) = 4.56455 6.37363 5.54339
#
# Compressibility (1/GPa) = 0.04430198
#
# Stress axis : x y z
#
# Youngs Moduli (GPa) = 19.39846 76.91027 146.27466
#
# Poissons Ratio (x) = 0.69138 0.38587
# Poissons Ratio (y) = 0.17438 0.28029
# Poissons Ratio (z) = 0.05117 0.14737
#
# Static dielectric constant tensor:
#      x y z
#    x 1.913990 0.023270 -0.030340 
#    y 0.023270 1.893960 0.101520 
#    z -0.030340 0.101520 2.065750 
# 
# From -- ./inp_files/271776.got.cif
#   From: 2010.05.17/outbox.cif.g08.bks.cpg/sg2_136_cif.got.tgz:271776.got - 2010.06.03 11:33:40.
