data_PCOD9003819
_publ_section_title
;
Structure prediction by ZEFSAII (Michael W. Deem and Ramdas Pophale) SiO2 
 PCOD9003819
Probable space group: P -1
;
_chemical_formula_sum "Si O2"
_cell_formula_units_Z 16
_cell_length_a 12.814132
_cell_length_b 9.884412
_cell_length_c 11.811227
_cell_angle_alpha 59.749764
_cell_angle_beta 106.022114
_cell_angle_gamma 145.915544
_cell_volume 692.723591
_symmetry_space_group_name_H-M "P -1"
_symmetry_group_IT_number 2
_symmetry_cell_setting 'triclinic'
loop_
_space_group_symop_operation_xyz
x,y,z
-x,-y,-z
loop_
_atom_site_type_symbol
_atom_site_label
_atom_site_fract_x
_atom_site_fract_y
_atom_site_fract_z
Si Si1 0.433289 0.773717 0.313977
Si Si2 0.690256 0.161625 0.424030
Si Si3 0.852689 0.629229 0.155139
Si Si4 0.110201 0.170782 0.578315
Si Si5 0.769569 0.957491 0.675633
Si Si6 0.590347 0.889588 0.856081
Si Si7 0.007849 0.895964 0.869133
Si Si8 0.425997 0.581208 0.162588
O O1 0.294803 0.493400 0.462778
O O2 0.460133 0.726548 0.220836
O O3 0.625691 0.019063 0.342981
O O4 0.358579 0.864014 0.237909
O O5 0.840455 0.476271 0.306656
O O6 0.500000 0.000000 0.500000
O O7 0.763674 0.112743 0.544315
O O8 0.626433 0.381703 0.151385
O O9 0.975915 0.739500 0.031401
O O10 0.923078 0.869378 0.138127
O O11 0.000000 0.000000 0.500000
O O12 0.962199 0.104594 0.628877
O O13 0.135846 0.056829 0.723401
O O14 0.730314 0.949102 0.798137
O O15 0.594274 0.627432 0.728848
O O16 0.572150 0.800508 0.014097
O O17 0.788932 0.639573 0.860045
#
# Coordination Sequence:
#
# PCOD9003819 Si02
#       8
#     2   2   2   2   2   2   2   2
#     4  11  21  39  64  90 122 164 194 248 310 353
#     4  11  21  39  60  91 123 156 204 251 300 357
#     4   9  18  35  58  87 116 157 197 245 293 351
#     4  11  22  40  59  88 124 157 199 245 304 359
#     4  11  22  39  61  89 120 164 201 252 292 357
#     4  10  21  37  62  92 120 155 204 251 298 357
#     4   9  18  34  60  82 116 162 196 237 295 359
#     4  10  21  39  59  92 124 153 203 247 306 359
#
# _framework density 23.097235000000001
#
# number of rings (size 3 to 8) (size 9 to 14) (size 15 to 20)
#    0.000    1.750    5.000    1.500    0.000    1.000 
#    2.250    0.000    0.000    0.750    0.000    0.000 
#    0.000    0.000    0.000    0.000    0.000    0.000 
#
# Total GULP energy -89322.307049 kJ/mol
# GULP energy per Si atom -5582.644191 kJ/mol
# Density = 2.304466 g / cm^3
# Si number density = 23.097235 Si / 1000 Ang^3
#
#
#
# Elastic Constant Matrix: (Units=GPa)
#
#
# Indices 1 2 3 4 5 6 
#
# 1 49.5180 9.5692 20.0759 7.4602 -19.2557 -7.7952
# 2 9.5692 112.6409 45.1309 10.7850 -28.1402 -18.0634
# 3 20.0759 45.1309 162.0553 11.7084 -13.7449 -20.0956
# 4 7.4602 10.7850 11.7084 33.2578 -10.7899 -7.4656
# 5 -19.2557 -28.1402 -13.7449 -10.7899 28.1610 4.1904
# 6 -7.7952 -18.0634 -20.0956 -7.4656 4.1904 28.0803
#
#
#
# Elastic Compliance Matrix: (Units=1/GPa)
#
#
# Indices 1 2 3 4 5 6 
#
# 1 0.030694 0.005606 -0.002495 0.001895 0.025040 0.007108
# 2 0.005606 0.014603 -0.002593 0.001986 0.016863 0.007106
# 3 -0.002495 -0.002593 0.007521 -0.001061 -0.001474 0.002959
# 4 0.001895 0.001986 -0.001061 0.036252 0.015405 0.008384
# 5 0.025040 0.016863 -0.001474 0.015405 0.073190 0.009918
# 6 0.007108 0.007106 0.002959 0.008384 0.009918 0.045023
#
#
# Mechanical properties :
#
#
# Convention : Reuss Voigt Hill
#
# Bulk Modulus (GPa) = 18.56937 52.64067 35.60502
# Shear Modulus (GPa) = 22.30178 34.52904 28.41541
#
# Velocity S-wave (km/s) = 3.11072 3.87064 3.51130
# Velocity P-wave (km/s) = 4.57812 6.54341 5.64692
#
# Compressibility (1/GPa) = 0.05385213
#
# Stress axis : x y z
#
# Youngs Moduli (GPa) = 32.58015 68.48067 132.96689
#
# Poissons Ratio (x) = -0.38392 0.33180
# Poissons Ratio (y) = -0.18265 0.34483
# Poissons Ratio (z) = 0.08130 0.17759
#
# Static dielectric constant tensor:
#      x y z
#    x 1.904680 0.032190 0.063630 
#    y 0.032190 1.867640 -0.009940 
#    z 0.063630 -0.009940 1.942620 
# 
# From -- ./inp_files/257405.got.cif
#   From: 2010.05.17/outbox.cif.g08.bks.cpg/sg2_129_cif.got.tgz:257405.got - 2010.06.03 11:33:40.
