data_PCOD9003640
_publ_section_title
;
Structure prediction by ZEFSAII (Michael W. Deem and Ramdas Pophale) SiO2 
 PCOD9003640
Probable space group: P -1
;
_chemical_formula_sum "Si O2"
_cell_formula_units_Z 14
_cell_length_a 9.469158
_cell_length_b 12.805206
_cell_length_c 11.230847
_cell_angle_alpha 114.847641
_cell_angle_beta 136.854134
_cell_angle_gamma 45.442547
_cell_volume 651.716857
_symmetry_space_group_name_H-M "P -1"
_symmetry_group_IT_number 2
_symmetry_cell_setting 'triclinic'
loop_
_space_group_symop_operation_xyz
x,y,z
-x,-y,-z
loop_
_atom_site_type_symbol
_atom_site_label
_atom_site_fract_x
_atom_site_fract_y
_atom_site_fract_z
Si Si1 0.911370 0.117235 0.608445
Si Si2 0.282242 0.513696 0.710991
Si Si3 0.146664 0.281146 0.779632
Si Si4 0.139858 0.010159 0.254867
Si Si5 0.264527 0.210208 0.544731
Si Si6 0.412902 0.713220 0.993406
Si Si7 0.617853 0.571526 0.544505
O O1 0.590261 0.254626 0.468170
O O2 0.054950 0.192318 0.736824
O O3 0.954475 0.041679 0.724984
O O4 0.000000 0.000000 0.500000
O O5 0.369204 0.614653 0.839987
O O6 0.372870 0.450300 0.602840
O O7 0.957841 0.630255 0.577426
O O8 0.414014 0.390489 0.836455
O O9 0.175641 0.236034 0.638064
O O10 0.918249 0.461308 0.728138
O O11 0.424383 0.247093 0.960192
O O12 0.218827 0.101947 0.409761
O O13 0.879594 0.135117 0.077680
O O14 0.424117 0.869840 0.310806
O O15 0.500000 0.500000 0.500000
#
# Coordination Sequence:
#
# PCOD9003640 Si02
#       7
#     2   2   2   2   2   2   2
#     4  11  22  40  63  90 122 167 209 259 308 367
#     4   9  20  41  63  92 125 165 206 254 314 368
#     4  10  21  39  61  93 122 161 211 259 303 369
#     4  10  21  37  61  90 126 162 203 257 316 360
#     4   9  19  37  64  90 115 163 217 253 290 374
#     4  10  22  37  62  92 136 157 196 262 324 365
#     4   9  21  39  66  88 117 164 219 253 292 370
#
# _framework density 21.481719999999999
#
# number of rings (size 3 to 8) (size 9 to 14) (size 15 to 20)
#    0.000    2.286    1.429    0.000    6.000    2.286 
#    0.000    2.857    0.000    0.000    0.000    0.000 
#    0.000    0.000    0.000    0.000    0.000    0.000 
#
# Total GULP energy -78090.633122 kJ/mol
# GULP energy per Si atom -5577.902366 kJ/mol
# Density = 2.143283 g / cm^3
# Si number density = 21.481720 Si / 1000 Ang^3
#
#
#
# Elastic Constant Matrix: (Units=GPa)
#
#
# Indices 1 2 3 4 5 6 
#
# 1 103.1507 42.8379 49.8645 -18.4025 15.2532 7.6297
# 2 42.8379 141.5762 42.4736 -16.1967 15.1800 -9.1908
# 3 49.8645 42.4736 83.2771 -24.5265 22.5347 6.3970
# 4 -18.4025 -16.1967 -24.5265 39.5786 0.1616 7.8645
# 5 15.2532 15.1800 22.5347 0.1616 33.2319 -4.2241
# 6 7.6297 -9.1908 6.3970 7.8645 -4.2241 41.0764
#
#
#
# Elastic Compliance Matrix: (Units=1/GPa)
#
#
# Indices 1 2 3 4 5 6 
#
# 1 0.014526 -0.002276 -0.005968 0.002729 -0.001976 -0.003004
# 2 -0.002276 0.008985 -0.003335 -0.000025 -0.000427 0.002913
# 3 -0.005968 -0.003335 0.025614 0.013307 -0.014141 -0.007629
# 4 0.002729 -0.000025 0.013307 0.036981 -0.011827 -0.010882
# 5 -0.001976 -0.000427 -0.014141 -0.011827 0.041991 0.009056
# 6 -0.003004 0.002913 -0.007629 -0.010882 0.009056 0.029757
#
#
# Mechanical properties :
#
#
# Convention : Reuss Voigt Hill
#
# Bulk Modulus (GPa) = 38.51074 66.48400 52.49737
# Shear Modulus (GPa) = 26.36186 35.63260 30.99723
#
# Velocity S-wave (km/s) = 3.50691 4.07718 3.80275
# Velocity P-wave (km/s) = 5.86208 7.29252 6.61607
#
# Compressibility (1/GPa) = 0.02596678
#
# Stress axis : x y z
#
# Youngs Moduli (GPa) = 68.84271 111.30171 39.04097
#
# Poissons Ratio (x) = 0.25329 0.23299
# Poissons Ratio (y) = 0.15667 0.13022
# Poissons Ratio (z) = 0.41084 0.37123
#
# Static dielectric constant tensor:
#      x y z
#    x 1.781260 0.005810 0.046580 
#    y 0.005810 1.839290 -0.033880 
#    z 0.046580 -0.033880 1.829090 
# 
# From -- ./inp_files/205046.got.cif
#   From: 2010.05.17/outbox.cif.g08.bks.cpg/sg2_103_cif.got.tgz:205046.got - 2010.06.03 11:33:40.
