data_PCOD9003453
_publ_section_title
;
Structure prediction by ZEFSAII (Michael W. Deem and Ramdas Pophale) SiO2 
 PCOD9003453
Probable space group: P -1
;
_chemical_formula_sum "Si O2"
_cell_formula_units_Z 14
_cell_length_a 13.817983
_cell_length_b 13.076407
_cell_length_c 9.425469
_cell_angle_alpha 100.157975
_cell_angle_beta 56.581216
_cell_angle_gamma 148.271625
_cell_volume 558.033669
_symmetry_space_group_name_H-M "P -1"
_symmetry_group_IT_number 2
_symmetry_cell_setting 'triclinic'
loop_
_space_group_symop_operation_xyz
x,y,z
-x,-y,-z
loop_
_atom_site_type_symbol
_atom_site_label
_atom_site_fract_x
_atom_site_fract_y
_atom_site_fract_z
Si Si1 0.119006 0.879222 0.973094
Si Si2 0.303904 0.806044 0.744923
Si Si3 0.803417 0.007133 0.746690
Si Si4 0.307211 0.216718 0.734974
Si Si5 0.838317 0.199760 0.569162
Si Si6 0.455575 0.368074 0.328284
Si Si7 0.194201 0.624462 0.165749
O O1 0.238712 0.861869 0.887338
O O2 0.332632 0.123982 0.762318
O O3 0.792194 0.606582 0.109000
O O4 0.090491 0.907272 0.157698
O O5 0.005146 0.519923 0.847555
O O6 0.500000 0.000000 0.500000
O O7 0.526489 0.918603 0.680558
O O8 0.718151 0.827479 0.706009
O O9 0.978601 0.218724 0.541973
O O10 0.511069 0.837411 0.944434
O O11 0.323995 0.226359 0.552705
O O12 0.522357 0.489056 0.663254
O O13 0.000000 0.000000 0.000000
O O14 0.800828 0.265203 0.723181
O O15 0.034544 0.406327 0.336242
#
# Coordination Sequence:
#
# PCOD9003453 Si02
#       7
#     2   2   2   2   2   2   2
#     4  11  23  41  62  97 128 162 209 255 307 368
#     4  10  21  37  60  88 125 172 212 242 300 360
#     4  12  24  37  63  94 126 162 208 255 307 368
#     4   9  22  46  71  89 124 157 203 262 313 382
#     4  10  23  38  54  87 130 166 212 253 291 363
#     4  10  23  44  67  95 119 161 206 257 321 365
#     4  10  21  39  56  82 127 170 207 251 302 346
#
# _framework density 25.088094000000002
#
# number of rings (size 3 to 8) (size 9 to 14) (size 15 to 20)
#    0.000    1.714    2.857    0.429    4.000    3.429 
#    0.000    6.429    0.000    0.000    0.000    0.000 
#    0.000    0.000    0.000    0.000    0.000    0.000 
#
# Total GULP energy -78366.145287 kJ/mol
# GULP energy per Si atom -5597.581806 kJ/mol
# Density = 2.503099 g / cm^3
# Si number density = 25.088094 Si / 1000 Ang^3
#
#
#
# Elastic Constant Matrix: (Units=GPa)
#
#
# Indices 1 2 3 4 5 6 
#
# 1 99.8294 20.6255 23.7372 -8.4386 19.1557 -0.1163
# 2 20.6255 92.0236 19.4479 19.4766 12.6769 2.5592
# 3 23.7372 19.4479 77.7091 -4.6771 17.4133 -8.5953
# 4 -8.4386 19.4766 -4.6771 37.4891 -4.4850 3.9449
# 5 19.1557 12.6769 17.4133 -4.4850 41.3489 -7.2943
# 6 -0.1163 2.5592 -8.5953 3.9449 -7.2943 33.2155
#
#
#
# Elastic Compliance Matrix: (Units=1/GPa)
#
#
# Indices 1 2 3 4 5 6 
#
# 1 0.012052 -0.002379 -0.002197 0.003383 -0.003842 -0.001589
# 2 -0.002379 0.014298 -0.002796 -0.008545 -0.003303 -0.001544
# 3 -0.002197 -0.002796 0.015589 0.002106 -0.003908 0.003133
# 4 0.003383 -0.008545 0.002106 0.032745 0.003377 -0.001932
# 5 -0.003842 -0.003303 -0.003908 0.003377 0.029943 0.005404
# 6 -0.001589 -0.001544 0.003133 -0.001932 0.005404 0.032447
#
#
# Mechanical properties :
#
#
# Convention : Reuss Voigt Hill
#
# Bulk Modulus (GPa) = 36.77483 44.13147 40.45315
# Shear Modulus (GPa) = 31.07840 36.12748 33.60294
#
# Velocity S-wave (km/s) = 3.52344 3.79888 3.66375
# Velocity P-wave (km/s) = 5.58954 6.07213 5.83582
#
# Compressibility (1/GPa) = 0.02719251
#
# Stress axis : x y z
#
# Youngs Moduli (GPa) = 82.97057 69.94226 64.14927
#
# Poissons Ratio (x) = 0.16642 0.14095
# Poissons Ratio (y) = 0.19742 0.17938
# Poissons Ratio (z) = 0.18231 0.19558
#
# Static dielectric constant tensor:
#      x y z
#    x 2.048990 0.002430 0.042950 
#    y 0.002430 1.969970 -0.043020 
#    z 0.042950 -0.043020 2.025830 
# 
# From -- ./inp_files/313498.got.cif
#   From: 2010.05.17/outbox.cif.g08.bks.cpg/sg2_157_cif.got.tgz:313498.got - 2010.06.03 11:33:40.
