data_PCOD9003237
_publ_section_title
;
Structure prediction by ZEFSAII (Michael W. Deem and Ramdas Pophale) SiO2 
 PCOD9003237
Probable space group: P -1
;
_chemical_formula_sum "Si O2"
_cell_formula_units_Z 16
_cell_length_a 21.069990
_cell_length_b 14.006285
_cell_length_c 9.877636
_cell_angle_alpha 122.999673
_cell_angle_beta 33.832753
_cell_angle_gamma 145.769828
_cell_volume 813.515215
_symmetry_space_group_name_H-M "P -1"
_symmetry_group_IT_number 2
_symmetry_cell_setting 'triclinic'
loop_
_space_group_symop_operation_xyz
x,y,z
-x,-y,-z
loop_
_atom_site_type_symbol
_atom_site_label
_atom_site_fract_x
_atom_site_fract_y
_atom_site_fract_z
Si Si1 0.083391 0.913116 0.279914
Si Si2 0.980343 0.609586 0.889027
Si Si3 0.237044 0.350302 0.577626
Si Si4 0.965135 0.032118 0.287749
Si Si5 0.347646 0.232915 0.836038
Si Si6 0.216465 0.782456 0.046813
Si Si7 0.165372 0.834208 0.479874
Si Si8 0.610016 0.982213 0.521487
O O1 0.153922 0.840919 0.117694
O O2 0.886765 0.756650 0.423457
O O3 0.056598 0.942598 0.498900
O O4 0.240347 0.108688 0.067837
O O5 0.911991 0.431298 0.914129
O O6 0.012492 0.644610 0.696879
O O7 0.839083 0.596042 0.174633
O O8 0.190182 0.808587 0.725932
O O9 0.462494 0.541736 0.305285
O O10 0.170883 0.186693 0.653249
O O11 0.905911 0.092661 0.350898
O O12 0.183139 0.165208 0.989928
O O13 0.404376 0.159596 0.607990
O O14 0.194999 0.803854 0.258115
O O15 0.431853 0.914467 0.742981
O O16 0.355145 0.985826 0.353316
#
# Coordination Sequence:
#
# PCOD9003237 Si02
#       8
#     2   2   2   2   2   2   2   2
#     4  10  23  38  60  84 118 147 187 237 285 331
#     4  10  21  37  59  83 116 152 185 231 283 331
#     4  11  21  39  59  85 116 149 191 233 281 338
#     4  10  21  41  59  86 113 149 188 236 287 332
#     4  11  21  39  59  85 116 149 191 233 281 338
#     4  11  21  39  59  88 112 152 191 228 283 343
#     4   9  21  40  60  82 121 146 184 241 281 330
#     4  10  21  37  59  83 116 152 185 231 283 331
#
# _framework density 19.667733999999999
#
# number of rings (size 3 to 8) (size 9 to 14) (size 15 to 20)
#    0.750    1.000    3.750    2.250    0.000    6.000 
#    2.250    3.750    0.000    0.000    0.000    0.000 
#    0.000    0.000    0.000    0.000    0.000    0.000 
#
# Total GULP energy -89283.061354 kJ/mol
# GULP energy per Si atom -5580.191335 kJ/mol
# Density = 1.962297 g / cm^3
# Si number density = 19.667734 Si / 1000 Ang^3
#
#
#
# Elastic Constant Matrix: (Units=GPa)
#
#
# Indices 1 2 3 4 5 6 
#
# 1 38.5877 22.7939 7.5401 -7.3771 -9.0719 -12.3542
# 2 22.7939 76.8658 76.6864 -17.8369 -38.2821 -7.5125
# 3 7.5401 76.6864 55.0021 -15.7909 -4.2505 -17.5091
# 4 -7.3771 -17.8369 -15.7909 48.3416 4.6104 -3.2865
# 5 -9.0719 -38.2821 -4.2505 4.6104 25.0685 21.7262
# 6 -12.3542 -7.5125 -17.5091 -3.2865 21.7262 28.1093
#
#
#
# Elastic Compliance Matrix: (Units=1/GPa)
#
#
# Indices 1 2 3 4 5 6 
#
# 1 0.029352 0.002400 -0.004872 0.002935 0.010656 0.002614
# 2 0.002400 -0.001065 0.007753 0.005567 -0.017826 0.020028
# 3 -0.004872 0.007753 0.004710 0.000105 0.025331 -0.016702
# 4 0.002935 0.005567 0.000105 0.023404 0.001339 0.004544
# 5 0.010656 -0.017826 0.025331 0.001339 0.020700 -0.000145
# 6 0.002614 0.020028 -0.016702 0.004544 -0.000145 0.032317
#
#
# Mechanical properties :
#
#
# Convention : Reuss Voigt Hill
#
# Bulk Modulus (GPa) = 22.95711 42.72182 32.83947
# Shear Modulus (GPa) = 44.10128 24.53287 34.31707
#
# Velocity S-wave (km/s) = 4.74045 3.53564 4.18166
# Velocity P-wave (km/s) = 6.45448 6.19973 6.32838
#
# Compressibility (1/GPa) = 0.04355949
#
# Stress axis : x y z
#
# Youngs Moduli (GPa) = 34.06867 -938.61059 212.29606
#
# Poissons Ratio (x) = 2.25279 1.03432
# Poissons Ratio (y) = -0.08177 -1.64591
# Poissons Ratio (z) = 0.16598 7.27697
#
# Static dielectric constant tensor:
#      x y z
#    x 1.695660 0.015510 0.020640 
#    y 0.015510 1.676680 0.012100 
#    z 0.020640 0.012100 1.683740 
# 
# From -- ./inp_files/438913.got.cif
#   From: 2010.05.17/outbox.cif.g08.bks.cpg/sg2_220_cif.got.tgz:438913.got - 2010.06.03 11:33:40.
