data_PCOD9003617
_publ_section_title
;
Structure prediction by ZEFSAII (Michael W. Deem and Ramdas Pophale) SiO2 
 PCOD9003617
Probable space group: P -1
;
_chemical_formula_sum "Si O2"
_cell_formula_units_Z 16
_cell_length_a 7.593375
_cell_length_b 23.064818
_cell_length_c 12.361564
_cell_angle_alpha 152.558577
_cell_angle_beta 142.274301
_cell_angle_gamma 48.564491
_cell_volume 604.260019
_symmetry_space_group_name_H-M "P -1"
_symmetry_group_IT_number 2
_symmetry_cell_setting 'triclinic'
loop_
_space_group_symop_operation_xyz
x,y,z
-x,-y,-z
loop_
_atom_site_type_symbol
_atom_site_label
_atom_site_fract_x
_atom_site_fract_y
_atom_site_fract_z
Si Si1 0.055256 0.654406 0.504428
Si Si2 0.228519 0.179566 0.109243
Si Si3 0.732655 0.889842 0.210498
Si Si4 0.240004 0.468777 0.651694
Si Si5 0.232783 0.095694 0.201733
Si Si6 0.784757 0.669307 0.191269
Si Si7 0.345120 0.361273 0.158201
Si Si8 0.577729 0.110582 0.593321
O O1 0.354583 0.699156 0.785351
O O2 0.898076 0.537771 0.305970
O O3 0.873004 0.768225 0.617141
O O4 0.050889 0.646498 0.359586
O O5 0.315578 0.328692 0.427052
O O6 0.253711 0.084870 0.065023
O O7 0.405820 0.139408 0.024633
O O8 0.885498 0.167510 0.888815
O O9 0.568409 0.956573 0.337764
O O10 0.843612 0.754441 0.064261
O O11 0.000000 0.000000 0.500000
O O12 0.000000 0.500000 0.500000
O O13 0.510755 0.577515 0.955798
O O14 0.526066 0.114189 0.443816
O O15 0.000000 0.000000 0.000000
O O16 0.677723 0.808778 0.361136
O O17 0.803356 0.626122 0.006298
O O18 0.500000 0.500000 0.500000
#
# Coordination Sequence:
#
# PCOD9003617 Si02
#       8
#     2   2   2   2   2   2   2   2
#     4  10  23  37  60  96 122 159 216 259 317 386
#     4  10  21  39  58  88 125 161 208 257 312 372
#     4  10  24  41  62  92 126 170 218 258 317 389
#     4  11  18  37  66  91 125 167 206 262 319 375
#     4  10  21  37  61  89 118 156 204 257 312 375
#     4  11  22  39  64  93 125 165 209 269 319 373
#     4  12  25  43  65  90 129 172 212 264 326 381
#     4  10  21  38  61  87 119 158 205 255 312 368
#
# _framework density 26.478667000000002
#
# number of rings (size 3 to 8) (size 9 to 14) (size 15 to 20)
#    0.000    1.500    2.500    2.625    0.000    6.000 
#    0.000    2.500    0.000    0.000    0.000    0.000 
#    0.000    0.000    0.000    0.000    0.000    0.000 
#
# Total GULP energy -89198.826232 kJ/mol
# GULP energy per Si atom -5574.926639 kJ/mol
# Density = 2.641840 g / cm^3
# Si number density = 26.478667 Si / 1000 Ang^3
#
#
#
# Elastic Constant Matrix: (Units=GPa)
#
#
# Indices 1 2 3 4 5 6 
#
# 1 57.4040 26.1431 32.7082 2.5301 -3.3013 20.2535
# 2 26.1431 128.6880 36.6730 5.4785 1.8042 28.1320
# 3 32.7082 36.6730 130.1087 31.4393 -5.7118 17.8584
# 4 2.5301 5.4785 31.4393 53.9587 0.1626 -9.4525
# 5 -3.3013 1.8042 -5.7118 0.1626 52.5286 -0.3973
# 6 20.2535 28.1320 17.8584 -9.4525 -0.3973 53.2349
#
#
#
# Elastic Compliance Matrix: (Units=1/GPa)
#
#
# Indices 1 2 3 4 5 6 
#
# 1 0.023112 -0.002139 -0.004508 0.000702 0.000988 -0.006019
# 2 -0.002139 0.009503 -0.001481 -0.000672 -0.000649 -0.003836
# 3 -0.004508 -0.001481 0.011207 -0.006596 0.000988 -0.002426
# 4 0.000702 -0.000672 -0.006596 0.023548 -0.000674 0.006477
# 5 0.000988 -0.000649 0.000988 -0.000674 0.019229 -0.000341
# 6 -0.006019 -0.003836 -0.002426 0.006477 -0.000341 0.025063
#
#
# Mechanical properties :
#
#
# Convention : Reuss Voigt Hill
#
# Bulk Modulus (GPa) = 36.27372 56.36105 46.31738
# Shear Modulus (GPa) = 36.46848 46.65617 41.56233
#
# Velocity S-wave (km/s) = 3.71520 4.20221 3.96618
# Velocity P-wave (km/s) = 5.66856 6.69898 6.20520
#
# Compressibility (1/GPa) = 0.02756817
#
# Stress axis : x y z
#
# Youngs Moduli (GPa) = 43.26712 105.22545 89.23357
#
# Poissons Ratio (x) = 0.22505 0.40223
# Poissons Ratio (y) = 0.09254 0.13212
# Poissons Ratio (z) = 0.19503 0.15580
#
# Static dielectric constant tensor:
#      x y z
#    x 2.434730 0.066530 0.011160 
#    y 0.066530 2.289450 0.122080 
#    z 0.011160 0.122080 2.418160 
# 
# From -- ./inp_files/405748.got.cif
#   From: 2010.05.17/outbox.cif.g08.bks.cpg/sg2_203_cif.got.tgz:405748.got - 2010.06.03 11:33:40.
