data_PCOD9003649
_publ_section_title
;
Structure prediction by ZEFSAII (Michael W. Deem and Ramdas Pophale) SiO2 
 PCOD9003649
Probable space group: P -1
;
_chemical_formula_sum "Si O2"
_cell_formula_units_Z 14
_cell_length_a 7.013645
_cell_length_b 10.440074
_cell_length_c 25.418142
_cell_angle_alpha 31.535308
_cell_angle_beta 140.018236
_cell_angle_gamma 119.923891
_cell_volume 555.716574
_symmetry_space_group_name_H-M "P -1"
_symmetry_group_IT_number 2
_symmetry_cell_setting 'triclinic'
loop_
_space_group_symop_operation_xyz
x,y,z
-x,-y,-z
loop_
_atom_site_type_symbol
_atom_site_label
_atom_site_fract_x
_atom_site_fract_y
_atom_site_fract_z
Si Si1 0.260713 0.046781 0.616288
Si Si2 0.702713 0.053345 0.958945
Si Si3 0.318370 0.663600 0.680909
Si Si4 0.911695 0.284004 0.216364
Si Si5 0.394708 0.911460 0.858338
Si Si6 0.608132 0.666907 0.369815
Si Si7 0.137961 0.459680 0.297318
O O1 0.423770 0.221887 0.616486
O O2 0.878087 0.246949 0.447045
O O3 0.433029 0.863410 0.665608
O O4 0.252378 0.840807 0.731984
O O5 0.598596 0.353539 0.853348
O O6 0.379730 0.067439 0.854778
O O7 0.000000 0.000000 0.000000
O O8 0.855521 0.779814 0.121551
O O9 0.018313 0.682033 0.648577
O O10 0.917032 0.108186 0.227569
O O11 0.186698 0.319220 0.298692
O O12 0.666629 0.598870 0.037976
O O13 0.520471 0.067934 0.788694
O O14 0.442548 0.478483 0.382735
O O15 0.000000 0.500000 0.500000
#
# Coordination Sequence:
#
# PCOD9003649 Si02
#       7
#     2   2   2   2   2   2   2
#     4   9  20  38  61  82 122 165 193 243 303 358
#     4  11  20  35  65  93 118 156 202 247 299 355
#     4  10  21  40  62  84 125 161 198 244 301 364
#     4   8  17  34  60  83 118 154 195 243 294 354
#     4   9  17  34  58  87 118 155 189 251 294 348
#     4  11  21  36  62  91 123 156 202 254 301 352
#     4  10  21  37  61  91 118 159 202 244 301 362
#
# _framework density 25.192698
#
# number of rings (size 3 to 8) (size 9 to 14) (size 15 to 20)
#    0.000    2.286    1.429    1.286    0.000    0.571 
#    0.000    7.143   28.286    0.000    0.000    0.000 
#    0.000    0.000    0.000    0.000    0.000    0.000 
#
# Total GULP energy -78116.901879 kJ/mol
# GULP energy per Si atom -5579.778706 kJ/mol
# Density = 2.513536 g / cm^3
# Si number density = 25.192698 Si / 1000 Ang^3
#
#
#
# Elastic Constant Matrix: (Units=GPa)
#
#
# Indices 1 2 3 4 5 6 
#
# 1 30.5329 20.8550 14.7886 14.0766 -5.1110 -1.3023
# 2 20.8550 196.4611 18.9609 51.5912 20.8198 -18.3406
# 3 14.7886 18.9609 80.7160 8.1865 -12.2837 -5.3065
# 4 14.0766 51.5912 8.1865 47.6619 4.3589 -2.9054
# 5 -5.1110 20.8198 -12.2837 4.3589 29.1543 -3.1585
# 6 -1.3023 -18.3406 -5.3065 -2.9054 -3.1585 42.8501
#
#
#
# Elastic Compliance Matrix: (Units=1/GPa)
#
#
# Indices 1 2 3 4 5 6 
#
# 1 0.042832 -0.002374 -0.004996 -0.010029 0.008557 -0.000382
# 2 -0.002374 0.008198 -0.001440 -0.007276 -0.005534 0.002357
# 3 -0.004996 -0.001440 0.014737 0.000000 0.006529 0.001538
# 4 -0.010029 -0.007276 0.000000 0.031870 -0.001475 -0.001367
# 5 0.008557 -0.005534 0.006529 -0.001475 0.042915 0.001763
# 6 -0.000382 0.002357 0.001538 -0.001367 0.001763 0.024562
#
#
# Mechanical properties :
#
#
# Convention : Reuss Voigt Hill
#
# Bulk Modulus (GPa) = 20.76902 46.32434 33.54668
# Shear Modulus (GPa) = 25.15290 40.80695 32.97993
#
# Velocity S-wave (km/s) = 3.16321 4.02903 3.62208
# Velocity P-wave (km/s) = 4.64792 6.33025 5.55316
#
# Compressibility (1/GPa) = 0.04814864
#
# Stress axis : x y z
#
# Youngs Moduli (GPa) = 23.34697 121.97701 67.85426
#
# Poissons Ratio (x) = 0.28952 0.33898
# Poissons Ratio (y) = 0.05541 0.09773
# Poissons Ratio (z) = 0.11664 0.17568
#
# Static dielectric constant tensor:
#      x y z
#    x 2.063580 -0.016890 -0.030260 
#    y -0.016890 2.088370 0.045260 
#    z -0.030260 0.045260 1.991880 
# 
# From -- ./inp_files/239705.got.cif
#   From: 2010.05.17/outbox.cif.g08.bks.cpg/sg2_120_cif.got.tgz:239705.got - 2010.06.03 11:33:40.
