data_PCOD9003368
_publ_section_title
;
Structure prediction by ZEFSAII (Michael W. Deem and Ramdas Pophale) SiO2 
 PCOD9003368
Probable space group: P -1
;
_chemical_formula_sum "Si O2"
_cell_formula_units_Z 16
_cell_length_a 16.468886
_cell_length_b 8.484204
_cell_length_c 8.001408
_cell_angle_alpha 56.033393
_cell_angle_beta 91.230090
_cell_angle_gamma 124.093209
_cell_volume 695.161302
_symmetry_space_group_name_H-M "P -1"
_symmetry_group_IT_number 2
_symmetry_cell_setting 'triclinic'
loop_
_space_group_symop_operation_xyz
x,y,z
-x,-y,-z
loop_
_atom_site_type_symbol
_atom_site_label
_atom_site_fract_x
_atom_site_fract_y
_atom_site_fract_z
Si Si1 0.656459 0.219445 0.219663
Si Si2 0.690928 0.058349 0.642682
Si Si3 0.135522 0.412790 0.169815
Si Si4 0.065845 0.425801 0.625531
Si Si5 0.591624 0.528834 0.884797
Si Si6 0.893602 0.893247 0.387786
Si Si7 0.437712 0.100825 0.918849
Si Si8 0.918042 0.275389 0.997505
O O1 0.633054 0.101496 0.472898
O O2 0.613545 0.362792 0.079838
O O3 0.786727 0.443754 0.068562
O O4 0.618454 0.010845 0.197776
O O5 0.814392 0.313860 0.494836
O O6 0.641121 0.002536 0.860551
O O7 0.685669 0.830734 0.717692
O O8 0.178517 0.309452 0.349471
O O9 0.138336 0.623001 0.134757
O O10 0.010994 0.158016 0.291623
O O11 0.076663 0.244403 0.637783
O O12 0.000000 0.500000 0.500000
O O13 0.993570 0.279961 0.871737
O O14 0.534275 0.400566 0.780011
O O15 0.500000 0.500000 0.000000
O O16 0.841897 0.997155 0.237457
O O17 0.500000 0.000000 0.000000
O O18 0.000000 0.500000 0.000000
#
# Coordination Sequence:
#
# PCOD9003368 Si02
#       8
#     2   2   2   2   2   2   2   2
#     4  11  23  41  70  96 134 169 221 271 336 404
#     4  11  24  43  67  96 135 175 221 272 334 390
#     4  10  21  37  59  92 122 174 216 262 321 371
#     4  12  24  40  62  95 136 180 224 275 320 386
#     4   9  22  43  67  98 128 166 212 274 342 402
#     4  10  21  38  59  82 130 174 215 268 314 368
#     4   9  21  43  68  99 127 161 215 278 334 403
#     4  10  21  38  58  85 123 169 226 257 316 386
#
# _framework density 23.016241999999998
#
# number of rings (size 3 to 8) (size 9 to 14) (size 15 to 20)
#    0.000    1.750    1.250    2.625    1.750    6.000 
#    0.000    3.750    0.000    0.000    0.000    0.000 
#    0.000    0.000    0.000    0.000    0.000    0.000 
#
# Total GULP energy -89146.814712 kJ/mol
# GULP energy per Si atom -5571.675920 kJ/mol
# Density = 2.296386 g / cm^3
# Si number density = 23.016242 Si / 1000 Ang^3
#
#
#
# Elastic Constant Matrix: (Units=GPa)
#
#
# Indices 1 2 3 4 5 6 
#
# 1 60.6242 31.2391 17.5172 -9.7287 13.9249 -9.1668
# 2 31.2391 111.2504 45.9849 -18.4275 24.5256 -13.4573
# 3 17.5172 45.9849 111.9352 -11.7319 26.1669 -14.7929
# 4 -9.7287 -18.4275 -11.7319 37.4827 -10.3698 9.3662
# 5 13.9249 24.5256 26.1669 -10.3698 35.6175 -3.1010
# 6 -9.1668 -13.4573 -14.7929 9.3662 -3.1010 35.4447
#
#
#
# Elastic Compliance Matrix: (Units=1/GPa)
#
#
# Indices 1 2 3 4 5 6 
#
# 1 0.020309 -0.004189 0.000126 0.001253 -0.004523 0.002988
# 2 -0.004189 0.013041 -0.003290 0.002846 -0.003975 0.001395
# 3 0.000126 -0.003290 0.012211 -0.000439 -0.006585 0.003420
# 4 0.001253 0.002846 -0.000439 0.031720 0.006534 -0.006589
# 5 -0.004523 -0.003975 -0.006585 0.006534 0.038996 -0.003742
# 6 0.002988 0.001395 0.003420 -0.006589 -0.003742 0.032356
#
#
# Mechanical properties :
#
#
# Convention : Reuss Voigt Hill
#
# Bulk Modulus (GPa) = 32.40877 52.58799 42.49838
# Shear Modulus (GPa) = 28.79782 34.31356 31.55569
#
# Velocity S-wave (km/s) = 3.54106 3.86533 3.70674
# Velocity P-wave (km/s) = 5.55250 6.54361 6.06832
#
# Compressibility (1/GPa) = 0.03085585
#
# Stress axis : x y z
#
# Youngs Moduli (GPa) = 49.23955 76.67865 81.89428
#
# Poissons Ratio (x) = 0.32118 -0.01033
# Poissons Ratio (y) = 0.20625 0.26945
# Poissons Ratio (z) = -0.00621 0.25229
#
# Static dielectric constant tensor:
#      x y z
#    x 2.008780 0.011670 0.074450 
#    y 0.011670 1.942340 0.058890 
#    z 0.074450 0.058890 2.055690 
# 
# From -- ./inp_files/325599.got.cif
#   From: 2010.05.17/outbox.cif.g08.bks.cpg/sg2_163_cif.got.tgz:325599.got - 2010.06.03 11:33:40.
