data_PCOD9003117
_publ_section_title
;
Structure prediction by ZEFSAII (Michael W. Deem and Ramdas Pophale) SiO2 
 PCOD9003117
Probable space group: P -1
;
_chemical_formula_sum "Si O2"
_cell_formula_units_Z 16
_cell_length_a 12.200179
_cell_length_b 9.662567
_cell_length_c 8.741688
_cell_angle_alpha 86.540358
_cell_angle_beta 88.777536
_cell_angle_gamma 58.244599
_cell_volume 874.586109
_symmetry_space_group_name_H-M "P -1"
_symmetry_group_IT_number 2
_symmetry_cell_setting 'triclinic'
loop_
_space_group_symop_operation_xyz
x,y,z
-x,-y,-z
loop_
_atom_site_type_symbol
_atom_site_label
_atom_site_fract_x
_atom_site_fract_y
_atom_site_fract_z
Si Si1 0.976513 0.590701 0.155451
Si Si2 0.769455 0.650716 0.668674
Si Si3 0.473739 0.705001 0.346613
Si Si4 0.545063 0.594406 0.700837
Si Si5 0.702952 0.966866 0.824515
Si Si6 0.295082 0.244983 0.685245
Si Si7 0.911789 0.927891 0.035748
Si Si8 0.361389 0.920230 0.852531
O O1 0.083218 0.469667 0.280079
O O2 0.830848 0.661320 0.211197
O O3 0.986493 0.748874 0.117720
O O4 0.000000 0.500000 0.000000
O O5 0.687429 0.565307 0.699918
O O6 0.750303 0.712808 0.491359
O O7 0.709472 0.809731 0.767629
O O8 0.486974 0.666561 0.529365
O O9 0.457353 0.569203 0.271576
O O10 0.356176 0.885430 0.301835
O O11 0.602513 0.701289 0.294062
O O12 0.459251 0.736904 0.813351
O O13 0.620103 0.035440 0.978453
O O14 0.844700 0.917999 0.881807
O O15 0.361453 0.052671 0.731679
O O16 0.785710 0.039979 0.137436
O O17 0.000000 0.000000 0.000000
#
# Coordination Sequence:
#
# PCOD9003117 Si02
#       8
#     2   2   2   2   2   2   2   2
#     4  11  21  39  58  84 112 148 187 235 271 328
#     4  11  21  36  61  82 112 153 186 227 278 334
#     4  10  22  38  57  83 117 147 183 233 284 332
#     4  10  22  38  56  85 116 146 185 233 282 331
#     4  10  21  37  58  84 108 149 187 230 279 327
#     4  10  21  38  58  83 114 148 188 228 276 338
#     4   9  21  38  56  81 115 147 182 233 280 327
#     4   9  20  37  57  83 110 146 187 233 273 327
#
# _framework density 18.294367999999999
#
# number of rings (size 3 to 8) (size 9 to 14) (size 15 to 20)
#    0.750    1.250    1.250    1.875    1.750    6.500 
#    0.000    0.000    0.000    2.250    0.000    0.000 
#    0.000    0.000    0.000    0.000    0.000    0.000 
#
# Total GULP energy -89237.009886 kJ/mol
# GULP energy per Si atom -5577.313118 kJ/mol
# Density = 1.825273 g / cm^3
# Si number density = 18.294368 Si / 1000 Ang^3
#
#
#
# Elastic Constant Matrix: (Units=GPa)
#
#
# Indices 1 2 3 4 5 6 
#
# 1 61.5058 19.0586 16.8990 -0.9003 -1.0410 27.7902
# 2 19.0586 63.5950 3.5461 -0.8553 1.1979 8.4611
# 3 16.8990 3.5461 36.9820 5.2912 4.0088 7.9013
# 4 -0.9003 -0.8553 5.2912 35.0554 -5.5191 1.0632
# 5 -1.0410 1.1979 4.0088 -5.5191 25.8087 -5.3597
# 6 27.7902 8.4611 7.9013 1.0632 -5.3597 29.4237
#
#
#
# Elastic Compliance Matrix: (Units=1/GPa)
#
#
# Indices 1 2 3 4 5 6 
#
# 1 0.032842 -0.005613 -0.008691 0.002499 -0.002256 -0.027572
# 2 -0.005613 0.017398 0.001093 -0.000077 -0.001266 -0.000223
# 3 -0.008691 0.001093 0.033041 -0.006271 -0.007307 -0.002082
# 4 0.002499 -0.000077 -0.006271 0.030739 0.007572 -0.000386
# 5 -0.002256 -0.001266 -0.007307 0.007572 0.044002 0.012199
# 6 -0.027572 -0.000223 -0.002082 -0.000386 0.012199 0.062887
#
#
# Mechanical properties :
#
#
# Convention : Reuss Voigt Hill
#
# Bulk Modulus (GPa) = 17.58772 26.78779 22.18776
# Shear Modulus (GPa) = 18.77682 26.22952 22.50317
#
# Velocity S-wave (km/s) = 3.20718 3.79060 3.51103
# Velocity P-wave (km/s) = 4.83211 5.81658 5.34705
#
# Compressibility (1/GPa) = 0.05685786
#
# Stress axis : x y z
#
# Youngs Moduli (GPa) = 30.44852 57.47701 30.26535
#
# Poissons Ratio (x) = 0.32263 0.26304
# Poissons Ratio (y) = 0.17092 -0.03307
# Poissons Ratio (z) = 0.26464 -0.06280
#
# Static dielectric constant tensor:
#      x y z
#    x 1.624370 -0.006310 0.003300 
#    y -0.006310 1.606600 -0.006380 
#    z 0.003300 -0.006380 1.636660 
# 
# From -- ./inp_files/216752.got.cif
#   From: 2010.05.17/outbox.cif.g08.bks.cpg/sg2_109_cif.got.tgz:216752.got - 2010.06.03 11:33:40.
