data_PCOD9003793
_publ_section_title
;
Structure prediction by ZEFSAII (Michael W. Deem and Ramdas Pophale) SiO2 
 PCOD9003793
Probable space group: P -1
;
_chemical_formula_sum "Si O2"
_cell_formula_units_Z 16
_cell_length_a 6.383224
_cell_length_b 12.549717
_cell_length_c 23.765033
_cell_angle_alpha 28.464325
_cell_angle_beta 126.034290
_cell_angle_gamma 131.455412
_cell_volume 679.931376
_symmetry_space_group_name_H-M "P -1"
_symmetry_group_IT_number 2
_symmetry_cell_setting 'triclinic'
loop_
_space_group_symop_operation_xyz
x,y,z
-x,-y,-z
loop_
_atom_site_type_symbol
_atom_site_label
_atom_site_fract_x
_atom_site_fract_y
_atom_site_fract_z
Si Si1 0.134876 0.519650 0.451097
Si Si2 0.671035 0.256961 0.939269
Si Si3 0.408106 0.637683 0.748983
Si Si4 0.686170 0.931566 0.324798
Si Si5 0.274119 0.051879 0.555702
Si Si6 0.312035 0.423870 0.949825
Si Si7 0.829254 0.490712 0.665421
Si Si8 0.453130 0.944171 0.865642
O O1 0.360313 0.794603 0.353625
O O2 0.238652 0.296817 0.572667
O O3 0.024169 0.485772 0.384208
O O4 0.000000 0.500000 0.500000
O O5 0.528843 0.458038 0.819757
O O6 0.992411 0.390609 0.912388
O O7 0.500000 0.000000 0.000000
O O8 0.690214 0.180028 0.042799
O O9 0.462251 0.596138 0.841868
O O10 0.079625 0.545866 0.723591
O O11 0.478526 0.928216 0.619882
O O12 0.820691 0.049767 0.349331
O O13 0.730013 0.099435 0.199860
O O14 0.352062 0.338129 0.441585
O O15 0.000000 0.000000 0.500000
O O16 0.500000 0.500000 0.000000
O O17 0.307167 0.159370 0.058403
O O18 0.604107 0.228102 0.762846
#
# Coordination Sequence:
#
# PCOD9003793 Si02
#       8
#     2   2   2   2   2   2   2   2
#     4   9  18  32  54  82 116 155 196 243 298 361
#     4  11  24  41  66  96 123 162 217 264 314 379
#     4  10  21  39  62  87 124 167 209 259 315 375
#     4   9  18  34  54  82 115 152 198 246 298 360
#     4   9  18  36  61  85 120 166 203 246 310 377
#     4  11  24  42  64  92 128 167 208 262 322 377
#     4   9  18  36  61  91 126 165 208 259 317 374
#     4  10  21  37  62  90 123 161 205 261 318 372
#
# _framework density 23.531786
#
# number of rings (size 3 to 8) (size 9 to 14) (size 15 to 20)
#    0.000    2.250    0.000    3.000    0.000    7.000 
#    0.000    7.500    0.000   11.250    0.000    0.000 
#    0.000    0.000    0.000    0.000    0.000    0.000 
#
# Total GULP energy -89102.631427 kJ/mol
# GULP energy per Si atom -5568.914464 kJ/mol
# Density = 2.347823 g / cm^3
# Si number density = 23.531786 Si / 1000 Ang^3
#
#
#
# Elastic Constant Matrix: (Units=GPa)
#
#
# Indices 1 2 3 4 5 6 
#
# 1 54.5929 19.5793 23.9459 -9.1723 7.2602 -15.4893
# 2 19.5793 98.7992 28.5680 15.9698 4.0792 -15.7352
# 3 23.9459 28.5680 137.6561 -12.2302 26.0510 -17.7589
# 4 -9.1723 15.9698 -12.2302 57.2258 -18.9637 0.6593
# 5 7.2602 4.0792 26.0510 -18.9637 39.3227 0.7069
# 6 -15.4893 -15.7352 -17.7589 0.6593 0.7069 24.2475
#
#
#
# Elastic Compliance Matrix: (Units=1/GPa)
#
#
# Indices 1 2 3 4 5 6 
#
# 1 0.024414 -0.002970 -0.001340 0.003734 -0.001738 0.012636
# 2 -0.002970 0.012996 -0.001443 -0.005307 -0.002506 0.005697
# 3 -0.001340 -0.001443 0.009653 0.000200 -0.005999 0.005447
# 4 0.003734 -0.005307 0.000200 0.023256 0.010978 -0.001865
# 5 -0.001738 -0.002506 -0.005999 0.010978 0.035432 -0.008462
# 6 0.012636 0.005697 0.005447 -0.001865 -0.008462 0.057297
#
#
# Mechanical properties :
#
#
# Convention : Reuss Voigt Hill
#
# Bulk Modulus (GPa) = 28.12328 48.35939 38.24134
# Shear Modulus (GPa) = 26.82318 38.75619 32.78969
#
# Velocity S-wave (km/s) = 3.37986 4.06269 3.73691
# Velocity P-wave (km/s) = 5.21617 6.52707 5.90809
#
# Compressibility (1/GPa) = 0.03555773
#
# Stress axis : x y z
#
# Youngs Moduli (GPa) = 40.96027 76.94707 103.59684
#
# Poissons Ratio (x) = 0.22854 0.13878
# Poissons Ratio (y) = 0.12166 0.14946
# Poissons Ratio (z) = 0.05487 0.11101
#
# Static dielectric constant tensor:
#      x y z
#    x 1.964670 -0.043340 -0.008120 
#    y -0.043340 2.036060 -0.040880 
#    z -0.008120 -0.040880 1.924130 
# 
# From -- ./inp_files/604434.got.cif
#   From: 2010.05.17/outbox.cif.g08.bks.cpg/sg2_303_cif.got.tgz:604434.got - 2010.06.03 11:33:40.
