data_PCOD9003768
_publ_section_title
;
Structure prediction by ZEFSAII (Michael W. Deem and Ramdas Pophale) SiO2 
 PCOD9003768
Probable space group: P -1
;
_chemical_formula_sum "Si O2"
_cell_formula_units_Z 16
_cell_length_a 13.036058
_cell_length_b 7.085075
_cell_length_c 16.963417
_cell_angle_alpha 88.226922
_cell_angle_beta 27.484861
_cell_angle_gamma 103.865503
_cell_volume 589.264563
_symmetry_space_group_name_H-M "P -1"
_symmetry_group_IT_number 2
_symmetry_cell_setting 'triclinic'
loop_
_space_group_symop_operation_xyz
x,y,z
-x,-y,-z
loop_
_atom_site_type_symbol
_atom_site_label
_atom_site_fract_x
_atom_site_fract_y
_atom_site_fract_z
Si Si1 0.345365 0.506611 0.363459
Si Si2 0.732560 0.950189 0.624753
Si Si3 0.004077 0.079247 0.222869
Si Si4 0.606045 0.194262 0.816058
Si Si5 0.984871 0.764102 0.944292
Si Si6 0.886874 0.298025 0.984587
Si Si7 0.813263 0.583402 0.781895
Si Si8 0.724219 0.601502 0.415748
O O1 0.298850 0.647039 0.329597
O O2 0.669345 0.633767 0.141626
O O3 0.301181 0.532886 0.485831
O O4 0.230178 0.255758 0.407797
O O5 0.661986 0.004593 0.758860
O O6 0.989082 0.185257 0.408476
O O7 0.437474 0.846326 0.788242
O O8 0.062854 0.311375 0.218097
O O9 0.293682 0.112967 0.037957
O O10 0.887788 0.054267 0.214629
O O11 0.770658 0.831374 0.420490
O O12 0.777536 0.358803 0.770727
O O13 0.039661 0.568994 0.896080
O O14 0.040092 0.819711 0.997429
O O15 0.002911 0.304285 0.820592
O O16 0.500000 0.500000 0.000000
O O17 0.500000 0.500000 0.500000
#
# Coordination Sequence:
#
# PCOD9003768 Si02
#       8
#     2   2   2   2   2   2   2   2
#     4  10  22  39  63  95 130 168 209 261 309 374
#     4  11  21  40  65  91 128 163 209 265 312 372
#     4  10  21  40  63  89 129 167 206 262 317 366
#     4  10  22  41  67  93 123 170 216 255 320 377
#     4   9  20  39  61  90 123 171 212 249 312 381
#     4  10  21  37  62  88 128 166 210 258 306 378
#     4  10  22  41  67  91 124 163 212 269 316 371
#     4  12  22  38  59  91 131 163 206 255 310 370
#
# _framework density 27.152491000000001
#
# number of rings (size 3 to 8) (size 9 to 14) (size 15 to 20)
#    0.000    1.750    3.750    0.375    0.000    3.000 
#    0.000    1.250    0.000    5.250    0.000    0.000 
#    0.000    0.000    0.000    0.000    0.000    0.000 
#
# Total GULP energy -89387.629100 kJ/mol
# GULP energy per Si atom -5586.726819 kJ/mol
# Density = 2.709069 g / cm^3
# Si number density = 27.152491 Si / 1000 Ang^3
#
#
#
# Elastic Constant Matrix: (Units=GPa)
#
#
# Indices 1 2 3 4 5 6 
#
# 1 105.0650 10.9599 3.3587 5.1517 -0.7504 17.1118
# 2 10.9599 130.9508 11.9077 6.7891 2.2478 23.0738
# 3 3.3587 11.9077 90.5694 2.5302 -4.0079 -2.9524
# 4 5.1517 6.7891 2.5302 35.4383 7.9006 4.3171
# 5 -0.7504 2.2478 -4.0079 7.9006 33.6317 7.9772
# 6 17.1118 23.0738 -2.9524 4.3171 7.9772 35.0769
#
#
#
# Elastic Compliance Matrix: (Units=1/GPa)
#
#
# Indices 1 2 3 4 5 6 
#
# 1 0.010488 0.000172 -0.000479 -0.001245 0.001767 -0.005519
# 2 0.000172 0.008856 -0.001296 -0.001100 0.000963 -0.006102
# 3 -0.000479 -0.001296 0.011373 -0.000996 0.001217 0.001889
# 4 -0.001245 -0.001100 -0.000996 0.030349 -0.006989 -0.000898
# 5 0.001767 0.000963 0.001217 -0.006989 0.033425 -0.008135
# 6 -0.005519 -0.006102 0.001889 -0.000898 -0.008135 0.037334
#
#
# Mechanical properties :
#
#
# Convention : Reuss Voigt Hill
#
# Bulk Modulus (GPa) = 36.34884 42.11530 39.23207
# Shear Modulus (GPa) = 34.67420 40.85331 37.76375
#
# Velocity S-wave (km/s) = 3.57741 3.88311 3.73339
# Velocity P-wave (km/s) = 5.52086 5.97068 5.75017
#
# Compressibility (1/GPa) = 0.02751119
#
# Stress axis : x y z
#
# Youngs Moduli (GPa) = 95.34979 112.92265 87.93008
#
# Poissons Ratio (x) = -0.01946 0.04207
# Poissons Ratio (y) = -0.01643 0.11398
# Poissons Ratio (z) = 0.04563 0.14637
#
# Static dielectric constant tensor:
#      x y z
#    x 2.105210 0.031510 0.041610 
#    y 0.031510 2.224690 0.054940 
#    z 0.041610 0.054940 2.138520 
# 
# From -- ./inp_files/223059.got.cif
#   From: 2010.05.17/outbox.cif.g08.bks.cpg/sg2_112_cif.got.tgz:223059.got - 2010.06.03 11:33:40.
