data_PCOD9003818
_publ_section_title
;
Structure prediction by ZEFSAII (Michael W. Deem and Ramdas Pophale) SiO2 
 PCOD9003818
Probable space group: P -1
;
_chemical_formula_sum "Si O2"
_cell_formula_units_Z 12
_cell_length_a 11.054493
_cell_length_b 11.691704
_cell_length_c 6.718458
_cell_angle_alpha 78.191608
_cell_angle_beta 56.595354
_cell_angle_gamma 119.543199
_cell_volume 476.228963
_symmetry_space_group_name_H-M "P -1"
_symmetry_group_IT_number 2
_symmetry_cell_setting 'triclinic'
loop_
_space_group_symop_operation_xyz
x,y,z
-x,-y,-z
loop_
_atom_site_type_symbol
_atom_site_label
_atom_site_fract_x
_atom_site_fract_y
_atom_site_fract_z
Si Si1 0.775425 0.861200 0.492932
Si Si2 0.266579 0.380389 0.157945
Si Si3 0.438525 0.880325 0.286651
Si Si4 0.834187 0.743252 0.129662
Si Si5 0.184403 0.802348 0.934283
Si Si6 0.311101 0.658290 0.136992
O O1 0.862646 0.807674 0.571694
O O2 0.562319 0.791167 0.800267
O O3 0.959629 0.063361 0.210925
O O4 0.717753 0.763386 0.372495
O O5 0.287929 0.377596 0.905261
O O6 0.500000 0.500000 0.000000
O O7 0.196846 0.468605 0.248451
O O8 0.276407 0.833885 0.616999
O O9 0.661969 0.008896 0.164014
O O10 0.329746 0.706099 0.334500
O O11 0.500000 0.000000 0.000000
O O12 0.943058 0.704095 0.168081
O O13 0.214427 0.703698 0.072741
#
# Coordination Sequence:
#
# PCOD9003818 Si02
#       6
#     2   2   2   2   2   2
#     4  10  23  41  64  89 119 160 204 248 295 355
#     4  10  24  41  59  87 124 165 200 241 302 362
#     4   9  18  35  59  88 122 156 196 240 295 359
#     4  11  23  40  63  92 122 155 203 254 299 352
#     4  10  21  37  62  92 120 155 200 251 300 351
#     4  10  22  40  64  91 121 161 199 243 304 360
#
# _framework density 25.197966000000001
#
# number of rings (size 3 to 8) (size 9 to 14) (size 15 to 20)
#    0.000    2.000    0.000    3.500    0.000   16.667 
#    0.000    1.667    0.000    0.000    0.000    0.000 
#    0.000    0.000    0.000    0.000    0.000    0.000 
#
# Total GULP energy -67158.569180 kJ/mol
# GULP energy per Si atom -5596.547432 kJ/mol
# Density = 2.514061 g / cm^3
# Si number density = 25.197966 Si / 1000 Ang^3
#
#
#
# Elastic Constant Matrix: (Units=GPa)
#
#
# Indices 1 2 3 4 5 6 
#
# 1 96.7050 63.5133 16.2894 15.8488 15.2092 -7.8311
# 2 63.5133 157.9089 29.3580 40.2310 16.8774 9.2282
# 3 16.2894 29.3580 81.0748 23.8216 5.8025 5.9493
# 4 15.8488 40.2310 23.8216 57.3672 -1.4900 19.9911
# 5 15.2092 16.8774 5.8025 -1.4900 33.0433 -1.7723
# 6 -7.8311 9.2282 5.9493 19.9911 -1.7723 42.2880
#
#
#
# Elastic Compliance Matrix: (Units=1/GPa)
#
#
# Indices 1 2 3 4 5 6 
#
# 1 0.015351 -0.005406 -0.000608 -0.002005 -0.004026 0.004887
# 2 -0.005406 0.010354 -0.000866 -0.005205 -0.002926 -0.000801
# 3 -0.000608 -0.000866 0.014487 -0.005484 -0.002040 0.000545
# 4 -0.002005 -0.005205 -0.005484 0.028059 0.005192 -0.011511
# 5 -0.004026 -0.002926 -0.002040 0.005192 0.034158 -0.000843
# 6 0.004887 -0.000801 0.000545 -0.011511 -0.000843 0.030057
#
#
# Mechanical properties :
#
#
# Convention : Reuss Voigt Hill
#
# Bulk Modulus (GPa) = 37.83174 61.55669 49.69422
# Shear Modulus (GPa) = 32.25069 41.64158 36.94613
#
# Velocity S-wave (km/s) = 3.58144 4.06960 3.83330
# Velocity P-wave (km/s) = 5.66998 6.82382 6.27348
#
# Compressibility (1/GPa) = 0.02643283
#
# Stress axis : x y z
#
# Youngs Moduli (GPa) = 65.14154 96.58515 69.02690
#
# Poissons Ratio (x) = 0.52212 0.04198
# Poissons Ratio (y) = 0.35214 0.05974
# Poissons Ratio (z) = 0.03962 0.08360
#
# Static dielectric constant tensor:
#      x y z
#    x 1.985160 -0.030830 0.033460 
#    y -0.030830 2.027400 -0.062590 
#    z 0.033460 -0.062590 2.027990 
# 
# From -- ./inp_files/25211.got.cif
#   From: 2010.05.17/outbox.cif.g08.bks.cpg/sg2_13_cif.got.tgz:25211.got - 2010.06.03 11:33:40.
