data_PCOD9003976
_publ_section_title
;
Structure prediction by ZEFSAII (Michael W. Deem and Ramdas Pophale) SiO2 
 PCOD9003976
Probable space group: P -1
;
_chemical_formula_sum "Si O2"
_cell_formula_units_Z 15
_cell_length_a 10.806722
_cell_length_b 10.863226
_cell_length_c 7.405277
_cell_angle_alpha 128.844530
_cell_angle_beta 61.210909
_cell_angle_gamma 107.650886
_cell_volume 593.402375
_symmetry_space_group_name_H-M "P -1"
_symmetry_group_IT_number 2
_symmetry_cell_setting 'triclinic'
loop_
_space_group_symop_operation_xyz
x,y,z
-x,-y,-z
loop_
_atom_site_type_symbol
_atom_site_label
_atom_site_fract_x
_atom_site_fract_y
_atom_site_fract_z
Si Si1 0.086611 0.363971 0.212986
Si Si2 0.130937 0.053132 0.082365
Si Si3 0.332711 0.489649 0.575339
Si Si4 0.000000 0.000000 0.500000
Si Si5 0.406229 0.623269 0.287285
Si Si6 0.662405 0.052324 0.448032
Si Si7 0.696231 0.741875 0.325496
Si Si8 0.082621 0.663016 0.040151
O O1 0.134571 0.238989 0.212208
O O2 0.000000 0.500000 0.500000
O O3 0.972718 0.300166 0.089055
O O4 0.220758 0.367244 0.980607
O O5 0.106396 0.005496 0.258209
O O6 0.266872 0.978868 0.823266
O O7 0.000000 0.000000 0.000000
O O8 0.500000 0.500000 0.500000
O O9 0.314203 0.530604 0.414921
O O10 0.280962 0.326233 0.553523
O O11 0.246463 0.620547 0.867811
O O12 0.039671 0.809048 0.326654
O O13 0.327817 0.759604 0.354113
O O14 0.529544 0.720905 0.393899
O O15 0.500000 0.500000 0.000000
O O16 0.500000 0.000000 0.500000
O O17 0.736322 0.924763 0.417088
O O18 0.000000 0.500000 0.000000
#
# Coordination Sequence:
#
# PCOD9003976 Si02
#       8
#     2   2   2   1   2   2   2   2
#     4  11  23  40  64  99 133 179 232 284 353 419
#     4  11  23  42  68  96 137 178 224 293 348 416
#     4  10  22  42  65  95 136 180 229 287 356 417
#     4  12  26  46  70 114 142 184 250 292 366 428
#     4  10  21  37  63  91 121 170 225 278 340 410
#     4   9  20  42  64  85 129 178 220 273 350 411
#     4   9  20  40  62  87 127 173 218 282 333 414
#     4  12  24  44  73  99 142 188 232 300 356 427
#
# _framework density 25.277958000000002
#
# number of rings (size 3 to 8) (size 9 to 14) (size 15 to 20)
#    0.000    1.600    2.667    1.600    1.867    0.000 
#    4.800    0.667    0.000    0.000    0.000    0.000 
#    0.000    0.000    0.000    0.000    0.000    0.000 
#
# Total GULP energy -83544.061885 kJ/mol
# GULP energy per Si atom -5569.604126 kJ/mol
# Density = 2.522042 g / cm^3
# Si number density = 25.277958 Si / 1000 Ang^3
#
#
#
# Elastic Constant Matrix: (Units=GPa)
#
#
# Indices 1 2 3 4 5 6 
#
# 1 58.0927 10.9290 28.5934 -8.3214 -18.1428 2.0657
# 2 10.9290 218.9442 89.2553 -9.3833 5.8716 -25.0524
# 3 28.5934 89.2553 190.9179 -0.1950 -31.4880 0.0403
# 4 -8.3214 -9.3833 -0.1950 66.1408 -0.3560 -0.2503
# 5 -18.1428 5.8716 -31.4880 -0.3560 42.5244 -8.7499
# 6 2.0657 -25.0524 0.0403 -0.2503 -8.7499 35.5601
#
#
#
# Elastic Compliance Matrix: (Units=1/GPa)
#
#
# Indices 1 2 3 4 5 6 
#
# 1 0.020919 -0.000429 -0.001628 0.002610 0.007892 0.000444
# 2 -0.000429 0.006574 -0.003478 0.000868 -0.002843 0.003967
# 3 -0.001628 -0.003478 0.008015 -0.000649 0.005507 -0.001014
# 4 0.002610 0.000868 -0.000649 0.015576 0.000802 0.000768
# 5 0.007892 -0.002843 0.005507 0.000802 0.032499 0.005535
# 6 0.000444 0.003967 -0.001014 0.000768 0.005535 0.032259
#
#
# Mechanical properties :
#
#
# Convention : Reuss Voigt Hill
#
# Bulk Modulus (GPa) = 40.92069 80.61224 60.76647
# Shear Modulus (GPa) = 37.02117 51.45687 44.23902
#
# Velocity S-wave (km/s) = 3.83111 4.51670 4.18796
# Velocity P-wave (km/s) = 5.98275 7.69158 6.89035
#
# Compressibility (1/GPa) = 0.02443752
#
# Stress axis : x y z
#
# Youngs Moduli (GPa) = 47.80388 152.11600 124.76087
#
# Poissons Ratio (x) = 0.06533 0.20311
# Poissons Ratio (y) = 0.02053 0.43390
# Poissons Ratio (z) = 0.07782 0.52903
#
# Static dielectric constant tensor:
#      x y z
#    x 0.470150 -0.292550 -0.109000 
#    y -0.292550 2.031050 0.023140 
#    z -0.109000 0.023140 1.907920 
# 
# From -- ./inp_files/308434.got.cif
#   From: 2010.05.17/outbox.cif.g08.bks.cpg/sg2_155_cif.got.tgz:308434.got - 2010.06.03 11:33:40.
