data_PCOD9003189
_publ_section_title
;
Structure prediction by ZEFSAII (Michael W. Deem and Ramdas Pophale) SiO2 
 PCOD9003189
Probable space group: P -1
;
_chemical_formula_sum "Si O2"
_cell_formula_units_Z 14
_cell_length_a 9.984010
_cell_length_b 8.986899
_cell_length_c 7.888438
_cell_angle_alpha 88.690171
_cell_angle_beta 52.556899
_cell_angle_gamma 84.713500
_cell_volume 559.074388
_symmetry_space_group_name_H-M "P -1"
_symmetry_group_IT_number 2
_symmetry_cell_setting 'triclinic'
loop_
_space_group_symop_operation_xyz
x,y,z
-x,-y,-z
loop_
_atom_site_type_symbol
_atom_site_label
_atom_site_fract_x
_atom_site_fract_y
_atom_site_fract_z
Si Si1 0.612958 0.825213 0.367827
Si Si2 0.312656 0.850809 0.180781
Si Si3 0.346635 0.633111 0.572830
Si Si4 0.813864 0.087459 0.098934
Si Si5 0.108638 0.402767 0.788466
Si Si6 0.008718 0.674223 0.459706
Si Si7 0.645175 0.823059 0.745359
O O1 0.455168 0.757190 0.402915
O O2 0.773828 0.714955 0.189730
O O3 0.612957 0.791522 0.572286
O O4 0.668838 0.988120 0.288732
O O5 0.176447 0.752500 0.374140
O O6 0.352283 0.999332 0.243844
O O7 0.221333 0.910895 0.074032
O O8 0.492011 0.771188 0.976557
O O9 0.500000 0.500000 0.500000
O O10 0.236326 0.745726 0.787896
O O11 0.214883 0.523633 0.609084
O O12 0.000000 0.000000 0.000000
O O13 0.009241 0.315000 0.731322
O O14 0.000000 0.500000 0.000000
O O15 0.831411 0.755166 0.660213
O O16 0.000000 0.500000 0.500000
#
# Coordination Sequence:
#
# PCOD9003189 Si02
#       7
#     2   2   2   2   2   2   2
#     4  10  21  39  64  95 128 165 217 270 326 389
#     4  11  24  44  69  95 133 173 220 278 328 389
#     4  10  21  37  58  88 130 168 204 259 327 388
#     4  12  23  39  68 100 129 168 223 280 321 392
#     4  10  21  39  62  92 128 172 210 266 333 385
#     4  11  25  44  65  94 134 175 220 272 327 399
#     4  10  23  44  69  96 132 176 218 270 338 388
#
# _framework density 25.041388000000001
#
# number of rings (size 3 to 8) (size 9 to 14) (size 15 to 20)
#    0.000    1.429    1.429    4.286    0.000    4.000 
#    2.571    0.000    0.000    0.000    0.000    0.000 
#    0.000    0.000    0.000    0.000    0.000    0.000 
#
# Total GULP energy -78119.858520 kJ/mol
# GULP energy per Si atom -5579.989894 kJ/mol
# Density = 2.498439 g / cm^3
# Si number density = 25.041388 Si / 1000 Ang^3
#
#
#
# Elastic Constant Matrix: (Units=GPa)
#
#
# Indices 1 2 3 4 5 6 
#
# 1 93.1152 33.9958 41.2123 -0.9782 -34.9250 29.4093
# 2 33.9958 139.9074 31.5114 -1.5786 -25.8568 6.7087
# 3 41.2123 31.5114 87.4786 0.7525 -41.4637 -13.0740
# 4 -0.9782 -1.5786 0.7525 60.5532 5.7646 -13.8889
# 5 -34.9250 -25.8568 -41.4637 5.7646 43.3836 -5.9974
# 6 29.4093 6.7087 -13.0740 -13.8889 -5.9974 47.0827
#
#
#
# Elastic Compliance Matrix: (Units=1/GPa)
#
#
# Indices 1 2 3 4 5 6 
#
# 1 0.023970 -0.001461 -0.010235 -0.004296 0.006724 -0.018017
# 2 -0.001461 0.008249 -0.001006 -0.000110 0.002763 -0.000223
# 3 -0.010235 -0.001006 0.029579 0.001492 0.021715 0.017956
# 4 -0.004296 -0.000110 0.001492 0.018625 -0.003444 0.008169
# 5 0.006724 0.002763 0.021715 -0.003444 0.052300 0.007082
# 6 -0.018017 -0.000223 0.017956 0.008169 0.007082 0.040823
#
#
# Mechanical properties :
#
#
# Convention : Reuss Voigt Hill
#
# Bulk Modulus (GPa) = 27.47716 59.32670 43.40193
# Shear Modulus (GPa) = 23.68737 44.45602 34.07169
#
# Velocity S-wave (km/s) = 3.07893 4.21800 3.69265
# Velocity P-wave (km/s) = 4.86172 6.88948 5.96243
#
# Compressibility (1/GPa) = 0.03639387
#
# Stress axis : x y z
#
# Youngs Moduli (GPa) = 41.71852 121.22358 33.80765
#
# Poissons Ratio (x) = 0.17712 0.34603
# Poissons Ratio (y) = 0.06095 0.03401
# Poissons Ratio (z) = 0.42700 0.12196
#
# Static dielectric constant tensor:
#      x y z
#    x 2.204920 0.032810 0.267940 
#    y 0.032810 2.030600 0.158940 
#    z 0.267940 0.158940 2.540000 
# 
# From -- ./inp_files/243805.got.cif
#   From: 2010.05.17/outbox.cif.g08.bks.cpg/sg2_122_cif.got.tgz:243805.got - 2010.06.03 11:33:40.
