data_PCOD9003680
_publ_section_title
;
Structure prediction by ZEFSAII (Michael W. Deem and Ramdas Pophale) SiO2 
 PCOD9003680
Probable space group: P -1
;
_chemical_formula_sum "Si O2"
_cell_formula_units_Z 16
_cell_length_a 9.352070
_cell_length_b 10.935936
_cell_length_c 9.903976
_cell_angle_alpha 126.926130
_cell_angle_beta 64.664939
_cell_angle_gamma 87.651436
_cell_volume 666.680629
_symmetry_space_group_name_H-M "P -1"
_symmetry_group_IT_number 2
_symmetry_cell_setting 'triclinic'
loop_
_space_group_symop_operation_xyz
x,y,z
-x,-y,-z
loop_
_atom_site_type_symbol
_atom_site_label
_atom_site_fract_x
_atom_site_fract_y
_atom_site_fract_z
Si Si1 0.975112 0.329391 0.421983
Si Si2 0.630640 0.413859 0.513593
Si Si3 0.566135 0.677691 0.254797
Si Si4 0.226884 0.784024 0.354109
Si Si5 0.551330 0.231794 0.113544
Si Si6 0.784405 0.859359 0.341604
Si Si7 0.157665 0.692531 0.039887
Si Si8 0.682552 0.885218 0.707196
O O1 0.838903 0.329934 0.360312
O O2 0.867270 0.307245 0.579443
O O3 0.000000 0.500000 0.500000
O O4 0.167263 0.188013 0.286363
O O5 0.500000 0.500000 0.500000
O O6 0.555301 0.300480 0.549798
O O7 0.585980 0.579988 0.736881
O O8 0.434286 0.680891 0.193849
O O9 0.632551 0.822916 0.309300
O O10 0.728084 0.500627 0.096192
O O11 0.147574 0.801311 0.250253
O O12 0.209378 0.959605 0.541984
O O13 0.465386 0.177114 0.236203
O O14 0.733065 0.248608 0.069203
O O15 0.590979 0.085772 0.891399
O O16 0.763523 0.827116 0.488600
O O17 0.961225 0.731177 0.115768
#
# Coordination Sequence:
#
# PCOD9003680 Si02
#       8
#     2   2   2   2   2   2   2   2
#     4  11  22  39  64  94 121 160 214 261 297 373
#     4  10  21  40  63  88 126 166 202 254 318 371
#     4  10  24  37  60  92 130 159 206 260 312 364
#     4  11  22  40  64  92 126 164 209 255 313 369
#     4  10  21  37  61  92 125 162 204 257 306 364
#     4  12  22  41  66  92 124 170 207 253 312 375
#     4  11  21  40  63  92 125 164 208 260 307 367
#     4  11  21  38  64  93 123 161 212 253 307 366
#
# _framework density 23.999499
#
# number of rings (size 3 to 8) (size 9 to 14) (size 15 to 20)
#    0.000    1.250    3.750    3.000    0.000    0.000 
#    0.000    0.625    0.000    0.000    0.000    0.000 
#    0.000    0.000    0.000    0.000    0.000    0.000 
#
# Total GULP energy -89234.994893 kJ/mol
# GULP energy per Si atom -5577.187181 kJ/mol
# Density = 2.394488 g / cm^3
# Si number density = 23.999499 Si / 1000 Ang^3
#
#
#
# Elastic Constant Matrix: (Units=GPa)
#
#
# Indices 1 2 3 4 5 6 
#
# 1 88.5582 32.4507 26.9228 -8.6891 -19.0975 14.4928
# 2 32.4507 129.4556 24.3982 -11.0169 -17.7068 28.5087
# 3 26.9228 24.3982 65.3833 5.3715 -22.5686 13.7203
# 4 -8.6891 -11.0169 5.3715 39.9028 4.6843 -7.3392
# 5 -19.0975 -17.7068 -22.5686 4.6843 29.7714 -5.0221
# 6 14.4928 28.5087 13.7203 -7.3392 -5.0221 44.9387
#
#
#
# Elastic Compliance Matrix: (Units=1/GPa)
#
#
# Indices 1 2 3 4 5 6 
#
# 1 0.014558 -0.001767 -0.003443 0.002260 0.005054 -0.001589
# 2 -0.001767 0.009954 -0.001035 0.001253 0.002980 -0.004891
# 3 -0.003443 -0.001035 0.024170 -0.007060 0.015765 -0.005004
# 4 0.002260 0.001253 -0.007060 0.028487 -0.006877 0.004515
# 5 0.005054 0.002980 0.015765 -0.006877 0.051003 -0.003757
# 6 -0.001589 -0.004891 -0.005004 0.004515 -0.003757 0.027713
#
#
# Mechanical properties :
#
#
# Convention : Reuss Voigt Hill
#
# Bulk Modulus (GPa) = 27.62974 50.10451 38.86713
# Shear Modulus (GPa) = 27.71026 36.23093 31.97059
#
# Velocity S-wave (km/s) = 3.40165 3.88964 3.65380
# Velocity P-wave (km/s) = 5.19288 6.41054 5.83357
#
# Compressibility (1/GPa) = 0.03619288
#
# Stress axis : x y z
#
# Youngs Moduli (GPa) = 68.69173 100.46213 41.37368
#
# Poissons Ratio (x) = 0.17749 0.14244
# Poissons Ratio (y) = 0.12136 0.04281
# Poissons Ratio (z) = 0.23650 0.10396
#
# Static dielectric constant tensor:
#      x y z
#    x 1.949060 -0.023030 0.008060 
#    y -0.023030 1.938890 0.013740 
#    z 0.008060 0.013740 1.975620 
# 
# From -- ./inp_files/273480.got.cif
#   From: 2010.05.17/outbox.cif.g08.bks.cpg/sg2_137_cif.got.tgz:273480.got - 2010.06.03 11:33:40.
