data_PCOD9003764
_publ_section_title
;
Structure prediction by ZEFSAII (Michael W. Deem and Ramdas Pophale) SiO2 
 PCOD9003764
Probable space group: P -1
;
_chemical_formula_sum "Si O2"
_cell_formula_units_Z 16
_cell_length_a 6.815082
_cell_length_b 22.542980
_cell_length_c 5.187922
_cell_angle_alpha 90.000452
_cell_angle_beta 67.627815
_cell_angle_gamma 70.410542
_cell_volume 686.889040
_symmetry_space_group_name_H-M "P -1"
_symmetry_group_IT_number 2
_symmetry_cell_setting 'triclinic'
loop_
_space_group_symop_operation_xyz
x,y,z
-x,-y,-z
loop_
_atom_site_type_symbol
_atom_site_label
_atom_site_fract_x
_atom_site_fract_y
_atom_site_fract_z
Si Si1 0.270391 0.846823 0.598153
Si Si2 0.780998 0.854384 0.909852
Si Si3 0.527946 0.928091 0.534821
Si Si4 0.729593 0.653180 0.868543
Si Si5 0.781016 0.354381 0.309156
Si Si6 0.240607 0.747837 0.300598
Si Si7 0.759378 0.752167 0.541212
Si Si8 0.472038 0.571912 0.062755
O O1 0.294695 0.913571 0.649695
O O2 0.236283 0.819333 0.334891
O O3 0.514838 0.794689 0.554046
O O4 0.039417 0.846450 0.836228
O O5 0.671163 0.901572 0.722873
O O6 0.762808 0.789113 0.811242
O O7 0.647208 0.885329 0.230242
O O8 0.500000 0.000000 0.500000
O O9 0.485143 0.705314 0.068884
O O10 0.705286 0.586432 0.944384
O O11 0.763705 0.680671 0.571174
O O12 0.960565 0.653555 0.875648
O O13 0.762823 0.289109 0.425945
O O14 0.671189 0.401566 0.605978
O O15 0.647220 0.385331 0.122571
O O16 0.999992 0.750002 0.299363
O O17 0.500000 0.500000 0.000000
#
# Coordination Sequence:
#
# PCOD9003764 Si02
#       8
#     2   2   2   2   2   2   2   2
#     4  10  21  37  62  88 123 158 193 246 298 346
#     4  10  23  40  62  90 118 155 200 244 295 352
#     4  11  24  41  61  88 120 157 202 244 290 352
#     4  10  21  37  62  88 123 158 193 246 298 346
#     4  10  23  40  62  90 118 155 200 244 295 352
#     4   9  19  36  59  91 119 153 197 242 297 356
#     4   9  19  36  59  91 119 153 197 242 297 356
#     4  11  24  41  61  88 120 157 202 244 290 352
#
# _framework density 23.293427999999999
#
# number of rings (size 3 to 8) (size 9 to 14) (size 15 to 20)
#    0.000    2.000    0.000    2.250    0.000   12.000 
#    0.000    6.250    0.000    0.000    0.000    0.000 
#    0.000    0.000    0.000    0.000    0.000    0.000 
#
# Total GULP energy -89189.494958 kJ/mol
# GULP energy per Si atom -5574.343435 kJ/mol
# Density = 2.324041 g / cm^3
# Si number density = 23.293428 Si / 1000 Ang^3
#
#
#
# Elastic Constant Matrix: (Units=GPa)
#
#
# Indices 1 2 3 4 5 6 
#
# 1 151.5774 34.1808 50.6174 -12.8974 -24.2124 17.6243
# 2 34.1808 98.8936 8.3916 -10.9511 -4.0137 36.2631
# 3 50.6174 8.3916 104.9860 -2.2757 0.2477 -1.6568
# 4 -12.8974 -10.9511 -2.2757 25.9198 0.3645 1.9601
# 5 -24.2124 -4.0137 0.2477 0.3645 36.3190 -10.5695
# 6 17.6243 36.2631 -1.6568 1.9601 -10.5695 41.6361
#
#
#
# Elastic Compliance Matrix: (Units=1/GPa)
#
#
# Indices 1 2 3 4 5 6 
#
# 1 0.010028 -0.001878 -0.004639 0.003813 0.006053 -0.001437
# 2 -0.001878 0.017177 -0.000541 0.007507 -0.003948 -0.015543
# 3 -0.004639 -0.000541 0.011812 -0.001641 -0.002536 0.002338
# 4 0.003813 0.007507 -0.001641 0.044287 -0.000065 -0.010318
# 5 0.006053 -0.003948 -0.002536 -0.000065 0.033880 0.009379
# 6 -0.001437 -0.015543 0.002338 -0.010318 0.009379 0.041123
#
#
# Mechanical properties :
#
#
# Convention : Reuss Voigt Hill
#
# Bulk Modulus (GPa) = 40.15700 60.20409 50.18054
# Shear Modulus (GPa) = 27.66646 38.25944 32.96295
#
# Velocity S-wave (km/s) = 3.45009 4.05717 3.76589
# Velocity P-wave (km/s) = 5.75742 6.91734 6.36386
#
# Compressibility (1/GPa) = 0.02490226
#
# Stress axis : x y z
#
# Youngs Moduli (GPa) = 99.71733 58.21678 84.65693
#
# Poissons Ratio (x) = 0.10931 0.39274
# Poissons Ratio (y) = 0.18723 0.04580
# Poissons Ratio (z) = 0.46261 0.03150
#
# Static dielectric constant tensor:
#      x y z
#    x 1.931180 0.024070 0.034260 
#    y 0.024070 1.914380 -0.024860 
#    z 0.034260 -0.024860 1.977970 
# 
# From -- ./inp_files/13196.got.cif
#   From: 2010.05.17/outbox.cif.g08.bks.cpg/sg2_7_cif.got.tgz:13196.got - 2010.06.03 11:33:40.
