data_PCOD9003289
_publ_section_title
;
Structure prediction by ZEFSAII (Michael W. Deem and Ramdas Pophale) SiO2 
 PCOD9003289
Probable space group: P -1
;
_chemical_formula_sum "Si O2"
_cell_formula_units_Z 16
_cell_length_a 9.185383
_cell_length_b 15.622867
_cell_length_c 7.922169
_cell_angle_alpha 145.161362
_cell_angle_beta 94.382984
_cell_angle_gamma 81.324978
_cell_volume 639.750870
_symmetry_space_group_name_H-M "P -1"
_symmetry_group_IT_number 2
_symmetry_cell_setting 'triclinic'
loop_
_space_group_symop_operation_xyz
x,y,z
-x,-y,-z
loop_
_atom_site_type_symbol
_atom_site_label
_atom_site_fract_x
_atom_site_fract_y
_atom_site_fract_z
Si Si1 0.997728 0.300938 0.102263
Si Si2 0.369027 0.853401 0.590614
Si Si3 0.025900 0.855892 0.642081
Si Si4 0.697898 0.842054 0.036908
Si Si5 0.442433 0.727919 0.018425
Si Si6 0.550590 0.445227 0.729145
Si Si7 0.820537 0.034533 0.654655
Si Si8 0.883179 0.449753 0.657417
O O1 0.884414 0.394648 0.373312
O O2 0.036195 0.402517 0.113491
O O3 0.938176 0.146389 0.800241
O O4 0.148159 0.259091 0.156964
O O5 0.192222 0.845207 0.564409
O O6 0.437918 0.795081 0.319692
O O7 0.439489 0.735591 0.548386
O O8 0.372812 0.031611 0.896625
O O9 0.029868 0.691970 0.461127
O O10 0.894047 0.910239 0.590457
O O11 0.000000 0.000000 0.000000
O O12 0.586991 0.747429 0.960642
O O13 0.751190 0.945374 0.358598
O O14 0.313177 0.837539 0.089227
O O15 0.441909 0.549923 0.762386
O O16 0.716568 0.477823 0.758263
O O17 0.500000 0.500000 0.000000
#
# Coordination Sequence:
#
# PCOD9003289 Si02
#       8
#     2   2   2   2   2   2   2   2
#     4  11  21  37  63  88 122 155 204 251 292 368
#     4   9  18  31  58  83 111 153 199 235 298 348
#     4  11  20  37  59  88 117 155 199 254 301 353
#     4  11  20  38  60  90 122 160 200 248 301 354
#     4  10  21  37  59  87 122 158 197 247 302 356
#     4   9  18  36  58  87 118 160 198 239 297 365
#     4  11  22  36  60  93 118 156 209 248 298 358
#     4  10  21  38  62  89 118 163 202 239 314 349
#
# _framework density 25.009736
#
# number of rings (size 3 to 8) (size 9 to 14) (size 15 to 20)
#    0.000    1.750    3.750    1.875    1.750    0.000 
#    0.000    7.500    0.000    6.750    0.000    0.000 
#    0.000    0.000    0.000    0.000    0.000    0.000 
#
# Total GULP energy -89370.177222 kJ/mol
# GULP energy per Si atom -5585.636076 kJ/mol
# Density = 2.495281 g / cm^3
# Si number density = 25.009736 Si / 1000 Ang^3
#
#
#
# Elastic Constant Matrix: (Units=GPa)
#
#
# Indices 1 2 3 4 5 6 
#
# 1 88.1540 39.1512 37.9116 -0.6537 -24.0629 17.5173
# 2 39.1512 152.0348 55.5296 56.3227 -7.4017 6.0927
# 3 37.9116 55.5296 83.5976 23.4329 -8.1685 2.0074
# 4 -0.6537 56.3227 23.4329 59.3400 5.6084 -11.4978
# 5 -24.0629 -7.4017 -8.1685 5.6084 39.4655 5.6380
# 6 17.5173 6.0927 2.0074 -11.4978 5.6380 44.1230
#
#
#
# Elastic Compliance Matrix: (Units=1/GPa)
#
#
# Indices 1 2 3 4 5 6 
#
# 1 0.020213 -0.003099 -0.006764 0.003276 0.010998 -0.007841
# 2 -0.003099 0.013682 -0.003871 -0.012481 0.002223 -0.004019
# 3 -0.006764 -0.003871 0.018400 -0.003274 -0.000810 0.001633
# 4 0.003276 -0.012481 -0.003274 0.032630 -0.007083 0.009980
# 5 0.010998 0.002223 -0.000810 -0.007083 0.034863 -0.010937
# 6 -0.007841 -0.004019 0.001633 0.009980 -0.010937 0.030256
#
#
# Mechanical properties :
#
#
# Convention : Reuss Voigt Hill
#
# Bulk Modulus (GPa) = 40.27624 65.44123 52.85874
# Shear Modulus (GPa) = 26.91250 41.33198 34.12224
#
# Velocity S-wave (km/s) = 3.28393 4.06967 3.69773
# Velocity P-wave (km/s) = 5.52432 6.95026 6.27790
#
# Compressibility (1/GPa) = 0.02482854
#
# Stress axis : x y z
#
# Youngs Moduli (GPa) = 49.47244 73.08720 54.34815
#
# Poissons Ratio (x) = 0.22649 0.36760
# Poissons Ratio (y) = 0.15331 0.21037
# Poissons Ratio (z) = 0.33462 0.28291
#
# Static dielectric constant tensor:
#      x y z
#    x 2.001310 -0.037370 -0.043820 
#    y -0.037370 2.048480 0.020920 
#    z -0.043820 0.020920 2.047970 
# 
# From -- ./inp_files/209347.got.cif
#   From: 2010.05.17/outbox.cif.g08.bks.cpg/sg2_105_cif.got.tgz:209347.got - 2010.06.03 11:33:40.
