data_PCOD9003432
_publ_section_title
;
Structure prediction by ZEFSAII (Michael W. Deem and Ramdas Pophale) SiO2 
 PCOD9003432
Probable space group: P -1
;
_chemical_formula_sum "Si O2"
_cell_formula_units_Z 14
_cell_length_a 14.271931
_cell_length_b 5.843577
_cell_length_c 8.383958
_cell_angle_alpha 115.252662
_cell_angle_beta 100.795663
_cell_angle_gamma 59.785779
_cell_volume 546.148306
_symmetry_space_group_name_H-M "P -1"
_symmetry_group_IT_number 2
_symmetry_cell_setting 'triclinic'
loop_
_space_group_symop_operation_xyz
x,y,z
-x,-y,-z
loop_
_atom_site_type_symbol
_atom_site_label
_atom_site_fract_x
_atom_site_fract_y
_atom_site_fract_z
Si Si1 0.307236 0.316402 0.983099
Si Si2 0.006257 0.090450 0.775351
Si Si3 0.541318 0.639792 0.185127
Si Si4 0.375355 0.623096 0.552200
Si Si5 0.322000 0.136876 0.277929
Si Si6 0.925531 0.465608 0.176875
Si Si7 0.780061 0.121805 0.672859
O O1 0.399669 0.212083 0.848822
O O2 0.195657 0.392440 0.887255
O O3 0.330240 0.118119 0.084631
O O4 0.292083 0.611991 0.149927
O O5 0.888747 0.141876 0.693559
O O6 0.045777 0.270234 0.726280
O O7 0.996291 0.247641 0.990788
O O8 0.065504 0.747543 0.736709
O O9 0.618949 0.402948 0.264431
O O10 0.433371 0.879440 0.305099
O O11 0.500000 0.500000 0.000000
O O12 0.500000 0.500000 0.500000
O O13 0.329418 0.411067 0.418620
O O14 0.285417 0.893244 0.507636
O O15 0.211926 0.142666 0.299307
#
# Coordination Sequence:
#
# PCOD9003432 Si02
#       7
#     2   2   2   2   2   2   2
#     4  10  22  35  58  89 120 159 199 253 307 360
#     4   9  19  32  57  87 120 157 204 256 307 358
#     4  12  22  40  60  87 123 158 198 251 308 369
#     4  11  23  40  59  86 121 159 207 245 298 371
#     4  11  22  39  59  85 125 159 200 248 303 369
#     4   9  19  33  55  89 123 153 204 259 308 358
#     4  10  21  37  60  87 118 159 201 250 301 365
#
# _framework density 25.634063999999999
#
# number of rings (size 3 to 8) (size 9 to 14) (size 15 to 20)
#    0.000    1.714    2.857    1.714   12.000    0.000 
#    0.000    0.000    0.000    1.714    0.000    0.000 
#    0.000    0.000    0.000    0.000    0.000    0.000 
#
# Total GULP energy -78175.278784 kJ/mol
# GULP energy per Si atom -5583.948485 kJ/mol
# Density = 2.557572 g / cm^3
# Si number density = 25.634064 Si / 1000 Ang^3
#
#
#
# Elastic Constant Matrix: (Units=GPa)
#
#
# Indices 1 2 3 4 5 6 
#
# 1 95.1465 55.5057 17.4678 -21.7393 28.7860 27.1734
# 2 55.5057 101.0680 42.8274 -20.5299 11.0404 35.6564
# 3 17.4678 42.8274 86.6944 -35.5449 2.6921 -1.4779
# 4 -21.7393 -20.5299 -35.5449 41.4771 -9.7373 -2.8275
# 5 28.7860 11.0404 2.6921 -9.7373 26.8655 2.0632
# 6 27.1734 35.6564 -1.4779 -2.8275 2.0632 35.0494
#
#
#
# Elastic Compliance Matrix: (Units=1/GPa)
#
#
# Indices 1 2 3 4 5 6 
#
# 1 0.025097 -0.007138 0.000822 0.004540 -0.021587 -0.010524
# 2 -0.007138 0.027271 -0.014182 -0.004431 -0.001973 -0.023049
# 3 0.000822 -0.014182 0.026062 0.018682 0.007884 0.015933
# 4 0.004540 -0.004431 0.018682 0.043048 0.010330 0.004641
# 5 -0.021587 -0.001973 0.007884 0.010330 0.062873 0.016208
# 6 -0.010524 -0.023049 0.015933 0.004641 0.016208 0.060230
#
#
# Mechanical properties :
#
#
# Convention : Reuss Voigt Hill
#
# Bulk Modulus (GPa) = 26.71437 57.16787 41.94112
# Shear Modulus (GPa) = 16.77531 31.81893 24.29712
#
# Velocity S-wave (km/s) = 2.56093 3.52700 3.08205
# Velocity P-wave (km/s) = 4.38047 6.23989 5.39095
#
# Compressibility (1/GPa) = 0.03743303
#
# Stress axis : x y z
#
# Youngs Moduli (GPa) = 39.84476 36.66846 38.37006
#
# Poissons Ratio (x) = 0.26176 -0.03154
# Poissons Ratio (y) = 0.28443 0.54418
# Poissons Ratio (z) = -0.03275 0.52005
#
# Static dielectric constant tensor:
#      x y z
#    x 2.061020 0.129830 -0.072610 
#    y 0.129830 2.436210 -0.085400 
#    z -0.072610 -0.085400 2.025680 
# 
# From -- ./inp_files/36087.got.cif
#   From: 2010.05.17/outbox.cif.g08.bks.cpg/sg2_19_cif.got.tgz:36087.got - 2010.06.03 11:33:40.
