data_PCOD9003693
_publ_section_title
;
Structure prediction by ZEFSAII (Michael W. Deem and Ramdas Pophale) SiO2 
 PCOD9003693
Probable space group: P -1
;
_chemical_formula_sum "Si O2"
_cell_formula_units_Z 16
_cell_length_a 10.788733
_cell_length_b 9.922880
_cell_length_c 22.076111
_cell_angle_alpha 26.483035
_cell_angle_beta 125.681797
_cell_angle_gamma 118.880989
_cell_volume 851.053323
_symmetry_space_group_name_H-M "P -1"
_symmetry_group_IT_number 2
_symmetry_cell_setting 'triclinic'
loop_
_space_group_symop_operation_xyz
x,y,z
-x,-y,-z
loop_
_atom_site_type_symbol
_atom_site_label
_atom_site_fract_x
_atom_site_fract_y
_atom_site_fract_z
Si Si1 0.110732 0.715938 0.705048
Si Si2 0.034359 0.672866 0.877748
Si Si3 0.506814 0.830486 0.442865
Si Si4 0.803257 0.257853 0.543424
Si Si5 0.888853 0.811289 0.005718
Si Si6 0.748694 0.953397 0.280193
Si Si7 0.420363 0.880782 0.264150
Si Si8 0.197911 0.930209 0.517210
O O1 0.142127 0.743124 0.632852
O O2 0.182441 0.962498 0.668580
O O3 0.179992 0.400549 0.878922
O O4 0.927480 0.773573 0.639377
O O5 0.194634 0.810034 0.848379
O O6 0.020942 0.419111 0.924029
O O7 0.920050 0.982639 0.713625
O O8 0.000000 0.500000 0.000000
O O9 0.360949 0.812846 0.450441
O O10 0.453662 0.974112 0.305217
O O11 0.574727 0.483972 0.588295
O O12 0.634973 0.992442 0.448456
O O13 0.817286 0.606041 0.425817
O O14 0.808215 0.232507 0.482802
O O15 0.746169 0.988492 0.859083
O O16 0.000000 0.000000 0.000000
O O17 0.565029 0.964304 0.231615
#
# Coordination Sequence:
#
# PCOD9003693 Si02
#       8
#     2   2   2   2   2   2   2   2
#     4  10  22  37  63  90 117 164 203 259 300 356
#     4  11  24  41  60  93 124 164 202 251 317 365
#     4  10  21  37  61  94 120 160 203 255 300 363
#     4  11  22  38  64  91 122 165 203 255 308 358
#     4  11  23  42  62  89 123 161 201 255 307 366
#     4  10  21  42  63  90 120 161 212 250 300 371
#     4  10  21  38  65  90 119 162 209 245 308 364
#     4  11  20  38  59  90 124 150 209 255 299 358
#
# _framework density 18.800232000000001
#
# number of rings (size 3 to 8) (size 9 to 14) (size 15 to 20)
#    0.000    1.500    3.750    2.250    0.000    3.000 
#    4.500    0.000    0.000    2.250    0.000    0.000 
#    0.000    0.000    0.000    0.000    0.000    0.000 
#
# Total GULP energy -89192.441523 kJ/mol
# GULP energy per Si atom -5574.527595 kJ/mol
# Density = 1.875744 g / cm^3
# Si number density = 18.800232 Si / 1000 Ang^3
#
#
#
# Elastic Constant Matrix: (Units=GPa)
#
#
# Indices 1 2 3 4 5 6 
#
# 1 79.8513 45.9199 44.5316 1.8420 -16.5080 -12.9963
# 2 45.9199 108.0332 51.3822 -0.4343 -13.8122 1.1681
# 3 44.5316 51.3822 96.4702 13.2430 -13.0980 -4.7258
# 4 1.8420 -0.4343 13.2430 28.3347 -4.4044 -0.2922
# 5 -16.5080 -13.8122 -13.0980 -4.4044 26.0018 14.4969
# 6 -12.9963 1.1681 -4.7258 -0.2922 14.4969 28.0213
#
#
#
# Elastic Compliance Matrix: (Units=1/GPa)
#
#
# Indices 1 2 3 4 5 6 
#
# 1 0.021057 -0.005614 -0.006168 0.002074 0.003687 0.007074
# 2 -0.005614 0.015238 -0.005562 0.004155 0.006657 -0.007578
# 3 -0.006168 -0.005562 0.017307 -0.007680 0.000604 -0.000102
# 4 0.002074 0.004155 -0.007680 0.040183 0.009149 -0.004821
# 5 0.003687 0.006657 0.000604 0.009149 0.063636 -0.031293
# 6 0.007074 -0.007578 -0.000102 -0.004821 -0.031293 0.055406
#
#
# Mechanical properties :
#
#
# Convention : Reuss Voigt Hill
#
# Bulk Modulus (GPa) = 52.87061 63.11357 57.99209
# Shear Modulus (GPa) = 19.69904 25.97296 22.83600
#
# Velocity S-wave (km/s) = 3.24050 3.72092 3.48899
# Velocity P-wave (km/s) = 6.49496 7.21830 6.86616
#
# Compressibility (1/GPa) = 0.01891410
#
# Stress axis : x y z
#
# Youngs Moduli (GPa) = 47.49062 65.62620 57.78035
#
# Poissons Ratio (x) = 0.36840 0.35637
# Poissons Ratio (y) = 0.26659 0.32140
# Poissons Ratio (z) = 0.29290 0.36504
#
# Static dielectric constant tensor:
#      x y z
#    x 1.681510 0.011560 -0.004070 
#    y 0.011560 1.658580 -0.012100 
#    z -0.004070 -0.012100 1.680220 
# 
# From -- ./inp_files/593917.got.cif
#   From: 2010.05.17/outbox.cif.g08.bks.cpg/sg2_297_cif.got.tgz:593917.got - 2010.06.03 11:33:40.
