data_PCOD9003647
_publ_section_title
;
Structure prediction by ZEFSAII (Michael W. Deem and Ramdas Pophale) SiO2 
 PCOD9003647
Probable space group: P -1
;
_chemical_formula_sum "Si O2"
_cell_formula_units_Z 14
_cell_length_a 22.700361
_cell_length_b 4.999502
_cell_length_c 21.960754
_cell_angle_alpha 124.259157
_cell_angle_beta 18.451534
_cell_angle_gamma 115.598247
_cell_volume 600.427030
_symmetry_space_group_name_H-M "P -1"
_symmetry_group_IT_number 2
_symmetry_cell_setting 'triclinic'
loop_
_space_group_symop_operation_xyz
x,y,z
-x,-y,-z
loop_
_atom_site_type_symbol
_atom_site_label
_atom_site_fract_x
_atom_site_fract_y
_atom_site_fract_z
Si Si1 0.070371 0.144021 0.622563
Si Si2 0.602707 0.240057 0.309284
Si Si3 0.518286 0.396734 0.898689
Si Si4 0.826664 0.672580 0.101907
Si Si5 0.762066 0.280973 0.336394
Si Si6 0.370921 0.779883 0.974103
Si Si7 0.219945 0.760797 0.545226
O O1 0.246605 0.806277 0.376159
O O2 0.108967 0.077909 0.648593
O O3 0.113495 0.483158 0.605081
O O4 0.849512 0.182957 0.824745
O O5 0.500000 0.500000 0.500000
O O6 0.788613 0.335344 0.116869
O O7 0.434768 0.366640 0.438283
O O8 0.688292 0.850995 0.201939
O O9 0.500000 0.500000 0.000000
O O10 0.409513 0.717821 0.000719
O O11 0.415226 0.116356 0.953983
O O12 0.749247 0.957386 0.269067
O O13 0.048016 0.653286 0.868270
O O14 0.782754 0.178204 0.372857
O O15 0.547454 0.439296 0.728621
#
# Coordination Sequence:
#
# PCOD9003647 Si02
#       7
#     2   2   2   2   2   2   2
#     4  10  22  40  57  83 118 150 188 227 271 330
#     4  10  21  38  56  80 110 140 179 232 291 345
#     4  10  21  37  61  91 116 145 188 228 270 327
#     4  10  23  37  56  83 109 141 185 237 292 343
#     4  10  22  38  58  80 111 145 186 238 286 331
#     4  10  21  39  58  82 119 152 182 229 276 321
#     4  10  23  37  56  82 110 150 194 229 271 336
#
# _framework density 23.316739999999999
#
# number of rings (size 3 to 8) (size 9 to 14) (size 15 to 20)
#    0.000    2.000    0.000    3.000    0.000   14.286 
#    0.000    0.000    0.000    0.000    0.000    0.000 
#    0.000    0.000    0.000    0.000    0.000    0.000 
#
# Total GULP energy -78454.171302 kJ/mol
# GULP energy per Si atom -5603.869379 kJ/mol
# Density = 2.326367 g / cm^3
# Si number density = 23.316740 Si / 1000 Ang^3
#
#
#
# Elastic Constant Matrix: (Units=GPa)
#
#
# Indices 1 2 3 4 5 6 
#
# 1 110.4465 5.7949 58.8535 -9.2633 1.6355 -10.7892
# 2 5.7949 60.5950 31.7727 -11.6593 -2.2547 -16.6470
# 3 58.8535 31.7727 121.5188 -29.5545 -32.0471 5.4168
# 4 -9.2633 -11.6593 -29.5545 30.5987 0.6066 3.3895
# 5 1.6355 -2.2547 -32.0471 0.6066 34.0364 -5.9926
# 6 -10.7892 -16.6470 5.4168 3.3895 -5.9926 30.9847
#
#
#
# Elastic Compliance Matrix: (Units=1/GPa)
#
#
# Indices 1 2 3 4 5 6 
#
# 1 0.019277 0.009091 -0.018847 -0.010031 -0.015607 0.012971
# 2 0.009091 0.028562 -0.016635 -0.004420 -0.010635 0.019846
# 3 -0.018847 -0.016635 0.036632 0.024804 0.030559 -0.018707
# 4 -0.010031 -0.004420 0.024804 0.052844 0.020485 -0.012023
# 5 -0.015607 -0.010635 0.030559 0.020485 0.056458 -0.007812
# 6 0.012971 0.019846 -0.018707 -0.012023 -0.007812 0.050528
#
#
# Mechanical properties :
#
#
# Convention : Reuss Voigt Hill
#
# Bulk Modulus (GPa) = 31.55603 53.93361 42.74482
# Shear Modulus (GPa) = 16.25243 32.19989 24.22616
#
# Velocity S-wave (km/s) = 2.64299 3.72018 3.22685
# Velocity P-wave (km/s) = 4.78298 6.45245 5.67939
#
# Compressibility (1/GPa) = 0.03168966
#
# Stress axis : x y z
#
# Youngs Moduli (GPa) = 51.87546 35.01131 27.29840
#
# Poissons Ratio (x) = -0.31830 0.51449
# Poissons Ratio (y) = -0.47161 0.45411
# Poissons Ratio (z) = 0.97769 0.58242
#
# Static dielectric constant tensor:
#      x y z
#    x 1.868810 0.009700 0.014560 
#    y 0.009700 1.873010 0.025720 
#    z 0.014560 0.025720 1.894200 
# 
# From -- ./inp_files/600706.got.cif
#   From: 2010.05.17/outbox.cif.g08.bks.cpg/sg2_301_cif.got.tgz:600706.got - 2010.06.03 11:33:40.
