data_PCOD9003918
_publ_section_title
;
Structure prediction by ZEFSAII (Michael W. Deem and Ramdas Pophale) SiO2 
 PCOD9003918
Probable space group: P -1
;
_chemical_formula_sum "Si O2"
_cell_formula_units_Z 16
_cell_length_a 26.271220
_cell_length_b 16.424006
_cell_length_c 6.002068
_cell_angle_alpha 117.080261
_cell_angle_beta 108.012848
_cell_angle_gamma 19.055946
_cell_volume 684.450317
_symmetry_space_group_name_H-M "P -1"
_symmetry_group_IT_number 2
_symmetry_cell_setting 'triclinic'
loop_
_space_group_symop_operation_xyz
x,y,z
-x,-y,-z
loop_
_atom_site_type_symbol
_atom_site_label
_atom_site_fract_x
_atom_site_fract_y
_atom_site_fract_z
Si Si1 0.256296 0.817173 0.585022
Si Si2 0.105712 0.547046 0.957467
Si Si3 0.596149 0.666445 0.512329
Si Si4 0.825897 0.240314 0.645426
Si Si5 0.336402 0.136534 0.142089
Si Si6 0.714754 0.910412 0.606522
Si Si7 0.593418 0.285680 0.676397
Si Si8 0.666836 0.666167 0.234302
O O1 0.194360 0.828191 0.377042
O O2 0.288472 0.846275 0.490601
O O3 0.436519 0.509374 0.577734
O O4 0.095183 0.105005 0.882679
O O5 0.173766 0.442225 0.174724
O O6 0.155901 0.365990 0.699116
O O7 0.220330 0.434146 0.833566
O O8 0.730367 0.385783 0.461504
O O9 0.685747 0.605941 0.441238
O O10 0.480537 0.802427 0.350729
O O11 0.463241 0.912203 0.828110
O O12 0.741256 0.454871 0.948205
O O13 0.000000 0.000000 0.500000
O O14 0.274448 0.144286 0.192972
O O15 0.462627 0.991928 0.293802
O O16 0.705720 0.026818 0.638619
O O17 0.500000 0.500000 0.000000
#
# Coordination Sequence:
#
# PCOD9003918 Si02
#       8
#     2   2   2   2   2   2   2   2
#     4  11  26  47  70 102 133 175 226 286 337 396
#     4  11  23  42  64 103 141 170 220 277 338 401
#     4   9  20  37  62  94 135 175 222 264 319 397
#     4  11  21  39  65 100 139 174 216 269 343 402
#     4   9  21  37  64  93 140 178 216 258 331 400
#     4  10  22  42  68  97 129 177 227 279 325 394
#     4  11  27  48  75  93 126 179 238 285 336 395
#     4  10  21  37  63 100 136 185 216 263 329 408
#
# _framework density 23.376422000000002
#
# number of rings (size 3 to 8) (size 9 to 14) (size 15 to 20)
#    0.000    1.750    2.500    0.375    5.250    9.500 
#    2.250    1.250    0.000    0.000    0.000    0.000 
#    0.000    0.000    0.000    0.000    0.000    0.000 
#
# Total GULP energy -89195.258605 kJ/mol
# GULP energy per Si atom -5574.703663 kJ/mol
# Density = 2.332322 g / cm^3
# Si number density = 23.376422 Si / 1000 Ang^3
#
#
#
# Elastic Constant Matrix: (Units=GPa)
#
#
# Indices 1 2 3 4 5 6 
#
# 1 174.1394 18.2935 39.1562 10.7174 -19.1040 11.2556
# 2 18.2935 43.3311 6.0237 18.4108 -15.9456 -3.8765
# 3 39.1562 6.0237 53.6063 11.5371 -21.8350 6.1871
# 4 10.7174 18.4108 11.5371 35.7435 7.7938 -4.5486
# 5 -19.1040 -15.9456 -21.8350 7.7938 41.2503 -0.1798
# 6 11.2556 -3.8765 6.1871 -4.5486 -0.1798 25.8646
#
#
#
# Elastic Compliance Matrix: (Units=1/GPa)
#
#
# Indices 1 2 3 4 5 6 
#
# 1 0.007258 -0.003464 -0.005385 0.001307 -0.001084 -0.002167
# 2 -0.003464 0.053265 0.021522 -0.042052 0.038311 -0.002787
# 3 -0.005385 0.021522 0.041954 -0.031667 0.033973 -0.009800
# 4 0.001307 -0.042052 -0.031667 0.071091 -0.045788 0.012888
# 5 -0.001084 0.038311 0.033973 -0.045788 0.065142 -0.009513
# 6 -0.002167 -0.002787 -0.009800 0.012888 -0.009513 0.043733
#
#
# Mechanical properties :
#
#
# Convention : Reuss Voigt Hill
#
# Bulk Modulus (GPa) = 7.82335 44.22482 26.02409
# Shear Modulus (GPa) = 16.68310 34.41193 25.54752
#
# Velocity S-wave (km/s) = 2.67436 3.84093 3.30945
# Velocity P-wave (km/s) = 3.59030 6.21530 5.07544
#
# Compressibility (1/GPa) = 0.12782249
#
# Stress axis : x y z
#
# Youngs Moduli (GPa) = 137.78021 18.77414 23.83556
#
# Poissons Ratio (x) = 0.06503 0.12836
# Poissons Ratio (y) = 0.47722 -0.51298
# Poissons Ratio (z) = 0.74195 -0.40405
#
# Static dielectric constant tensor:
#      x y z
#    x 2.027360 -0.036200 0.031130 
#    y -0.036200 1.881890 -0.143550 
#    z 0.031130 -0.143550 1.787320 
# 
# From -- ./inp_files/127457.got.cif
#   From: 2010.05.17/outbox.cif.g08.bks.cpg/sg2_64_cif.got.tgz:127457.got - 2010.06.03 11:33:40.
