data_PCOD9003141
_publ_section_title
;
Structure prediction by ZEFSAII (Michael W. Deem and Ramdas Pophale) SiO2 
 PCOD9003141
Probable space group: P -1
;
_chemical_formula_sum "Si O2"
_cell_formula_units_Z 16
_cell_length_a 5.306166
_cell_length_b 27.600683
_cell_length_c 6.488408
_cell_angle_alpha 67.989372
_cell_angle_beta 131.144680
_cell_angle_gamma 117.382600
_cell_volume 631.698963
_symmetry_space_group_name_H-M "P -1"
_symmetry_group_IT_number 2
_symmetry_cell_setting 'triclinic'
loop_
_space_group_symop_operation_xyz
x,y,z
-x,-y,-z
loop_
_atom_site_type_symbol
_atom_site_label
_atom_site_fract_x
_atom_site_fract_y
_atom_site_fract_z
Si Si1 0.720880 0.397211 0.650388
Si Si2 0.917588 0.511021 0.703965
Si Si3 0.124003 0.890024 0.995688
Si Si4 0.757675 0.034321 0.406098
Si Si5 0.693368 0.291327 0.564490
Si Si6 0.643882 0.126254 0.408644
Si Si7 0.959824 0.217326 0.134444
Si Si8 0.927612 0.377803 0.234947
O O1 0.981504 0.460317 0.691245
O O2 0.799010 0.345297 0.677676
O O3 0.337392 0.396504 0.367436
O O4 0.696428 0.381412 0.907908
O O5 0.500000 0.500000 0.500000
O O6 0.109408 0.576428 0.691677
O O7 0.000000 0.500000 0.000000
O O8 0.760100 0.902775 0.826818
O O9 0.363068 0.940499 0.907726
O O10 0.989696 0.834232 0.880312
O O11 0.310118 0.877065 0.318262
O O12 0.897397 0.092502 0.510051
O O13 0.500000 0.000000 0.500000
O O14 0.000000 0.000000 0.500000
O O15 0.854808 0.318160 0.391141
O O16 0.291354 0.262554 0.335069
O O17 0.799255 0.246911 0.827016
O O18 0.738986 0.186007 0.261529
#
# Coordination Sequence:
#
# PCOD9003141 Si02
#       8
#     2   2   2   2   2   2   2   2
#     4  10  21  37  58  85 119 160 207 269 334 404
#     4   8  16  33  54  79 114 154 202 259 330 405
#     4  11  25  47  73 101 139 189 234 283 347 407
#     4  11  24  48  76 118 154 191 238 295 350 421
#     4  12  24  39  62  94 124 166 224 268 342 398
#     4  11  25  47  73 101 139 189 234 283 347 407
#     4  11  26  42  62  95 130 169 228 284 332 408
#     4  10  21  37  58  85 119 160 207 269 334 404
#
# _framework density 25.328517999999999
#
# number of rings (size 3 to 8) (size 9 to 14) (size 15 to 20)
#    0.000    1.500    1.250    3.000    0.000   10.500 
#    0.000    0.000    0.000   10.500    0.000    0.000 
#    0.000    0.000    0.000    0.000    0.000    0.000 
#
# Total GULP energy -89270.161032 kJ/mol
# GULP energy per Si atom -5579.385064 kJ/mol
# Density = 2.527087 g / cm^3
# Si number density = 25.328518 Si / 1000 Ang^3
#
#
#
# Elastic Constant Matrix: (Units=GPa)
#
#
# Indices 1 2 3 4 5 6 
#
# 1 174.4589 714.6864 132.0159 -206.5847 130.8772 -29.6412
# 2 714.6864 5106.6811 844.7379-1426.7203 973.7938 -257.1860
# 3 132.0159 844.7379 264.1095 -249.5177 171.8254 -29.3393
# 4 -206.5847-1426.7203 -249.5177 441.5286 -273.3404 63.1117
# 5 130.8772 973.7938 171.8254 -273.3404 226.9526 -54.7739
# 6 -29.6412 -257.1860 -29.3393 63.1117 -54.7739 62.4696
#
#
#
# Elastic Compliance Matrix: (Units=1/GPa)
#
#
# Indices 1 2 3 4 5 6 
#
# 1 0.014096 -0.001712 -0.001474 0.001694 0.002163 -0.000866
# 2 -0.001712 0.003192 -0.000278 0.006413 -0.004305 0.001945
# 3 -0.001474 -0.000278 0.008889 0.002044 -0.002741 -0.002138
# 4 0.001694 0.006413 0.002044 0.025008 0.000988 0.003767
# 5 0.002163 -0.004305 -0.002741 0.000988 0.025766 0.003610
# 6 -0.000866 0.001945 -0.002138 0.003767 0.003610 0.021959
#
#
# Mechanical properties :
#
#
# Convention : Reuss Voigt Hill
#
# Bulk Modulus (GPa) = 51.95031 992.01445 521.98238
# Shear Modulus (GPa) = 44.54185 403.11076 223.82630
#
# Velocity S-wave (km/s) = 4.19807 12.62927 9.41069
# Velocity P-wave (km/s) = 6.63729 24.60028 18.01704
#
# Compressibility (1/GPa) = 0.01924916
#
# Stress axis : x y z
#
# Youngs Moduli (GPa) = 70.94429 313.30014 112.49263
#
# Poissons Ratio (x) = 0.53624 0.16583
# Poissons Ratio (y) = 0.12143 0.03129
# Poissons Ratio (z) = 0.10458 0.08714
#
# Static dielectric constant tensor:
#      x y z
#    x 2.117010 -0.034090 -0.058640 
#    y -0.034090 2.032020 -0.003180 
#    z -0.058640 -0.003180 1.931920 
# 
# From -- ./inp_files/14454.got.cif
#   From: 2010.05.17/outbox.cif.g08.bks.cpg/sg2_8_cif.got.tgz:14454.got - 2010.06.03 11:33:40.
