data_PCOD9003580
_publ_section_title
;
Structure prediction by ZEFSAII (Michael W. Deem and Ramdas Pophale) SiO2 
 PCOD9003580
Probable space group: P -1
;
_chemical_formula_sum "Si O2"
_cell_formula_units_Z 16
_cell_length_a 7.992310
_cell_length_b 12.197550
_cell_length_c 8.325371
_cell_angle_alpha 119.763099
_cell_angle_beta 88.679860
_cell_angle_gamma 85.477040
_cell_volume 700.538774
_symmetry_space_group_name_H-M "P -1"
_symmetry_group_IT_number 2
_symmetry_cell_setting 'triclinic'
loop_
_space_group_symop_operation_xyz
x,y,z
-x,-y,-z
loop_
_atom_site_type_symbol
_atom_site_label
_atom_site_fract_x
_atom_site_fract_y
_atom_site_fract_z
Si Si1 0.527087 0.640093 0.773855
Si Si2 0.623879 0.606748 0.379713
Si Si3 0.771215 0.824029 0.386801
Si Si4 0.004755 0.529750 0.704313
Si Si5 0.354378 0.122494 0.912436
Si Si6 0.825844 0.253581 0.041741
Si Si7 0.735392 0.986622 0.827502
Si Si8 0.914379 0.379672 0.837702
O O1 0.603228 0.639532 0.593044
O O2 0.500719 0.498748 0.727950
O O3 0.335541 0.709352 0.816407
O O4 0.621670 0.728648 0.953254
O O5 0.625478 0.731733 0.363328
O O6 0.810087 0.535623 0.299595
O O7 0.727760 0.895793 0.272570
O O8 0.784469 0.902168 0.608105
O O9 0.945007 0.736289 0.286605
O O10 0.015356 0.676856 0.851098
O O11 0.862962 0.452094 0.728434
O O12 0.000000 0.500000 0.500000
O O13 0.541453 0.046958 0.850779
O O14 0.265225 0.079219 0.045395
O O15 0.788887 0.320905 0.917875
O O16 0.847776 0.103907 0.917069
O O17 0.000000 0.500000 0.000000
#
# Coordination Sequence:
#
# PCOD9003580 Si02
#       8
#     2   2   2   2   2   2   2   2
#     4   9  17  34  56  81 115 148 184 243 294 335
#     4   9  18  33  56  85 115 144 189 244 290 344
#     4  11  21  37  61  86 114 155 198 235 290 352
#     4   9  18  35  59  83 109 150 191 237 296 347
#     4  10  21  37  61  85 116 158 191 237 292 341
#     4   9  19  37  55  78 116 154 183 238 293 332
#     4  10  21  40  57  83 123 153 193 240 284 345
#     4   9  20  39  58  80 116 149 188 245 290 343
#
# _framework density 22.839565
#
# number of rings (size 3 to 8) (size 9 to 14) (size 15 to 20)
#    0.000    2.500    1.250    1.125    0.000    3.000 
#    2.250    6.875    0.000    0.000    0.000    0.000 
#    0.000    0.000    0.000    0.000    0.000    0.000 
#
# Total GULP energy -89214.451285 kJ/mol
# GULP energy per Si atom -5575.903205 kJ/mol
# Density = 2.278758 g / cm^3
# Si number density = 22.839565 Si / 1000 Ang^3
#
#
#
# Elastic Constant Matrix: (Units=GPa)
#
#
# Indices 1 2 3 4 5 6 
#
# 1 74.6789 20.5658 25.0414 -2.1752 -16.9641 -3.0688
# 2 20.5658 111.6858 68.5613 -4.4414 9.0807 24.7942
# 3 25.0414 68.5613 139.8510 -8.3485 -24.5578 8.2021
# 4 -2.1752 -4.4414 -8.3485 33.2422 0.9709 -8.2179
# 5 -16.9641 9.0807 -24.5578 0.9709 30.8362 -0.9462
# 6 -3.0688 24.7942 8.2021 -8.2179 -0.9462 21.3031
#
#
#
# Elastic Compliance Matrix: (Units=1/GPa)
#
#
# Indices 1 2 3 4 5 6 
#
# 1 0.020191 -0.011873 0.004756 0.004720 0.018782 0.017552
# 2 -0.011873 0.032385 -0.017521 -0.009242 -0.030885 -0.037594
# 3 0.004756 -0.017521 0.018206 0.006199 0.022616 0.017464
# 4 0.004720 -0.009242 0.006199 0.036226 0.009835 0.023461
# 5 0.018782 -0.030885 0.022616 0.009835 0.070690 0.036879
# 6 0.017552 -0.037594 0.017464 0.023461 0.036879 0.097190
#
#
# Mechanical properties :
#
#
# Convention : Reuss Voigt Hill
#
# Bulk Modulus (GPa) = 46.50075 61.61698 54.05887
# Shear Modulus (GPa) = 15.09054 31.21277 23.15165
#
# Velocity S-wave (km/s) = 2.57323 3.70078 3.18726
# Velocity P-wave (km/s) = 5.40672 6.73036 6.10452
#
# Compressibility (1/GPa) = 0.02150503
#
# Stress axis : x y z
#
# Youngs Moduli (GPa) = 49.52719 30.87811 54.92806
#
# Poissons Ratio (x) = 0.36663 -0.26124
# Poissons Ratio (y) = 0.58806 0.96240
# Poissons Ratio (z) = -0.23555 0.54102
#
# Static dielectric constant tensor:
#      x y z
#    x 1.910080 0.053010 -0.080590 
#    y 0.053010 1.965410 -0.096610 
#    z -0.080590 -0.096610 2.022580 
# 
# From -- ./inp_files/182556.got.cif
#   From: 2010.05.17/outbox.cif.g08.bks.cpg/sg2_92_cif.got.tgz:182556.got - 2010.06.03 11:33:40.
