data_PCOD9003833
_publ_section_title
;
Structure prediction by ZEFSAII (Michael W. Deem and Ramdas Pophale) SiO2 
 PCOD9003833
Probable space group: P -1
;
_chemical_formula_sum "Si O2"
_cell_formula_units_Z 16
_cell_length_a 8.767717
_cell_length_b 22.448968
_cell_length_c 8.289917
_cell_angle_alpha 30.749106
_cell_angle_beta 59.725688
_cell_angle_gamma 50.579793
_cell_volume 640.876487
_symmetry_space_group_name_H-M "P -1"
_symmetry_group_IT_number 2
_symmetry_cell_setting 'triclinic'
loop_
_space_group_symop_operation_xyz
x,y,z
-x,-y,-z
loop_
_atom_site_type_symbol
_atom_site_label
_atom_site_fract_x
_atom_site_fract_y
_atom_site_fract_z
Si Si1 0.832254 0.979220 0.042989
Si Si2 0.219786 0.611934 0.059531
Si Si3 0.195224 0.141371 0.362258
Si Si4 0.673430 0.570403 0.878130
Si Si5 0.480612 0.221976 0.115390
Si Si6 0.116630 0.915421 0.786364
Si Si7 0.719765 0.487720 0.391641
Si Si8 0.491451 0.143672 0.653343
O O1 0.770392 0.891401 0.389884
O O2 0.943444 0.903388 0.002178
O O3 0.663012 0.117480 0.754593
O O4 0.000000 0.000000 0.000000
O O5 0.247029 0.502246 0.165416
O O6 0.176321 0.591482 0.317600
O O7 0.436146 0.610690 0.934924
O O8 0.024818 0.744280 0.810180
O O9 0.381847 0.166674 0.164583
O O10 0.202350 0.011886 0.584882
O O11 0.679551 0.710073 0.558081
O O12 0.775062 0.475390 0.200182
O O13 0.689198 0.220911 0.967713
O O14 0.547142 0.154316 0.414063
O O15 0.308847 0.366300 0.898340
O O16 0.000000 0.000000 0.500000
O O17 0.500000 0.500000 0.500000
O O18 0.500000 0.000000 0.000000
#
# Coordination Sequence:
#
# PCOD9003833 Si02
#       8
#     2   2   2   2   2   2   2   2
#     4  10  21  37  62  92 127 169 215 264 318 392
#     4  10  21  41  66  92 131 176 227 273 325 389
#     4  11  24  41  62  96 137 169 216 273 332 397
#     4   9  20  39  67  97 122 176 228 271 326 400
#     4  11  23  41  65  95 136 169 214 275 342 388
#     4  11  23  39  65  97 126 173 218 268 326 398
#     4   9  21  39  66  92 127 172 221 277 321 394
#     4  11  20  39  66  94 138 167 208 274 343 390
#
# _framework density 24.965810999999999
#
# number of rings (size 3 to 8) (size 9 to 14) (size 15 to 20)
#    0.000    1.750    2.500    1.875    3.500    5.500 
#    2.250    2.500    2.750    0.000    0.000    0.000 
#    0.000    0.000    0.000    0.000    0.000    0.000 
#
# Total GULP energy -89074.379902 kJ/mol
# GULP energy per Si atom -5567.148744 kJ/mol
# Density = 2.490899 g / cm^3
# Si number density = 24.965811 Si / 1000 Ang^3
#
#
#
# Elastic Constant Matrix: (Units=GPa)
#
#
# Indices 1 2 3 4 5 6 
#
# 1 71.0225 17.0087 21.2736 2.1014 16.6155 3.5750
# 2 17.0087 55.4929 12.2197 -6.4176 8.0989 9.6539
# 3 21.2736 12.2197 84.4798 -3.5753 22.8757 12.8447
# 4 2.1014 -6.4176 -3.5753 32.0085 8.3577 4.3142
# 5 16.6155 8.0989 22.8757 8.3577 38.2414 -8.5284
# 6 3.5750 9.6539 12.8447 4.3142 -8.5284 31.8928
#
#
#
# Elastic Compliance Matrix: (Units=1/GPa)
#
#
# Indices 1 2 3 4 5 6 
#
# 1 0.016974 -0.003755 -0.002033 -0.000454 -0.005572 -0.001376
# 2 -0.003755 0.022923 0.002045 0.008839 -0.008807 -0.010892
# 3 -0.002033 0.002045 0.018591 0.008425 -0.015444 -0.013148
# 4 -0.000454 0.008839 0.008425 0.041345 -0.019503 -0.016826
# 5 -0.005572 -0.008807 -0.015444 -0.019503 0.049604 0.025413
# 6 -0.001376 -0.010892 -0.013148 -0.016826 0.025413 0.049174
#
#
# Mechanical properties :
#
#
# Convention : Reuss Voigt Hill
#
# Bulk Modulus (GPa) = 19.60665 34.66658 27.13661
# Shear Modulus (GPa) = 22.41169 31.12809 26.76989
#
# Velocity S-wave (km/s) = 2.99941 3.53488 3.27809
# Velocity P-wave (km/s) = 4.45710 5.52958 5.02205
#
# Compressibility (1/GPa) = 0.05100312
#
# Stress axis : x y z
#
# Youngs Moduli (GPa) = 58.91262 43.62344 53.78972
#
# Poissons Ratio (x) = 0.16381 0.10933
# Poissons Ratio (y) = 0.22122 -0.10999
# Poissons Ratio (z) = 0.11975 -0.08920
#
# Static dielectric constant tensor:
#      x y z
#    x 2.092110 0.026040 -0.056600 
#    y 0.026040 2.159730 0.030370 
#    z -0.056600 0.030370 1.951030 
# 
# From -- ./inp_files/225158.got.cif
#   From: 2010.05.17/outbox.cif.g08.bks.cpg/sg2_113_cif.got.tgz:225158.got - 2010.06.03 11:33:40.
