data_PCOD9003742
_publ_section_title
;
Structure prediction by ZEFSAII (Michael W. Deem and Ramdas Pophale) SiO2 
 PCOD9003742
Probable space group: P -1
;
_chemical_formula_sum "Si O2"
_cell_formula_units_Z 16
_cell_length_a 24.540594
_cell_length_b 24.365524
_cell_length_c 8.455866
_cell_angle_alpha 44.525589
_cell_angle_beta 135.589028
_cell_angle_gamma 168.082118
_cell_volume 727.254851
_symmetry_space_group_name_H-M "P -1"
_symmetry_group_IT_number 2
_symmetry_cell_setting 'triclinic'
loop_
_space_group_symop_operation_xyz
x,y,z
-x,-y,-z
loop_
_atom_site_type_symbol
_atom_site_label
_atom_site_fract_x
_atom_site_fract_y
_atom_site_fract_z
Si Si1 0.726901 0.284408 0.380363
Si Si2 0.725313 0.781894 0.387539
Si Si3 0.294811 0.567351 0.079283
Si Si4 0.187836 0.791437 0.823253
Si Si5 0.499397 0.296046 0.116567
Si Si6 0.816727 0.002339 0.381969
Si Si7 0.967915 0.192850 0.620648
Si Si8 0.700456 0.254736 0.725658
O O1 0.700998 0.296626 0.474549
O O2 0.000000 0.500000 0.500000
O O3 0.500000 0.000000 0.500000
O O4 0.733950 0.365761 0.112219
O O5 0.500000 0.500000 0.500000
O O6 0.755623 0.866901 0.429058
O O7 0.641432 0.758490 0.117982
O O8 0.000000 0.000000 0.500000
O O9 0.531750 0.772042 0.268764
O O10 0.399131 0.642397 0.966402
O O11 0.033384 0.264825 0.198721
O O12 0.078500 0.773072 0.650241
O O13 0.951701 0.524746 0.786193
O O14 0.443396 0.030285 0.751107
O O15 0.266570 0.808016 0.093249
O O16 0.752317 0.544455 0.248696
O O17 0.263255 0.026642 0.275880
O O18 0.919854 0.083847 0.605561
#
# Coordination Sequence:
#
# PCOD9003742 Si02
#       8
#     2   2   2   2   2   2   2   2
#     4  12  25  37  58  87 124 166 222 280 323 365
#     4  11  23  46  74 100 134 173 208 253 321 409
#     4  11  23  43  65  90 133 178 229 270 325 400
#     4  10  21  37  62  76 121 163 207 269 318 380
#     4  11  24  43  70  98 126 175 219 257 320 399
#     4  11  25  43  68 102 132 172 217 269 332 393
#     4  12  23  40  66  97 134 165 223 272 326 370
#     4  10  22  39  52  86 112 164 221 260 328 375
#
# _framework density 22.000539
#
# number of rings (size 3 to 8) (size 9 to 14) (size 15 to 20)
#    0.000    1.000    0.000    8.250    3.500    0.000 
#    0.000    3.750    0.000    0.000    0.000    0.000 
#    0.000    0.000    0.000    0.000    0.000    0.000 
#
# Total GULP energy -89318.794313 kJ/mol
# GULP energy per Si atom -5582.424645 kJ/mol
# Density = 2.195046 g / cm^3
# Si number density = 22.000539 Si / 1000 Ang^3
#
#
#
# Elastic Constant Matrix: (Units=GPa)
#
#
# Indices 1 2 3 4 5 6 
#
# 1 60.1179 27.7434 22.7447 9.9083 4.6977 -2.9275
# 2 27.7434 171.8875 20.6011 11.8328 13.7035 3.1179
# 3 22.7447 20.6011 84.4650 15.8816 18.1008 0.3612
# 4 9.9083 11.8328 15.8816 47.4147 0.6167 -1.3336
# 5 4.6977 13.7035 18.1008 0.6167 41.3360 4.0898
# 6 -2.9275 3.1179 0.3612 -1.3336 4.0898 37.0748
#
#
#
# Elastic Compliance Matrix: (Units=1/GPa)
#
#
# Indices 1 2 3 4 5 6 
#
# 1 0.019896 -0.002606 -0.004445 -0.001975 0.000409 0.001717
# 2 -0.002606 0.006487 -0.000350 -0.000953 -0.001627 -0.000603
# 3 -0.004445 -0.000350 0.015146 -0.003978 -0.005956 0.000045
# 4 -0.001975 -0.000953 -0.003978 0.023066 0.001880 0.000585
# 5 0.000409 -0.001627 -0.005956 0.001880 0.027536 -0.002743
# 6 0.001717 -0.000603 0.000045 0.000585 -0.002743 0.027482
#
#
# Mechanical properties :
#
#
# Convention : Reuss Voigt Hill
#
# Bulk Modulus (GPa) = 37.41812 50.96096 44.18954
# Shear Modulus (GPa) = 34.88608 41.52385 38.20497
#
# Velocity S-wave (km/s) = 3.98640 4.34914 4.17171
# Velocity P-wave (km/s) = 6.18330 6.95944 6.58282
#
# Compressibility (1/GPa) = 0.02672502
#
# Stress axis : x y z
#
# Youngs Moduli (GPa) = 50.26188 154.16404 66.02484
#
# Poissons Ratio (x) = 0.40179 0.29351
# Poissons Ratio (y) = 0.13100 0.02310
# Poissons Ratio (z) = 0.22344 0.05393
#
# Static dielectric constant tensor:
#      x y z
#    x 1.906130 -0.031930 0.058960 
#    y -0.031930 1.769470 -0.034710 
#    z 0.058960 -0.034710 1.884910 
# 
# From -- ./inp_files/357956.got.cif
#   From: 2010.05.17/outbox.cif.g08.bks.cpg/sg2_179_cif.got.tgz:357956.got - 2010.06.03 11:33:40.
