data_PCOD9003439
_publ_section_title
;
Structure prediction by ZEFSAII (Michael W. Deem and Ramdas Pophale) SiO2 
 PCOD9003439
Probable space group: P -1
;
_chemical_formula_sum "Si O2"
_cell_formula_units_Z 16
_cell_length_a 5.807283
_cell_length_b 8.900980
_cell_length_c 16.144841
_cell_angle_alpha 89.343441
_cell_angle_beta 82.651122
_cell_angle_gamma 52.958645
_cell_volume 658.383174
_symmetry_space_group_name_H-M "P -1"
_symmetry_group_IT_number 2
_symmetry_cell_setting 'triclinic'
loop_
_space_group_symop_operation_xyz
x,y,z
-x,-y,-z
loop_
_atom_site_type_symbol
_atom_site_label
_atom_site_fract_x
_atom_site_fract_y
_atom_site_fract_z
Si Si1 0.473421 0.251743 0.724972
Si Si2 0.919858 0.860547 0.794553
Si Si3 0.485696 0.993279 0.600296
Si Si4 0.834043 0.568932 0.770079
Si Si5 0.742078 0.477242 0.931504
Si Si6 0.808289 0.803741 0.973690
Si Si7 0.888669 0.131787 0.423600
Si Si8 0.497515 0.562280 0.658395
O O1 0.577846 0.358849 0.671323
O O2 0.172691 0.419089 0.780991
O O3 0.718457 0.078099 0.772276
O O4 0.372870 0.174094 0.659646
O O5 0.738322 0.777191 0.787456
O O6 0.965703 0.833605 0.891835
O O7 0.217846 0.718879 0.729500
O O8 0.261026 0.944151 0.623227
O O9 0.829380 0.875367 0.610598
O O10 0.500000 0.000000 0.500000
O O11 0.681295 0.506422 0.836772
O O12 0.763187 0.556520 0.679559
O O13 0.780008 0.639209 0.950212
O O14 0.500000 0.500000 0.000000
O O15 0.022253 0.271837 0.947063
O O16 0.500000 0.000000 0.000000
O O17 0.617605 0.351872 0.427644
O O18 0.000000 0.000000 0.500000
#
# Coordination Sequence:
#
# PCOD9003439 Si02
#       8
#     2   2   2   2   2   2   2   2
#     4  11  23  39  66  94 126 166 228 272 329 401
#     4  10  21  40  61  86 128 169 213 271 336 391
#     4  10  22  43  70  94 133 177 213 271 343 397
#     4  10  23  38  61  93 125 171 214 277 331 399
#     4  10  21  39  58  87 130 165 214 270 332 387
#     4  10  21  37  60  87 123 168 212 270 325 393
#     4  10  22  43  70  94 134 176 213 272 340 399
#     4  11  23  39  66  93 125 168 225 267 334 396
#
# _framework density 24.301957000000002
#
# number of rings (size 3 to 8) (size 9 to 14) (size 15 to 20)
#    0.000    1.750    1.250    2.250    3.500    4.500 
#    0.000    5.000    0.000    0.000    0.000    0.000 
#    0.000    0.000    0.000    0.000    0.000    0.000 
#
# Total GULP energy -89135.662133 kJ/mol
# GULP energy per Si atom -5570.978883 kJ/mol
# Density = 2.424664 g / cm^3
# Si number density = 24.301957 Si / 1000 Ang^3
#
#
#
# Elastic Constant Matrix: (Units=GPa)
#
#
# Indices 1 2 3 4 5 6 
#
# 1 90.2592 35.0635 -0.6443 -19.8278 8.0092 1.5243
# 2 35.0635 174.8924 35.2971 -38.6700 0.6513 -8.6078
# 3 -0.6443 35.2971 68.2434 -26.8003 -5.7682 3.7912
# 4 -19.8278 -38.6700 -26.8003 46.7980 -1.7204 -4.2168
# 5 8.0092 0.6513 -5.7682 -1.7204 31.3589 -8.1174
# 6 1.5243 -8.6078 3.7912 -4.2168 -8.1174 42.3228
#
#
#
# Elastic Compliance Matrix: (Units=1/GPa)
#
#
# Indices 1 2 3 4 5 6 
#
# 1 0.013435 -0.002172 0.003263 0.005555 -0.002792 -0.001200
# 2 -0.002172 0.007710 -0.002367 0.004346 0.000832 0.002451
# 3 0.003263 -0.002367 0.020695 0.011346 0.003475 -0.000656
# 4 0.005555 0.004346 0.011346 0.034274 0.003426 0.003739
# 5 -0.002792 0.000832 0.003475 0.003426 0.035239 0.007059
# 6 -0.001200 0.002451 -0.000656 0.003739 0.007059 0.025955
#
#
# Mechanical properties :
#
#
# Convention : Reuss Voigt Hill
#
# Bulk Modulus (GPa) = 25.45518 52.53640 38.99579
# Shear Modulus (GPa) = 32.68927 41.67451 37.18189
#
# Velocity S-wave (km/s) = 3.67158 4.14558 3.91576
# Velocity P-wave (km/s) = 5.33585 6.67679 6.04363
#
# Compressibility (1/GPa) = 0.03928473
#
# Stress axis : x y z
#
# Youngs Moduli (GPa) = 74.43444 129.70980 48.32164
#
# Poissons Ratio (x) = 0.28178 -0.15765
# Poissons Ratio (y) = 0.16170 0.11439
# Poissons Ratio (z) = -0.24284 0.30704
#
# Static dielectric constant tensor:
#      x y z
#    x 1.999290 -0.044700 -0.004210 
#    y -0.044700 1.977120 -0.040630 
#    z -0.004210 -0.040630 2.120320 
# 
# From -- ./inp_files/10963.got.cif
#   From: 2010.05.17/outbox.cif.g08.bks.cpg/sg2_6_cif.got.tgz:10963.got - 2010.06.03 11:33:40.
