data_PCOD9003541
_publ_section_title
;
Structure prediction by ZEFSAII (Michael W. Deem and Ramdas Pophale) SiO2 
 PCOD9003541
Probable space group: P -1
;
_chemical_formula_sum "Si O2"
_cell_formula_units_Z 13
_cell_length_a 19.529455
_cell_length_b 5.159852
_cell_length_c 5.047183
_cell_angle_alpha 87.689162
_cell_angle_beta 110.897550
_cell_angle_gamma 106.689787
_cell_volume 454.030250
_symmetry_space_group_name_H-M "P -1"
_symmetry_group_IT_number 2
_symmetry_cell_setting 'triclinic'
loop_
_space_group_symop_operation_xyz
x,y,z
-x,-y,-z
loop_
_atom_site_type_symbol
_atom_site_label
_atom_site_fract_x
_atom_site_fract_y
_atom_site_fract_z
Si Si1 0.554528 0.680072 0.787005
Si Si2 0.881692 0.856703 0.317264
Si Si3 0.000000 0.500000 0.500000
Si Si4 0.600323 0.211539 0.026537
Si Si5 0.933038 0.139499 0.885157
Si Si6 0.740494 0.484174 0.814086
Si Si7 0.690435 0.943556 0.573490
O O1 0.500000 0.500000 0.500000
O O2 0.636183 0.819870 0.751896
O O3 0.464808 0.045296 0.173822
O O4 0.568928 0.467519 0.032904
O O5 0.874320 0.938166 0.606020
O O6 0.806088 0.669186 0.081632
O O7 0.946741 0.709491 0.377972
O O8 0.908792 0.137872 0.163245
O O9 0.043560 0.593128 0.266195
O O10 0.666236 0.343741 0.896708
O O11 0.639673 0.062999 0.299905
O O12 0.000000 0.000000 0.000000
O O13 0.718552 0.682387 0.560149
O O14 0.757555 0.218780 0.725212
#
# Coordination Sequence:
#
# PCOD9003541 Si02
#       7
#     2   2   1   2   2   2   2
#     4  10  21  37  60  94 126 162 213 260 313 386
#     4  11  25  40  65  95 124 169 219 272 331 404
#     4  10  22  42  66  86 130 160 210 270 336 380
#     4  10  21  39  62  87 128 167 206 263 321 374
#     4  10  23  42  62  93 126 161 212 270 334 396
#     4  10  24  40  61  92 124 163 218 263 321 390
#     4  10  22  41  61  88 128 167 210 266 319 382
#
# _framework density 28.632453000000002
#
# number of rings (size 3 to 8) (size 9 to 14) (size 15 to 20)
#    0.000    1.846    0.000    3.231    4.308    8.000 
#    0.000    0.000    0.000    0.000    0.000    0.000 
#    0.000    0.000    0.000    0.000    0.000    0.000 
#
# Total GULP energy -72556.653622 kJ/mol
# GULP energy per Si atom -5581.281048 kJ/mol
# Density = 2.856728 g / cm^3
# Si number density = 28.632453 Si / 1000 Ang^3
#
#
#
# Elastic Constant Matrix: (Units=GPa)
#
#
# Indices 1 2 3 4 5 6 
#
# 1 74.2976 45.0548 17.3657 -13.0765 -3.9079 -11.9460
# 2 45.0548 237.8146 66.7774 -44.5009 22.2089 -14.7211
# 3 17.3657 66.7774 172.2339 -21.6512 9.2797 -3.5649
# 4 -13.0765 -44.5009 -21.6512 63.5372 2.9410 7.9939
# 5 -3.9079 22.2089 9.2797 2.9410 45.8193 1.2181
# 6 -11.9460 -14.7211 -3.5649 7.9939 1.2181 42.8991
#
#
#
# Elastic Compliance Matrix: (Units=1/GPa)
#
#
# Indices 1 2 3 4 5 6 
#
# 1 0.016079 -0.002838 -0.000524 0.000605 0.002727 0.003270
# 2 -0.002838 0.006100 -0.001489 0.003242 -0.003123 0.000664
# 3 -0.000524 -0.001489 0.006617 0.001176 -0.000730 -0.000306
# 4 0.000605 0.003242 0.001176 0.018930 -0.002918 -0.002066
# 5 0.002727 -0.003123 -0.000730 -0.002918 0.023920 -0.000508
# 6 0.003270 0.000664 -0.000306 -0.002066 -0.000508 0.024823
#
#
# Mechanical properties :
#
#
# Convention : Reuss Voigt Hill
#
# Bulk Modulus (GPa) = 52.37502 82.52688 67.45095
# Shear Modulus (GPa) = 44.43027 54.12767 49.27897
#
# Velocity S-wave (km/s) = 3.94349 4.35263 4.15310
# Velocity P-wave (km/s) = 6.25034 7.35839 6.82688
#
# Compressibility (1/GPa) = 0.01909307
#
# Stress axis : x y z
#
# Youngs Moduli (GPa) = 62.19464 163.92749 151.12029
#
# Poissons Ratio (x) = 0.46524 0.07918
# Poissons Ratio (y) = 0.17651 0.22509
# Poissons Ratio (z) = 0.03259 0.24416
#
# Static dielectric constant tensor:
#      x y z
#    x 2.334670 -0.027540 -0.117800 
#    y -0.027540 2.125670 0.100440 
#    z -0.117800 0.100440 2.329270 
# 
# From -- ./inp_files/121604.got.cif
#   From: 2010.05.17/outbox.cif.g08.bks.cpg/sg2_61_cif.got.tgz:121604.got - 2010.06.03 11:33:40.
