data_PCOD9003848
_publ_section_title
;
Structure prediction by ZEFSAII (Michael W. Deem and Ramdas Pophale) SiO2 
 PCOD9003848
Probable space group: P -1
;
_chemical_formula_sum "Si O2"
_cell_formula_units_Z 16
_cell_length_a 23.013535
_cell_length_b 12.372143
_cell_length_c 19.487991
_cell_angle_alpha 29.188200
_cell_angle_beta 163.053893
_cell_angle_gamma 143.266160
_cell_volume 766.250629
_symmetry_space_group_name_H-M "P -1"
_symmetry_group_IT_number 2
_symmetry_cell_setting 'triclinic'
loop_
_space_group_symop_operation_xyz
x,y,z
-x,-y,-z
loop_
_atom_site_type_symbol
_atom_site_label
_atom_site_fract_x
_atom_site_fract_y
_atom_site_fract_z
Si Si1 0.979048 0.052245 0.119695
Si Si2 0.776702 0.025309 0.767111
Si Si3 0.266802 0.550199 0.736863
Si Si4 0.507704 0.492322 0.852652
Si Si5 0.282563 0.376016 0.264533
Si Si6 0.170092 0.277428 0.656246
Si Si7 0.254618 0.815437 0.075452
Si Si8 0.260192 0.473034 0.031330
O O1 0.109197 0.234570 0.145228
O O2 0.136427 0.805138 0.435777
O O3 0.809546 0.050856 0.870982
O O4 0.874553 0.116381 0.039339
O O5 0.631853 0.251522 0.447383
O O6 0.706389 0.796105 0.798574
O O7 0.000000 0.000000 0.000000
O O8 0.167746 0.384125 0.671182
O O9 0.500000 0.500000 0.000000
O O10 0.302675 0.512043 0.879445
O O11 0.368972 0.328972 0.814809
O O12 0.590391 0.433785 0.902150
O O13 0.235306 0.572818 0.159067
O O14 0.504077 0.211341 0.621822
O O15 0.295773 0.490324 0.142231
O O16 0.970990 0.405387 0.318764
O O17 0.184598 0.012718 0.830857
#
# Coordination Sequence:
#
# PCOD9003848 Si02
#       8
#     2   2   2   2   2   2   2   2
#     4  12  22  43  69  93 130 166 209 261 320 376
#     4  12  21  39  61  97 129 164 198 260 321 378
#     4  10  21  37  62  93 130 165 195 255 320 373
#     4  11  23  37  59  92 129 168 201 250 323 376
#     4  11  25  46  64  92 127 166 221 267 305 362
#     4  11  23  42  59  93 132 160 209 256 312 381
#     4  11  27  43  67  92 122 175 220 259 306 373
#     4  12  24  39  64  92 129 164 208 257 318 379
#
# _framework density 20.880897000000001
#
# number of rings (size 3 to 8) (size 9 to 14) (size 15 to 20)
#    0.000    0.750    3.750    4.500    3.500    1.500 
#    0.000    0.625    0.000    0.000    0.000    0.000 
#    0.000    0.000    0.000    0.000    0.000    0.000 
#
# Total GULP energy -89558.143205 kJ/mol
# GULP energy per Si atom -5597.383950 kJ/mol
# Density = 2.083337 g / cm^3
# Si number density = 20.880897 Si / 1000 Ang^3
#
#
#
# Elastic Constant Matrix: (Units=GPa)
#
#
# Indices 1 2 3 4 5 6 
#
# 1 97.8299 14.0912 0.2186 -3.3885 6.5614 8.9349
# 2 14.0912 29.7103 12.1297 -4.5222 12.8281 3.1238
# 3 0.2186 12.1297 67.7175 -5.3770 -9.4595 1.1452
# 4 -3.3885 -4.5222 -5.3770 21.3566 2.3047 -2.2816
# 5 6.5614 12.8281 -9.4595 2.3047 37.5048 2.8917
# 6 8.9349 3.1238 1.1452 -2.2816 2.8917 28.7070
#
#
#
# Elastic Compliance Matrix: (Units=1/GPa)
#
#
# Indices 1 2 3 4 5 6 
#
# 1 0.011285 -0.005598 0.001116 0.000526 0.000417 -0.002948
# 2 -0.005598 0.050815 -0.011102 0.009136 -0.019714 -0.000632
# 3 0.001116 -0.011102 0.018006 0.001426 0.008099 -0.000560
# 4 0.000526 0.009136 0.001426 0.050234 -0.006207 0.003403
# 5 0.000417 -0.019714 0.008099 -0.006207 0.035944 -0.002422
# 6 -0.002948 -0.000632 -0.000560 0.003403 -0.002422 0.036358
#
#
# Mechanical properties :
#
#
# Convention : Reuss Voigt Hill
#
# Bulk Modulus (GPa) = 20.43350 27.57076 24.00213
# Shear Modulus (GPa) = 19.99016 28.76824 24.37920
#
# Velocity S-wave (km/s) = 3.09745 3.71581 3.42063
# Velocity P-wave (km/s) = 4.75387 5.62513 5.20775
#
# Compressibility (1/GPa) = 0.04893923
#
# Stress axis : x y z
#
# Youngs Moduli (GPa) = 88.61189 19.67922 55.53629
#
# Poissons Ratio (x) = 0.11017 -0.06199
# Poissons Ratio (y) = 0.49605 0.61655
# Poissons Ratio (z) = -0.09891 0.21847
#
# Static dielectric constant tensor:
#      x y z
#    x 1.802350 0.004590 0.012890 
#    y 0.004590 1.730480 0.015120 
#    z 0.012890 0.015120 1.730120 
# 
# From -- ./inp_files/273222.got.cif
#   From: 2010.05.17/outbox.cif.g08.bks.cpg/sg2_137_cif.got.tgz:273222.got - 2010.06.03 11:33:40.
