data_PCOD9003546
_publ_section_title
;
Structure prediction by ZEFSAII (Michael W. Deem and Ramdas Pophale) SiO2 
 PCOD9003546
Probable space group: P -1
;
_chemical_formula_sum "Si O2"
_cell_formula_units_Z 16
_cell_length_a 5.292284
_cell_length_b 26.179543
_cell_length_c 10.145747
_cell_angle_alpha 45.254560
_cell_angle_beta 100.571840
_cell_angle_gamma 122.202143
_cell_volume 800.682384
_symmetry_space_group_name_H-M "P -1"
_symmetry_group_IT_number 2
_symmetry_cell_setting 'triclinic'
loop_
_space_group_symop_operation_xyz
x,y,z
-x,-y,-z
loop_
_atom_site_type_symbol
_atom_site_label
_atom_site_fract_x
_atom_site_fract_y
_atom_site_fract_z
Si Si1 0.821017 0.123879 0.424636
Si Si2 0.432364 0.305186 0.165717
Si Si3 0.444100 0.220138 0.909682
Si Si4 0.992052 0.721553 0.340628
Si Si5 0.899854 0.259636 0.378774
Si Si6 0.787090 0.380270 0.817338
Si Si7 0.426439 0.537068 0.550750
Si Si8 0.247243 0.042592 0.326175
O O1 0.737538 0.166175 0.456308
O O2 0.588455 0.093195 0.335678
O O3 0.167939 0.206344 0.267843
O O4 0.811772 0.038758 0.616480
O O5 0.705981 0.300648 0.261419
O O6 0.240460 0.318332 0.232599
O O7 0.573281 0.369748 0.937964
O O8 0.194824 0.242179 0.809621
O O9 0.667037 0.282058 0.941525
O O10 0.693523 0.246079 0.769367
O O11 0.252169 0.117609 0.112782
O O12 0.747139 0.614661 0.507673
O O13 0.067112 0.750217 0.446799
O O14 0.722481 0.415106 0.615556
O O15 0.149891 0.452097 0.756774
O O16 0.500000 0.500000 0.500000
O O17 0.000000 0.000000 0.500000
#
# Coordination Sequence:
#
# PCOD9003546 Si02
#       8
#     2   2   2   2   2   2   2   2
#     4   9  22  36  64  89 124 158 193 255 299 357
#     4  10  22  39  67  88 119 164 207 244 300 361
#     4  11  24  37  65  91 121 162 200 252 302 370
#     4  11  24  43  61  88 125 165 209 237 306 366
#     4  10  22  42  62  86 122 173 200 247 291 362
#     4  10  21  37  60  95 121 153 204 253 311 355
#     4  10  21  37  61  89 126 155 195 262 306 352
#     4  11  22  38  62  97 125 148 201 259 310 346
#
# _framework density 19.982952999999998
#
# number of rings (size 3 to 8) (size 9 to 14) (size 15 to 20)
#    0.750    1.000    1.250    3.000    8.750    0.000 
#    0.000    2.500    0.000    0.000    0.000    0.000 
#    0.000    0.000    0.000    0.000    0.000    0.000 
#
# Total GULP energy -89223.088741 kJ/mol
# GULP energy per Si atom -5576.443046 kJ/mol
# Density = 1.993747 g / cm^3
# Si number density = 19.982953 Si / 1000 Ang^3
#
#
#
# Elastic Constant Matrix: (Units=GPa)
#
#
# Indices 1 2 3 4 5 6 
#
# 1 87.7416 0.8097 16.5336 -2.8464 -15.1785 -2.2889
# 2 0.8097 38.8316 6.6202 0.7348 -3.0033 0.2225
# 3 16.5336 6.6202 59.3577 -4.5640 -19.6032 4.9150
# 4 -2.8464 0.7348 -4.5640 21.9638 -4.0110 -4.1565
# 5 -15.1785 -3.0033 -19.6032 -4.0110 34.2522 1.1832
# 6 -2.2889 0.2225 4.9150 -4.1565 1.1832 16.8179
#
#
#
# Elastic Compliance Matrix: (Units=1/GPa)
#
#
# Indices 1 2 3 4 5 6 
#
# 1 0.012749 0.000386 -0.002057 0.002572 0.004716 0.002635
# 2 0.000386 0.026319 -0.002950 -0.001290 0.000632 0.000203
# 3 -0.002057 -0.002950 0.022975 0.005738 0.012873 -0.006443
# 4 0.002572 -0.001290 0.005738 0.050909 0.009907 0.010575
# 5 0.004716 0.000632 0.012873 0.009907 0.039989 -0.003494
# 6 0.002635 0.000203 -0.006443 0.010575 -0.003494 0.064559
#
#
# Mechanical properties :
#
#
# Convention : Reuss Voigt Hill
#
# Bulk Modulus (GPa) = 18.93897 25.98420 22.46158
# Shear Modulus (GPa) = 20.46305 25.40462 22.93383
#
# Velocity S-wave (km/s) = 3.20351 3.56942 3.39140
# Velocity P-wave (km/s) = 4.81471 5.47897 5.15754
#
# Compressibility (1/GPa) = 0.05280120
#
# Stress axis : x y z
#
# Youngs Moduli (GPa) = 78.43617 37.99499 43.52521
#
# Poissons Ratio (x) = -0.01466 0.08953
# Poissons Ratio (y) = -0.03027 0.12840
# Poissons Ratio (z) = 0.16135 0.11209
#
# Static dielectric constant tensor:
#      x y z
#    x 1.770260 -0.013560 0.021150 
#    y -0.013560 1.716750 -0.046060 
#    z 0.021150 -0.046060 1.724450 
# 
# From -- ./inp_files/110864.got.cif
#   From: 2010.05.17/outbox.cif.g08.bks.cpg/sg2_56_cif.got.tgz:110864.got - 2010.06.03 11:33:40.
