data_PCOD9003323
_publ_section_title
;
Structure prediction by ZEFSAII (Michael W. Deem and Ramdas Pophale) SiO2 
 PCOD9003323
Probable space group: P -1
;
_chemical_formula_sum "Si O2"
_cell_formula_units_Z 13
_cell_length_a 8.842371
_cell_length_b 15.455476
_cell_length_c 8.154758
_cell_angle_alpha 135.048679
_cell_angle_beta 83.616693
_cell_angle_gamma 128.513947
_cell_volume 494.671798
_symmetry_space_group_name_H-M "P -1"
_symmetry_group_IT_number 2
_symmetry_cell_setting 'triclinic'
loop_
_space_group_symop_operation_xyz
x,y,z
-x,-y,-z
loop_
_atom_site_type_symbol
_atom_site_label
_atom_site_fract_x
_atom_site_fract_y
_atom_site_fract_z
Si Si1 0.949427 0.760630 0.285993
Si Si2 0.964938 0.126216 0.220121
Si Si3 0.500000 0.000000 0.500000
Si Si4 0.733610 0.372267 0.806312
Si Si5 0.740193 0.706367 0.907961
Si Si6 0.570772 0.184575 0.219278
Si Si7 0.734830 0.477058 0.388491
O O1 0.952415 0.839986 0.559100
O O2 0.212671 0.861821 0.375404
O O3 0.748309 0.528584 0.016944
O O4 0.885784 0.795687 0.177313
O O5 0.110811 0.163828 0.099198
O O6 0.028084 0.313275 0.435100
O O7 0.688898 0.928271 0.955337
O O8 0.438095 0.819209 0.319890
O O9 0.666848 0.292379 0.522896
O O10 0.000000 0.500000 0.000000
O O11 0.690260 0.532104 0.631519
O O12 0.492822 0.626309 0.832136
O O13 0.736683 0.336951 0.253764
O O14 0.500000 0.000000 0.000000
#
# Coordination Sequence:
#
# PCOD9003323 Si02
#       7
#     2   2   1   2   2   2   2
#     4  11  21  41  66  94 132 176 219 264 331 389
#     4  10  23  39  65  99 126 168 222 271 325 393
#     4  10  22  36  56  94 136 164 214 264 314 390
#     4  10  21  37  59  88 129 176 209 259 324 388
#     4   9  20  46  66  90 132 176 217 273 324 385
#     4  12  23  39  65  96 132 172 216 272 334 389
#     4   9  22  45  63  92 133 172 218 274 327 386
#
# _framework density 26.280052000000001
#
# number of rings (size 3 to 8) (size 9 to 14) (size 15 to 20)
#    0.923    0.923    1.538    2.769    0.000    4.308 
#    0.000    0.769    0.000    0.000    0.000    1.077 
#    0.000    0.000    0.000    0.000    0.000    0.000 
#
# Total GULP energy -72424.087849 kJ/mol
# GULP energy per Si atom -5571.083681 kJ/mol
# Density = 2.622024 g / cm^3
# Si number density = 26.280052 Si / 1000 Ang^3
#
#
#
# Elastic Constant Matrix: (Units=GPa)
#
#
# Indices 1 2 3 4 5 6 
#
# 1 62.0632 46.6583 49.5512 -6.8674 -13.6315 -24.7819
# 2 46.6583 141.2697 97.7146 -14.0075 9.4444 -7.2218
# 3 49.5512 97.7146 159.0690 -41.1197 6.8522 -0.7906
# 4 -6.8674 -14.0075 -41.1197 65.6562 3.3049 8.2513
# 5 -13.6315 9.4444 6.8522 3.3049 35.5509 5.1368
# 6 -24.7819 -7.2218 -0.7906 8.2513 5.1368 27.0036
#
#
#
# Elastic Compliance Matrix: (Units=1/GPa)
#
#
# Indices 1 2 3 4 5 6 
#
# 1 0.063383 -0.007357 -0.020014 -0.015687 0.023491 0.055939
# 2 -0.007357 0.014136 -0.006545 -0.001378 -0.004926 -0.001805
# 3 -0.020014 -0.006545 0.019894 0.012094 -0.007750 -0.021756
# 4 -0.015687 -0.001378 0.012094 0.023787 -0.007258 -0.020299
# 5 0.023491 -0.004926 -0.007750 -0.007258 0.038458 0.014916
# 6 0.055939 -0.001805 -0.021756 -0.020299 0.014916 0.090615
#
#
# Mechanical properties :
#
#
# Convention : Reuss Voigt Hill
#
# Bulk Modulus (GPa) = 33.80553 83.36113 58.58333
# Shear Modulus (GPa) = 15.24564 36.87399 26.05982
#
# Velocity S-wave (km/s) = 2.41119 3.74988 3.15242
# Velocity P-wave (km/s) = 4.54348 7.10901 5.96579
#
# Compressibility (1/GPa) = 0.02958096
#
# Stress axis : x y z
#
# Youngs Moduli (GPa) = 15.77717 70.74242 50.26765
#
# Poissons Ratio (x) = 0.52043 1.00606
# Poissons Ratio (y) = 0.11607 0.32899
# Poissons Ratio (z) = 0.31577 0.46299
#
# Static dielectric constant tensor:
#      x y z
#    x 2.161300 -0.081150 -0.126830 
#    y -0.081150 2.124520 0.069700 
#    z -0.126830 0.069700 2.071440 
# 
# From -- ./inp_files/198496.got.cif
#   From: 2010.05.17/outbox.cif.g08.bks.cpg/sg2_100_cif.got.tgz:198496.got - 2010.06.03 11:33:40.
