data_PCOD9003623
_publ_section_title
;
Structure prediction by ZEFSAII (Michael W. Deem and Ramdas Pophale) SiO2 
 PCOD9003623
Probable space group: P -1
;
_chemical_formula_sum "Si O2"
_cell_formula_units_Z 16
_cell_length_a 16.682383
_cell_length_b 9.257881
_cell_length_c 8.299963
_cell_angle_alpha 48.919622
_cell_angle_beta 102.443510
_cell_angle_gamma 128.875683
_cell_volume 708.613390
_symmetry_space_group_name_H-M "P -1"
_symmetry_group_IT_number 2
_symmetry_cell_setting 'triclinic'
loop_
_space_group_symop_operation_xyz
x,y,z
-x,-y,-z
loop_
_atom_site_type_symbol
_atom_site_label
_atom_site_fract_x
_atom_site_fract_y
_atom_site_fract_z
Si Si1 0.041927 0.416144 0.946774
Si Si2 0.648217 0.895099 0.795738
Si Si3 0.715088 0.317047 0.033377
Si Si4 0.221317 0.270546 0.033501
Si Si5 0.475923 0.144600 0.501100
Si Si6 0.596162 0.144594 0.806971
Si Si7 0.854599 0.490680 0.391440
Si Si8 0.995136 0.935927 0.356296
O O1 0.061687 0.484343 0.715587
O O2 0.163858 0.558899 0.958824
O O3 0.973661 0.113404 0.140595
O O4 0.000000 0.500000 0.000000
O O5 0.564795 0.753201 0.712312
O O6 0.588984 0.926355 0.882580
O O7 0.748759 0.194330 0.575654
O O8 0.708677 0.797719 0.948559
O O9 0.700507 0.500603 0.974209
O O10 0.701891 0.314277 0.839645
O O11 0.627079 0.050024 0.282164
O O12 0.112712 0.052266 0.249165
O O13 0.184297 0.371492 0.813579
O O14 0.500000 0.000000 0.500000
O O15 0.577971 0.284517 0.565580
O O16 0.500000 0.000000 0.000000
O O17 0.911269 0.649060 0.463953
O O18 0.000000 0.000000 0.500000
#
# Coordination Sequence:
#
# PCOD9003623 Si02
#       8
#     2   2   2   2   2   2   2   2
#     4  10  21  37  61  89 127 167 203 250 307 362
#     4  11  21  37  68  87 111 164 202 244 312 370
#     4   9  18  38  57  85 130 153 194 259 305 347
#     4  10  22  39  59  89 122 156 206 248 303 366
#     4   9  17  36  60  86 112 153 198 246 303 359
#     4   9  20  36  63  87 120 157 195 256 313 364
#     4  10  22  42  59  86 129 162 203 254 304 354
#     4  10  23  39  57  87 127 163 203 260 295 354
#
# _framework density 22.579308000000001
#
# number of rings (size 3 to 8) (size 9 to 14) (size 15 to 20)
#    0.000    2.500    2.500    1.500    5.250    2.500 
#    0.000    7.500    0.000    0.000    0.000    0.000 
#    0.000    0.000    0.000    0.000    0.000    0.000 
#
# Total GULP energy -89165.320067 kJ/mol
# GULP energy per Si atom -5572.832504 kJ/mol
# Density = 2.252792 g / cm^3
# Si number density = 22.579308 Si / 1000 Ang^3
#
#
#
# Elastic Constant Matrix: (Units=GPa)
#
#
# Indices 1 2 3 4 5 6 
#
# 1 108.3855 17.8133 23.6160 0.9595 -1.7762 -32.2356
# 2 17.8133 99.4619 12.1766 30.4797 5.0336 -1.6277
# 3 23.6160 12.1766 44.7440 13.4741 0.0546 -8.0179
# 4 0.9595 30.4797 13.4741 26.1677 -2.5436 2.2782
# 5 -1.7762 5.0336 0.0546 -2.5436 33.5624 3.7243
# 6 -32.2356 -1.6277 -8.0179 2.2782 3.7243 30.8850
#
#
#
# Elastic Compliance Matrix: (Units=1/GPa)
#
#
# Indices 1 2 3 4 5 6 
#
# 1 0.015149 -0.003423 -0.006295 0.005515 0.000238 0.013561
# 2 -0.003423 0.017363 0.004023 -0.022668 -0.004577 0.000611
# 3 -0.006295 0.004023 0.031713 -0.021412 -0.003035 0.003820
# 4 0.005515 -0.022668 -0.021412 0.077150 0.010455 -0.007948
# 5 0.000238 -0.004577 -0.003035 0.010455 0.031891 -0.005397
# 6 0.013561 0.000611 0.003820 -0.007948 -0.005397 0.048793
#
#
# Mechanical properties :
#
#
# Convention : Reuss Voigt Hill
#
# Bulk Modulus (GPa) = 18.92703 39.97813 29.45258
# Shear Modulus (GPa) = 19.91551 31.38872 25.65212
#
# Velocity S-wave (km/s) = 2.97311 3.73252 3.37425
# Velocity P-wave (km/s) = 4.49294 6.02658 5.31537
#
# Compressibility (1/GPa) = 0.05283450
#
# Stress axis : x y z
#
# Youngs Moduli (GPa) = 66.01151 57.59449 31.53239
#
# Poissons Ratio (x) = 0.19713 0.19850
# Poissons Ratio (y) = 0.22594 -0.12684
# Poissons Ratio (z) = 0.41556 -0.23168
#
# Static dielectric constant tensor:
#      x y z
#    x 1.915000 0.028250 0.002950 
#    y 0.028250 1.921790 0.027410 
#    z 0.002950 0.027410 1.929910 
# 
# From -- ./inp_files/325606.got.cif
#   From: 2010.05.17/outbox.cif.g08.bks.cpg/sg2_163_cif.got.tgz:325606.got - 2010.06.03 11:33:40.
