data_PCOD9003846
_publ_section_title
;
Structure prediction by ZEFSAII (Michael W. Deem and Ramdas Pophale) SiO2 
 PCOD9003846
Probable space group: P -1
;
_chemical_formula_sum "Si O2"
_cell_formula_units_Z 16
_cell_length_a 16.368538
_cell_length_b 7.851638
_cell_length_c 10.767431
_cell_angle_alpha 103.576148
_cell_angle_beta 33.111368
_cell_angle_gamma 102.883807
_cell_volume 733.913821
_symmetry_space_group_name_H-M "P -1"
_symmetry_group_IT_number 2
_symmetry_cell_setting 'triclinic'
loop_
_space_group_symop_operation_xyz
x,y,z
-x,-y,-z
loop_
_atom_site_type_symbol
_atom_site_label
_atom_site_fract_x
_atom_site_fract_y
_atom_site_fract_z
Si Si1 0.608088 0.547658 0.757201
Si Si2 0.387511 0.464486 0.817222
Si Si3 0.045476 0.437246 0.294268
Si Si4 0.897020 0.716335 0.357280
Si Si5 0.252447 0.154293 0.645684
Si Si6 0.819719 0.225539 0.392746
Si Si7 0.147120 0.915026 0.936611
Si Si8 0.437838 0.751987 0.610077
O O1 0.490413 0.575666 0.801627
O O2 0.739682 0.701397 0.632599
O O3 0.701986 0.375561 0.583043
O O4 0.500000 0.500000 0.000000
O O5 0.367603 0.578535 0.737426
O O6 0.486836 0.303961 0.623848
O O7 0.222488 0.413054 0.065730
O O8 0.000000 0.500000 0.500000
O O9 0.999495 0.580893 0.273938
O O10 0.944468 0.272030 0.345438
O O11 0.818716 0.692509 0.316034
O O12 0.017538 0.873147 0.193440
O O13 0.420879 0.185581 0.478050
O O14 0.244244 0.974469 0.545215
O O15 0.156776 0.097725 0.880413
O O16 0.867806 0.222248 0.184769
O O17 0.309591 0.886108 0.780656
#
# Coordination Sequence:
#
# PCOD9003846 Si02
#       8
#     2   2   2   2   2   2   2   2
#     4  11  22  41  63  85 123 165 216 254 299 359
#     4  11  21  35  60  93 119 156 216 249 313 363
#     4  11  24  41  63  86 124 166 213 262 298 356
#     4  11  22  39  64  92 123 165 200 258 311 369
#     4  10  22  40  63  95 128 159 199 252 327 376
#     4   9  23  40  64  94 124 156 208 255 317 366
#     4  10  21  37  62  93 128 153 201 252 321 372
#     4  11  21  36  61  96 124 160 191 263 316 372
#
# _framework density 21.800923999999998
#
# number of rings (size 3 to 8) (size 9 to 14) (size 15 to 20)
#    0.750    0.750    3.750    2.250    1.750    2.000 
#    0.000    1.250    0.000    0.000    0.000    0.000 
#    0.000    0.000    0.000    0.000    0.000    0.000 
#
# Total GULP energy -89074.012141 kJ/mol
# GULP energy per Si atom -5567.125759 kJ/mol
# Density = 2.175130 g / cm^3
# Si number density = 21.800924 Si / 1000 Ang^3
#
#
#
# Elastic Constant Matrix: (Units=GPa)
#
#
# Indices 1 2 3 4 5 6 
#
# 1 101.8979 22.9686 43.2403 -3.5832 -22.6779 -2.7462
# 2 22.9686 50.9181 27.8563 -8.2522 6.6667 -3.0471
# 3 43.2403 27.8563 140.4768 -26.1242 -14.7120 -0.6653
# 4 -3.5832 -8.2522 -26.1242 26.4699 -0.9188 -6.3600
# 5 -22.6779 6.6667 -14.7120 -0.9188 39.6246 -2.4824
# 6 -2.7462 -3.0471 -0.6653 -6.3600 -2.4824 40.4407
#
#
#
# Elastic Compliance Matrix: (Units=1/GPa)
#
#
# Indices 1 2 3 4 5 6 
#
# 1 0.014110 -0.006307 -0.002658 -0.002256 0.008134 0.000584
# 2 -0.006307 0.026328 -0.003493 0.003965 -0.009146 0.001560
# 3 -0.002658 -0.003493 0.010789 0.009668 0.003388 0.001462
# 4 -0.002256 0.003965 0.009668 0.050394 0.003328 0.008434
# 5 0.008134 -0.009146 0.003388 0.003328 0.032920 0.002463
# 6 0.000584 0.001560 0.001462 0.008434 0.002463 0.026386
#
#
# Mechanical properties :
#
#
# Convention : Reuss Voigt Hill
#
# Bulk Modulus (GPa) = 38.00360 53.49147 45.74754
# Shear Modulus (GPa) = 25.69209 34.58889 30.14049
#
# Velocity S-wave (km/s) = 3.43663 3.98751 3.72228
# Velocity P-wave (km/s) = 5.76344 6.76682 6.28519
#
# Compressibility (1/GPa) = 0.02631330
#
# Stress axis : x y z
#
# Youngs Moduli (GPa) = 70.87372 37.98171 92.68634
#
# Poissons Ratio (x) = 0.23953 0.24632
# Poissons Ratio (y) = 0.44697 0.32374
# Poissons Ratio (z) = 0.18835 0.13267
#
# Static dielectric constant tensor:
#      x y z
#    x 1.825450 -0.006340 0.008540 
#    y -0.006340 1.866900 -0.034880 
#    z 0.008540 -0.034880 1.835400 
# 
# From -- ./inp_files/460639.got.cif
#   From: 2010.05.17/outbox.cif.g08.bks.cpg/sg2_231_cif.got.tgz:460639.got - 2010.06.03 11:33:40.
