data_PCOD9003386
_publ_section_title
;
Structure prediction by ZEFSAII (Michael W. Deem and Ramdas Pophale) SiO2 
 PCOD9003386
Probable space group: P -1
;
_chemical_formula_sum "Si O2"
_cell_formula_units_Z 16
_cell_length_a 11.899858
_cell_length_b 16.921705
_cell_length_c 5.395626
_cell_angle_alpha 131.143772
_cell_angle_beta 60.048325
_cell_angle_gamma 131.297060
_cell_volume 610.633689
_symmetry_space_group_name_H-M "P -1"
_symmetry_group_IT_number 2
_symmetry_cell_setting 'triclinic'
loop_
_space_group_symop_operation_xyz
x,y,z
-x,-y,-z
loop_
_atom_site_type_symbol
_atom_site_label
_atom_site_fract_x
_atom_site_fract_y
_atom_site_fract_z
Si Si1 0.289065 0.289863 0.294044
Si Si2 0.831590 0.940212 0.740040
Si Si3 0.596760 0.146869 0.719956
Si Si4 0.463581 0.177558 0.430498
Si Si5 0.578382 0.412826 0.509101
Si Si6 0.038447 0.189593 0.969041
Si Si7 0.812236 0.577174 0.938040
Si Si8 0.833311 0.398838 0.889835
O O1 0.264137 0.163084 0.169369
O O2 0.463103 0.383555 0.351129
O O3 0.212450 0.354699 0.663787
O O4 0.193298 0.243965 0.058117
O O5 0.710220 0.923215 0.630585
O O6 0.944605 0.891889 0.434138
O O7 0.908157 0.078158 0.034778
O O8 0.522220 0.181573 0.646899
O O9 0.500000 0.000000 0.500000
O O10 0.561518 0.160476 0.073440
O O11 0.772290 0.253454 0.687131
O O12 0.486444 0.306788 0.590728
O O13 0.667269 0.531070 0.824839
O O14 0.716346 0.408213 0.221737
O O15 0.040966 0.310322 0.122540
O O16 0.818762 0.459127 0.773003
O O17 0.000000 0.500000 0.000000
#
# Coordination Sequence:
#
# PCOD9003386 Si02
#       8
#     2   2   2   2   2   2   2   2
#     4  10  21  37  66  95 132 172 219 274 333 411
#     4   9  21  37  59  94 133 177 212 271 330 410
#     4  11  24  47  71  99 126 173 239 292 339 406
#     4  10  22  42  71  97 127 176 224 283 342 405
#     4  10  22  41  66  95 131 175 217 274 336 408
#     4  10  21  37  59  94 138 171 218 264 338 407
#     4  11  22  40  60  96 131 169 224 271 342 403
#     4  11  26  45  65  94 133 179 224 286 348 405
#
# _framework density 26.202287999999999
#
# number of rings (size 3 to 8) (size 9 to 14) (size 15 to 20)
#    0.000    1.750    1.250    1.875    5.250    4.500 
#    4.500    0.000    0.000    0.000    0.000    0.000 
#    0.000    0.000    0.000    0.000    0.000    0.000 
#
# Total GULP energy -89162.804881 kJ/mol
# GULP energy per Si atom -5572.675305 kJ/mol
# Density = 2.614265 g / cm^3
# Si number density = 26.202288 Si / 1000 Ang^3
#
#
#
# Elastic Constant Matrix: (Units=GPa)
#
#
# Indices 1 2 3 4 5 6 
#
# 1 57.0791 33.3774 -1.1621 10.7672 26.2766 13.6721
# 2 33.3774 184.9327 46.8102 65.3468 3.3018 3.6912
# 3 -1.1621 46.8102 75.7843 19.1128 7.4734 -11.9187
# 4 10.7672 65.3468 19.1128 53.0872 3.5745 1.5805
# 5 26.2766 3.3018 7.4734 3.5745 23.3817 3.4761
# 6 13.6721 3.6912 -11.9187 1.5805 3.4761 31.2913
#
#
#
# Elastic Compliance Matrix: (Units=1/GPa)
#
#
# Indices 1 2 3 4 5 6 
#
# 1 0.059789 -0.015032 0.013446 0.006509 -0.068587 -0.011939
# 2 -0.015032 0.014347 -0.007580 -0.013193 0.019229 0.000518
# 3 0.013446 -0.007580 0.020974 0.000346 -0.021598 0.005390
# 4 0.006509 -0.013193 0.000346 0.034394 -0.010565 -0.001720
# 5 -0.068587 0.019229 -0.021598 -0.010565 0.124736 0.006149
# 6 -0.011939 0.000518 0.005390 -0.001720 0.006149 0.038570
#
#
# Mechanical properties :
#
#
# Convention : Reuss Voigt Hill
#
# Bulk Modulus (GPa) = 13.02442 52.87190 32.94816
# Shear Modulus (GPa) = 14.84856 37.47008 26.15932
#
# Velocity S-wave (km/s) = 2.38311 3.78568 3.16311
# Velocity P-wave (km/s) = 3.54313 6.27141 5.09335
#
# Compressibility (1/GPa) = 0.07677884
#
# Stress axis : x y z
#
# Youngs Moduli (GPa) = 16.72548 69.70100 47.67863
#
# Poissons Ratio (x) = 1.04772 -0.64109
# Poissons Ratio (y) = 0.25141 0.36140
# Poissons Ratio (z) = -0.22489 0.52832
#
# Static dielectric constant tensor:
#      x y z
#    x 2.085990 -0.004200 -0.035130 
#    y -0.004200 2.250670 -0.036460 
#    z -0.035130 -0.036460 2.135660 
# 
# From -- ./inp_files/81695.got.cif
#   From: 2010.05.17/outbox.cif.g08.bks.cpg/sg2_41_cif.got.tgz:81695.got - 2010.06.03 11:33:40.
