data_PCOD9003410
_publ_section_title
;
Structure prediction by ZEFSAII (Michael W. Deem and Ramdas Pophale) SiO2 
 PCOD9003410
Probable space group: P -1
;
_chemical_formula_sum "Si O2"
_cell_formula_units_Z 16
_cell_length_a 5.171057
_cell_length_b 23.337347
_cell_length_c 19.109911
_cell_angle_alpha 162.194432
_cell_angle_beta 100.062596
_cell_angle_gamma 73.215624
_cell_volume 634.365520
_symmetry_space_group_name_H-M "P -1"
_symmetry_group_IT_number 2
_symmetry_cell_setting 'triclinic'
loop_
_space_group_symop_operation_xyz
x,y,z
-x,-y,-z
loop_
_atom_site_type_symbol
_atom_site_label
_atom_site_fract_x
_atom_site_fract_y
_atom_site_fract_z
Si Si1 0.826932 0.358383 0.830366
Si Si2 0.874668 0.553137 0.633847
Si Si3 0.862169 0.900922 0.821421
Si Si4 0.549565 0.089318 0.756950
Si Si5 0.366817 0.637290 0.798951
Si Si6 0.498343 0.279168 0.606822
Si Si7 0.904167 0.240886 0.848315
Si Si8 0.647997 0.168466 0.327379
O O1 0.775857 0.271946 0.654043
O O2 0.500000 0.500000 0.000000
O O3 0.934002 0.214321 0.735185
O O4 0.000000 0.500000 0.000000
O O5 0.008257 0.336460 0.427451
O O6 0.033439 0.686860 0.828963
O O7 0.000000 0.500000 0.500000
O O8 0.538645 0.637321 0.735265
O O9 0.523996 0.954909 0.860661
O O10 0.017902 0.916388 0.775317
O O11 0.000000 0.000000 0.000000
O O12 0.625193 0.856842 0.512527
O O13 0.586910 0.215953 0.971694
O O14 0.725048 0.130167 0.749153
O O15 0.215616 0.175928 0.820722
O O16 0.508886 0.403455 0.564283
O O17 0.275567 0.514641 0.862914
O O18 0.586729 0.183078 0.423166
#
# Coordination Sequence:
#
# PCOD9003410 Si02
#       8
#     2   2   2   2   2   2   2   2
#     4  10  23  43  70 101 136 187 228 281 352 407
#     4  10  21  37  60  85 122 171 211 270 333 402
#     4  10  22  38  59  91 124 168 219 266 340 398
#     4  12  26  42  72 103 133 187 232 281 349 408
#     4  10  21  39  59  90 127 168 219 269 343 391
#     4  11  26  45  72 105 137 181 244 275 345 423
#     4  11  25  46  69  98 148 180 222 300 343 395
#     4  10  22  38  65  87 129 178 208 283 336 389
#
# _framework density 25.222049999999999
#
# number of rings (size 3 to 8) (size 9 to 14) (size 15 to 20)
#    0.000    1.500    1.250    3.000    3.500    8.000 
#    0.000    0.000    0.000    0.000    0.000    0.000 
#    0.000    0.000    0.000    0.000    0.000    0.000 
#
# Total GULP energy -89652.166332 kJ/mol
# GULP energy per Si atom -5603.260396 kJ/mol
# Density = 2.516464 g / cm^3
# Si number density = 25.222050 Si / 1000 Ang^3
#
#
#
# Elastic Constant Matrix: (Units=GPa)
#
#
# Indices 1 2 3 4 5 6 
#
# 1 181.0256 56.1526 54.4095 0.0504 40.3298 22.1486
# 2 56.1526 129.2651 48.3289 0.7338 23.1876 29.7776
# 3 54.4095 48.3289 104.0146 19.7079 27.7234 9.7812
# 4 0.0504 0.7338 19.7079 56.9422 1.6276 14.7089
# 5 40.3298 23.1876 27.7234 1.6276 43.3686 1.0094
# 6 22.1486 29.7776 9.7812 14.7089 1.0094 36.7353
#
#
#
# Elastic Compliance Matrix: (Units=1/GPa)
#
#
# Indices 1 2 3 4 5 6 
#
# 1 0.008315 -0.000583 -0.002527 0.002229 -0.005782 -0.004602
# 2 -0.000583 0.012579 -0.004503 0.004126 -0.003223 -0.010210
# 3 -0.002527 -0.004503 0.015078 -0.005974 -0.004742 0.003681
# 4 0.002229 0.004126 -0.005974 0.022749 -0.001031 -0.012179
# 5 -0.005782 -0.003223 -0.004742 -0.001031 0.033068 0.006865
# 6 -0.004602 -0.010210 0.003681 -0.012179 0.006865 0.041980
#
#
# Mechanical properties :
#
#
# Convention : Reuss Voigt Hill
#
# Bulk Modulus (GPa) = 48.20042 81.34301 64.77172
# Shear Modulus (GPa) = 32.06961 44.43685 38.25323
#
# Velocity S-wave (km/s) = 3.56967 4.20196 3.89865
# Velocity P-wave (km/s) = 6.01182 7.47414 6.78250
#
# Compressibility (1/GPa) = 0.02074671
#
# Stress axis : x y z
#
# Youngs Moduli (GPa) = 120.26630 79.49568 66.32247
#
# Poissons Ratio (x) = 0.04631 0.16762
# Poissons Ratio (y) = 0.07006 0.29863
# Poissons Ratio (z) = 0.30395 0.35795
#
# Static dielectric constant tensor:
#      x y z
#    x 1.944460 0.006830 -0.034760 
#    y 0.006830 2.018680 -0.032990 
#    z -0.034760 -0.032990 2.045770 
# 
# From -- ./inp_files/551029.got.cif
#   From: 2010.05.17/outbox.cif.g08.bks.cpg/sg2_276_cif.got.tgz:551029.got - 2010.06.03 11:33:40.
