data_PCOD9003133
_publ_section_title
;
Structure prediction by ZEFSAII (Michael W. Deem and Ramdas Pophale) SiO2 
 PCOD9003133
Probable space group: P -1
;
_chemical_formula_sum "Si O2"
_cell_formula_units_Z 8
_cell_length_a 5.230480
_cell_length_b 5.371573
_cell_length_c 14.575670
_cell_angle_alpha 68.043578
_cell_angle_beta 109.113125
_cell_angle_gamma 122.083293
_cell_volume 317.452902
_symmetry_space_group_name_H-M "P -1"
_symmetry_group_IT_number 2
_symmetry_cell_setting 'triclinic'
loop_
_space_group_symop_operation_xyz
x,y,z
-x,-y,-z
loop_
_atom_site_type_symbol
_atom_site_label
_atom_site_fract_x
_atom_site_fract_y
_atom_site_fract_z
Si Si1 0.545745 0.474318 0.306062
Si Si2 0.189399 0.832077 0.929482
Si Si3 0.439594 0.323234 0.113927
Si Si4 0.904178 0.083948 0.380257
O O1 0.506879 0.519621 0.186511
O O2 0.688584 0.240832 0.354097
O O3 0.213218 0.318931 0.333732
O O4 0.748417 0.776434 0.344567
O O5 0.315305 0.801978 0.849596
O O6 0.918146 0.926426 0.887528
O O7 0.000000 0.500000 0.000000
O O8 0.500000 0.000000 0.000000
O O9 0.500000 0.500000 0.000000
O O10 0.000000 0.000000 0.500000
#
# Coordination Sequence:
#
# PCOD9003133 Si02
#       4
#     2   2   2   2
#     4  12  26  45  74 108 142 189 239 290 362 431
#     4  10  21  37  58  84 124 178 224 269 326 388
#     4  10  23  41  64  98 141 185 230 284 341 419
#     4  12  26  49  75 106 142 184 239 305 363 424
#
# _framework density 25.200590999999999
#
# number of rings (size 3 to 8) (size 9 to 14) (size 15 to 20)
#    0.000    1.000    0.000    6.000    0.000   12.000 
#    0.000    0.000    0.000    0.000    0.000    0.000 
#    0.000    0.000    0.000    0.000    0.000    0.000 
#
# Total GULP energy -44761.575603 kJ/mol
# GULP energy per Si atom -5595.196950 kJ/mol
# Density = 2.514323 g / cm^3
# Si number density = 25.200591 Si / 1000 Ang^3
#
#
#
# Elastic Constant Matrix: (Units=GPa)
#
#
# Indices 1 2 3 4 5 6 
#
# 1 196.7875 33.1644 19.8087 5.2944 -9.9014 29.7031
# 2 33.1644 151.3234 47.1458 42.7682 -13.9530 13.9460
# 3 19.8087 47.1458 169.3291 30.8851 -6.1245 0.6679
# 4 5.2944 42.7682 30.8851 36.4694 -7.2024 -2.0031
# 5 -9.9014 -13.9530 -6.1245 -7.2024 46.1113 -7.4716
# 6 29.7031 13.9460 0.6679 -2.0031 -7.4716 62.9328
#
#
#
# Elastic Compliance Matrix: (Units=1/GPa)
#
#
# Indices 1 2 3 4 5 6 
#
# 1 0.005669 -0.001049 -0.000488 0.000806 0.000581 -0.002343
# 2 -0.001049 0.010619 -0.000663 -0.011714 0.000724 -0.002138
# 3 -0.000488 -0.000663 0.007085 -0.005176 -0.000153 0.000119
# 4 0.000806 -0.011714 -0.005176 0.046421 0.003873 0.004208
# 5 0.000581 0.000724 -0.000153 0.003873 0.023008 0.002422
# 6 -0.002343 -0.002138 0.000119 0.004208 0.002422 0.017890
#
#
# Mechanical properties :
#
#
# Convention : Reuss Voigt Hill
#
# Bulk Modulus (GPa) = 52.70153 79.74197 66.22175
# Shear Modulus (GPa) = 41.18111 56.92412 49.05261
#
# Velocity S-wave (km/s) = 4.04683 4.75788 4.41669
# Velocity P-wave (km/s) = 6.54171 7.86733 7.23494
#
# Compressibility (1/GPa) = 0.01897478
#
# Stress axis : x y z
#
# Youngs Moduli (GPa) = 176.40657 94.16840 141.13601
#
# Poissons Ratio (x) = 0.09875 0.06887
# Poissons Ratio (y) = 0.18498 0.09354
# Poissons Ratio (z) = 0.08608 0.06241
#
# Static dielectric constant tensor:
#      x y z
#    x 2.295340 -0.274840 0.103570 
#    y -0.274840 2.292380 -0.033130 
#    z 0.103570 -0.033130 2.027740 
# 
# From -- ./inp_files/4010.got.cif
#   From: 2010.05.17/outbox.cif.g08.bks.cpg/sg2_3_cif.got.tgz:4010.got - 2010.06.03 11:33:40.
