data_PCOD9003868
_publ_section_title
;
Structure prediction by ZEFSAII (Michael W. Deem and Ramdas Pophale) SiO2 
 PCOD9003868
Probable space group: P -1
;
_chemical_formula_sum "Si O2"
_cell_formula_units_Z 14
_cell_length_a 6.970034
_cell_length_b 17.942680
_cell_length_c 5.033079
_cell_angle_alpha 81.628782
_cell_angle_beta 64.963718
_cell_angle_gamma 78.423491
_cell_volume 557.392384
_symmetry_space_group_name_H-M "P -1"
_symmetry_group_IT_number 2
_symmetry_cell_setting 'triclinic'
loop_
_space_group_symop_operation_xyz
x,y,z
-x,-y,-z
loop_
_atom_site_type_symbol
_atom_site_label
_atom_site_fract_x
_atom_site_fract_y
_atom_site_fract_z
Si Si1 0.111643 0.914206 0.440867
Si Si2 0.897665 0.424015 0.344050
Si Si3 0.359807 0.450864 0.290090
Si Si4 0.837631 0.690796 0.067827
Si Si5 0.388976 0.673029 0.094209
Si Si6 0.816674 0.797233 0.525023
Si Si7 0.671414 0.153910 0.119434
O O1 0.953825 0.864865 0.410516
O O2 0.181833 0.878018 0.703367
O O3 0.304303 0.901532 0.121588
O O4 0.000000 0.000000 0.500000
O O5 0.725683 0.501711 0.419538
O O6 0.778833 0.368935 0.626129
O O7 0.128203 0.439092 0.312267
O O8 0.975524 0.381226 0.047908
O O9 0.500000 0.500000 0.000000
O O10 0.512527 0.370020 0.209428
O O11 0.602102 0.670996 0.152966
O O12 0.844307 0.734380 0.312979
O O13 0.868775 0.750853 0.789623
O O14 0.301289 0.760530 0.033771
O O15 0.570872 0.834879 0.644589
#
# Coordination Sequence:
#
# PCOD9003868 Si02
#       7
#     2   2   2   2   2   2   2
#     4  12  27  46  72 105 137 176 226 277 344 422
#     4   9  16  31  58  94 138 179 225 284 336 387
#     4   8  15  29  56  96 138 181 227 278 338 397
#     4  10  21  37  62  94 131 176 225 276 330 394
#     4   9  18  34  60  94 133 179 233 280 336 404
#     4  11  24  43  67  99 135 175 225 276 333 403
#     4  11  24  44  70 100 138 181 224 283 344 403
#
# _framework density 25.116959000000001
#
# number of rings (size 3 to 8) (size 9 to 14) (size 15 to 20)
#    0.000    2.000    0.000    3.857    0.000    2.286 
#    0.000    0.000    0.000   23.143    0.000  133.000 
#    0.000    0.000    0.000    0.000    0.000    0.000 
#
# Total GULP energy -78389.750362 kJ/mol
# GULP energy per Si atom -5599.267883 kJ/mol
# Density = 2.505979 g / cm^3
# Si number density = 25.116959 Si / 1000 Ang^3
#
#
#
# Elastic Constant Matrix: (Units=GPa)
#
#
# Indices 1 2 3 4 5 6 
#
# 1 112.1319 54.5661 47.0997 1.3500 -19.0179 -2.7101
# 2 54.5661 139.0804 71.0810 45.3104 -15.4968 -22.2309
# 3 47.0997 71.0810 142.8445 36.4448 -7.8308 -11.4439
# 4 1.3500 45.3104 36.4448 47.2628 0.2056 -19.7565
# 5 -19.0179 -15.4968 -7.8308 0.2056 49.5535 -3.2914
# 6 -2.7101 -22.2309 -11.4439 -19.7565 -3.2914 28.2403
#
#
#
# Elastic Compliance Matrix: (Units=1/GPa)
#
#
# Indices 1 2 3 4 5 6 
#
# 1 0.013614 -0.005712 -0.003514 0.008479 0.002958 0.001663
# 2 -0.005712 0.015007 -0.002359 -0.011294 0.002353 0.002683
# 3 -0.003514 -0.002359 0.010929 -0.007285 -0.000523 -0.002923
# 4 0.008479 -0.011294 -0.007285 0.046274 -0.000205 0.021320
# 5 0.002958 0.002353 -0.000523 -0.000205 0.022260 0.004375
# 6 0.001663 0.002683 -0.002923 0.021320 0.004375 0.051922
#
#
# Mechanical properties :
#
#
# Convention : Reuss Voigt Hill
#
# Bulk Modulus (GPa) = 61.05322 82.17227 71.61274
# Shear Modulus (GPa) = 26.50596 39.76534 33.13565
#
# Velocity S-wave (km/s) = 3.25206 3.98327 3.63609
# Velocity P-wave (km/s) = 6.20174 7.34453 6.79719
#
# Compressibility (1/GPa) = 0.01637915
#
# Stress axis : x y z
#
# Youngs Moduli (GPa) = 73.45513 66.63506 91.49870
#
# Poissons Ratio (x) = 0.38062 0.32157
# Poissons Ratio (y) = 0.41958 0.21583
# Poissons Ratio (z) = 0.25816 0.15718
#
# Static dielectric constant tensor:
#      x y z
#    x 1.983710 0.029520 -0.008590 
#    y 0.029520 1.986250 -0.017010 
#    z -0.008590 -0.017010 2.042140 
# 
# From -- ./inp_files/48080.got.cif
#   From: 2010.05.17/outbox.cif.g08.bks.cpg/sg2_25_cif.got.tgz:48080.got - 2010.06.03 11:33:40.
