data_PCOD9003805
_publ_section_title
;
Structure prediction by ZEFSAII (Michael W. Deem and Ramdas Pophale) SiO2 
 PCOD9003805
Probable space group: P -1
;
_chemical_formula_sum "Si O2"
_cell_formula_units_Z 16
_cell_length_a 13.368685
_cell_length_b 9.174837
_cell_length_c 15.018348
_cell_angle_alpha 69.739281
_cell_angle_beta 25.164768
_cell_angle_gamma 67.090010
_cell_volume 721.421545
_symmetry_space_group_name_H-M "P -1"
_symmetry_group_IT_number 2
_symmetry_cell_setting 'triclinic'
loop_
_space_group_symop_operation_xyz
x,y,z
-x,-y,-z
loop_
_atom_site_type_symbol
_atom_site_label
_atom_site_fract_x
_atom_site_fract_y
_atom_site_fract_z
Si Si1 0.950711 0.604582 0.889002
Si Si2 0.898530 0.229438 0.789807
Si Si3 0.563078 0.869887 0.898327
Si Si4 0.338516 0.991974 0.400777
Si Si5 0.741029 0.362851 0.212318
Si Si6 0.008908 0.422556 0.345127
Si Si7 0.422289 0.658224 0.345407
Si Si8 0.223911 0.899142 0.892601
O O1 0.017578 0.575577 0.740452
O O2 0.124006 0.683169 0.795034
O O3 0.674181 0.694327 0.096956
O O4 0.936899 0.434437 0.980650
O O5 0.938233 0.408331 0.705868
O O6 0.129686 0.107576 0.595529
O O7 0.672786 0.198620 0.921578
O O8 0.848318 0.189558 0.942068
O O9 0.780619 0.723862 0.772615
O O10 0.638018 0.948658 0.731133
O O11 0.500000 0.000000 0.000000
O O12 0.294023 0.815806 0.463393
O O13 0.587011 0.996769 0.249681
O O14 0.523795 0.511758 0.359993
O O15 0.659911 0.229117 0.247292
O O16 0.743314 0.391714 0.588899
O O17 0.000000 0.000000 0.000000
#
# Coordination Sequence:
#
# PCOD9003805 Si02
#       8
#     2   2   2   2   2   2   2   2
#     4   9  20  38  64  89 125 159 213 254 301 366
#     4  11  25  45  63  95 127 164 211 257 318 379
#     4  11  26  44  66  93 123 167 209 266 317 366
#     4  11  25  42  63  94 132 163 211 259 314 377
#     4   9  19  41  62  89 124 166 205 252 308 363
#     4  12  23  40  69  91 123 166 213 257 311 373
#     4  10  21  37  62  91 119 164 205 254 304 366
#     4  11  23  41  67  93 131 167 205 261 315 370
#
# _framework density 22.178432999999998
#
# number of rings (size 3 to 8) (size 9 to 14) (size 15 to 20)
#    0.750    0.750    1.250    3.375    0.000    7.500 
#    0.000    0.000    0.000    0.000    0.000    0.000 
#    0.000    0.000    0.000    0.000    0.000    0.000 
#
# Total GULP energy -89367.393673 kJ/mol
# GULP energy per Si atom -5585.462105 kJ/mol
# Density = 2.212795 g / cm^3
# Si number density = 22.178433 Si / 1000 Ang^3
#
#
#
# Elastic Constant Matrix: (Units=GPa)
#
#
# Indices 1 2 3 4 5 6 
#
# 1 117.0348 44.5555 43.2076 -2.1900 -27.5276 10.5343
# 2 44.5555 139.8468 38.4630 3.3575 -25.3926 18.2331
# 3 43.2076 38.4630 74.8943 9.6300 -28.4688 -0.1748
# 4 -2.1900 3.3575 9.6300 31.6365 -0.2204 -8.6092
# 5 -27.5276 -25.3926 -28.4688 -0.2204 37.0064 4.2808
# 6 10.5343 18.2331 -0.1748 -8.6092 4.2808 36.8982
#
#
#
# Elastic Compliance Matrix: (Units=1/GPa)
#
#
# Indices 1 2 3 4 5 6 
#
# 1 0.012269 -0.001358 -0.004729 0.001639 0.004918 -0.003042
# 2 -0.001358 0.009794 -0.002277 -0.001887 0.004576 -0.005434
# 3 -0.004729 -0.002277 0.022955 -0.007133 0.012599 -0.000542
# 4 0.001639 -0.001887 -0.007133 0.036701 -0.006471 0.009745
# 5 0.004918 0.004576 0.012599 -0.006471 0.044666 -0.010297
# 6 -0.003042 -0.005434 -0.000542 0.009745 -0.010297 0.034121
#
#
# Mechanical properties :
#
#
# Convention : Reuss Voigt Hill
#
# Bulk Modulus (GPa) = 35.34876 64.91424 50.13150
# Shear Modulus (GPa) = 26.78621 34.81153 30.79887
#
# Velocity S-wave (km/s) = 3.47905 3.96613 3.73055
# Velocity P-wave (km/s) = 5.66669 7.09269 6.41941
#
# Compressibility (1/GPa) = 0.02828953
#
# Stress axis : x y z
#
# Youngs Moduli (GPa) = 81.50915 102.09995 43.56377
#
# Poissons Ratio (x) = 0.13864 0.20601
# Poissons Ratio (y) = 0.11068 0.09920
# Poissons Ratio (z) = 0.38546 0.23251
#
# Static dielectric constant tensor:
#      x y z
#    x 1.794190 -0.011500 0.007960 
#    y -0.011500 1.804340 -0.013910 
#    z 0.007960 -0.013910 1.918190 
# 
# From -- ./inp_files/515284.got.cif
#   From: 2010.05.17/outbox.cif.g08.bks.cpg/sg2_258_cif.got.tgz:515284.got - 2010.06.03 11:33:40.
