data_PCOD9003723
_publ_section_title
;
Structure prediction by ZEFSAII (Michael W. Deem and Ramdas Pophale) SiO2 
 PCOD9003723
Probable space group: P -1
;
_chemical_formula_sum "Si O2"
_cell_formula_units_Z 16
_cell_length_a 9.764811
_cell_length_b 15.340585
_cell_length_c 8.643796
_cell_angle_alpha 130.425435
_cell_angle_beta 65.200223
_cell_angle_gamma 80.884531
_cell_volume 700.025643
_symmetry_space_group_name_H-M "P -1"
_symmetry_group_IT_number 2
_symmetry_cell_setting 'triclinic'
loop_
_space_group_symop_operation_xyz
x,y,z
-x,-y,-z
loop_
_atom_site_type_symbol
_atom_site_label
_atom_site_fract_x
_atom_site_fract_y
_atom_site_fract_z
Si Si1 0.261939 0.353455 0.550686
Si Si2 0.317401 0.016484 0.748584
Si Si3 0.304755 0.028887 0.429363
Si Si4 0.093477 0.336300 0.323474
Si Si5 0.832651 0.291575 0.595025
Si Si6 0.958804 0.345459 0.885162
Si Si7 0.104477 0.974059 0.255930
Si Si8 0.319603 0.795843 0.681954
O O1 0.258650 0.294236 0.319278
O O2 0.466023 0.282137 0.448182
O O3 0.118886 0.345126 0.716235
O O4 0.149350 0.527055 0.792852
O O5 0.332430 0.958423 0.502245
O O6 0.527088 0.957439 0.639759
O O7 0.248168 0.948922 0.814603
O O8 0.193013 0.192407 0.003921
O O9 0.093844 0.185592 0.708457
O O10 0.295674 0.950443 0.197063
O O11 0.000000 0.500000 0.500000
O O12 0.936165 0.338006 0.494707
O O13 0.803337 0.370419 0.863571
O O14 0.685569 0.297630 0.556959
O O15 0.974519 0.123726 0.393454
O O16 0.178127 0.842726 0.950409
O O17 0.000000 0.000000 0.500000
#
# Coordination Sequence:
#
# PCOD9003723 Si02
#       8
#     2   2   2   2   2   2   2   2
#     4  10  21  38  65  93 128 175 216 267 323 393
#     4  11  22  37  66 100 134 164 221 279 329 390
#     4  10  21  37  61  97 128 173 215 275 321 389
#     4  11  23  41  66  92 129 179 223 266 322 394
#     4  10  23  40  66  98 130 174 216 268 332 396
#     4   9  19  40  63  92 130 173 218 257 326 393
#     4  11  23  39  64  94 136 175 218 269 336 394
#     4  12  23  40  67 101 134 168 217 278 339 388
#
# _framework density 22.856306
#
# number of rings (size 3 to 8) (size 9 to 14) (size 15 to 20)
#    0.000    1.500    2.500    2.625    1.750    1.500 
#    0.000    0.625    5.500    0.000    0.000    0.000 
#    0.000    0.000    0.000    0.000    0.000    0.000 
#
# Total GULP energy -89220.337543 kJ/mol
# GULP energy per Si atom -5576.271096 kJ/mol
# Density = 2.280428 g / cm^3
# Si number density = 22.856306 Si / 1000 Ang^3
#
#
#
# Elastic Constant Matrix: (Units=GPa)
#
#
# Indices 1 2 3 4 5 6 
#
# 1 149.3874 35.9395 18.3996 -0.7555 17.7307 -25.7417
# 2 35.9395 73.3041 8.3511 8.0318 -12.9587 11.5529
# 3 18.3996 8.3511 47.6960 5.6980 8.2939 2.0266
# 4 -0.7555 8.0318 5.6980 30.4293 -4.2171 4.9642
# 5 17.7307 -12.9587 8.2939 -4.2171 25.2128 -3.5693
# 6 -25.7417 11.5529 2.0266 4.9642 -3.5693 27.5276
#
#
#
# Elastic Compliance Matrix: (Units=1/GPa)
#
#
# Indices 1 2 3 4 5 6 
#
# 1 0.014096 -0.011549 -0.001757 -0.000791 -0.013051 0.016608
# 2 -0.011549 0.026140 -0.002620 -0.000901 0.019596 -0.018874
# 3 -0.001757 -0.002620 0.024408 -0.004776 -0.009319 -0.002688
# 4 -0.000791 -0.000901 -0.004776 0.035838 0.006868 -0.005582
# 5 -0.013051 0.019596 -0.009319 0.006868 0.061282 -0.013035
# 6 0.016608 -0.018874 -0.002688 -0.005582 -0.013035 0.059292
#
#
# Mechanical properties :
#
#
# Convention : Reuss Voigt Hill
#
# Bulk Modulus (GPa) = 30.49509 43.97422 37.23465
# Shear Modulus (GPa) = 18.95110 30.48042 24.71576
#
# Velocity S-wave (km/s) = 2.88260 3.65577 3.29196
# Velocity P-wave (km/s) = 4.94472 6.09103 5.54757
#
# Compressibility (1/GPa) = 0.03279217
#
# Stress axis : x y z
#
# Youngs Moduli (GPa) = 70.94424 38.25605 40.97033
#
# Poissons Ratio (x) = 0.44180 0.07199
# Poissons Ratio (y) = 0.81930 0.10733
# Poissons Ratio (z) = 0.12466 0.10022
#
# Static dielectric constant tensor:
#      x y z
#    x 1.913890 0.035210 0.017970 
#    y 0.035210 1.874970 -0.008770 
#    z 0.017970 -0.008770 1.850840 
# 
# From -- ./inp_files/208903.got.cif
#   From: 2010.05.17/outbox.cif.g08.bks.cpg/sg2_105_cif.got.tgz:208903.got - 2010.06.03 11:33:40.
