data_PCOD9003722
_publ_section_title
;
Structure prediction by ZEFSAII (Michael W. Deem and Ramdas Pophale) SiO2 
 PCOD9003722
Probable space group: P -1
;
_chemical_formula_sum "Si O2"
_cell_formula_units_Z 13
_cell_length_a 6.591940
_cell_length_b 9.081581
_cell_length_c 8.474538
_cell_angle_alpha 98.373463
_cell_angle_beta 78.010413
_cell_angle_gamma 72.932932
_cell_volume 462.685778
_symmetry_space_group_name_H-M "P -1"
_symmetry_group_IT_number 2
_symmetry_cell_setting 'triclinic'
loop_
_space_group_symop_operation_xyz
x,y,z
-x,-y,-z
loop_
_atom_site_type_symbol
_atom_site_label
_atom_site_fract_x
_atom_site_fract_y
_atom_site_fract_z
Si Si1 0.361270 0.499391 0.224240
Si Si2 0.391387 0.827813 0.845419
Si Si3 0.821352 0.549663 0.172657
Si Si4 0.000000 0.000000 0.500000
Si Si5 0.531664 0.908599 0.317995
Si Si6 0.855761 0.168630 0.799931
Si Si7 0.832620 0.326585 0.404125
O O1 0.396233 0.317825 0.153815
O O2 0.600624 0.512489 0.151821
O O3 0.191317 0.648275 0.186663
O O4 0.305817 0.552545 0.422267
O O5 0.310044 0.746980 0.698694
O O6 0.448188 0.979885 0.810156
O O7 0.216413 0.864205 0.022247
O O8 0.710248 0.735302 0.254252
O O9 0.913002 0.439319 0.293238
O O10 0.000000 0.500000 0.000000
O O11 0.924359 0.946499 0.326427
O O12 0.003204 0.822868 0.554146
O O13 0.290190 0.882337 0.324107
O O14 0.500000 0.000000 0.500000
#
# Coordination Sequence:
#
# PCOD9003722 Si02
#       7
#     2   2   2   1   2   2   2
#     4   9  19  41  63  88 121 171 209 247 316 382
#     4  11  20  36  67  89 117 160 219 253 302 375
#     4  10  21  37  61  97 127 156 206 267 313 368
#     4  10  22  40  60  84 126 158 216 252 304 366
#     4  11  22  40  63  91 126 166 205 257 322 379
#     4  10  22  38  60  89 125 163 205 262 309 369
#     4  10  21  41  67  88 124 174 207 253 315 380
#
# _framework density 28.096820999999998
#
# number of rings (size 3 to 8) (size 9 to 14) (size 15 to 20)
#    0.000    1.846    0.000    6.462    2.154    0.615 
#    8.308    0.000    0.000    5.538    0.000    0.000 
#    0.000    0.000    0.000    0.000    0.000    0.000 
#
# Total GULP energy -72697.890891 kJ/mol
# GULP energy per Si atom -5592.145453 kJ/mol
# Density = 2.803287 g / cm^3
# Si number density = 28.096821 Si / 1000 Ang^3
#
#
#
# Elastic Constant Matrix: (Units=GPa)
#
#
# Indices 1 2 3 4 5 6 
#
# 1 78.7105 37.1817 39.8195 13.7378 -6.5288 -12.6239
# 2 37.1817 298.6825 88.7831 -11.3672 -27.8959 -10.7429
# 3 39.8195 88.7831 231.2066 3.0618 -29.5310 0.3740
# 4 13.7378 -11.3672 3.0618 62.7601 7.0236 -7.6040
# 5 -6.5288 -27.8959 -29.5310 7.0236 48.5571 17.3513
# 6 -12.6239 -10.7429 0.3740 -7.6040 17.3513 45.9909
#
#
#
# Elastic Compliance Matrix: (Units=1/GPa)
#
#
# Indices 1 2 3 4 5 6 
#
# 1 0.015526 -0.001328 -0.002259 -0.002949 -0.001002 0.003860
# 2 -0.001328 0.004021 -0.001181 0.000984 0.001161 0.000309
# 3 -0.002259 -0.001181 0.005608 -0.000648 0.003348 -0.002312
# 4 -0.002949 0.000984 -0.000648 0.017737 -0.004199 0.003943
# 5 -0.001002 0.001161 0.003348 -0.004199 0.027774 -0.011204
# 6 0.003860 0.000309 -0.002312 0.003943 -0.011204 0.027773
#
#
# Mechanical properties :
#
#
# Convention : Reuss Voigt Hill
#
# Bulk Modulus (GPa) = 64.02627 104.46315 84.24471
# Shear Modulus (GPa) = 44.17742 60.98263 52.58003
#
# Velocity S-wave (km/s) = 3.96956 4.66386 4.33065
# Velocity P-wave (km/s) = 6.62171 8.14018 7.41989
#
# Compressibility (1/GPa) = 0.01561859
#
# Stress axis : x y z
#
# Youngs Moduli (GPa) = 64.40899 248.67364 178.33117
#
# Poissons Ratio (x) = 0.33029 0.40287
# Poissons Ratio (y) = 0.08555 0.21056
# Poissons Ratio (z) = 0.14551 0.29361
#
# Static dielectric constant tensor:
#      x y z
#    x 1.121640 1.045580 1.584180 
#    y 1.045580 1.365860 -1.264960 
#    z 1.584180 -1.264960 0.365360 
# 
# From -- ./inp_files/154504.got.cif
#   From: 2010.05.17/outbox.cif.g08.bks.cpg/sg2_78_cif.got.tgz:154504.got - 2010.06.03 11:33:40.
