data_PCOD9003621
_publ_section_title
;
Structure prediction by ZEFSAII (Michael W. Deem and Ramdas Pophale) SiO2 
 PCOD9003621
Probable space group: P -1
;
_chemical_formula_sum "Si O2"
_cell_formula_units_Z 14
_cell_length_a 10.897725
_cell_length_b 11.752850
_cell_length_c 5.718732
_cell_angle_alpha 124.053114
_cell_angle_beta 90.772879
_cell_angle_gamma 66.998819
_cell_volume 537.979773
_symmetry_space_group_name_H-M "P -1"
_symmetry_group_IT_number 2
_symmetry_cell_setting 'triclinic'
loop_
_space_group_symop_operation_xyz
x,y,z
-x,-y,-z
loop_
_atom_site_type_symbol
_atom_site_label
_atom_site_fract_x
_atom_site_fract_y
_atom_site_fract_z
Si Si1 0.890569 0.014666 0.709478
Si Si2 0.368651 0.185177 0.480753
Si Si3 0.201107 0.523049 0.701002
Si Si4 0.653074 0.287598 0.831216
Si Si5 0.967678 0.813942 0.873447
Si Si6 0.666404 0.952682 0.182736
Si Si7 0.390646 0.507454 0.315506
O O1 0.734294 0.116792 0.738878
O O2 0.927082 0.851952 0.643812
O O3 0.000000 0.000000 0.500000
O O4 0.919364 0.123743 0.018395
O O5 0.256626 0.364446 0.659172
O O6 0.348614 0.129263 0.673968
O O7 0.535845 0.124759 0.394428
O O8 0.348827 0.111483 0.148978
O O9 0.274627 0.477568 0.397221
O O10 0.041906 0.641044 0.778799
O O11 0.270178 0.619771 0.939855
O O12 0.671556 0.324209 0.607813
O O13 0.491189 0.375905 0.989793
O O14 0.825876 0.916906 0.125246
O O15 0.500000 0.500000 0.500000
#
# Coordination Sequence:
#
# PCOD9003621 Si02
#       7
#     2   2   2   2   2   2   2
#     4  10  21  38  59  90 128 169 207 256 317 392
#     4  10  24  45  69  94 128 164 221 274 317 384
#     4  10  21  37  61  89 123 163 206 270 313 381
#     4   9  19  35  55  87 124 162 211 256 312 382
#     4  10  23  40  62  91 128 165 213 260 321 386
#     4  10  24  47  66  96 126 168 218 268 328 380
#     4   9  18  34  53  85 122 159 206 257 313 372
#
# _framework density 26.023285000000001
#
# number of rings (size 3 to 8) (size 9 to 14) (size 15 to 20)
#    0.000    2.286    0.000    0.857    6.000    2.286 
#    7.714    0.000    0.000    0.000    0.000    0.000 
#    0.000    0.000    0.000    0.000    0.000    0.000 
#
# Total GULP energy -78151.328142 kJ/mol
# GULP energy per Si atom -5582.237724 kJ/mol
# Density = 2.596406 g / cm^3
# Si number density = 26.023285 Si / 1000 Ang^3
#
#
#
# Elastic Constant Matrix: (Units=GPa)
#
#
# Indices 1 2 3 4 5 6 
#
# 1 87.2589 37.9531 21.1021 2.5845 -21.7393 -24.6111
# 2 37.9531 195.3466 40.1867 -0.5296 -13.4134 -35.4009
# 3 21.1021 40.1867 95.5129 -10.5896 -11.2582 -4.1707
# 4 2.5845 -0.5296 -10.5896 44.6393 2.9836 -8.6281
# 5 -21.7393 -13.4134 -11.2582 2.9836 35.9163 0.5681
# 6 -24.6111 -35.4009 -4.1707 -8.6281 0.5681 40.0169
#
#
#
# Elastic Compliance Matrix: (Units=1/GPa)
#
#
# Indices 1 2 3 4 5 6 
#
# 1 0.017328 -0.000507 -0.002093 -0.000247 0.009508 0.009802
# 2 -0.000507 0.006790 -0.002278 0.000551 0.001381 0.005556
# 3 -0.002093 -0.002278 0.012299 0.002623 0.001543 -0.001477
# 4 -0.000247 0.000551 0.002623 0.024259 -0.001229 0.005857
# 5 0.009508 0.001381 0.001543 -0.001229 0.034596 0.006474
# 6 0.009802 0.005556 -0.001477 0.005857 0.006474 0.036950
#
#
# Mechanical properties :
#
#
# Convention : Reuss Voigt Hill
#
# Bulk Modulus (GPa) = 37.51186 64.06690 50.78938
# Shear Modulus (GPa) = 33.14209 42.70625 37.92417
#
# Velocity S-wave (km/s) = 3.57256 4.05542 3.82162
# Velocity P-wave (km/s) = 5.60924 6.82650 6.24759
#
# Compressibility (1/GPa) = 0.02665824
#
# Stress axis : x y z
#
# Youngs Moduli (GPa) = 57.71111 147.28584 81.30760
#
# Poissons Ratio (x) = 0.07474 0.17021
# Poissons Ratio (y) = 0.02928 0.18523
# Poissons Ratio (z) = 0.12082 0.33553
#
# Static dielectric constant tensor:
#      x y z
#    x 2.133740 -0.001080 0.150800 
#    y -0.001080 2.107440 -0.024440 
#    z 0.150800 -0.024440 2.201940 
# 
# From -- ./inp_files/68400.got.cif
#   From: 2010.05.17/outbox.cif.g08.bks.cpg/sg2_35_cif.got.tgz:68400.got - 2010.06.03 11:33:40.
