data_PCOD9003707
_publ_section_title
;
Structure prediction by ZEFSAII (Michael W. Deem and Ramdas Pophale) SiO2 
 PCOD9003707
Probable space group: P -1
;
_chemical_formula_sum "Si O2"
_cell_formula_units_Z 12
_cell_length_a 11.320933
_cell_length_b 8.757174
_cell_length_c 14.065709
_cell_angle_alpha 127.024353
_cell_angle_beta 31.498973
_cell_angle_gamma 140.242924
_cell_volume 459.981854
_symmetry_space_group_name_H-M "P -1"
_symmetry_group_IT_number 2
_symmetry_cell_setting 'triclinic'
loop_
_space_group_symop_operation_xyz
x,y,z
-x,-y,-z
loop_
_atom_site_type_symbol
_atom_site_label
_atom_site_fract_x
_atom_site_fract_y
_atom_site_fract_z
Si Si1 0.723015 0.481664 0.006531
Si Si2 0.343219 0.949526 0.788453
Si Si3 0.853775 0.239538 0.956487
Si Si4 0.120536 0.271839 0.401502
Si Si5 0.769795 0.449402 0.747159
Si Si6 0.303452 0.218520 0.557346
O O1 0.775551 0.285988 0.925869
O O2 0.666331 0.458364 0.924641
O O3 0.006554 0.756909 0.929875
O O4 0.453517 0.395830 0.225604
O O5 0.487035 0.851676 0.594578
O O6 0.519820 0.235437 0.768899
O O7 0.382392 0.932210 0.868760
O O8 0.080929 0.187996 0.774004
O O9 0.000000 0.500000 0.000000
O O10 0.087737 0.314651 0.327413
O O11 0.999420 0.396022 0.582774
O O12 0.913178 0.983250 0.447941
O O13 0.500000 0.500000 0.500000
#
# Coordination Sequence:
#
# PCOD9003707 Si02
#       6
#     2   2   2   2   2   2
#     4  11  22  39  66  96 119 167 208 253 309 367
#     4  10  23  41  66  91 128 163 202 257 309 369
#     4  10  21  37  61  95 126 155 204 255 304 366
#     4  10  24  41  63  91 126 163 209 260 302 365
#     4  10  23  45  61  90 129 164 206 255 309 366
#     4  11  20  40  64  87 125 167 198 252 317 361
#
# _framework density 26.087983999999999
#
# number of rings (size 3 to 8) (size 9 to 14) (size 15 to 20)
#    0.000    1.667    3.333    1.500    0.000    7.333 
#    0.000   12.500    0.000    0.000    0.000    0.000 
#    0.000    0.000    0.000    0.000    0.000    0.000 
#
# Total GULP energy -67016.465445 kJ/mol
# GULP energy per Si atom -5584.705454 kJ/mol
# Density = 2.602861 g / cm^3
# Si number density = 26.087984 Si / 1000 Ang^3
#
#
#
# Elastic Constant Matrix: (Units=GPa)
#
#
# Indices 1 2 3 4 5 6 
#
# 1 66.7417 18.1653 10.6715 3.3072 -0.5111 9.2651
# 2 18.1653 156.5324 28.6544 -7.0882 -20.1845 13.7385
# 3 10.6715 28.6544 166.2766 1.3279 -29.0142 11.8981
# 4 3.3072 -7.0882 1.3279 43.4864 8.9125 -4.8131
# 5 -0.5111 -20.1845 -29.0142 8.9125 36.7455 -15.2225
# 6 9.2651 13.7385 11.8981 -4.8131 -15.2225 28.2464
#
#
#
# Elastic Compliance Matrix: (Units=1/GPa)
#
#
# Indices 1 2 3 4 5 6 
#
# 1 0.016550 -0.001734 -0.000952 -0.001449 -0.003809 -0.006484
# 2 -0.001734 0.007183 -0.000549 0.000609 0.002919 -0.001017
# 3 -0.000952 -0.000549 0.007173 -0.001389 0.005892 0.000496
# 4 -0.001449 0.000609 -0.001389 0.024678 -0.006063 0.001702
# 5 -0.003809 0.002919 0.005892 -0.006063 0.042949 0.019461
# 6 -0.006484 -0.001017 0.000496 0.001702 0.019461 0.048593
#
#
# Mechanical properties :
#
#
# Convention : Reuss Voigt Hill
#
# Bulk Modulus (GPa) = 40.92412 56.05923 48.49168
# Shear Modulus (GPa) = 30.91295 43.83296 37.37295
#
# Velocity S-wave (km/s) = 3.44604 4.10347 3.78904
# Velocity P-wave (km/s) = 5.61735 6.63223 6.14577
#
# Compressibility (1/GPa) = 0.02443547
#
# Stress axis : x y z
#
# Youngs Moduli (GPa) = 60.42270 139.20850 139.40203
#
# Poissons Ratio (x) = 0.24138 0.13277
# Poissons Ratio (y) = 0.10477 0.07658
# Poissons Ratio (z) = 0.05755 0.07648
#
# Static dielectric constant tensor:
#      x y z
#    x 2.189870 -0.020770 -0.082150 
#    y -0.020770 2.206120 -0.043950 
#    z -0.082150 -0.043950 2.038640 
# 
# From -- ./inp_files/514974.got.cif
#   From: 2010.05.17/outbox.cif.g08.bks.cpg/sg2_258_cif.got.tgz:514974.got - 2010.06.03 11:33:40.
