data_PCOD9003809
_publ_section_title
;
Structure prediction by ZEFSAII (Michael W. Deem and Ramdas Pophale) SiO2 
 PCOD9003809
Probable space group: P -1
;
_chemical_formula_sum "Si O2"
_cell_formula_units_Z 16
_cell_length_a 5.216447
_cell_length_b 8.655531
_cell_length_c 19.119888
_cell_angle_alpha 125.504130
_cell_angle_beta 76.520861
_cell_angle_gamma 90.687909
_cell_volume 675.069983
_symmetry_space_group_name_H-M "P -1"
_symmetry_group_IT_number 2
_symmetry_cell_setting 'triclinic'
loop_
_space_group_symop_operation_xyz
x,y,z
-x,-y,-z
loop_
_atom_site_type_symbol
_atom_site_label
_atom_site_fract_x
_atom_site_fract_y
_atom_site_fract_z
Si Si1 0.899321 0.625386 0.272663
Si Si2 0.235092 0.623913 0.518992
Si Si3 0.270804 0.563253 0.893900
Si Si4 0.342083 0.554088 0.339449
Si Si5 0.006912 0.988584 0.290365
Si Si6 0.394822 0.136110 0.826228
Si Si7 0.789729 0.038775 0.961684
Si Si8 0.451876 0.186285 0.171883
O O1 0.943876 0.501407 0.164719
O O2 0.585002 0.639217 0.310477
O O3 0.081874 0.552276 0.307319
O O4 0.970095 0.833907 0.310830
O O5 0.500000 0.500000 0.500000
O O6 0.285561 0.660499 0.443835
O O7 0.131766 0.806992 0.620462
O O8 0.000000 0.500000 0.500000
O O9 0.382291 0.366836 0.876301
O O10 0.444463 0.674202 0.857048
O O11 0.201597 0.738775 0.999149
O O12 0.442363 0.324099 0.276256
O O13 0.845586 0.920572 0.217982
O O14 0.319272 0.959937 0.247405
O O15 0.390270 0.023820 0.870707
O O16 0.820358 0.879266 0.857013
O O17 0.500000 0.000000 0.000000
O O18 0.000000 0.000000 0.000000
#
# Coordination Sequence:
#
# PCOD9003809 Si02
#       8
#     2   2   2   2   2   2   2   2
#     4  10  21  38  62  86 117 159 200 253 306 359
#     4  12  25  40  59  86 123 160 202 260 310 360
#     4   9  21  41  63  91 127 161 203 253 306 361
#     4  11  22  37  61  89 116 159 208 247 304 370
#     4  11  23  42  61  88 124 157 203 255 308 364
#     4  11  24  40  65  92 122 165 206 251 306 366
#     4  10  21  37  62  91 123 162 201 250 306 360
#     4  10  21  39  63  89 123 162 206 249 303 367
#
# _framework density 23.701248
#
# number of rings (size 3 to 8) (size 9 to 14) (size 15 to 20)
#    0.000    1.500    0.000    6.000    0.000    9.500 
#    0.000    0.000    0.000    9.750    0.000    0.000 
#    0.000    0.000    0.000    0.000    0.000    0.000 
#
# Total GULP energy -89235.443907 kJ/mol
# GULP energy per Si atom -5577.215244 kJ/mol
# Density = 2.364730 g / cm^3
# Si number density = 23.701248 Si / 1000 Ang^3
#
#
#
# Elastic Constant Matrix: (Units=GPa)
#
#
# Indices 1 2 3 4 5 6 
#
# 1 86.6047 17.9703 10.1444 3.0269 4.9685 1.0395
# 2 17.9703 144.9506 32.1923 25.1245 1.3044 2.5225
# 3 10.1444 32.1923 69.6314 18.1325 2.6765 6.6081
# 4 3.0269 25.1245 18.1325 41.9261 -0.2964 6.0664
# 5 4.9685 1.3044 2.6765 -0.2964 30.3699 -4.0821
# 6 1.0395 2.5225 6.6081 6.0664 -4.0821 38.8358
#
#
#
# Elastic Compliance Matrix: (Units=1/GPa)
#
#
# Indices 1 2 3 4 5 6 
#
# 1 0.012046 -0.001287 -0.001175 0.000440 -0.001848 -0.000302
# 2 -0.001287 0.008310 -0.002726 -0.003788 0.000133 0.000564
# 3 -0.001175 -0.002726 0.017497 -0.005561 -0.001564 -0.002064
# 4 0.000440 -0.003788 -0.005561 0.028976 0.000420 -0.003302
# 5 -0.001848 0.000133 -0.001564 0.000420 0.033877 0.003802
# 6 -0.000302 0.000564 -0.002064 -0.003302 0.003802 0.026988
#
#
# Mechanical properties :
#
#
# Convention : Reuss Voigt Hill
#
# Bulk Modulus (GPa) = 36.39538 46.86675 41.63106
# Shear Modulus (GPa) = 33.96105 38.28500 36.12303
#
# Velocity S-wave (km/s) = 3.78945 4.02346 3.90821
# Velocity P-wave (km/s) = 5.87671 6.43438 6.16186
#
# Compressibility (1/GPa) = 0.02747601
#
# Stress axis : x y z
#
# Youngs Moduli (GPa) = 83.01770 120.34335 57.15208
#
# Poissons Ratio (x) = 0.15486 0.06715
# Poissons Ratio (y) = 0.10683 0.15582
# Poissons Ratio (z) = 0.09754 0.32811
#
# Static dielectric constant tensor:
#      x y z
#    x 2.003740 -0.003140 -0.173960 
#    y -0.003140 1.994570 -0.098560 
#    z -0.173960 -0.098560 2.204510 
# 
# From -- ./inp_files/582591.got.cif
#   From: 2010.05.17/outbox.cif.g08.bks.cpg/sg2_292_cif.got.tgz:582591.got - 2010.06.03 11:33:40.
