data_PCOD9003038
_publ_section_title
;
Structure prediction by ZEFSAII (Michael W. Deem and Ramdas Pophale) SiO2 
 PCOD9003038
Probable space group: P -1
;
_chemical_formula_sum "Si O2"
_cell_formula_units_Z 16
_cell_length_a 7.819676
_cell_length_b 8.277434
_cell_length_c 10.811572
_cell_angle_alpha 96.958139
_cell_angle_beta 98.725942
_cell_angle_gamma 93.759594
_cell_volume 684.086756
_symmetry_space_group_name_H-M "P -1"
_symmetry_group_IT_number 2
_symmetry_cell_setting 'triclinic'
loop_
_space_group_symop_operation_xyz
x,y,z
-x,-y,-z
loop_
_atom_site_type_symbol
_atom_site_label
_atom_site_fract_x
_atom_site_fract_y
_atom_site_fract_z
Si Si1 0.646991 0.602944 0.716894
Si Si2 0.447644 0.273853 0.676289
Si Si3 0.880662 0.535777 0.244123
Si Si4 0.292383 0.772288 0.688917
Si Si5 0.694861 0.587795 0.998657
Si Si6 0.403271 0.079550 0.882862
Si Si7 0.791857 0.856052 0.561866
Si Si8 0.120789 0.795485 0.420015
O O1 0.574383 0.421741 0.651861
O O2 0.478119 0.704595 0.729814
O O3 0.759480 0.711530 0.642525
O O4 0.728780 0.579433 0.857187
O O5 0.281430 0.364713 0.716136
O O6 0.512722 0.176433 0.792772
O O7 0.372876 0.156751 0.549255
O O8 0.853382 0.362009 0.290040
O O9 0.835822 0.513472 0.093527
O O10 0.053132 0.642798 0.314578
O O11 0.263494 0.780638 0.540320
O O12 0.290283 0.940644 0.779722
O O13 0.696459 0.778048 0.053278
O O14 0.500000 0.500000 0.000000
O O15 0.500000 0.000000 0.000000
O O16 0.954849 0.826916 0.490559
O O17 0.825656 0.039062 0.633979
#
# Coordination Sequence:
#
# PCOD9003038 Si02
#       8
#     2   2   2   2   2   2   2   2
#     4  11  21  35  59  89 113 143 190 244 280 324
#     4   9  18  34  54  82 114 146 183 234 279 330
#     4   9  19  34  58  82 110 149 193 222 277 347
#     4  11  20  34  59  88 111 144 190 236 283 326
#     4  11  18  35  57  85 114 148 186 231 283 338
#     4  11  18  30  55  88 114 143 184 231 281 333
#     4  10  21  37  57  84 112 152 194 226 283 337
#     4  10  21  38  58  79 114 156 188 226 281 350
#
# _framework density 23.388846999999998
#
# number of rings (size 3 to 8) (size 9 to 14) (size 15 to 20)
#    0.000    1.750    6.250    0.750    1.750    0.500 
#    0.000    0.625    0.000    0.750    0.000    0.000 
#    0.000    0.000    0.000    0.000    0.000    0.000 
#
# Total GULP energy -89424.883672 kJ/mol
# GULP energy per Si atom -5589.055229 kJ/mol
# Density = 2.333561 g / cm^3
# Si number density = 23.388847 Si / 1000 Ang^3
#
#
#
# Elastic Constant Matrix: (Units=GPa)
#
#
# Indices 1 2 3 4 5 6 
#
# 1 56.1292 18.1573 30.4272 2.0290 0.4061 6.2652
# 2 18.1573 173.6646 57.3988 -0.5551 -7.0667 26.8947
# 3 30.4272 57.3988 126.3786 -5.5801 6.6236 17.2551
# 4 2.0290 -0.5551 -5.5801 53.7471 1.8065 -5.8858
# 5 0.4061 -7.0667 6.6236 1.8065 24.7294 -4.0968
# 6 6.2652 26.8947 17.2551 -5.8858 -4.0968 22.7755
#
#
#
# Elastic Compliance Matrix: (Units=1/GPa)
#
#
# Indices 1 2 3 4 5 6 
#
# 1 0.020726 -0.000274 -0.004674 -0.001523 0.000593 -0.002124
# 2 -0.000274 0.007840 -0.002669 -0.001025 0.001860 -0.007090
# 3 -0.004674 -0.002669 0.011153 0.000957 -0.004501 -0.004574
# 4 -0.001523 -0.001025 0.000957 0.019414 -0.000991 0.005743
# 5 0.000593 0.001860 -0.004501 -0.000991 0.043670 0.008650
# 6 -0.002124 -0.007090 -0.004574 0.005743 0.008650 0.059369
#
#
# Mechanical properties :
#
#
# Convention : Reuss Voigt Hill
#
# Bulk Modulus (GPa) = 40.84258 63.12656 51.98457
# Shear Modulus (GPa) = 26.94429 36.92969 31.93699
#
# Velocity S-wave (km/s) = 3.39782 3.97790 3.69925
# Velocity P-wave (km/s) = 5.73532 6.93880 6.36556
#
# Compressibility (1/GPa) = 0.02448425
#
# Stress axis : x y z
#
# Youngs Moduli (GPa) = 48.24805 127.55893 89.66124
#
# Poissons Ratio (x) = 0.03496 0.41907
# Poissons Ratio (y) = 0.01322 0.23933
# Poissons Ratio (z) = 0.22551 0.34049
#
# Static dielectric constant tensor:
#      x y z
#    x 1.948040 -0.006180 0.000800 
#    y -0.006180 1.874280 -0.008110 
#    z 0.000800 -0.008110 1.888640 
# 
# From -- ./inp_files/382059.got.cif
#   From: 2010.05.17/outbox.cif.g08.bks.cpg/sg2_192_cif.got.tgz:382059.got - 2010.06.03 11:33:40.
