data_PCOD9003354
_publ_section_title
;
Structure prediction by ZEFSAII (Michael W. Deem and Ramdas Pophale) SiO2 
 PCOD9003354
Probable space group: P -1
;
_chemical_formula_sum "Si O2"
_cell_formula_units_Z 16
_cell_length_a 5.231426
_cell_length_b 7.345964
_cell_length_c 21.460098
_cell_angle_alpha 74.421209
_cell_angle_beta 124.131368
_cell_angle_gamma 80.456530
_cell_volume 603.557112
_symmetry_space_group_name_H-M "P -1"
_symmetry_group_IT_number 2
_symmetry_cell_setting 'triclinic'
loop_
_space_group_symop_operation_xyz
x,y,z
-x,-y,-z
loop_
_atom_site_type_symbol
_atom_site_label
_atom_site_fract_x
_atom_site_fract_y
_atom_site_fract_z
Si Si1 0.946875 0.863854 0.326417
Si Si2 0.949225 0.186257 0.377120
Si Si3 0.154284 0.467401 0.456055
Si Si4 0.358867 0.078572 0.059156
Si Si5 0.288696 0.257245 0.160954
Si Si6 0.234481 0.700472 0.114795
Si Si7 0.856473 0.632386 0.735183
Si Si8 0.923338 0.186998 0.783778
O O1 0.176121 0.841685 0.298034
O O2 0.930917 0.649316 0.362049
O O3 0.046228 0.948589 0.395645
O O4 0.595642 0.045267 0.242222
O O5 0.552942 0.289197 0.330717
O O6 0.154078 0.255498 0.449031
O O7 0.025496 0.266466 0.313892
O O8 0.500000 0.500000 0.500000
O O9 0.000000 0.500000 0.500000
O O10 0.326674 0.859558 0.072252
O O11 0.752406 0.013320 0.132508
O O12 0.171775 0.205707 0.083606
O O13 0.168850 0.215952 0.962381
O O14 0.375101 0.458307 0.144529
O O15 0.072391 0.315861 0.189468
O O16 0.296456 0.747577 0.190095
O O17 0.010310 0.388037 0.769788
#
# Coordination Sequence:
#
# PCOD9003354 Si02
#       8
#     2   2   2   2   2   2   2   2
#     4  10  24  42  71 103 131 182 231 283 336 412
#     4  11  24  46  70 103 140 171 226 280 332 409
#     4  12  28  49  75 104 144 180 215 277 348 415
#     4  10  21  37  59  90 139 177 232 276 350 400
#     4   9  21  38  62  96 129 176 229 287 328 397
#     4  10  21  37  60  92 132 184 223 286 343 398
#     4  10  22  39  69 100 135 179 226 290 332 387
#     4  10  21  38  64  94 130 180 230 288 332 396
#
# _framework density 26.509505000000001
#
# number of rings (size 3 to 8) (size 9 to 14) (size 15 to 20)
#    0.000    1.750    1.250    1.500    7.000    3.000 
#    0.000    0.000    0.000    7.500    0.000    0.000 
#    0.000    0.000    0.000    0.000    0.000    0.000 
#
# Total GULP energy -89472.701539 kJ/mol
# GULP energy per Si atom -5592.043846 kJ/mol
# Density = 2.644917 g / cm^3
# Si number density = 26.509505 Si / 1000 Ang^3
#
#
#
# Elastic Constant Matrix: (Units=GPa)
#
#
# Indices 1 2 3 4 5 6 
#
# 1 107.0574 16.2357 30.1829 9.4648 -9.7273 -16.3659
# 2 16.2357 139.6502 31.8662 27.1532 1.9423 1.8416
# 3 30.1829 31.8662 93.5454 12.0808 -1.5731 -16.0181
# 4 9.4648 27.1532 12.0808 60.6617 -3.3464 -5.2248
# 5 -9.7273 1.9423 -1.5731 -3.3464 39.7778 4.3073
# 6 -16.3659 1.8416 -16.0181 -5.2248 4.3073 38.4027
#
#
#
# Elastic Compliance Matrix: (Units=1/GPa)
#
#
# Indices 1 2 3 4 5 6 
#
# 1 0.010928 -0.000646 -0.002646 -0.000486 0.002204 0.003271
# 2 -0.000646 0.008544 -0.002644 -0.003424 -0.000733 -0.002172
# 3 -0.002646 -0.002644 0.013297 -0.000693 -0.000539 0.004512
# 4 -0.000486 -0.003424 -0.000693 0.018481 0.001356 0.002031
# 5 0.002204 -0.000733 -0.000539 0.001356 0.026022 -0.001985
# 6 0.003271 -0.002172 0.004512 0.002031 -0.001985 0.029919
#
#
# Mechanical properties :
#
#
# Convention : Reuss Voigt Hill
#
# Bulk Modulus (GPa) = 47.85313 55.20250 51.52782
# Shear Modulus (GPa) = 39.67338 45.23299 42.45318
#
# Velocity S-wave (km/s) = 3.87275 4.13521 4.00613
# Velocity P-wave (km/s) = 6.17156 6.60824 6.39363
#
# Compressibility (1/GPa) = 0.02089727
#
# Stress axis : x y z
#
# Youngs Moduli (GPa) = 91.50788 117.04333 75.20275
#
# Poissons Ratio (x) = 0.07562 0.19899
# Poissons Ratio (y) = 0.05912 0.19883
# Poissons Ratio (z) = 0.24213 0.30945
#
# Static dielectric constant tensor:
#      x y z
#    x 2.162950 0.035120 0.074850 
#    y 0.035120 2.073380 0.051190 
#    z 0.074850 0.051190 2.050380 
# 
# From -- ./inp_files/582394.got.cif
#   From: 2010.05.17/outbox.cif.g08.bks.cpg/sg2_292_cif.got.tgz:582394.got - 2010.06.03 11:33:40.
