data_PCOD9003536
_publ_section_title
;
Structure prediction by ZEFSAII (Michael W. Deem and Ramdas Pophale) SiO2 
 PCOD9003536
Probable space group: P -1
;
_chemical_formula_sum "Si O2"
_cell_formula_units_Z 14
_cell_length_a 6.417556
_cell_length_b 16.602226
_cell_length_c 5.809300
_cell_angle_alpha 95.727861
_cell_angle_beta 109.413511
_cell_angle_gamma 95.590067
_cell_volume 575.199278
_symmetry_space_group_name_H-M "P -1"
_symmetry_group_IT_number 2
_symmetry_cell_setting 'triclinic'
loop_
_space_group_symop_operation_xyz
x,y,z
-x,-y,-z
loop_
_atom_site_type_symbol
_atom_site_label
_atom_site_fract_x
_atom_site_fract_y
_atom_site_fract_z
Si Si1 0.990319 0.154782 0.558224
Si Si2 0.284344 0.741192 0.182008
Si Si3 0.811604 0.437236 0.042584
Si Si4 0.266320 0.284471 0.387101
Si Si5 0.439947 0.958001 0.715176
Si Si6 0.645475 0.542825 0.363691
Si Si7 0.614920 0.819933 0.968494
O O1 0.857383 0.206536 0.698419
O O2 0.821578 0.077262 0.395440
O O3 0.084112 0.215155 0.406011
O O4 0.203237 0.136176 0.776361
O O5 0.496534 0.722862 0.405110
O O6 0.152650 0.655605 0.019897
O O7 0.390240 0.793366 0.019597
O O8 0.790508 0.478347 0.293298
O O9 0.551481 0.435176 0.868587
O O10 0.000000 0.500000 0.000000
O O11 0.218376 0.373933 0.466448
O O12 0.304822 0.261573 0.130480
O O13 0.571938 0.879422 0.762986
O O14 0.500000 0.000000 0.500000
O O15 0.500000 0.000000 0.000000
O O16 0.500000 0.500000 0.500000
#
# Coordination Sequence:
#
# PCOD9003536 Si02
#       7
#     2   2   2   2   2   2   2
#     4  11  25  45  75 101 140 190 241 286 364 435
#     4  10  21  42  65  98 142 190 240 299 349 425
#     4  10  21  37  60  93 140 184 236 291 353 407
#     4  10  22  40  67  99 136 187 243 293 350 429
#     4  12  29  51  77 111 152 184 234 308 373 446
#     4  10  21  38  58  95 141 178 232 300 345 399
#     4  11  25  45  74 103 140 186 243 290 361 439
#
# _framework density 24.339389000000001
#
# number of rings (size 3 to 8) (size 9 to 14) (size 15 to 20)
#    0.000    1.429    1.429    2.571    6.000    5.143 
#    0.000    0.000    0.000    0.000    0.000    0.000 
#    0.000    0.000    0.000    0.000    0.000    0.000 
#
# Total GULP energy -78299.651193 kJ/mol
# GULP energy per Si atom -5592.832228 kJ/mol
# Density = 2.428399 g / cm^3
# Si number density = 24.339389 Si / 1000 Ang^3
#
#
#
# Elastic Constant Matrix: (Units=GPa)
#
#
# Indices 1 2 3 4 5 6 
#
# 1 98.9999 30.0298 42.0789 15.8536 -11.1831 22.0059
# 2 30.0298 99.5263 39.4723 23.1240 0.9358 19.0435
# 3 42.0789 39.4723 119.6598 28.2584 8.8264 14.5064
# 4 15.8536 23.1240 28.2584 36.6093 4.5120 0.0281
# 5 -11.1831 0.9358 8.8264 4.5120 68.4660 8.4358
# 6 22.0059 19.0435 14.5064 0.0281 8.4358 48.4433
#
#
#
# Elastic Compliance Matrix: (Units=1/GPa)
#
#
# Indices 1 2 3 4 5 6 
#
# 1 0.014047 -0.001115 -0.003415 -0.003188 0.003644 -0.005553
# 2 -0.001115 0.013558 -0.002059 -0.006595 0.000869 -0.004354
# 3 -0.003415 -0.002059 0.011940 -0.006247 -0.001541 -0.000943
# 4 -0.003188 -0.006595 -0.006247 0.038039 -0.002920 0.006398
# 5 0.003644 0.000869 -0.001541 -0.002920 0.016115 -0.004340
# 6 -0.005553 -0.004354 -0.000943 0.006398 -0.004340 0.025911
#
#
# Mechanical properties :
#
#
# Convention : Reuss Voigt Hill
#
# Bulk Modulus (GPa) = 37.92540 60.14978 49.03759
# Shear Modulus (GPa) = 35.31650 44.47739 39.89695
#
# Velocity S-wave (km/s) = 3.81333 4.27943 4.05309
# Velocity P-wave (km/s) = 5.91645 7.01317 6.48803
#
# Compressibility (1/GPa) = 0.02636755
#
# Stress axis : x y z
#
# Youngs Moduli (GPa) = 71.18908 73.75720 83.75102
#
# Poissons Ratio (x) = 0.08226 0.28598
# Poissons Ratio (y) = 0.07940 0.17244
# Poissons Ratio (z) = 0.24309 0.15186
#
# Static dielectric constant tensor:
#      x y z
#    x 1.824750 -0.028420 -0.029510 
#    y -0.028420 1.948960 0.044980 
#    z -0.029510 0.044980 1.912930 
# 
# From -- ./inp_files/7418.got.cif
#   From: 2010.05.17/outbox.cif.g08.bks.cpg/sg2_4_cif.got.tgz:7418.got - 2010.06.03 11:33:40.
