data_PCOD9003659
_publ_section_title
;
Structure prediction by ZEFSAII (Michael W. Deem and Ramdas Pophale) SiO2 
 PCOD9003659
Probable space group: P -1
;
_chemical_formula_sum "Si O2"
_cell_formula_units_Z 16
_cell_length_a 16.356482
_cell_length_b 13.488156
_cell_length_c 5.537584
_cell_angle_alpha 106.091632
_cell_angle_beta 104.835198
_cell_angle_gamma 35.106889
_cell_volume 674.124101
_symmetry_space_group_name_H-M "P -1"
_symmetry_group_IT_number 2
_symmetry_cell_setting 'triclinic'
loop_
_space_group_symop_operation_xyz
x,y,z
-x,-y,-z
loop_
_atom_site_type_symbol
_atom_site_label
_atom_site_fract_x
_atom_site_fract_y
_atom_site_fract_z
Si Si1 0.915564 0.866869 0.996923
Si Si2 0.533229 0.744743 0.094553
Si Si3 0.779035 0.454583 0.749407
Si Si4 0.446560 0.447140 0.623238
Si Si5 0.662338 0.236734 0.256421
Si Si6 0.290994 0.132441 0.188295
Si Si7 0.951790 0.378292 0.442694
Si Si8 0.826805 0.678763 0.264965
O O1 0.063385 0.724483 0.158095
O O2 0.817522 0.053402 0.157613
O O3 0.812690 0.866380 0.917580
O O4 0.973282 0.799141 0.718664
O O5 0.541803 0.666730 0.286163
O O6 0.451318 0.932077 0.183268
O O7 0.683418 0.602637 0.980139
O O8 0.431331 0.772454 0.875253
O O9 0.681606 0.454587 0.593717
O O10 0.812309 0.489932 0.563338
O O11 0.602356 0.314402 0.534997
O O12 0.390081 0.607775 0.808865
O O13 0.258301 0.215846 0.478811
O O14 0.256531 0.232007 0.989380
O O15 0.915572 0.488699 0.264199
O O16 0.057547 0.341774 0.661441
#
# Coordination Sequence:
#
# PCOD9003659 Si02
#       8
#     2   2   2   2   2   2   2   2
#     4  10  21  37  61  91 124 164 206 264 315 382
#     4  10  22  38  64  85 129 163 210 259 322 375
#     4  11  22  38  58  88 128 171 202 256 327 381
#     4  10  21  40  63  92 121 167 202 268 312 386
#     4   9  21  39  65  91 119 158 219 258 314 373
#     4  10  22  39  66  97 123 166 222 268 313 375
#     4  10  22  38  63  89 131 162 208 259 326 372
#     4  10  22  39  67  97 125 167 219 274 310 377
#
# _framework density 23.734501000000002
#
# number of rings (size 3 to 8) (size 9 to 14) (size 15 to 20)
#    0.000    2.000    1.250    1.125    7.000    3.000 
#    0.000    3.750    0.000    0.000    0.000    0.000 
#    0.000    0.000    0.000    0.000    0.000    0.000 
#
# Total GULP energy -89240.812779 kJ/mol
# GULP energy per Si atom -5577.550799 kJ/mol
# Density = 2.368048 g / cm^3
# Si number density = 23.734501 Si / 1000 Ang^3
#
#
#
# Elastic Constant Matrix: (Units=GPa)
#
#
# Indices 1 2 3 4 5 6 
#
# 1 74.0376 39.9701 35.5179 9.1513 -21.1534 -11.2597
# 2 39.9701 182.4578 61.9044 40.1020 -20.1893 -16.6983
# 3 35.5179 61.9044 90.2009 5.9543 -7.6431 -8.7812
# 4 9.1513 40.1020 5.9543 54.9320 -32.0965 10.8879
# 5 -21.1534 -20.1893 -7.6431 -32.0965 78.8965 -15.9696
# 6 -11.2597 -16.6983 -8.7812 10.8879 -15.9696 33.1785
#
#
#
# Elastic Compliance Matrix: (Units=1/GPa)
#
#
# Indices 1 2 3 4 5 6 
#
# 1 0.019694 -0.001012 -0.005829 0.000125 0.006023 0.007490
# 2 -0.001012 0.009570 -0.005169 -0.007493 -0.000272 0.005433
# 3 -0.005829 -0.005169 0.016571 0.003027 -0.000320 -0.001341
# 4 0.000125 -0.007493 0.003027 0.030275 0.008998 -0.008532
# 5 0.006023 -0.000272 -0.000320 0.008998 0.019523 0.008267
# 6 0.007490 0.005433 -0.001341 -0.008532 0.008267 0.041840
#
#
# Mechanical properties :
#
#
# Convention : Reuss Voigt Hill
#
# Bulk Modulus (GPa) = 45.83839 69.05345 57.44592
# Shear Modulus (GPa) = 29.62696 47.35499 38.49097
#
# Velocity S-wave (km/s) = 3.53691 4.47161 4.03144
# Velocity P-wave (km/s) = 6.00288 7.47112 6.77688
#
# Compressibility (1/GPa) = 0.02181578
#
# Stress axis : x y z
#
# Youngs Moduli (GPa) = 50.77730 104.48994 60.34464
#
# Poissons Ratio (x) = 0.10575 0.35174
# Poissons Ratio (y) = 0.05139 0.31192
# Poissons Ratio (z) = 0.29598 0.54010
#
# Static dielectric constant tensor:
#      x y z
#    x 1.907460 0.003600 -0.003510 
#    y 0.003600 1.933890 0.009940 
#    z -0.003510 0.009940 2.036290 
# 
# From -- ./inp_files/111004.got.cif
#   From: 2010.05.17/outbox.cif.g08.bks.cpg/sg2_56_cif.got.tgz:111004.got - 2010.06.03 11:33:40.
