data_PCOD9003614
_publ_section_title
;
Structure prediction by ZEFSAII (Michael W. Deem and Ramdas Pophale) SiO2 
 PCOD9003614
Probable space group: P -1
;
_chemical_formula_sum "Si O2"
_cell_formula_units_Z 14
_cell_length_a 12.650063
_cell_length_b 12.997774
_cell_length_c 8.484399
_cell_angle_alpha 96.118999
_cell_angle_beta 108.902989
_cell_angle_gamma 143.296965
_cell_volume 600.861620
_symmetry_space_group_name_H-M "P -1"
_symmetry_group_IT_number 2
_symmetry_cell_setting 'triclinic'
loop_
_space_group_symop_operation_xyz
x,y,z
-x,-y,-z
loop_
_atom_site_type_symbol
_atom_site_label
_atom_site_fract_x
_atom_site_fract_y
_atom_site_fract_z
Si Si1 0.947963 0.970586 0.161247
Si Si2 0.800758 0.364858 0.751040
Si Si3 0.192328 0.369428 0.947306
Si Si4 0.570306 0.585514 0.373077
Si Si5 0.518888 0.319969 0.140743
Si Si6 0.933248 0.559132 0.537497
Si Si7 0.749664 0.099185 0.527073
O O1 0.813581 0.756642 0.120798
O O2 0.767665 0.919507 0.065565
O O3 0.159504 0.153162 0.421133
O O4 0.000000 0.000000 0.000000
O O5 0.925814 0.549957 0.721861
O O6 0.753002 0.220958 0.605052
O O7 0.530657 0.169532 0.654882
O O8 0.000000 0.500000 0.000000
O O9 0.339929 0.565091 0.935688
O O10 0.913391 0.174690 0.751467
O O11 0.368134 0.501307 0.204166
O O12 0.500000 0.500000 0.500000
O O13 0.567463 0.474369 0.261783
O O14 0.652238 0.349844 0.321208
O O15 0.000000 0.500000 0.500000
O O16 0.105876 0.778273 0.552448
#
# Coordination Sequence:
#
# PCOD9003614 Si02
#       7
#     2   2   2   2   2   2   2
#     4  11  21  36  57  84 117 156 191 238 296 347
#     4  10  21  37  61  89 115 152 201 247 298 354
#     4  10  22  38  57  82 119 155 195 243 291 353
#     4  11  21  35  57  87 117 150 199 240 290 354
#     4  10  22  39  58  85 118 157 196 244 296 349
#     4   9  20  41  63  84 121 160 196 247 300 353
#     4   9  21  40  58  84 119 156 194 248 300 348
#
# _framework density 23.299873999999999
#
# number of rings (size 3 to 8) (size 9 to 14) (size 15 to 20)
#    0.000    2.000    2.857    1.714    2.000    5.143 
#    0.000    7.143    0.000    0.000    0.000    0.000 
#    0.000    0.000    0.000    0.000    0.000    0.000 
#
# Total GULP energy -77938.104406 kJ/mol
# GULP energy per Si atom -5567.007458 kJ/mol
# Density = 2.324684 g / cm^3
# Si number density = 23.299874 Si / 1000 Ang^3
#
#
#
# Elastic Constant Matrix: (Units=GPa)
#
#
# Indices 1 2 3 4 5 6 
#
# 1 53.6213 6.5974 24.9464 9.8384 19.9611 -3.9847
# 2 6.5974 71.1874 69.7975 -10.6355 13.3228 20.5898
# 3 24.9464 69.7975 186.5160 -3.4710 44.1538 14.1489
# 4 9.8384 -10.6355 -3.4710 43.7888 -1.6425 8.2390
# 5 19.9611 13.3228 44.1538 -1.6425 48.9046 6.8483
# 6 -3.9847 20.5898 14.1489 8.2390 6.8483 25.2116
#
#
#
# Elastic Compliance Matrix: (Units=1/GPa)
#
#
# Indices 1 2 3 4 5 6 
#
# 1 0.027379 -0.007527 0.000572 -0.011666 -0.012462 0.017351
# 2 -0.007527 0.036492 -0.012072 0.015934 0.009029 -0.031877
# 3 0.000572 -0.012072 0.011106 -0.003833 -0.008105 0.007171
# 4 -0.011666 0.015934 -0.003833 0.034296 0.008714 -0.026280
# 5 -0.012462 0.009029 -0.008105 0.008714 0.033011 -0.016610
# 6 0.017351 -0.031877 0.007171 -0.026280 -0.016610 0.077515
#
#
# Mechanical properties :
#
#
# Convention : Reuss Voigt Hill
#
# Bulk Modulus (GPa) = 27.08459 57.11192 42.09826
# Shear Modulus (GPa) = 18.50755 37.57987 28.04371
#
# Velocity S-wave (km/s) = 2.82143 4.02042 3.47306
# Velocity P-wave (km/s) = 4.71842 6.79092 5.84723
#
# Compressibility (1/GPa) = 0.03692136
#
# Stress axis : x y z
#
# Youngs Moduli (GPa) = 36.52489 27.40342 90.04312
#
# Poissons Ratio (x) = 0.20627 -0.05148
# Poissons Ratio (y) = 0.27493 1.08699
# Poissons Ratio (z) = -0.02088 0.33081
#
# Static dielectric constant tensor:
#      x y z
#    x 1.994840 0.132710 0.039270 
#    y 0.132710 1.959870 -0.006490 
#    z 0.039270 -0.006490 1.886100 
# 
# From -- ./inp_files/179600.got.cif
#   From: 2010.05.17/outbox.cif.g08.bks.cpg/sg2_90_cif.got.tgz:179600.got - 2010.06.03 11:33:40.
