data_PCOD9003081
_publ_section_title
;
Structure prediction by ZEFSAII (Michael W. Deem and Ramdas Pophale) SiO2 
 PCOD9003081
Probable space group: P -1
;
_chemical_formula_sum "Si O2"
_cell_formula_units_Z 15
_cell_length_a 5.404054
_cell_length_b 17.150358
_cell_length_c 13.957974
_cell_angle_alpha 28.131695
_cell_angle_beta 110.286066
_cell_angle_gamma 112.849497
_cell_volume 562.062164
_symmetry_space_group_name_H-M "P -1"
_symmetry_group_IT_number 2
_symmetry_cell_setting 'triclinic'
loop_
_space_group_symop_operation_xyz
x,y,z
-x,-y,-z
loop_
_atom_site_type_symbol
_atom_site_label
_atom_site_fract_x
_atom_site_fract_y
_atom_site_fract_z
Si Si1 0.791484 0.592319 0.115744
Si Si2 0.821248 0.219837 0.782954
Si Si3 0.082992 0.330532 0.509926
Si Si4 0.697455 0.960395 0.207299
Si Si5 0.659463 0.757706 0.738635
Si Si6 0.500000 0.500000 0.500000
Si Si7 0.634784 0.210469 0.085446
Si Si8 0.164203 0.861065 0.597722
O O1 0.834498 0.417971 0.356665
O O2 0.661721 0.606570 0.977311
O O3 0.621181 0.699322 0.041446
O O4 0.097811 0.677625 0.043017
O O5 0.574279 0.120009 0.796660
O O6 0.727559 0.381257 0.639251
O O7 0.063831 0.265576 0.690272
O O8 0.858970 0.100250 0.005501
O O9 0.119212 0.180084 0.607947
O O10 0.368970 0.452420 0.426856
O O11 0.606235 0.043608 0.199359
O O12 0.367904 0.787527 0.637431
O O13 0.862040 0.761456 0.673434
O O14 0.796471 0.935906 0.619658
O O15 0.710464 0.173848 0.243920
#
# Coordination Sequence:
#
# PCOD9003081 Si02
#       8
#     2   2   2   2   2   1   2   2
#     4  10  22  35  59  84 116 141 191 227 285 321
#     4  10  22  39  57  76 104 146 187 234 283 333
#     4  11  23  38  58  78 109 149 183 238 281 339
#     4  10  23  38  55  78 110 141 193 226 287 332
#     4   8  14  28  48  81 108 143 171 228 264 330
#     4  10  22  38  56  82  98 136 190 234 274 330
#     4  10  21  37  57  88 111 149 181 238 271 337
#     4   8  14  27  51  77 113 137 180 215 279 314
#
# _framework density 26.687441
#
# number of rings (size 3 to 8) (size 9 to 14) (size 15 to 20)
#    0.000    2.400    0.000    1.600    7.467    0.000 
#    2.400    0.000    0.000    0.800    0.000    0.933 
#    0.000    0.000    0.000    0.000    0.000    0.000 
#
# Total GULP energy -83668.704159 kJ/mol
# GULP energy per Si atom -5577.913611 kJ/mol
# Density = 2.662670 g / cm^3
# Si number density = 26.687441 Si / 1000 Ang^3
#
#
#
# Elastic Constant Matrix: (Units=GPa)
#
#
# Indices 1 2 3 4 5 6 
#
# 1 148.6225 29.3285 48.2383 4.6030 35.9996 -23.4667
# 2 29.3285 81.7259 41.4885 -4.3319 11.0805 -12.5641
# 3 48.2383 41.4885 112.6049 18.3003 37.7739 -17.3089
# 4 4.6030 -4.3319 18.3003 27.6668 -7.9974 8.3301
# 5 35.9996 11.0805 37.7739 -7.9974 58.4284 4.0070
# 6 -23.4667 -12.5641 -17.3089 8.3301 4.0070 30.7836
#
#
#
# Elastic Compliance Matrix: (Units=1/GPa)
#
#
# Indices 1 2 3 4 5 6 
#
# 1 0.012135 -0.003778 0.006254 -0.016101 -0.014203 0.017431
# 2 -0.003778 0.018193 -0.012429 0.017045 0.009817 -0.008334
# 3 0.006254 -0.012429 0.034990 -0.046583 -0.032980 0.036267
# 4 -0.016101 0.017045 -0.046583 0.109218 0.056444 -0.068411
# 5 -0.014203 0.009817 -0.032980 0.056444 0.056341 -0.047971
# 6 0.017431 -0.008334 0.036267 -0.068411 -0.047971 0.087520
#
#
# Mechanical properties :
#
#
# Convention : Reuss Voigt Hill
#
# Bulk Modulus (GPa) = 22.02096 64.56265 43.29181
# Shear Modulus (GPa) = 14.14669 38.30228 26.22449
#
# Velocity S-wave (km/s) = 2.30486 3.79254 3.13813
# Velocity P-wave (km/s) = 3.91823 6.58957 5.42102
#
# Compressibility (1/GPa) = 0.04541128
#
# Stress axis : x y z
#
# Youngs Moduli (GPa) = 82.40433 54.96720 28.57994
#
# Poissons Ratio (x) = 0.20765 -0.17873
# Poissons Ratio (y) = 0.31130 0.35522
# Poissons Ratio (z) = -0.51533 0.68319
#
# Static dielectric constant tensor:
#      x y z
#    x 0.653470 -0.649550 0.561040 
#    y -0.649550 1.769250 0.254990 
#    z 0.561040 0.254990 1.961630 
# 
# From -- ./inp_files/41833.got.cif
#   From: 2010.05.17/outbox.cif.g08.bks.cpg/sg2_21_cif.got.tgz:41833.got - 2010.06.03 11:33:40.
