data_PCOD9003986
_publ_section_title
;
Structure prediction by ZEFSAII (Michael W. Deem and Ramdas Pophale) SiO2 
 PCOD9003986
Probable space group: P -1
;
_chemical_formula_sum "Si O2"
_cell_formula_units_Z 14
_cell_length_a 13.410322
_cell_length_b 20.961183
_cell_length_c 5.541385
_cell_angle_alpha 129.020098
_cell_angle_beta 60.676540
_cell_angle_gamma 148.286287
_cell_volume 632.144501
_symmetry_space_group_name_H-M "P -1"
_symmetry_group_IT_number 2
_symmetry_cell_setting 'triclinic'
loop_
_space_group_symop_operation_xyz
x,y,z
-x,-y,-z
loop_
_atom_site_type_symbol
_atom_site_label
_atom_site_fract_x
_atom_site_fract_y
_atom_site_fract_z
Si Si1 0.815259 0.163151 0.975890
Si Si2 0.482700 0.061838 0.862178
Si Si3 0.304816 0.398715 0.215567
Si Si4 0.985788 0.421687 0.532576
Si Si5 0.658977 0.309191 0.959727
Si Si6 0.583331 0.679868 0.789424
Si Si7 0.112032 0.246652 0.566421
O O1 0.977209 0.323731 0.220942
O O2 0.722998 0.060712 0.061285
O O3 0.647713 0.126985 0.001926
O O4 0.894768 0.143729 0.642446
O O5 0.500000 0.000000 0.500000
O O6 0.543252 0.183901 0.977187
O O7 0.449241 0.556850 0.458445
O O8 0.417199 0.380026 0.119681
O O9 0.164118 0.324823 0.442216
O O10 0.215896 0.331909 0.899579
O O11 0.000000 0.500000 0.500000
O O12 0.172032 0.541908 0.760249
O O13 0.787427 0.325166 0.676015
O O14 0.507640 0.284835 0.966790
O O15 0.798792 0.791478 0.696339
#
# Coordination Sequence:
#
# PCOD9003986 Si02
#       7
#     2   2   2   2   2   2   2
#     4  11  24  41  65  92 125 173 218 266 317 399
#     4  11  24  43  62  88 128 176 217 256 330 386
#     4   9  20  36  58  96 129 168 207 253 340 381
#     4  11  23  36  62  97 128 159 209 268 323 371
#     4  11  23  41  62  97 131 167 209 272 322 389
#     4   9  21  34  60  91 130 167 207 264 329 383
#     4  10  21  37  63  92 121 170 214 265 314 390
#
# _framework density 22.146836
#
# number of rings (size 3 to 8) (size 9 to 14) (size 15 to 20)
#    0.857    0.857    2.857    1.286    4.000    1.143 
#    0.000    0.714    0.000    1.714    0.000    0.000 
#    0.000    0.000    0.000    0.000    0.000    0.000 
#
# Total GULP energy -77967.280388 kJ/mol
# GULP energy per Si atom -5569.091456 kJ/mol
# Density = 2.209643 g / cm^3
# Si number density = 22.146836 Si / 1000 Ang^3
#
#
#
# Elastic Constant Matrix: (Units=GPa)
#
#
# Indices 1 2 3 4 5 6 
#
# 1 81.2649 16.1587 15.7580 -5.3826 -31.8019 4.2919
# 2 16.1587 111.5194 16.7056 -24.7492 -20.5424 -3.6242
# 3 15.7580 16.7056 50.2194 -4.2238 5.2242 2.4164
# 4 -5.3826 -24.7492 -4.2238 32.9944 4.5996 -1.9892
# 5 -31.8019 -20.5424 5.2242 4.5996 43.8780 -9.7222
# 6 4.2919 -3.6242 2.4164 -1.9892 -9.7222 19.7800
#
#
#
# Elastic Compliance Matrix: (Units=1/GPa)
#
#
# Indices 1 2 3 4 5 6 
#
# 1 0.020623 0.002402 -0.009338 0.001787 0.018398 0.006329
# 2 0.002402 0.013551 -0.005920 0.008949 0.009703 0.008354
# 3 -0.009338 -0.005920 0.026723 -0.001070 -0.014755 -0.009683
# 4 0.001787 0.008949 -0.001070 0.037133 0.003203 0.006691
# 5 0.018398 0.009703 -0.014755 0.003203 0.047211 0.023115
# 6 0.006329 0.008354 -0.009683 0.006691 0.023115 0.063931
#
#
# Mechanical properties :
#
#
# Convention : Reuss Voigt Hill
#
# Bulk Modulus (GPa) = 28.42199 37.80536 33.11368
# Shear Modulus (GPa) = 20.27484 32.28922 26.28203
#
# Velocity S-wave (km/s) = 3.02896 3.82247 3.44861
# Velocity P-wave (km/s) = 5.00940 6.04889 5.55352
#
# Compressibility (1/GPa) = 0.03518402
#
# Stress axis : x y z
#
# Youngs Moduli (GPa) = 48.49049 73.79658 37.42096
#
# Poissons Ratio (x) = -0.17727 0.34945
# Poissons Ratio (y) = -0.11648 0.22154
# Poissons Ratio (z) = 0.45282 0.43688
#
# Static dielectric constant tensor:
#      x y z
#    x 1.942690 0.118170 0.054180 
#    y 0.118170 1.906080 -0.021320 
#    z 0.054180 -0.021320 1.853590 
# 
# From -- ./inp_files/100497.got.cif
#   From: 2010.05.17/outbox.cif.g08.bks.cpg/sg2_51_cif.got.tgz:100497.got - 2010.06.03 11:33:40.
