data_PCOD9003825
_publ_section_title
;
Structure prediction by ZEFSAII (Michael W. Deem and Ramdas Pophale) SiO2 
 PCOD9003825
Probable space group: P -1
;
_chemical_formula_sum "Si O2"
_cell_formula_units_Z 16
_cell_length_a 8.176956
_cell_length_b 8.417390
_cell_length_c 16.525606
_cell_angle_alpha 101.834415
_cell_angle_beta 68.509257
_cell_angle_gamma 136.940200
_cell_volume 719.089760
_symmetry_space_group_name_H-M "P -1"
_symmetry_group_IT_number 2
_symmetry_cell_setting 'triclinic'
loop_
_space_group_symop_operation_xyz
x,y,z
-x,-y,-z
loop_
_atom_site_type_symbol
_atom_site_label
_atom_site_fract_x
_atom_site_fract_y
_atom_site_fract_z
Si Si1 0.636484 0.095034 0.719677
Si Si2 0.117766 0.445690 0.356076
Si Si3 0.681447 0.745983 0.946825
Si Si4 0.097339 0.962534 0.554782
Si Si5 0.409123 0.730806 0.592324
Si Si6 0.498924 0.508170 0.801745
Si Si7 0.157605 0.300688 0.685116
Si Si8 0.250466 0.036983 0.886216
O O1 0.418493 0.013077 0.809840
O O2 0.705630 0.278922 0.658635
O O3 0.896148 0.225792 0.732036
O O4 0.551608 0.882794 0.663357
O O5 0.835370 0.318126 0.376092
O O6 0.243546 0.405488 0.266116
O O7 0.078141 0.312579 0.429870
O O8 0.570500 0.695981 0.871912
O O9 0.500000 0.500000 0.000000
O O10 0.711762 0.918926 0.019309
O O11 0.953056 0.837917 0.901853
O O12 0.389334 0.116911 0.499223
O O13 0.097806 0.077802 0.645648
O O14 0.000000 0.000000 0.500000
O O15 0.308248 0.483870 0.602466
O O16 0.327858 0.430020 0.747011
O O17 0.349005 0.269942 0.853043
#
# Coordination Sequence:
#
# PCOD9003825 Si02
#       8
#     2   2   2   2   2   2   2   2
#     4  10  22  42  62  91 127 165 207 254 315 368
#     4  10  24  39  63  92 119 163 215 261 309 369
#     4   9  18  35  63  97 124 157 201 250 304 366
#     4  12  24  43  62  88 125 167 214 267 314 364
#     4  11  23  43  61  88 126 168 208 268 311 371
#     4  10  21  37  62  92 123 161 208 254 307 373
#     4  11  25  41  61  91 124 170 211 256 317 369
#     4   9  19  37  65  93 125 159 205 250 302 372
#
# _framework density 22.250350999999998
#
# number of rings (size 3 to 8) (size 9 to 14) (size 15 to 20)
#    0.000    1.750    1.250    2.250    5.250    1.500 
#    0.000    0.625    0.000    7.500    0.000    0.000 
#    0.000    0.000    0.000    0.000    0.000    0.000 
#
# Total GULP energy -89368.446397 kJ/mol
# GULP energy per Si atom -5585.527900 kJ/mol
# Density = 2.219971 g / cm^3
# Si number density = 22.250351 Si / 1000 Ang^3
#
#
#
# Elastic Constant Matrix: (Units=GPa)
#
#
# Indices 1 2 3 4 5 6 
#
# 1 79.4600 28.6631 48.8825 -4.3516 -7.1987 13.1041
# 2 28.6631 72.8346 30.4208 -6.7774 -9.3053 8.7608
# 3 48.8825 30.4208 85.3875 -2.2112 -10.5620 17.6171
# 4 -4.3516 -6.7774 -2.2112 37.1249 18.5567 -2.5639
# 5 -7.1987 -9.3053 -10.5620 18.5567 40.6202 -5.4293
# 6 13.1041 8.7608 17.6171 -2.5639 -5.4293 21.0090
#
#
#
# Elastic Compliance Matrix: (Units=1/GPa)
#
#
# Indices 1 2 3 4 5 6 
#
# 1 0.020438 -0.003526 -0.009880 0.001340 -0.000772 -0.003028
# 2 -0.003526 0.017114 -0.003579 0.001701 0.001405 -0.001365
# 3 -0.009880 -0.003579 0.020868 -0.002614 0.002787 -0.009442
# 4 0.001340 0.001701 -0.002614 0.035348 -0.016093 0.000801
# 5 -0.000772 0.001405 0.002787 -0.016093 0.033447 0.004238
# 6 -0.003028 -0.001365 -0.009442 0.000801 0.004238 0.059168
#
#
# Mechanical properties :
#
#
# Convention : Reuss Voigt Hill
#
# Bulk Modulus (GPa) = 40.90038 50.40168 45.65103
# Shear Modulus (GPa) = 21.88168 28.39853 25.14011
#
# Velocity S-wave (km/s) = 3.13937 3.57644 3.36501
# Velocity P-wave (km/s) = 5.61807 6.30522 5.97154
#
# Compressibility (1/GPa) = 0.02444965
#
# Stress axis : x y z
#
# Youngs Moduli (GPa) = 48.92911 58.43057 47.92107
#
# Poissons Ratio (x) = 0.20603 0.47345
# Poissons Ratio (y) = 0.17253 0.17151
# Poissons Ratio (z) = 0.48341 0.20913
#
# Static dielectric constant tensor:
#      x y z
#    x 1.811870 0.001710 0.022740 
#    y 0.001710 1.827680 -0.010180 
#    z 0.022740 -0.010180 1.840170 
# 
# From -- ./inp_files/122637.got.cif
#   From: 2010.05.17/outbox.cif.g08.bks.cpg/sg2_62_cif.got.tgz:122637.got - 2010.06.03 11:33:40.
