data_PCOD9003470
_publ_section_title
;
Structure prediction by ZEFSAII (Michael W. Deem and Ramdas Pophale) SiO2 
 PCOD9003470
Probable space group: P -1
;
_chemical_formula_sum "Si O2"
_cell_formula_units_Z 16
_cell_length_a 6.923267
_cell_length_b 16.644352
_cell_length_c 8.281260
_cell_angle_alpha 53.110009
_cell_angle_beta 91.414872
_cell_angle_gamma 81.254687
_cell_volume 746.186880
_symmetry_space_group_name_H-M "P -1"
_symmetry_group_IT_number 2
_symmetry_cell_setting 'triclinic'
loop_
_space_group_symop_operation_xyz
x,y,z
-x,-y,-z
loop_
_atom_site_type_symbol
_atom_site_label
_atom_site_fract_x
_atom_site_fract_y
_atom_site_fract_z
Si Si1 0.772003 0.736766 0.860011
Si Si2 0.115254 0.650147 0.518356
Si Si3 0.414831 0.616237 0.300287
Si Si4 0.759274 0.718693 0.251844
Si Si5 0.566766 0.099224 0.458770
Si Si6 0.658903 0.918831 0.203176
Si Si7 0.376651 0.451819 0.929579
Si Si8 0.972091 0.149949 0.503329
O O1 0.553206 0.808756 0.762577
O O2 0.914205 0.797868 0.695288
O O3 0.828573 0.711283 0.077130
O O4 0.747518 0.629529 0.910270
O O5 0.209045 0.654585 0.337080
O O6 0.229822 0.546971 0.727987
O O7 0.117481 0.752328 0.499899
O O8 0.892737 0.646792 0.471468
O O9 0.500000 0.500000 0.500000
O O10 0.548880 0.689846 0.283945
O O11 0.460985 0.608081 0.122060
O O12 0.744130 0.832070 0.180395
O O13 0.471024 0.116178 0.614675
O O14 0.797548 0.100566 0.484881
O O15 0.500000 0.000000 0.500000
O O16 0.858659 0.929395 0.294982
O O17 0.500000 0.000000 0.000000
O O18 0.500000 0.500000 0.000000
#
# Coordination Sequence:
#
# PCOD9003470 Si02
#       8
#     2   2   2   2   2   2   2   2
#     4  10  23  39  59  90 123 159 205 252 303 363
#     4  10  21  38  61  87 120 160 201 249 298 355
#     4   9  20  36  57  83 116 157 198 245 292 344
#     4  10  21  39  60  87 119 156 203 248 299 357
#     4  11  23  42  64  87 122 160 200 254 309 367
#     4  10  22  41  65  92 120 153 199 255 308 364
#     4  10  21  37  60  89 124 164 203 247 301 358
#     4  10  23  41  64  92 122 160 203 249 307 368
#
# _framework density 21.442347999999999
#
# number of rings (size 3 to 8) (size 9 to 14) (size 15 to 20)
#    0.000    2.000    0.000    2.250    0.000   15.500 
#    0.000    5.000    0.000    0.000    0.000    0.000 
#    0.000    0.000    0.000    0.000    0.000    0.000 
#
# Total GULP energy -89164.124060 kJ/mol
# GULP energy per Si atom -5572.757754 kJ/mol
# Density = 2.139354 g / cm^3
# Si number density = 21.442348 Si / 1000 Ang^3
#
#
#
# Elastic Constant Matrix: (Units=GPa)
#
#
# Indices 1 2 3 4 5 6 
#
# 1 108.2288 33.6542 36.8592 -0.4431 20.9356 28.7218
# 2 33.6542 71.4624 25.3837 3.4712 12.7968 21.9835
# 3 36.8592 25.3837 91.0944 -9.8766 26.4148 18.8258
# 4 -0.4431 3.4712 -9.8766 21.7440 -4.7625 3.5456
# 5 20.9356 12.7968 26.4148 -4.7625 35.7272 6.3426
# 6 28.7218 21.9835 18.8258 3.5456 6.3426 37.1891
#
#
#
# Elastic Compliance Matrix: (Units=1/GPa)
#
#
# Indices 1 2 3 4 5 6 
#
# 1 0.013445 -0.002699 -0.002020 0.000027 -0.004162 -0.007059
# 2 -0.002699 0.018938 -0.002312 -0.003555 -0.002698 -0.007141
# 3 -0.002020 -0.002312 0.016615 0.006766 -0.008541 -0.004673
# 4 0.000027 -0.003555 0.006766 0.051741 0.004400 -0.007028
# 5 -0.004162 -0.002698 -0.008541 0.004400 0.037897 0.002250
# 6 -0.007059 -0.007141 -0.004673 -0.007028 0.002250 0.039214
#
#
# Mechanical properties :
#
#
# Convention : Reuss Voigt Hill
#
# Bulk Modulus (GPa) = 28.62325 51.39775 40.01050
# Shear Modulus (GPa) = 24.56297 30.59128 27.57712
#
# Velocity S-wave (km/s) = 3.38825 3.78123 3.59012
# Velocity P-wave (km/s) = 5.35583 6.56398 5.99044
#
# Compressibility (1/GPa) = 0.03493663
#
# Stress axis : x y z
#
# Youngs Moduli (GPa) = 74.37545 52.80292 60.18625
#
# Poissons Ratio (x) = 0.14252 0.12155
# Poissons Ratio (y) = 0.20074 0.13918
# Poissons Ratio (z) = 0.15021 0.12210
#
# Static dielectric constant tensor:
#      x y z
#    x 1.801410 -0.010640 0.023490 
#    y -0.010640 1.795940 0.008770 
#    z 0.023490 0.008770 1.809890 
# 
# From -- ./inp_files/90737.got.cif
#   From: 2010.05.17/outbox.cif.g08.bks.cpg/sg2_46_cif.got.tgz:90737.got - 2010.06.03 11:33:40.
