data_PCOD9003775
_publ_section_title
;
Structure prediction by ZEFSAII (Michael W. Deem and Ramdas Pophale) SiO2 
 PCOD9003775
Probable space group: P -1
;
_chemical_formula_sum "Si O2"
_cell_formula_units_Z 16
_cell_length_a 8.842922
_cell_length_b 9.415609
_cell_length_c 28.455631
_cell_angle_alpha 151.612291
_cell_angle_beta 132.920695
_cell_angle_gamma 46.768963
_cell_volume 799.413486
_symmetry_space_group_name_H-M "P -1"
_symmetry_group_IT_number 2
_symmetry_cell_setting 'triclinic'
loop_
_space_group_symop_operation_xyz
x,y,z
-x,-y,-z
loop_
_atom_site_type_symbol
_atom_site_label
_atom_site_fract_x
_atom_site_fract_y
_atom_site_fract_z
Si Si1 0.632564 0.070957 0.457095
Si Si2 0.324391 0.919244 0.236829
Si Si3 0.327616 0.707448 0.275641
Si Si4 0.310000 0.712610 0.565314
Si Si5 0.121159 0.905014 0.388084
Si Si6 0.583310 0.255338 0.063504
Si Si7 0.938095 0.777683 0.814038
Si Si8 0.763104 0.960563 0.925941
O O1 0.418922 0.354112 0.491672
O O2 0.756579 0.180211 0.471459
O O3 0.738730 0.048930 0.523984
O O4 0.569301 0.751857 0.338889
O O5 0.238341 0.876236 0.257860
O O6 0.441467 0.586405 0.144328
O O7 0.502633 0.117038 0.333743
O O8 0.135166 0.081317 0.210358
O O9 0.238575 0.864089 0.351283
O O10 0.281196 0.371415 0.167426
O O11 0.097960 0.835294 0.585530
O O12 0.067074 0.577475 0.289854
O O13 0.825463 0.214679 0.119810
O O14 0.500000 0.000000 0.000000
O O15 0.600889 0.196884 0.993912
O O16 0.769683 0.959665 0.870484
O O17 0.000000 0.000000 0.000000
#
# Coordination Sequence:
#
# PCOD9003775 Si02
#       8
#     2   2   2   2   2   2   2   2
#     4  10  21  38  61  88 120 154 194 242 291 348
#     4  11  21  40  61  88 121 156 193 244 293 348
#     4  10  22  38  59  88 126 151 192 251 291 339
#     4  10  21  37  62  89 119 154 197 239 289 352
#     4  11  20  39  62  87 116 161 194 235 296 351
#     4  11  21  39  63  86 118 156 196 247 294 339
#     4  10  22  38  63  87 118 154 198 239 293 356
#     4   9  20  40  61  86 118 157 196 242 293 344
#
# _framework density 20.014672000000001
#
# number of rings (size 3 to 8) (size 9 to 14) (size 15 to 20)
#    0.000    1.750    3.750    0.750    0.000    1.500 
#    0.000    2.500    0.000    0.000    0.000    0.000 
#    0.000    0.000    0.000    0.000    0.000    0.000 
#
# Total GULP energy -89219.143200 kJ/mol
# GULP energy per Si atom -5576.196450 kJ/mol
# Density = 1.996912 g / cm^3
# Si number density = 20.014672 Si / 1000 Ang^3
#
#
#
# Elastic Constant Matrix: (Units=GPa)
#
#
# Indices 1 2 3 4 5 6 
#
# 1 37.4863 8.2158 7.8397 4.4125 10.1682 7.8717
# 2 8.2158 45.9811 6.8974 -6.5913 7.6074 8.6944
# 3 7.8397 6.8974 86.2419 5.6510 18.2216 9.3195
# 4 4.4125 -6.5913 5.6510 28.2867 5.2521 -7.6105
# 5 10.1682 7.6074 18.2216 5.2521 31.8812 6.8661
# 6 7.8717 8.6944 9.3195 -7.6105 6.8661 23.0466
#
#
#
# Elastic Compliance Matrix: (Units=1/GPa)
#
#
# Indices 1 2 3 4 5 6 
#
# 1 0.032187 -0.003941 0.000277 -0.007673 -0.005987 -0.010369
# 2 -0.003941 0.025009 -0.000633 0.006181 -0.004402 -0.004480
# 3 0.000277 -0.000633 0.013623 -0.002950 -0.006275 -0.004469
# 4 -0.007673 0.006181 -0.002950 0.045386 -0.008939 0.019132
# 5 -0.005987 -0.004402 -0.006275 -0.008939 0.041328 -0.009022
# 6 -0.010369 -0.004480 -0.004469 0.019132 -0.009022 0.059435
#
#
# Mechanical properties :
#
#
# Convention : Reuss Voigt Hill
#
# Bulk Modulus (GPa) = 16.07071 23.95722 20.01396
# Shear Modulus (GPa) = 20.30027 26.42667 23.36347
#
# Velocity S-wave (km/s) = 3.18821 3.63762 3.42031
# Velocity P-wave (km/s) = 4.64756 5.44416 5.06156
#
# Compressibility (1/GPa) = 0.06222501
#
# Stress axis : x y z
#
# Youngs Moduli (GPa) = 31.06880 39.98614 73.40671
#
# Poissons Ratio (x) = 0.15760 -0.02037
# Poissons Ratio (y) = 0.12246 0.04644
# Poissons Ratio (z) = -0.00862 0.02529
#
# Static dielectric constant tensor:
#      x y z
#    x 1.731580 0.012030 -0.023590 
#    y 0.012030 1.670170 -0.005510 
#    z -0.023590 -0.005510 1.751350 
# 
# From -- ./inp_files/37797.got.cif
#   From: 2010.05.17/outbox.cif.g08.bks.cpg/sg2_19_cif.got.tgz:37797.got - 2010.06.03 11:33:40.
