data_PCOD9003465
_publ_section_title
;
Structure prediction by ZEFSAII (Michael W. Deem and Ramdas Pophale) SiO2 
 PCOD9003465
Probable space group: P -1
;
_chemical_formula_sum "Si O2"
_cell_formula_units_Z 14
_cell_length_a 11.566453
_cell_length_b 10.977569
_cell_length_c 11.910950
_cell_angle_alpha 85.697942
_cell_angle_beta 127.051732
_cell_angle_gamma 138.167656
_cell_volume 572.910572
_symmetry_space_group_name_H-M "P -1"
_symmetry_group_IT_number 2
_symmetry_cell_setting 'triclinic'
loop_
_space_group_symop_operation_xyz
x,y,z
-x,-y,-z
loop_
_atom_site_type_symbol
_atom_site_label
_atom_site_fract_x
_atom_site_fract_y
_atom_site_fract_z
Si Si1 0.703044 0.572211 0.412122
Si Si2 0.956964 0.723103 0.790643
Si Si3 0.157811 0.737151 0.533785
Si Si4 0.274435 0.744387 0.063880
Si Si5 0.287173 0.216746 0.017380
Si Si6 0.963222 0.769550 0.272183
Si Si7 0.422666 0.253328 0.675031
O O1 0.383902 0.285095 0.199269
O O2 0.720566 0.725686 0.372551
O O3 0.757509 0.600996 0.572855
O O4 0.972634 0.697408 0.503757
O O5 0.724980 0.523092 0.769087
O O6 0.154272 0.743580 0.895215
O O7 0.151520 0.988691 0.911398
O O8 0.000000 0.500000 0.500000
O O9 0.106851 0.740828 0.374769
O O10 0.505933 0.004709 0.752642
O O11 0.469032 0.762661 0.164656
O O12 0.000000 0.500000 0.000000
O O13 0.617600 0.487618 0.133346
O O14 0.085753 0.184816 0.868965
O O15 0.205412 0.028243 0.470777
#
# Coordination Sequence:
#
# PCOD9003465 Si02
#       7
#     2   2   2   2   2   2   2
#     4  11  23  38  65  95 120 164 209 251 307 366
#     4  11  22  42  65  89 128 164 202 256 307 364
#     4  10  21  40  64  88 124 161 205 255 302 365
#     4   9  20  38  63  86 122 166 197 248 313 356
#     4  10  21  37  60  89 121 158 204 252 300 360
#     4   9  19  38  59  86 124 158 195 259 303 348
#     4  10  21  41  64  91 127 162 203 257 307 363
#
# _framework density 24.436626
#
# number of rings (size 3 to 8) (size 9 to 14) (size 15 to 20)
#    0.000    2.000    1.429    2.143    0.000    6.286 
#    2.571    0.000    0.000    5.143    0.000    0.000 
#    0.000    0.000    0.000    0.000    0.000    0.000 
#
# Total GULP energy -78090.194821 kJ/mol
# GULP energy per Si atom -5577.871059 kJ/mol
# Density = 2.438101 g / cm^3
# Si number density = 24.436626 Si / 1000 Ang^3
#
#
#
# Elastic Constant Matrix: (Units=GPa)
#
#
# Indices 1 2 3 4 5 6 
#
# 1 59.9675 38.6656 25.8777 -8.3265 10.0457 -30.2157
# 2 38.6656 140.2075 65.2130 12.4296 0.1831 -37.5238
# 3 25.8777 65.2130 142.6920 -10.5075 -4.5441 -23.5025
# 4 -8.3265 12.4296 -10.5075 51.9681 -7.4850 10.0200
# 5 10.0457 0.1831 -4.5441 -7.4850 27.6095 -3.7459
# 6 -30.2157 -37.5238 -23.5025 10.0200 -3.7459 33.4107
#
#
#
# Elastic Compliance Matrix: (Units=1/GPa)
#
#
# Indices 1 2 3 4 5 6 
#
# 1 0.032827 -0.001100 -0.001402 -0.001211 -0.008855 0.026837
# 2 -0.001100 0.013642 -0.004376 -0.006956 -0.000495 0.013279
# 3 -0.001402 -0.004376 0.009581 0.003201 0.002974 -0.000069
# 4 -0.001211 -0.006956 0.003201 0.024801 0.005915 -0.013429
# 5 -0.008855 -0.000495 0.002974 0.005915 0.041043 -0.003643
# 6 0.026837 0.013279 -0.000069 -0.013429 -0.003643 0.072686
#
#
# Mechanical properties :
#
#
# Convention : Reuss Voigt Hill
#
# Bulk Modulus (GPa) = 23.64278 66.93105 45.28692
# Shear Modulus (GPa) = 22.47859 36.80504 29.64182
#
# Velocity S-wave (km/s) = 3.03623 3.88512 3.48660
# Velocity P-wave (km/s) = 4.68911 6.89743 5.89756
#
# Compressibility (1/GPa) = 0.04229621
#
# Stress axis : x y z
#
# Youngs Moduli (GPa) = 30.46248 73.30235 104.37013
#
# Poissons Ratio (x) = 0.08061 0.14628
# Poissons Ratio (y) = 0.03350 0.45672
# Poissons Ratio (z) = 0.04270 0.32077
#
# Static dielectric constant tensor:
#      x y z
#    x 2.029830 -0.000840 0.031530 
#    y -0.000840 2.022600 -0.067930 
#    z 0.031530 -0.067930 1.987630 
# 
# From -- ./inp_files/426011.got.cif
#   From: 2010.05.17/outbox.cif.g08.bks.cpg/sg2_214_cif.got.tgz:426011.got - 2010.06.03 11:33:40.
