data_PCOD9003045
_publ_section_title
;
Structure prediction by ZEFSAII (Michael W. Deem and Ramdas Pophale) SiO2 
 PCOD9003045
Probable space group: P -1
;
_chemical_formula_sum "Si O2"
_cell_formula_units_Z 16
_cell_length_a 9.855319
_cell_length_b 9.561251
_cell_length_c 17.835359
_cell_angle_alpha 90.537165
_cell_angle_beta 86.114884
_cell_angle_gamma 30.136691
_cell_volume 834.049637
_symmetry_space_group_name_H-M "P -1"
_symmetry_group_IT_number 2
_symmetry_cell_setting 'triclinic'
loop_
_space_group_symop_operation_xyz
x,y,z
-x,-y,-z
loop_
_atom_site_type_symbol
_atom_site_label
_atom_site_fract_x
_atom_site_fract_y
_atom_site_fract_z
Si Si1 0.595588 0.330822 0.069322
Si Si2 0.463682 0.127508 0.074565
Si Si3 0.731300 0.676144 0.474478
Si Si4 0.357326 0.280783 0.699272
Si Si5 0.038861 0.131756 0.296389
Si Si6 0.893147 0.707363 0.179216
Si Si7 0.953354 0.110107 0.830136
Si Si8 0.797300 0.294529 0.471876
O O1 0.561656 0.197138 0.051823
O O2 0.360975 0.580973 0.137829
O O3 0.500000 0.500000 0.000000
O O4 0.882208 0.092629 0.102641
O O5 0.174530 0.400434 0.130104
O O6 0.669666 0.881806 0.125424
O O7 0.500000 0.000000 0.000000
O O8 0.702572 0.683255 0.386286
O O9 0.755300 0.493374 0.501408
O O10 0.000000 0.500000 0.500000
O O11 0.500000 0.000000 0.500000
O O12 0.166837 0.577625 0.734137
O O13 0.232467 0.257198 0.744299
O O14 0.671023 0.047585 0.701215
O O15 0.906196 0.208799 0.381776
O O16 0.047536 0.991951 0.240608
O O17 0.920698 0.849391 0.191649
O O18 0.500000 0.500000 0.500000
O O19 0.000000 0.000000 0.500000
#
# Coordination Sequence:
#
# PCOD9003045 Si02
#       8
#     2   2   2   2   2   2   2   2
#     4  10  21  37  57  84 117 152 194 244 292 350
#     4  10  21  37  57  84 117 152 194 244 292 350
#     4  11  23  41  63  91 125 162 205 254 305 365
#     4  11  23  41  62  89 122 157 199 250 299 357
#     4  11  23  41  62  89 122 157 199 250 299 357
#     4  10  22  39  59  86 118 153 197 244 295 354
#     4  10  22  39  59  86 118 153 197 244 295 354
#     4  11  23  41  63  91 125 162 205 254 305 365
#
# _framework density 19.183510999999999
#
# number of rings (size 3 to 8) (size 9 to 14) (size 15 to 20)
#    0.000    1.500    0.000    6.000    0.000    5.000 
#    0.000    2.500    0.000    0.000    0.000    0.000 
#    0.000    0.000    0.000    0.000    0.000    0.000 
#
# Total GULP energy -89099.081249 kJ/mol
# GULP energy per Si atom -5568.692578 kJ/mol
# Density = 1.913985 g / cm^3
# Si number density = 19.183511 Si / 1000 Ang^3
#
#
#
# Elastic Constant Matrix: (Units=GPa)
#
#
# Indices 1 2 3 4 5 6 
#
# 1 91.9970 32.4203 32.9827 9.4674 7.7557 2.8459
# 2 32.4203 130.1270 15.0146 -9.0479 10.2056 3.6156
# 3 32.9827 15.0146 53.3593 2.4980 7.2481 13.8621
# 4 9.4674 -9.0479 2.4980 30.2249 15.0125 1.5373
# 5 7.7557 10.2056 7.2481 15.0125 35.6509 -0.5959
# 6 2.8459 3.6156 13.8621 1.5373 -0.5959 47.4384
#
#
#
# Elastic Compliance Matrix: (Units=1/GPa)
#
#
# Indices 1 2 3 4 5 6 
#
# 1 0.015922 -0.003572 -0.009440 -0.006517 0.002261 0.002315
# 2 -0.003572 0.009375 0.000103 0.006223 -0.004561 -0.000789
# 3 -0.009440 0.000103 0.027028 0.003696 -0.005153 -0.007524
# 4 -0.006517 0.006223 0.003696 0.047308 -0.021086 -0.002961
# 5 0.002261 -0.004561 -0.005153 -0.021086 0.038839 0.002889
# 6 0.002315 -0.000789 -0.007524 -0.002961 0.002889 0.023332
#
#
# Mechanical properties :
#
#
# Convention : Reuss Voigt Hill
#
# Bulk Modulus (GPa) = 37.72485 48.47984 43.10235
# Shear Modulus (GPa) = 25.45077 35.66720 30.55898
#
# Velocity S-wave (km/s) = 3.64634 4.31660 3.99555
# Velocity P-wave (km/s) = 6.11847 7.08311 6.61839
#
# Compressibility (1/GPa) = 0.02650773
#
# Stress axis : x y z
#
# Youngs Moduli (GPa) = 62.80742 106.66405 36.99804
#
# Poissons Ratio (x) = 0.38105 0.34926
# Poissons Ratio (y) = 0.22437 -0.00383
# Poissons Ratio (z) = 0.59289 -0.01104
#
# Static dielectric constant tensor:
#      x y z
#    x 1.792560 0.094620 -0.034720 
#    y 0.094620 1.733290 -0.016670 
#    z -0.034720 -0.016670 1.622250 
# 
# From -- ./inp_files/223347.got.cif
#   From: 2010.05.17/outbox.cif.g08.bks.cpg/sg2_112_cif.got.tgz:223347.got - 2010.06.03 11:33:40.
