data_PCOD9003984
_publ_section_title
;
Structure prediction by ZEFSAII (Michael W. Deem and Ramdas Pophale) SiO2 
 PCOD9003984
Probable space group: P -1
;
_chemical_formula_sum "Si O2"
_cell_formula_units_Z 14
_cell_length_a 8.812962
_cell_length_b 13.828408
_cell_length_c 9.550344
_cell_angle_alpha 97.552129
_cell_angle_beta 134.231616
_cell_angle_gamma 109.170580
_cell_volume 666.667811
_symmetry_space_group_name_H-M "P -1"
_symmetry_group_IT_number 2
_symmetry_cell_setting 'triclinic'
loop_
_space_group_symop_operation_xyz
x,y,z
-x,-y,-z
loop_
_atom_site_type_symbol
_atom_site_label
_atom_site_fract_x
_atom_site_fract_y
_atom_site_fract_z
Si Si1 0.955064 0.608348 0.633264
Si Si2 0.036133 0.241953 0.654886
Si Si3 0.569649 0.232456 0.206772
Si Si4 0.561125 0.593199 0.827080
Si Si5 0.964307 0.969015 0.305682
Si Si6 0.248803 0.534001 0.250449
Si Si7 0.771033 0.764592 0.528354
O O1 0.735064 0.526375 0.357052
O O2 0.856446 0.510060 0.670453
O O3 0.933108 0.716019 0.683673
O O4 0.246831 0.674128 0.780805
O O5 0.776854 0.228454 0.432663
O O6 0.954618 0.122522 0.666698
O O7 0.193634 0.247058 0.618647
O O8 0.236679 0.354827 0.904279
O O9 0.449236 0.297180 0.208465
O O10 0.333623 0.108462 0.960146
O O11 0.658052 0.545963 0.761288
O O12 0.000000 0.000000 0.500000
O O13 0.122556 0.097822 0.354669
O O14 0.484145 0.670736 0.389129
O O15 0.000000 0.500000 0.000000
#
# Coordination Sequence:
#
# PCOD9003984 Si02
#       7
#     2   2   2   2   2   2   2
#     4  10  22  38  59  89 119 155 196 235 300 350
#     4   9  20  35  62  93 117 151 193 241 298 339
#     4  10  21  37  63  92 117 153 191 246 294 343
#     4  10  21  39  59  86 127 148 193 244 292 350
#     4   9  19  35  59  90 122 148 195 245 289 336
#     4  11  25  38  59  88 116 159 199 235 294 356
#     4   9  19  38  58  86 121 153 191 245 286 341
#
# _framework density 20.999963000000001
#
# number of rings (size 3 to 8) (size 9 to 14) (size 15 to 20)
#    0.000    2.286    0.000    2.143    8.000   10.286 
#    0.000    0.000    0.000   17.143    0.000    0.000 
#    0.000    0.000    0.000    0.000    0.000    0.000 
#
# Total GULP energy -78015.752173 kJ/mol
# GULP energy per Si atom -5572.553727 kJ/mol
# Density = 2.095217 g / cm^3
# Si number density = 20.999963 Si / 1000 Ang^3
#
#
#
# Elastic Constant Matrix: (Units=GPa)
#
#
# Indices 1 2 3 4 5 6 
#
# 1 32.9083 36.9122 31.9442 11.4729 13.6543 3.7107
# 2 36.9122 156.9461 70.3520 20.7250 9.1312 2.9979
# 3 31.9442 70.3520 148.1223 6.4607 9.5817 0.3790
# 4 11.4729 20.7250 6.4607 36.3462 -3.9272 2.0470
# 5 13.6543 9.1312 9.5817 -3.9272 25.2219 -1.2051
# 6 3.7107 2.9979 0.3790 2.0470 -1.2051 11.3853
#
#
#
# Elastic Compliance Matrix: (Units=1/GPa)
#
#
# Indices 1 2 3 4 5 6 
#
# 1 0.072213 -0.008059 -0.008445 -0.019485 -0.037031 -0.021549
# 2 -0.008059 0.009778 -0.002907 -0.002385 0.001591 0.000746
# 3 -0.008445 -0.002907 0.009665 0.002710 0.002517 0.002976
# 4 -0.019485 -0.002385 0.002710 0.036166 0.016114 0.002092
# 5 -0.037031 0.001591 0.002517 0.016114 0.061397 0.015168
# 6 -0.021549 0.000746 0.002976 0.002092 0.015168 0.095790
#
#
# Mechanical properties :
#
#
# Convention : Reuss Voigt Hill
#
# Bulk Modulus (GPa) = 18.92755 68.48816 43.70785
# Shear Modulus (GPa) = 14.64381 27.84190 21.24285
#
# Velocity S-wave (km/s) = 2.64356 3.64511 3.18396
# Velocity P-wave (km/s) = 4.28376 7.09930 5.86305
#
# Compressibility (1/GPa) = 0.05283304
#
# Stress axis : x y z
#
# Youngs Moduli (GPa) = 13.84795 102.26793 103.47015
#
# Poissons Ratio (x) = 0.82417 0.87384
# Poissons Ratio (y) = 0.11160 0.30080
# Poissons Ratio (z) = 0.11695 0.29730
#
# Static dielectric constant tensor:
#      x y z
#    x 1.784290 -0.019410 -0.030580 
#    y -0.019410 1.806890 -0.037410 
#    z -0.030580 -0.037410 1.804390 
# 
# From -- ./inp_files/202324.got.cif
#   From: 2010.05.17/outbox.cif.g08.bks.cpg/sg2_102_cif.got.tgz:202324.got - 2010.06.03 11:33:40.
