data_PCOD9003332
_publ_section_title
;
Structure prediction by ZEFSAII (Michael W. Deem and Ramdas Pophale) SiO2 
 PCOD9003332
Probable space group: P -1
;
_chemical_formula_sum "Si O2"
_cell_formula_units_Z 16
_cell_length_a 12.855408
_cell_length_b 8.342315
_cell_length_c 16.129219
_cell_angle_alpha 109.476831
_cell_angle_beta 134.145480
_cell_angle_gamma 108.164498
_cell_volume 695.705326
_symmetry_space_group_name_H-M "P -1"
_symmetry_group_IT_number 2
_symmetry_cell_setting 'triclinic'
loop_
_space_group_symop_operation_xyz
x,y,z
-x,-y,-z
loop_
_atom_site_type_symbol
_atom_site_label
_atom_site_fract_x
_atom_site_fract_y
_atom_site_fract_z
Si Si1 0.517286 0.024655 0.160110
Si Si2 0.656810 0.427531 0.429290
Si Si3 0.587101 0.795642 0.292003
Si Si4 0.385475 0.342720 0.996418
Si Si5 0.238488 0.634168 0.192818
Si Si6 0.522001 0.230754 0.496588
Si Si7 0.137575 0.012123 0.374792
Si Si8 0.821280 0.235304 0.211939
O O1 0.492315 0.166436 0.229211
O O2 0.728850 0.240061 0.244899
O O3 0.574470 0.919743 0.232654
O O4 0.277659 0.770972 0.927320
O O5 0.553088 0.363380 0.452451
O O6 0.748161 0.694071 0.494821
O O7 0.894519 0.532997 0.590439
O O8 0.351925 0.606851 0.187608
O O9 0.818276 0.039242 0.522265
O O10 0.568510 0.590880 0.208221
O O11 0.312336 0.076857 0.915460
O O12 0.500000 0.500000 0.000000
O O13 0.136566 0.216119 0.843354
O O14 0.243615 0.560100 0.275909
O O15 0.444889 0.973908 0.375184
O O16 0.000000 0.500000 0.000000
O O17 0.298651 0.080711 0.403899
#
# Coordination Sequence:
#
# PCOD9003332 Si02
#       8
#     2   2   2   2   2   2   2   2
#     4  11  22  41  60  88 123 155 200 250 299 354
#     4  11  22  40  64  87 121 161 200 242 305 351
#     4  11  22  39  62  90 118 158 199 242 307 350
#     4  11  22  42  62  86 118 161 200 244 299 352
#     4  10  21  37  59  89 124 152 197 247 293 356
#     4  10  21  38  60  90 119 157 199 243 298 353
#     4  10  24  41  60  90 124 155 199 251 292 362
#     4  10  24  41  59  89 122 158 202 249 295 356
#
# _framework density 22.998242999999999
#
# number of rings (size 3 to 8) (size 9 to 14) (size 15 to 20)
#    0.000    1.500    2.500    2.250    1.750    1.500 
#    2.250    0.000    0.000    8.250    0.000    0.000 
#    0.000    0.000    0.000    0.000    0.000    0.000 
#
# Total GULP energy -89419.931854 kJ/mol
# GULP energy per Si atom -5588.745741 kJ/mol
# Density = 2.294590 g / cm^3
# Si number density = 22.998243 Si / 1000 Ang^3
#
#
#
# Elastic Constant Matrix: (Units=GPa)
#
#
# Indices 1 2 3 4 5 6 
#
# 1 95.9873 -1.2630 28.9076 -10.5284 -15.4751 13.1829
# 2 -1.2630 64.7249 15.9735 -18.0707 -17.7369 8.6887
# 3 28.9076 15.9735 64.9597 -18.5786 -13.3686 17.6077
# 4 -10.5284 -18.0707 -18.5786 32.9034 -1.2800 -11.7202
# 5 -15.4751 -17.7369 -13.3686 -1.2800 40.3424 -6.6785
# 6 13.1829 8.6887 17.6077 -11.7202 -6.6785 32.1976
#
#
#
# Elastic Compliance Matrix: (Units=1/GPa)
#
#
# Indices 1 2 3 4 5 6 
#
# 1 0.013242 0.003987 -0.004296 0.003577 0.005231 -0.001761
# 2 0.003987 0.022789 -0.001129 0.013691 0.011648 0.000235
# 3 -0.004296 -0.001129 0.022742 0.008819 0.004645 -0.006200
# 4 0.003577 0.013691 0.008819 0.048269 0.013568 0.010402
# 5 0.005231 0.011648 0.004645 0.013568 0.034596 0.004289
# 6 -0.001761 0.000235 -0.006200 0.010402 0.004289 0.039782
#
#
# Mechanical properties :
#
#
# Convention : Reuss Voigt Hill
#
# Bulk Modulus (GPa) = 17.88980 34.76756 26.32868
# Shear Modulus (GPa) = 24.63916 33.22560 28.93238
#
# Velocity S-wave (km/s) = 3.27670 3.80505 3.55071
# Velocity P-wave (km/s) = 4.70227 5.86982 5.31818
#
# Compressibility (1/GPa) = 0.05589777
#
# Stress axis : x y z
#
# Youngs Moduli (GPa) = 75.51765 43.87990 43.97087
#
# Poissons Ratio (x) = -0.17496 0.18891
# Poissons Ratio (y) = -0.30111 0.04964
# Poissons Ratio (z) = 0.32444 0.04954
#
# Static dielectric constant tensor:
#      x y z
#    x 1.845500 -0.005180 0.006050 
#    y -0.005180 1.928770 -0.048040 
#    z 0.006050 -0.048040 1.855350 
# 
# From -- ./inp_files/77102.got.cif
#   From: 2010.05.17/outbox.cif.g08.bks.cpg/sg2_39_cif.got.tgz:77102.got - 2010.06.03 11:33:40.
