data_PCOD9003719
_publ_section_title
;
Structure prediction by ZEFSAII (Michael W. Deem and Ramdas Pophale) SiO2 
 PCOD9003719
Probable space group: P -1
;
_chemical_formula_sum "Si O2"
_cell_formula_units_Z 16
_cell_length_a 11.685377
_cell_length_b 9.889631
_cell_length_c 8.537447
_cell_angle_alpha 98.603795
_cell_angle_beta 56.010612
_cell_angle_gamma 119.180886
_cell_volume 703.846142
_symmetry_space_group_name_H-M "P -1"
_symmetry_group_IT_number 2
_symmetry_cell_setting 'triclinic'
loop_
_space_group_symop_operation_xyz
x,y,z
-x,-y,-z
loop_
_atom_site_type_symbol
_atom_site_label
_atom_site_fract_x
_atom_site_fract_y
_atom_site_fract_z
Si Si1 0.167211 0.481385 0.208450
Si Si2 0.117477 0.106569 0.564917
Si Si3 0.877402 0.077178 0.016803
Si Si4 0.203054 0.636114 0.544174
Si Si5 0.314959 0.434165 0.601678
Si Si6 0.664616 0.043923 0.665345
Si Si7 0.181842 0.238233 0.983535
Si Si8 0.309764 0.801346 0.991114
O O1 0.198172 0.547946 0.370440
O O2 0.980889 0.411977 0.299361
O O3 0.214394 0.346827 0.126310
O O4 0.265046 0.626507 0.041530
O O5 0.236578 0.295044 0.506595
O O6 0.993439 0.091577 0.789488
O O7 0.231481 0.032194 0.484846
O O8 0.000000 0.000000 0.500000
O O9 0.991632 0.138656 0.088411
O O10 0.801065 0.182525 0.050148
O O11 0.759739 0.889599 0.085068
O O12 0.270790 0.567026 0.610840
O O13 0.309163 0.820275 0.454142
O O14 0.500000 0.500000 0.500000
O O15 0.240345 0.349441 0.808068
O O16 0.486349 0.908520 0.811451
O O17 0.716444 0.127034 0.812548
#
# Coordination Sequence:
#
# PCOD9003719 Si02
#       8
#     2   2   2   2   2   2   2   2
#     4  10  21  40  69  98 123 170 228 271 330 398
#     4  11  22  41  72  95 127 180 225 269 330 405
#     4  10  21  39  64  92 128 172 221 272 324 404
#     4  10  23  41  69  95 131 173 224 279 323 402
#     4  11  27  44  61  97 142 173 215 280 339 393
#     4  10  22  39  62  98 129 163 222 281 332 385
#     4  10  23  40  63  92 129 173 220 264 332 403
#     4  10  21  37  61  96 131 162 212 282 334 385
#
# _framework density 22.732240000000001
#
# number of rings (size 3 to 8) (size 9 to 14) (size 15 to 20)
#    0.000    1.750    1.250    2.250    8.750    2.000 
#    0.000    1.250    0.000    0.000    0.000    0.000 
#    0.000    0.000    0.000    0.000    0.000    0.000 
#
# Total GULP energy -89362.296672 kJ/mol
# GULP energy per Si atom -5585.143542 kJ/mol
# Density = 2.268050 g / cm^3
# Si number density = 22.732240 Si / 1000 Ang^3
#
#
#
# Elastic Constant Matrix: (Units=GPa)
#
#
# Indices 1 2 3 4 5 6 
#
# 1 47.2807 9.8280 8.3958 -15.7690 -2.5848 -6.2636
# 2 9.8280 124.1575 35.4863 -9.6969 -5.5406 -7.2440
# 3 8.3958 35.4863 52.7246 -16.7138 -10.2419 2.6204
# 4 -15.7690 -9.6969 -16.7138 44.3198 -1.5670 3.5860
# 5 -2.5848 -5.5406 -10.2419 -1.5670 13.6581 2.0005
# 6 -6.2636 -7.2440 2.6204 3.5860 2.0005 30.5679
#
#
#
# Elastic Compliance Matrix: (Units=1/GPa)
#
#
# Indices 1 2 3 4 5 6 
#
# 1 0.024925 -0.000920 0.000165 0.008617 0.004938 0.003541
# 2 -0.000920 0.010362 -0.007935 -0.001409 -0.002563 0.003280
# 3 0.000165 -0.007935 0.033320 0.012376 0.024353 -0.007749
# 4 0.008617 -0.001409 0.012376 0.030840 0.014493 -0.004195
# 5 0.004938 -0.002563 0.024353 0.014493 0.094437 -0.009564
# 6 0.003541 0.003280 -0.007749 -0.004195 -0.009564 0.035999
#
#
# Mechanical properties :
#
#
# Convention : Reuss Voigt Hill
#
# Bulk Modulus (GPa) = 19.52093 36.84255 28.18174
# Shear Modulus (GPa) = 18.91502 29.07266 23.99384
#
# Velocity S-wave (km/s) = 2.88771 3.58008 3.25237
# Velocity P-wave (km/s) = 4.44122 5.77335 5.15054
#
# Compressibility (1/GPa) = 0.05122707
#
# Stress axis : x y z
#
# Youngs Moduli (GPa) = 40.11979 96.50518 30.01199
#
# Poissons Ratio (x) = 0.08881 -0.00496
# Poissons Ratio (y) = 0.03692 0.23815
# Poissons Ratio (z) = -0.00663 0.76579
#
# Static dielectric constant tensor:
#      x y z
#    x 1.836470 0.021400 0.025800 
#    y 0.021400 1.954000 -0.028800 
#    z 0.025800 -0.028800 1.910850 
# 
# From -- ./inp_files/244443.got.cif
#   From: 2010.05.17/outbox.cif.g08.bks.cpg/sg2_123_cif.got.tgz:244443.got - 2010.06.03 11:33:40.
