data_PCOD9003057
_publ_section_title
;
Structure prediction by ZEFSAII (Michael W. Deem and Ramdas Pophale) SiO2 
 PCOD9003057
Probable space group: P -1
;
_chemical_formula_sum "Si O2"
_cell_formula_units_Z 16
_cell_length_a 23.005055
_cell_length_b 14.928913
_cell_length_c 8.392899
_cell_angle_alpha 114.036817
_cell_angle_beta 111.458177
_cell_angle_gamma 16.743087
_cell_volume 755.150235
_symmetry_space_group_name_H-M "P -1"
_symmetry_group_IT_number 2
_symmetry_cell_setting 'triclinic'
loop_
_space_group_symop_operation_xyz
x,y,z
-x,-y,-z
loop_
_atom_site_type_symbol
_atom_site_label
_atom_site_fract_x
_atom_site_fract_y
_atom_site_fract_z
Si Si1 0.259891 0.367430 0.529060
Si Si2 0.428407 0.427260 0.132792
Si Si3 0.561890 0.299615 0.477027
Si Si4 0.878495 0.790088 0.974120
Si Si5 0.670535 0.642948 0.081227
Si Si6 0.006250 0.554338 0.384611
Si Si7 0.777293 0.587482 0.823403
Si Si8 0.658979 0.238798 0.836036
O O1 0.219011 0.482811 0.739144
O O2 0.174486 0.385094 0.455637
O O3 0.193919 0.506663 0.389220
O O4 0.500000 0.000000 0.500000
O O5 0.444569 0.399072 0.320731
O O6 0.302910 0.713201 0.172656
O O7 0.345451 0.450587 0.998488
O O8 0.659696 0.099787 0.062866
O O9 0.500000 0.500000 0.500000
O O10 0.545433 0.332457 0.672851
O O11 0.797581 0.924050 0.420559
O O12 0.958069 0.570406 0.819400
O O13 0.841547 0.913112 0.869717
O O14 0.041470 0.605979 0.106965
O O15 0.439200 0.031900 0.126824
O O16 0.766259 0.536084 0.932323
O O17 0.000000 0.500000 0.500000
O O18 0.500000 0.500000 0.000000
#
# Coordination Sequence:
#
# PCOD9003057 Si02
#       8
#     2   2   2   2   2   2   2   2
#     4  10  22  38  57  90 133 167 201 258 319 375
#     4  10  21  38  62  88 123 165 206 254 319 377
#     4  10  21  38  59  91 128 161 204 262 320 373
#     4  11  20  37  62  93 124 151 213 267 309 367
#     4  10  21  39  56  85 123 165 201 248 310 379
#     4  12  22  35  65 103 122 164 217 262 315 377
#     4  10  21  37  57  84 126 161 201 255 315 363
#     4   9  20  38  58  89 122 163 196 262 324 369
#
# _framework density 21.187836000000001
#
# number of rings (size 3 to 8) (size 9 to 14) (size 15 to 20)
#    0.000    1.750    1.250    3.750    0.000    3.500 
#    4.500    0.625    0.000    0.750    0.000    0.000 
#    0.000    0.000    0.000    0.000    0.000    0.000 
#
# Total GULP energy -89258.370828 kJ/mol
# GULP energy per Si atom -5578.648177 kJ/mol
# Density = 2.113961 g / cm^3
# Si number density = 21.187836 Si / 1000 Ang^3
#
#
#
# Elastic Constant Matrix: (Units=GPa)
#
#
# Indices 1 2 3 4 5 6 
#
# 1 102.6913 28.4065 52.6050 -13.7387 2.3591 -1.6360
# 2 28.4065 70.9019 29.5066 -3.4092 6.8990 12.6321
# 3 52.6050 29.5066 194.1028 -27.7667 -0.5039 -0.7502
# 4 -13.7387 -3.4092 -27.7667 33.5138 2.1832 2.4662
# 5 2.3591 6.8990 -0.5039 2.1832 37.2025 -4.8499
# 6 -1.6360 12.6321 -0.7502 2.4662 -4.8499 21.3560
#
#
#
# Elastic Compliance Matrix: (Units=1/GPa)
#
#
# Indices 1 2 3 4 5 6 
#
# 1 0.012584 -0.004578 -0.002346 0.002481 0.000314 0.003374
# 2 -0.004578 0.019507 -0.001802 -0.000093 -0.005053 -0.013089
# 3 -0.002346 -0.001802 0.006682 0.004312 0.000414 0.000717
# 4 0.002481 -0.000093 0.004312 0.034905 -0.002683 -0.004244
# 5 0.000314 -0.005053 0.000414 -0.002683 0.029261 0.009982
# 6 0.003374 -0.013089 0.000717 -0.004244 0.009982 0.057608
#
#
# Mechanical properties :
#
#
# Convention : Reuss Voigt Hill
#
# Bulk Modulus (GPa) = 46.89849 65.41470 56.15659
# Shear Modulus (GPa) = 27.01130 35.55965 31.28547
#
# Velocity S-wave (km/s) = 3.57438 4.10116 3.84679
# Velocity P-wave (km/s) = 6.26239 7.30525 6.80383
#
# Compressibility (1/GPa) = 0.02132265
#
# Stress axis : x y z
#
# Youngs Moduli (GPa) = 79.46290 51.26330 149.65132
#
# Poissons Ratio (x) = 0.23469 0.35107
# Poissons Ratio (y) = 0.36378 0.26962
# Poissons Ratio (z) = 0.18641 0.09236
#
# Static dielectric constant tensor:
#      x y z
#    x 1.777300 0.035240 -0.062970 
#    y 0.035240 1.771490 -0.031380 
#    z -0.062970 -0.031380 1.851620 
# 
# From -- ./inp_files/354405.got.cif
#   From: 2010.05.17/outbox.cif.g08.bks.cpg/sg2_178_cif.got.tgz:354405.got - 2010.06.03 11:33:40.
