data_PCOD9003566
_publ_section_title
;
Structure prediction by ZEFSAII (Michael W. Deem and Ramdas Pophale) SiO2 
 PCOD9003566
Probable space group: P -1
;
_chemical_formula_sum "Si O2"
_cell_formula_units_Z 16
_cell_length_a 6.597065
_cell_length_b 15.462670
_cell_length_c 15.634732
_cell_angle_alpha 130.581295
_cell_angle_beta 103.324228
_cell_angle_gamma 44.882885
_cell_volume 771.681310
_symmetry_space_group_name_H-M "P -1"
_symmetry_group_IT_number 2
_symmetry_cell_setting 'triclinic'
loop_
_space_group_symop_operation_xyz
x,y,z
-x,-y,-z
loop_
_atom_site_type_symbol
_atom_site_label
_atom_site_fract_x
_atom_site_fract_y
_atom_site_fract_z
Si Si1 0.284917 0.762039 0.991419
Si Si2 0.739576 0.729596 0.125371
Si Si3 0.761473 0.459439 0.073714
Si Si4 0.600851 0.841772 0.460480
Si Si5 0.698566 0.174703 0.711898
Si Si6 0.803377 0.559790 0.778901
Si Si7 0.358665 0.964299 0.704511
Si Si8 0.434974 0.911458 0.878277
O O1 0.218606 0.680535 0.992230
O O2 0.511481 0.631017 0.851703
O O3 0.488524 0.773112 0.066322
O O4 0.941590 0.951549 0.055363
O O5 0.592366 0.764690 0.225797
O O6 0.719209 0.871415 0.202458
O O7 0.100786 0.559792 0.017969
O O8 0.409034 0.649845 0.179806
O O9 0.985940 0.437637 0.144619
O O10 0.347433 0.855689 0.406118
O O11 0.565174 0.862192 0.572737
O O12 0.952918 0.642125 0.351598
O O13 0.500000 0.000000 0.500000
O O14 0.036439 0.024333 0.693651
O O15 0.636959 0.716891 0.798745
O O16 0.481173 0.900903 0.772831
O O17 0.500000 0.000000 0.000000
#
# Coordination Sequence:
#
# PCOD9003566 Si02
#       8
#     2   2   2   2   2   2   2   2
#     4  11  21  40  67  97 134 169 212 275 346 392
#     4  11  20  38  60  98 133 171 216 270 338 391
#     4  10  21  37  61 101 133 169 220 273 342 402
#     4  11  25  47  68  94 135 181 229 276 321 392
#     4  11  23  40  65  94 133 178 219 277 335 394
#     4  10  24  41  67  97 132 179 222 272 331 388
#     4  12  25  42  67  96 133 182 225 269 330 391
#     4  12  22  45  70 100 136 171 220 278 335 404
#
# _framework density 20.733948000000002
#
# number of rings (size 3 to 8) (size 9 to 14) (size 15 to 20)
#    0.000    1.000    5.000    1.875    1.750    3.500 
#    0.000    0.000    0.000    3.750    0.000    0.000 
#    0.000    0.000    0.000    0.000    0.000    0.000 
#
# Total GULP energy -89143.287968 kJ/mol
# GULP energy per Si atom -5571.455498 kJ/mol
# Density = 2.068676 g / cm^3
# Si number density = 20.733948 Si / 1000 Ang^3
#
#
#
# Elastic Constant Matrix: (Units=GPa)
#
#
# Indices 1 2 3 4 5 6 
#
# 1 73.9842 34.0925 42.0189 0.7602 -5.3580 -1.6478
# 2 34.0925 127.9070 60.6874 3.2605 -9.6282 -2.6845
# 3 42.0189 60.6874 135.2102 -2.3612 -19.9390 1.0613
# 4 0.7602 3.2605 -2.3612 40.0804 -0.0011 -1.0000
# 5 -5.3580 -9.6282 -19.9390 -0.0011 31.3428 -2.1984
# 6 -1.6478 -2.6845 1.0613 -1.0000 -2.1984 31.3203
#
#
#
# Elastic Compliance Matrix: (Units=1/GPa)
#
#
# Indices 1 2 3 4 5 6 
#
# 1 0.017092 -0.002550 -0.004255 -0.000348 -0.000514 0.000778
# 2 -0.002550 0.010393 -0.003841 -0.001001 0.000375 0.000881
# 3 -0.004255 -0.003841 0.011231 0.001042 0.005200 -0.000535
# 4 -0.000348 -0.001001 0.001042 0.025116 0.000345 0.000687
# 5 -0.000514 0.000375 0.005200 0.000345 0.035404 0.002325
# 6 0.000778 0.000881 -0.000535 0.000687 0.002325 0.032248
#
#
# Mechanical properties :
#
#
# Convention : Reuss Voigt Hill
#
# Bulk Modulus (GPa) = 57.39491 67.85546 62.62518
# Shear Modulus (GPa) = 31.52894 33.90222 32.71558
#
# Velocity S-wave (km/s) = 3.90377 4.04803 3.97656
# Velocity P-wave (km/s) = 6.93260 7.39233 7.16615
#
# Compressibility (1/GPa) = 0.01742315
#
# Stress axis : x y z
#
# Youngs Moduli (GPa) = 58.50755 96.22131 89.03558
#
# Poissons Ratio (x) = 0.24540 0.37883
# Poissons Ratio (y) = 0.14922 0.34200
# Poissons Ratio (z) = 0.24894 0.36961
#
# Static dielectric constant tensor:
#      x y z
#    x 1.763410 0.025750 -0.026580 
#    y 0.025750 1.793530 -0.011010 
#    z -0.026580 -0.011010 1.855610 
# 
# From -- ./inp_files/473511.got.cif
#   From: 2010.05.17/outbox.cif.g08.bks.cpg/sg2_237_cif.got.tgz:473511.got - 2010.06.03 11:33:40.
