data_PCOD9003274
_publ_section_title
;
Structure prediction by ZEFSAII (Michael W. Deem and Ramdas Pophale) SiO2 
 PCOD9003274
Probable space group: P -1
;
_chemical_formula_sum "Si O2"
_cell_formula_units_Z 16
_cell_length_a 9.954827
_cell_length_b 12.089642
_cell_length_c 13.833952
_cell_angle_alpha 111.710631
_cell_angle_beta 123.283160
_cell_angle_gamma 114.583973
_cell_volume 780.945372
_symmetry_space_group_name_H-M "P -1"
_symmetry_group_IT_number 2
_symmetry_cell_setting 'triclinic'
loop_
_space_group_symop_operation_xyz
x,y,z
-x,-y,-z
loop_
_atom_site_type_symbol
_atom_site_label
_atom_site_fract_x
_atom_site_fract_y
_atom_site_fract_z
Si Si1 0.846315 0.871497 0.301565
Si Si2 0.422003 0.181206 0.996350
Si Si3 0.566316 0.430893 0.637467
Si Si4 0.905597 0.756195 0.728655
Si Si5 0.990540 0.439757 0.369870
Si Si6 0.463840 0.484952 0.145336
Si Si7 0.109394 0.843157 0.259340
Si Si8 0.323936 0.757195 0.440354
O O1 0.693881 0.880066 0.179163
O O2 0.632191 0.648891 0.182160
O O3 0.045498 0.922157 0.323681
O O4 0.000000 0.000000 0.500000
O O5 0.695323 0.273798 0.153162
O O6 0.483195 0.354540 0.103306
O O7 0.185202 0.987888 0.905376
O O8 0.806540 0.652106 0.760220
O O9 0.329539 0.299860 0.423296
O O10 0.453733 0.416558 0.686849
O O11 0.663132 0.352885 0.656956
O O12 0.921362 0.645573 0.633634
O O13 0.000000 0.500000 0.500000
O O14 0.186846 0.634022 0.444120
O O15 0.154450 0.334732 0.962812
O O16 0.162133 0.765832 0.327703
O O17 0.374067 0.019119 0.358889
#
# Coordination Sequence:
#
# PCOD9003274 Si02
#       8
#     2   2   2   2   2   2   2   2
#     4  11  22  38  63  89 117 151 188 235 292 349
#     4  11  22  38  59  85 118 149 193 244 285 341
#     4  10  21  38  58  82 114 154 193 235 287 340
#     4  10  22  39  58  82 116 155 196 238 283 338
#     4  11  23  39  60  84 117 156 196 240 287 337
#     4  11  21  36  60  87 114 146 190 238 291 346
#     4  10  21  37  59  87 116 149 188 236 291 346
#     4  10  21  39  57  80 117 152 190 236 286 345
#
# _framework density 20.487988999999999
#
# number of rings (size 3 to 8) (size 9 to 14) (size 15 to 20)
#    0.000    1.500    0.000    7.125    0.000    3.000 
#    0.000    5.000    0.000    0.000    0.000    0.000 
#    0.000    0.000    0.000    0.000    0.000    0.000 
#
# Total GULP energy -89395.925456 kJ/mol
# GULP energy per Si atom -5587.245341 kJ/mol
# Density = 2.044136 g / cm^3
# Si number density = 20.487989 Si / 1000 Ang^3
#
#
#
# Elastic Constant Matrix: (Units=GPa)
#
#
# Indices 1 2 3 4 5 6 
#
# 1 39.4998 12.6557 2.5834 -10.7874 7.4847 3.4178
# 2 12.6557 77.1039 19.1617 18.3426 10.5560 4.5839
# 3 2.5834 19.1617 58.5798 -6.1333 7.7725 -0.3469
# 4 -10.7874 18.3426 -6.1333 35.0570 2.0372 8.8913
# 5 7.4847 10.5560 7.7725 2.0372 24.8638 -2.7269
# 6 3.4178 4.5839 -0.3469 8.8913 -2.7269 34.0823
#
#
#
# Elastic Compliance Matrix: (Units=1/GPa)
#
#
# Indices 1 2 3 4 5 6 
#
# 1 0.036521 -0.010100 0.005205 0.020196 -0.010908 -0.008392
# 2 -0.010100 0.020306 -0.007580 -0.015494 -0.001710 0.002110
# 3 0.005205 -0.007580 0.021186 0.010248 -0.006080 -0.002447
# 4 0.020196 -0.015494 0.010248 0.048439 -0.008113 -0.013123
# 5 -0.010908 -0.001710 -0.006080 -0.008113 0.047582 0.007185
# 6 -0.008392 0.002110 -0.002447 -0.013123 0.007185 0.033872
#
#
# Mechanical properties :
#
#
# Convention : Reuss Voigt Hill
#
# Bulk Modulus (GPa) = 18.84545 27.10947 22.97746
# Shear Modulus (GPa) = 19.95677 28.18612 24.07144
#
# Velocity S-wave (km/s) = 3.12440 3.71312 3.43141
# Velocity P-wave (km/s) = 4.71530 5.62527 5.19026
#
# Compressibility (1/GPa) = 0.05306321
#
# Stress axis : x y z
#
# Youngs Moduli (GPa) = 27.38171 49.24731 47.20183
#
# Poissons Ratio (x) = 0.49741 -0.24570
# Poissons Ratio (y) = 0.27656 0.35777
# Poissons Ratio (z) = -0.14253 0.37327
#
# Static dielectric constant tensor:
#      x y z
#    x 1.704180 0.001400 -0.005930 
#    y 0.001400 1.730950 0.005570 
#    z -0.005930 0.005570 1.746190 
# 
# From -- ./inp_files/329391.got.cif
#   From: 2010.05.17/outbox.cif.g08.bks.cpg/sg2_165_cif.got.tgz:329391.got - 2010.06.03 11:33:40.
