data_PCOD9003155
_publ_section_title
;
Structure prediction by ZEFSAII (Michael W. Deem and Ramdas Pophale) SiO2 
 PCOD9003155
Probable space group: P -1
;
_chemical_formula_sum "Si O2"
_cell_formula_units_Z 14
_cell_length_a 10.829475
_cell_length_b 11.874447
_cell_length_c 16.010400
_cell_angle_alpha 23.676296
_cell_angle_beta 141.409139
_cell_angle_gamma 141.130988
_cell_volume 499.253825
_symmetry_space_group_name_H-M "P -1"
_symmetry_group_IT_number 2
_symmetry_cell_setting 'triclinic'
loop_
_space_group_symop_operation_xyz
x,y,z
-x,-y,-z
loop_
_atom_site_type_symbol
_atom_site_label
_atom_site_fract_x
_atom_site_fract_y
_atom_site_fract_z
Si Si1 0.826133 0.137591 0.638932
Si Si2 0.390084 0.830647 0.658924
Si Si3 0.845752 0.204363 0.786369
Si Si4 0.389014 0.819308 0.843642
Si Si5 0.720456 0.693707 0.461091
Si Si6 0.857090 0.104347 0.113549
Si Si7 0.269563 0.411104 0.216110
O O1 0.621582 0.875495 0.720274
O O2 0.160382 0.690272 0.385075
O O3 0.763870 0.274610 0.427417
O O4 0.025954 0.015187 0.816324
O O5 0.384456 0.160652 0.455971
O O6 0.337260 0.671788 0.826360
O O7 0.870918 0.485612 0.667225
O O8 0.625223 0.997325 0.836940
O O9 0.000000 0.000000 0.000000
O O10 0.246512 0.039745 0.638114
O O11 0.363845 0.618013 0.048097
O O12 0.500000 0.500000 0.500000
O O13 0.711044 0.845096 0.262861
O O14 0.045311 0.230648 0.190954
O O15 0.757296 0.375154 0.868522
#
# Coordination Sequence:
#
# PCOD9003155 Si02
#       7
#     2   2   2   2   2   2   2
#     4   9  19  36  55  84 119 151 193 239 296 349
#     4   9  18  36  60  86 119 153 188 245 306 350
#     4  10  21  37  58  86 120 162 203 238 284 353
#     4   9  19  38  62  88 117 153 198 246 298 349
#     4   9  19  37  59  82 117 161 200 238 287 352
#     4   9  18  35  56  84 119 150 193 250 295 345
#     4   9  18  35  59  88 118 150 196 246 299 354
#
# _framework density 28.041851000000001
#
# number of rings (size 3 to 8) (size 9 to 14) (size 15 to 20)
#    0.000    2.857    0.000    0.000    0.000    2.857 
#    0.000   44.286    0.000   18.857    0.000    0.000 
#    0.000    0.000    0.000    0.000    0.000    0.000 
#
# Total GULP energy -78350.976819 kJ/mol
# GULP energy per Si atom -5596.498344 kJ/mol
# Density = 2.797803 g / cm^3
# Si number density = 28.041851 Si / 1000 Ang^3
#
#
#
# Elastic Constant Matrix: (Units=GPa)
#
#
# Indices 1 2 3 4 5 6 
#
# 1 204.1316 43.8009 49.7078 -5.4779 13.7079 -9.0024
# 2 43.8009 77.9093 23.6323 5.9820 5.0920 16.0632
# 3 49.7078 23.6323 144.7481 -9.4252 29.5642 1.5846
# 4 -5.4779 5.9820 -9.4252 24.1203 -2.2065 -0.6089
# 5 13.7079 5.0920 29.5642 -2.2065 53.6473 4.8923
# 6 -9.0024 16.0632 1.5846 -0.6089 4.8923 49.4265
#
#
#
# Elastic Compliance Matrix: (Units=1/GPa)
#
#
# Indices 1 2 3 4 5 6 
#
# 1 0.006213 -0.003703 -0.001301 0.001822 -0.000669 0.002465
# 2 -0.003703 0.017254 -0.002021 -0.006001 0.000756 -0.006366
# 3 -0.001301 -0.002021 0.008752 0.003255 -0.004220 0.000597
# 4 0.001822 -0.006001 0.003255 0.044693 -0.000101 0.002738
# 5 -0.000669 0.000756 -0.004220 -0.000101 0.021274 -0.002339
# 6 0.002465 -0.006366 0.000597 0.002738 -0.002339 0.022996
#
#
# Mechanical properties :
#
#
# Convention : Reuss Voigt Hill
#
# Bulk Modulus (GPa) = 55.03398 73.45235 64.24317
# Shear Modulus (GPa) = 35.38896 46.08202 40.73549
#
# Velocity S-wave (km/s) = 3.55633 4.05820 3.81552
# Velocity P-wave (km/s) = 6.04413 6.94329 6.50926
#
# Compressibility (1/GPa) = 0.01817059
#
# Stress axis : x y z
#
# Youngs Moduli (GPa) = 160.96480 57.95779 114.25418
#
# Poissons Ratio (x) = 0.21460 0.14860
# Poissons Ratio (y) = 0.59599 0.23090
# Poissons Ratio (z) = 0.20935 0.11713
#
# Static dielectric constant tensor:
#      x y z
#    x 2.197640 -0.018180 -0.004830 
#    y -0.018180 2.163910 -0.000180 
#    z -0.004830 -0.000180 2.224570 
# 
# From -- ./inp_files/267560.got.cif
#   From: 2010.05.17/outbox.cif.g08.bks.cpg/sg2_134_cif.got.tgz:267560.got - 2010.06.03 11:33:40.
