data_PCOD9003067
_publ_section_title
;
Structure prediction by ZEFSAII (Michael W. Deem and Ramdas Pophale) SiO2 
 PCOD9003067
Probable space group: P -1
;
_chemical_formula_sum "Si O2"
_cell_formula_units_Z 16
_cell_length_a 8.812527
_cell_length_b 9.785265
_cell_length_c 10.335288
_cell_angle_alpha 108.240318
_cell_angle_beta 72.949382
_cell_angle_gamma 133.256170
_cell_volume 612.467614
_symmetry_space_group_name_H-M "P -1"
_symmetry_group_IT_number 2
_symmetry_cell_setting 'triclinic'
loop_
_space_group_symop_operation_xyz
x,y,z
-x,-y,-z
loop_
_atom_site_type_symbol
_atom_site_label
_atom_site_fract_x
_atom_site_fract_y
_atom_site_fract_z
Si Si1 0.702112 0.535455 0.696490
Si Si2 0.021660 0.691888 0.235960
Si Si3 0.937211 0.315235 0.159532
Si Si4 0.668198 0.781745 0.924740
Si Si5 0.116527 0.176963 0.883108
Si Si6 0.532985 0.919971 0.791798
Si Si7 0.987337 0.844601 0.534359
Si Si8 0.569658 0.879724 0.473158
O O1 0.598245 0.581942 0.838788
O O2 0.570331 0.324850 0.616764
O O3 0.921033 0.610368 0.725474
O O4 0.770996 0.682929 0.608382
O O5 0.024068 0.729723 0.398127
O O6 0.950931 0.489789 0.165550
O O7 0.260732 0.859039 0.179541
O O8 0.873159 0.729129 0.224919
O O9 0.044925 0.268269 0.020938
O O10 0.691204 0.136769 0.178216
O O11 0.536870 0.818533 0.886392
O O12 0.702256 0.797821 0.075503
O O13 0.908388 0.953662 0.866247
O O14 0.564761 0.861246 0.626301
O O15 0.198091 0.987442 0.606599
O O16 0.000000 0.000000 0.500000
O O17 0.500000 0.000000 0.500000
#
# Coordination Sequence:
#
# PCOD9003067 Si02
#       8
#     2   2   2   2   2   2   2   2
#     4  11  22  39  61  87 120 157 194 235 292 353
#     4  10  21  37  58  86 118 149 191 242 290 341
#     4  11  22  36  62  87 111 155 198 236 288 345
#     4   9  20  38  60  84 114 154 192 239 294 341
#     4   9  19  39  60  81 115 152 193 242 291 340
#     4  10  21  37  57  86 118 148 193 242 287 342
#     4  11  23  38  61  90 120 156 195 237 290 351
#     4  11  23  38  58  88 125 157 190 239 292 348
#
# _framework density 26.123830999999999
#
# number of rings (size 3 to 8) (size 9 to 14) (size 15 to 20)
#    0.000    1.750    0.000    5.625    0.000    6.500 
#    0.000    0.625    0.000   10.500    0.000    0.000 
#    0.000    0.000    0.000    0.000    0.000    0.000 
#
# Total GULP energy -89541.960277 kJ/mol
# GULP energy per Si atom -5596.372517 kJ/mol
# Density = 2.606437 g / cm^3
# Si number density = 26.123831 Si / 1000 Ang^3
#
#
#
# Elastic Constant Matrix: (Units=GPa)
#
#
# Indices 1 2 3 4 5 6 
#
# 1 82.1892 28.7286 18.9632 6.3809 20.2745 -3.4823
# 2 28.7286 140.0343 41.2653 31.9836 7.7222 -15.4253
# 3 18.9632 41.2653 89.1662 20.5557 11.3645 0.2504
# 4 6.3809 31.9836 20.5557 42.0821 -3.5410 -0.5201
# 5 20.2745 7.7222 11.3645 -3.5410 37.0376 3.3244
# 6 -3.4823 -15.4253 0.2504 -0.5201 3.3244 43.3475
#
#
#
# Elastic Compliance Matrix: (Units=1/GPa)
#
#
# Indices 1 2 3 4 5 6 
#
# 1 0.015148 -0.002049 -0.001102 -0.000837 -0.007703 0.001075
# 2 -0.002049 0.010223 -0.002748 -0.006164 -0.001070 0.003497
# 3 -0.001102 -0.002748 0.014356 -0.005074 -0.003630 -0.000932
# 4 -0.000837 -0.006164 -0.005074 0.031573 0.006530 -0.002353
# 5 -0.007703 -0.001070 -0.003630 0.006530 0.033489 -0.003469
# 6 0.001075 0.003497 -0.000932 -0.002353 -0.003469 0.024643
#
#
# Mechanical properties :
#
#
# Convention : Reuss Voigt Hill
#
# Bulk Modulus (GPa) = 35.80333 54.36712 45.08522
# Shear Modulus (GPa) = 33.21364 39.32229 36.26797
#
# Velocity S-wave (km/s) = 3.56953 3.88393 3.73004
# Velocity P-wave (km/s) = 5.54290 6.40076 5.98721
#
# Compressibility (1/GPa) = 0.02793037
#
# Stress axis : x y z
#
# Youngs Moduli (GPa) = 66.01468 97.81618 69.65690
#
# Poissons Ratio (x) = 0.20040 0.07675
# Poissons Ratio (y) = 0.13525 0.19142
# Poissons Ratio (z) = 0.07274 0.26880
#
# Static dielectric constant tensor:
#      x y z
#    x 2.123480 -0.012690 0.012160 
#    y -0.012690 2.025220 -0.074210 
#    z 0.012160 -0.074210 2.169930 
# 
# From -- ./inp_files/382653.got.cif
#   From: 2010.05.17/outbox.cif.g08.bks.cpg/sg2_192_cif.got.tgz:382653.got - 2010.06.03 11:33:40.
