data_PCOD9003863
_publ_section_title
;
Structure prediction by ZEFSAII (Michael W. Deem and Ramdas Pophale) SiO2 
 PCOD9003863
Probable space group: P -1
;
_chemical_formula_sum "Si O2"
_cell_formula_units_Z 16
_cell_length_a 12.994322
_cell_length_b 9.082786
_cell_length_c 11.518710
_cell_angle_alpha 88.917483
_cell_angle_beta 77.894888
_cell_angle_gamma 148.906811
_cell_volume 631.224176
_symmetry_space_group_name_H-M "P -1"
_symmetry_group_IT_number 2
_symmetry_cell_setting 'triclinic'
loop_
_space_group_symop_operation_xyz
x,y,z
-x,-y,-z
loop_
_atom_site_type_symbol
_atom_site_label
_atom_site_fract_x
_atom_site_fract_y
_atom_site_fract_z
Si Si1 0.284822 0.891859 0.343647
Si Si2 0.035635 0.255923 0.592052
Si Si3 0.012725 0.668975 0.744368
Si Si4 0.184404 0.313313 0.324587
Si Si5 0.071674 0.390247 0.965413
Si Si6 0.357982 0.477087 0.887152
Si Si7 0.412411 0.215037 0.922132
Si Si8 0.328057 0.806015 0.687330
O O1 0.467123 0.225862 0.241353
O O2 0.422029 0.945744 0.389157
O O3 0.864518 0.701707 0.068343
O O4 0.098382 0.774254 0.436236
O O5 0.176460 0.342531 0.461409
O O6 0.173641 0.499665 0.658541
O O7 0.867641 0.922314 0.681594
O O8 0.004077 0.820304 0.689671
O O9 0.833797 0.349299 0.723730
O O10 0.243729 0.864969 0.674859
O O11 0.551112 0.397855 0.004665
O O12 0.416516 0.646793 0.209040
O O13 0.062977 0.409064 0.103566
O O14 0.255520 0.699294 0.841175
O O15 0.829908 0.139392 0.981728
O O16 0.350803 0.294537 0.873603
#
# Coordination Sequence:
#
# PCOD9003863 Si02
#       8
#     2   2   2   2   2   2   2   2
#     4  10  22  43  67  91 131 171 208 253 326 374
#     4  10  23  49  65  92 125 167 218 269 311 371
#     4  11  24  41  62 101 129 167 209 264 312 381
#     4  11  24  44  69  91 130 165 214 271 314 366
#     4  11  23  37  63  98 132 162 209 261 310 381
#     4  10  21  37  62  94 128 166 206 259 317 382
#     4  11  21  37  62  95 125 169 205 262 321 370
#     4  10  24  42  67  94 131 173 207 255 319 381
#
# _framework density 25.347570999999999
#
# number of rings (size 3 to 8) (size 9 to 14) (size 15 to 20)
#    0.000    1.500    2.500    2.250    3.500    6.000 
#    2.250    2.500    0.000    0.000    0.000    0.000 
#    0.000    0.000    0.000    0.000    0.000    0.000 
#
# Total GULP energy -89575.893995 kJ/mol
# GULP energy per Si atom -5598.493375 kJ/mol
# Density = 2.528988 g / cm^3
# Si number density = 25.347571 Si / 1000 Ang^3
#
#
#
# Elastic Constant Matrix: (Units=GPa)
#
#
# Indices 1 2 3 4 5 6 
#
# 1 159.9510 21.7174 6.8057 4.2464 -24.3062 0.3835
# 2 21.7174 59.8353 16.0168 -4.5630 -4.7019 1.5388
# 3 6.8057 16.0168 93.7247 1.1229 -16.5851 11.4467
# 4 4.2464 -4.5630 1.1229 29.8235 -1.5767 -1.1364
# 5 -24.3062 -4.7019 -16.5851 -1.5767 45.5513 -7.9288
# 6 0.3835 1.5388 11.4467 -1.1364 -7.9288 44.6489
#
#
#
# Elastic Compliance Matrix: (Units=1/GPa)
#
#
# Indices 1 2 3 4 5 6 
#
# 1 0.007188 -0.002560 0.000540 -0.001213 0.003819 0.000535
# 2 -0.002560 0.018700 -0.003150 0.003329 -0.000434 0.000193
# 3 0.000540 -0.003150 0.012164 -0.000897 0.003955 -0.002335
# 4 -0.001213 0.003329 -0.000897 0.034329 0.000755 0.001134
# 5 0.003819 -0.000434 0.003955 0.000755 0.026041 0.003612
# 6 0.000535 0.000193 -0.002335 0.001134 0.003612 0.023655
#
#
# Mechanical properties :
#
#
# Convention : Reuss Voigt Hill
#
# Bulk Modulus (GPa) = 36.08353 44.73229 40.40791
# Shear Modulus (GPa) = 35.29756 41.93617 38.61687
#
# Velocity S-wave (km/s) = 3.73573 4.07190 3.90743
# Velocity P-wave (km/s) = 5.73358 6.30817 6.02773
#
# Compressibility (1/GPa) = 0.02771348
#
# Stress axis : x y z
#
# Youngs Moduli (GPa) = 139.12596 53.47724 82.20740
#
# Poissons Ratio (x) = 0.13688 -0.04443
# Poissons Ratio (y) = 0.35611 0.25895
# Poissons Ratio (z) = -0.07519 0.16845
#
# Static dielectric constant tensor:
#      x y z
#    x 2.013780 -0.016730 -0.010770 
#    y -0.016730 2.030140 -0.012730 
#    z -0.010770 -0.012730 1.972030 
# 
# From -- ./inp_files/514361.got.cif
#   From: 2010.05.17/outbox.cif.g08.bks.cpg/sg2_258_cif.got.tgz:514361.got - 2010.06.03 11:33:40.
