data_PCOD9003011
_publ_section_title
;
Structure prediction by ZEFSAII (Michael W. Deem and Ramdas Pophale) SiO2 
 PCOD9003011
Probable space group: P -1
;
_chemical_formula_sum "Si O2"
_cell_formula_units_Z 16
_cell_length_a 14.528433
_cell_length_b 6.985902
_cell_length_c 13.757335
_cell_angle_alpha 127.682248
_cell_angle_beta 132.481248
_cell_angle_gamma 41.928793
_cell_volume 671.101716
_symmetry_space_group_name_H-M "P -1"
_symmetry_group_IT_number 2
_symmetry_cell_setting 'triclinic'
loop_
_space_group_symop_operation_xyz
x,y,z
-x,-y,-z
loop_
_atom_site_type_symbol
_atom_site_label
_atom_site_fract_x
_atom_site_fract_y
_atom_site_fract_z
Si Si1 0.367903 0.621082 0.196881
Si Si2 0.908240 0.483199 0.843081
Si Si3 0.602021 0.855121 0.659840
Si Si4 0.257855 0.370020 0.873846
Si Si5 0.620858 0.087466 0.340681
Si Si6 0.109360 0.042900 0.719275
Si Si7 0.205917 0.653526 0.508127
Si Si8 0.053631 0.125379 0.159249
O O1 0.498191 0.368568 0.276860
O O2 0.412342 0.840586 0.260473
O O3 0.213469 0.841545 0.216732
O O4 0.332037 0.477243 0.036213
O O5 0.728675 0.650231 0.769591
O O6 0.914716 0.671540 0.818950
O O7 0.012487 0.144439 0.779989
O O8 0.000000 0.500000 0.000000
O O9 0.448581 0.899183 0.600554
O O10 0.672871 0.661286 0.551676
O O11 0.218776 0.156997 0.833821
O O12 0.093302 0.653545 0.814794
O O13 0.345905 0.189681 0.784761
O O14 0.760269 0.122991 0.450043
O O15 0.965920 0.236702 0.603688
O O16 0.203924 0.718133 0.641229
O O17 0.000000 0.000000 0.000000
#
# Coordination Sequence:
#
# PCOD9003011 Si02
#       8
#     2   2   2   2   2   2   2   2
#     4  10  21  37  56  91 118 152 194 238 307 351
#     4   9  17  29  52  87 110 144 191 235 288 343
#     4  10  22  36  55  87 120 152 195 245 286 351
#     4   9  18  35  58  85 116 153 192 234 302 357
#     4  11  22  35  62  84 117 163 191 241 292 354
#     4   8  16  32  60  83 112 155 198 245 282 344
#     4   9  18  37  56  84 111 157 208 231 286 345
#     4   8  16  31  53  74 112 148 181 225 277 344
#
# _framework density 23.841394000000001
#
# number of rings (size 3 to 8) (size 9 to 14) (size 15 to 20)
#    0.000    2.750    0.000    1.500    5.250    1.000 
#    0.000    0.000    0.000    0.000    3.250   14.000 
#    0.000    0.000    0.000    0.000    0.000    0.000 
#
# Total GULP energy -89150.726063 kJ/mol
# GULP energy per Si atom -5571.920379 kJ/mol
# Density = 2.378713 g / cm^3
# Si number density = 23.841394 Si / 1000 Ang^3
#
#
#
# Elastic Constant Matrix: (Units=GPa)
#
#
# Indices 1 2 3 4 5 6 
#
# 1 71.4656 40.4642 21.5457 6.2260 16.2944 -4.4865
# 2 40.4642 115.1195 36.3626 20.2972 -16.2291 -7.4368
# 3 21.5457 36.3626 113.0562 31.9600 13.1349 -0.4742
# 4 6.2260 20.2972 31.9600 40.3689 -3.2257 -2.2043
# 5 16.2944 -16.2291 13.1349 -3.2257 30.1227 7.8272
# 6 -4.4865 -7.4368 -0.4742 -2.2043 7.8272 39.6778
#
#
#
# Elastic Compliance Matrix: (Units=1/GPa)
#
#
# Indices 1 2 3 4 5 6 
#
# 1 0.026312 -0.012713 0.002071 -0.000895 -0.023430 0.005190
# 2 -0.012713 0.017524 -0.004987 -0.001505 0.018855 -0.002016
# 3 0.002071 -0.004987 0.014168 -0.009872 -0.011343 0.001158
# 4 -0.000895 -0.001505 -0.009872 0.034087 0.007659 -0.000118
# 5 -0.023430 0.018855 -0.011343 0.007659 0.064814 -0.011611
# 6 0.005190 -0.002016 0.001158 -0.000118 -0.011611 0.027710
#
#
# Mechanical properties :
#
#
# Convention : Reuss Voigt Hill
#
# Bulk Modulus (GPa) = 37.38807 55.15404 46.27105
# Shear Modulus (GPa) = 22.24319 35.45180 28.84750
#
# Velocity S-wave (km/s) = 3.05776 3.86033 3.48224
# Velocity P-wave (km/s) = 5.30873 6.56151 5.96808
#
# Compressibility (1/GPa) = 0.02674650
#
# Stress axis : x y z
#
# Youngs Moduli (GPa) = 38.00486 57.06526 70.58272
#
# Poissons Ratio (x) = 0.72548 -0.14620
# Poissons Ratio (y) = 0.48316 0.35199
# Poissons Ratio (z) = -0.07872 0.28458
#
# Static dielectric constant tensor:
#      x y z
#    x 1.966290 -0.052840 0.016080 
#    y -0.052840 1.970860 0.028150 
#    z 0.016080 0.028150 1.956410 
# 
# From -- ./inp_files/529072.got.cif
#   From: 2010.05.17/outbox.cif.g08.bks.cpg/sg2_265_cif.got.tgz:529072.got - 2010.06.03 11:33:40.
