data_PCOD9003036
_publ_section_title
;
Structure prediction by ZEFSAII (Michael W. Deem and Ramdas Pophale) SiO2 
 PCOD9003036
Probable space group: P -1
;
_chemical_formula_sum "Si O2"
_cell_formula_units_Z 16
_cell_length_a 7.573248
_cell_length_b 5.021458
_cell_length_c 19.007420
_cell_angle_alpha 92.294523
_cell_angle_beta 70.569384
_cell_angle_gamma 93.224994
_cell_volume 680.405641
_symmetry_space_group_name_H-M "P -1"
_symmetry_group_IT_number 2
_symmetry_cell_setting 'triclinic'
loop_
_space_group_symop_operation_xyz
x,y,z
-x,-y,-z
loop_
_atom_site_type_symbol
_atom_site_label
_atom_site_fract_x
_atom_site_fract_y
_atom_site_fract_z
Si Si1 0.181701 0.416803 0.933547
Si Si2 0.427029 0.942422 0.929682
Si Si3 0.050861 0.177361 0.380961
Si Si4 0.501997 0.749377 0.417303
Si Si5 0.299926 0.726044 0.658942
Si Si6 0.020726 0.504845 0.804686
Si Si7 0.216782 0.152975 0.498054
Si Si8 0.790495 0.969493 0.789789
O O1 0.256295 0.133513 0.941798
O O2 0.108216 0.415016 0.864202
O O3 0.000000 0.500000 0.000000
O O4 0.651540 0.360842 0.072568
O O5 0.586499 0.010193 0.850126
O O6 0.500000 0.000000 0.000000
O O7 0.869549 0.318285 0.375781
O O8 0.952034 0.911302 0.426301
O O9 0.149886 0.297067 0.438507
O O10 0.184544 0.125918 0.295965
O O11 0.618766 0.975614 0.358998
O O12 0.611717 0.734078 0.476817
O O13 0.534479 0.472600 0.373537
O O14 0.303620 0.873575 0.457932
O O15 0.193078 0.650260 0.742644
O O16 0.919985 0.241619 0.780757
O O17 0.870746 0.735541 0.825663
#
# Coordination Sequence:
#
# PCOD9003036 Si02
#       8
#     2   2   2   2   2   2   2   2
#     4  12  25  43  68  98 128 165 208 248 304 372
#     4  12  25  44  69  99 132 164 204 253 307 365
#     4   9  20  37  59  85 118 160 205 252 309 370
#     4  10  21  37  57  83 116 156 205 260 310 358
#     4  10  21  38  59  84 117 158 204 256 310 361
#     4  11  22  41  65  90 126 167 208 254 309 371
#     4   9  19  36  57  83 116 158 207 257 309 366
#     4  11  23  42  64  91 128 166 205 256 313 366
#
# _framework density 23.515384999999998
#
# number of rings (size 3 to 8) (size 9 to 14) (size 15 to 20)
#    0.000    1.500    0.000    6.000    0.000    7.000 
#    0.000    8.750    0.000    0.000    0.000    0.000 
#    0.000    0.000    0.000    0.000    0.000    0.000 
#
# Total GULP energy -89436.894632 kJ/mol
# GULP energy per Si atom -5589.805915 kJ/mol
# Density = 2.346186 g / cm^3
# Si number density = 23.515385 Si / 1000 Ang^3
#
#
#
# Elastic Constant Matrix: (Units=GPa)
#
#
# Indices 1 2 3 4 5 6 
#
# 1 57.7861 -0.3727 26.9787 -5.5127 -9.1053 -5.4332
# 2 -0.3727 75.1201 -2.4793 -1.6055 2.5565 -0.4668
# 3 26.9787 -2.4793 88.6726 -17.9923 -13.2458 -15.5432
# 4 -5.5127 -1.6055 -17.9923 24.1965 -8.4107 -3.8697
# 5 -9.1053 2.5565 -13.2458 -8.4107 40.4954 -6.9195
# 6 -5.4332 -0.4668 -15.5432 -3.8697 -6.9195 49.5066
#
#
#
# Elastic Compliance Matrix: (Units=1/GPa)
#
#
# Indices 1 2 3 4 5 6 
#
# 1 0.020584 -0.000126 -0.004920 0.002578 0.003809 0.001447
# 2 -0.000126 0.013376 0.000714 0.001354 -0.000289 0.000402
# 3 -0.004920 0.000714 0.019656 0.018600 0.010606 0.008574
# 4 0.002578 0.001354 0.018600 0.066070 0.022775 0.014483
# 5 0.003809 -0.000289 0.010606 0.022775 0.035562 0.010496
# 6 0.001447 0.000402 0.008574 0.014483 0.010496 0.025653
#
#
# Mechanical properties :
#
#
# Convention : Reuss Voigt Hill
#
# Bulk Modulus (GPa) = 22.24597 29.98136 26.11366
# Shear Modulus (GPa) = 24.44409 36.00318 30.22363
#
# Velocity S-wave (km/s) = 3.22762 3.91711 3.58896
# Velocity P-wave (km/s) = 4.83433 5.76504 5.32007
#
# Compressibility (1/GPa) = 0.04495196
#
# Stress axis : x y z
#
# Youngs Moduli (GPa) = 48.58186 74.75942 50.87541
#
# Poissons Ratio (x) = 0.00941 0.25033
# Poissons Ratio (y) = 0.00611 -0.03633
# Poissons Ratio (z) = 0.23904 -0.05339
#
# Static dielectric constant tensor:
#      x y z
#    x 1.607350 -0.114760 2.294530 
#    y -0.114760 1.828710 1.002350 
#    z 2.294530 1.002350 -13.942810 
# 
# From -- ./inp_files/553424.got.cif
#   From: 2010.05.17/outbox.cif.g08.bks.cpg/sg2_277_cif.got.tgz:553424.got - 2010.06.03 11:33:40.
