data_PCOD9003780
_publ_section_title
;
Structure prediction by ZEFSAII (Michael W. Deem and Ramdas Pophale) SiO2 
 PCOD9003780
Probable space group: P -1
;
_chemical_formula_sum "Si O2"
_cell_formula_units_Z 16
_cell_length_a 8.992149
_cell_length_b 19.704706
_cell_length_c 9.077834
_cell_angle_alpha 122.469875
_cell_angle_beta 77.269421
_cell_angle_gamma 142.727015
_cell_volume 751.482901
_symmetry_space_group_name_H-M "P -1"
_symmetry_group_IT_number 2
_symmetry_cell_setting 'triclinic'
loop_
_space_group_symop_operation_xyz
x,y,z
-x,-y,-z
loop_
_atom_site_type_symbol
_atom_site_label
_atom_site_fract_x
_atom_site_fract_y
_atom_site_fract_z
Si Si1 0.005795 0.167018 0.931445
Si Si2 0.574501 0.109630 0.706357
Si Si3 0.730220 0.725060 0.561250
Si Si4 0.947012 0.061639 0.515789
Si Si5 0.642879 0.528161 0.853438
Si Si6 0.592681 0.774881 0.911154
Si Si7 0.946942 0.406217 0.018493
Si Si8 0.723320 0.012967 0.095871
O O1 0.936701 0.117941 0.720531
O O2 0.150133 0.315708 0.070406
O O3 0.222563 0.195102 0.979202
O O4 0.757922 0.049771 0.961472
O O5 0.500000 0.000000 0.500000
O O6 0.330033 0.061334 0.655399
O O7 0.527510 0.072999 0.846843
O O8 0.842049 0.276542 0.816351
O O9 0.566770 0.581299 0.358971
O O10 0.570066 0.707980 0.694982
O O11 0.820518 0.814633 0.503418
O O12 0.015415 0.832754 0.704719
O O13 0.000000 0.000000 0.500000
O O14 0.799542 0.514404 0.849845
O O15 0.500000 0.500000 0.000000
O O16 0.302520 0.671564 0.919150
O O17 0.729159 0.918300 0.998837
O O18 0.000000 0.500000 0.000000
#
# Coordination Sequence:
#
# PCOD9003780 Si02
#       8
#     2   2   2   2   2   2   2   2
#     4  11  20  38  64  95 124 159 207 258 305 364
#     4  10  22  41  62  90 124 162 205 259 312 368
#     4  10  21  37  62  89 127 157 206 249 307 364
#     4  11  20  34  65  93 113 156 214 252 299 360
#     4  12  25  40  61  91 130 165 208 255 303 375
#     4  10  21  43  64  92 125 162 205 259 311 364
#     4  11  25  44  62  88 132 168 204 257 320 371
#     4   9  20  39  64  94 124 157 206 257 314 360
#
# _framework density 21.291235
#
# number of rings (size 3 to 8) (size 9 to 14) (size 15 to 20)
#    0.000    1.500    1.250    6.000    3.500    2.500 
#    2.250    6.875    0.000    0.000    0.000    0.000 
#    0.000    0.000    0.000    0.000    0.000    0.000 
#
# Total GULP energy -89335.391568 kJ/mol
# GULP energy per Si atom -5583.461973 kJ/mol
# Density = 2.124278 g / cm^3
# Si number density = 21.291235 Si / 1000 Ang^3
#
#
#
# Elastic Constant Matrix: (Units=GPa)
#
#
# Indices 1 2 3 4 5 6 
#
# 1 78.9124 21.2362 -0.4919 -8.6225 11.1756 -11.2922
# 2 21.2362 106.4485 23.9953 -12.7016 1.4293 -9.0404
# 3 -0.4919 23.9953 114.5807 -2.8514 -4.2288 1.4955
# 4 -8.6225 -12.7016 -2.8514 42.2111 2.5435 -2.9889
# 5 11.1756 1.4293 -4.2288 2.5435 28.7151 -3.8831
# 6 -11.2922 -9.0404 1.4955 -2.9889 -3.8831 35.4608
#
#
#
# Elastic Compliance Matrix: (Units=1/GPa)
#
#
# Indices 1 2 3 4 5 6 
#
# 1 0.014930 -0.002312 0.000374 0.002974 -0.005389 0.003810
# 2 -0.002312 0.010900 -0.002250 0.002819 0.000099 0.002386
# 3 0.000374 -0.002250 0.009253 -0.000101 0.001241 -0.000717
# 4 0.002974 0.002819 -0.000101 0.025573 -0.003107 0.003485
# 5 -0.005389 0.000099 0.001241 -0.003107 0.037662 0.002119
# 6 0.003810 0.002386 -0.000717 0.003485 0.002119 0.030578
#
#
# Mechanical properties :
#
#
# Convention : Reuss Voigt Hill
#
# Bulk Modulus (GPa) = 37.44390 43.26898 40.35644
# Shear Modulus (GPa) = 34.20564 38.29086 36.24825
#
# Velocity S-wave (km/s) = 4.01254 4.24539 4.13061
# Velocity P-wave (km/s) = 6.25236 6.66316 6.46103
#
# Compressibility (1/GPa) = 0.02670662
#
# Stress axis : x y z
#
# Youngs Moduli (GPa) = 66.97896 91.74079 108.07402
#
# Poissons Ratio (x) = 0.21210 -0.04038
# Poissons Ratio (y) = 0.15485 0.24317
# Poissons Ratio (z) = -0.02503 0.20642
#
# Static dielectric constant tensor:
#      x y z
#    x 1.846630 0.041370 -0.030650 
#    y 0.041370 1.798180 0.014790 
#    z -0.030650 0.014790 1.861030 
# 
# From -- ./inp_files/218255.got.cif
#   From: 2010.05.17/outbox.cif.g08.bks.cpg/sg2_110_cif.got.tgz:218255.got - 2010.06.03 11:33:40.
