data_PCOD9003798
_publ_section_title
;
Structure prediction by ZEFSAII (Michael W. Deem and Ramdas Pophale) SiO2 
 PCOD9003798
Probable space group: P -1
;
_chemical_formula_sum "Si O2"
_cell_formula_units_Z 16
_cell_length_a 11.805812
_cell_length_b 15.910162
_cell_length_c 9.067968
_cell_angle_alpha 102.751677
_cell_angle_beta 95.913038
_cell_angle_gamma 25.636631
_cell_volume 699.922222
_symmetry_space_group_name_H-M "P -1"
_symmetry_group_IT_number 2
_symmetry_cell_setting 'triclinic'
loop_
_space_group_symop_operation_xyz
x,y,z
-x,-y,-z
loop_
_atom_site_type_symbol
_atom_site_label
_atom_site_fract_x
_atom_site_fract_y
_atom_site_fract_z
Si Si1 0.023266 0.157061 0.473774
Si Si2 0.321169 0.931852 0.149848
Si Si3 0.163072 0.316915 0.862430
Si Si4 0.999380 0.628699 0.461215
Si Si5 0.437683 0.189318 0.398264
Si Si6 0.299216 0.767109 0.000561
Si Si7 0.807124 0.885496 0.083869
Si Si8 0.698743 0.362342 0.781247
O O1 0.947943 0.307206 0.484270
O O2 0.797068 0.273505 0.595656
O O3 0.111676 0.050531 0.295016
O O4 0.297120 0.977207 0.535509
O O5 0.559077 0.827916 0.202595
O O6 0.441770 0.761968 0.030711
O O7 0.179278 0.085755 0.065319
O O8 0.030946 0.371370 0.716607
O O9 0.210106 0.204488 0.933809
O O10 0.000000 0.500000 0.000000
O O11 0.726091 0.782620 0.561331
O O12 0.237390 0.406468 0.468762
O O13 0.544368 0.104076 0.213858
O O14 0.439449 0.601806 0.848043
O O15 0.320272 0.706097 0.139102
O O16 0.000000 0.000000 0.000000
O O17 0.065796 0.741865 0.152014
#
# Coordination Sequence:
#
# PCOD9003798 Si02
#       8
#     2   2   2   2   2   2   2   2
#     4  11  23  42  64  97 133 170 214 277 318 387
#     4  12  25  40  67  99 134 172 218 277 322 375
#     4  12  23  37  62 100 140 172 220 268 315 390
#     4  11  21  38  61  90 138 182 212 251 331 385
#     4  10  21  37  62  90 129 184 215 250 314 399
#     4  11  24  47  72  94 125 169 222 271 331 390
#     4  11  22  41  65  96 131 171 221 260 323 392
#     4  10  23  44  74  92 122 175 219 266 330 397
#
# _framework density 22.859684000000001
#
# number of rings (size 3 to 8) (size 9 to 14) (size 15 to 20)
#    0.000    1.000    5.000    3.000    1.750    2.500 
#    2.250    0.625    0.000    0.000    0.000    0.000 
#    0.000    0.000    0.000    0.000    0.000    0.000 
#
# Total GULP energy -89529.283981 kJ/mol
# GULP energy per Si atom -5595.580249 kJ/mol
# Density = 2.280765 g / cm^3
# Si number density = 22.859684 Si / 1000 Ang^3
#
#
#
# Elastic Constant Matrix: (Units=GPa)
#
#
# Indices 1 2 3 4 5 6 
#
# 1 59.2199 10.7428 -10.7117 3.3462 -8.2626 22.0389
# 2 10.7428 42.9975 -21.6943 46.9306 -29.9043 37.5259
# 3 -10.7117 -21.6943 70.8112 34.8048 -42.4360 18.1839
# 4 3.3462 46.9306 34.8048 0.3930 17.4978 -19.9383
# 5 -8.2626 -29.9043 -42.4360 17.4978 25.1637 11.9489
# 6 22.0389 37.5259 18.1839 -19.9383 11.9489 18.0464
#
#
#
# Elastic Compliance Matrix: (Units=1/GPa)
#
#
# Indices 1 2 3 4 5 6 
#
# 1 0.020401 -0.005173 0.000431 0.006541 0.000329 -0.007582
# 2 -0.005173 0.008433 -0.005469 0.005021 -0.006295 0.004009
# 3 0.000431 -0.005469 0.009515 0.006004 0.002575 0.006187
# 4 0.006541 0.005021 0.006004 0.016940 0.013417 -0.014648
# 5 0.000329 -0.006295 0.002575 0.013417 0.022679 0.009901
# 6 -0.007582 0.004009 0.006187 -0.014648 0.009901 0.027364
#
#
# Mechanical properties :
#
#
# Convention : Reuss Voigt Hill
#
# Bulk Modulus (GPa) = 55.78505 14.41137 35.09821
# Shear Modulus (GPa) = 37.95692 21.70006 29.82849
#
# Velocity S-wave (km/s) = 4.07926 3.08437 3.61619
# Velocity P-wave (km/s) = 6.82959 4.35917 5.72913
#
# Compressibility (1/GPa) = 0.01792595
#
# Stress axis : x y z
#
# Youngs Moduli (GPa) = 49.01804 118.58424 105.09722
#
# Poissons Ratio (x) = 0.61342 -0.04525
# Poissons Ratio (y) = 0.25356 0.57478
# Poissons Ratio (z) = -0.02111 0.64854
#
# Static dielectric constant tensor:
#      x y z
#    x 1.844820 -0.035930 -0.024390 
#    y -0.035930 1.849710 0.002040 
#    z -0.024390 0.002040 1.883590 
# 
# From -- ./inp_files/246002.got.cif
#   From: 2010.05.17/outbox.cif.g08.bks.cpg/sg2_124_cif.got.tgz:246002.got - 2010.06.03 11:33:40.
