data_PCOD9003944
_publ_section_title
;
Structure prediction by ZEFSAII (Michael W. Deem and Ramdas Pophale) SiO2 
 PCOD9003944
Probable space group: P -1
;
_chemical_formula_sum "Si O2"
_cell_formula_units_Z 14
_cell_length_a 13.087511
_cell_length_b 8.039898
_cell_length_c 9.317190
_cell_angle_alpha 64.987416
_cell_angle_beta 105.131771
_cell_angle_gamma 131.769705
_cell_volume 662.308816
_symmetry_space_group_name_H-M "P -1"
_symmetry_group_IT_number 2
_symmetry_cell_setting 'triclinic'
loop_
_space_group_symop_operation_xyz
x,y,z
-x,-y,-z
loop_
_atom_site_type_symbol
_atom_site_label
_atom_site_fract_x
_atom_site_fract_y
_atom_site_fract_z
Si Si1 0.319036 0.539839 0.889954
Si Si2 0.525093 0.811668 0.083525
Si Si3 0.752988 0.552510 0.793397
Si Si4 0.995874 0.031337 0.655865
Si Si5 0.808497 0.980733 0.074492
Si Si6 0.845272 0.422151 0.389786
Si Si7 0.885732 0.370282 0.729782
O O1 0.287079 0.651859 0.715383
O O2 0.256744 0.277782 0.917245
O O3 0.473619 0.692020 0.949438
O O4 0.238112 0.507170 0.017213
O O5 0.410885 0.605787 0.225039
O O6 0.680739 0.935970 0.122815
O O7 0.500000 0.000000 0.000000
O O8 0.818585 0.473769 0.742508
O O9 0.837214 0.832520 0.711304
O O10 0.070533 0.300776 0.630938
O O11 0.073097 0.954755 0.799122
O O12 0.000000 0.000000 0.500000
O O13 0.860564 0.171550 0.898291
O O14 0.820146 0.285920 0.577082
O O15 0.952041 0.438513 0.317205
#
# Coordination Sequence:
#
# PCOD9003944 Si02
#       7
#     2   2   2   2   2   2   2
#     4   9  21  38  64  83 122 160 203 241 299 357
#     4  10  21  40  61  92 120 158 206 248 293 367
#     4  10  21  37  63  87 123 154 205 243 300 355
#     4  11  22  40  61  91 122 158 202 253 297 356
#     4  11  21  39  66  88 121 164 201 246 301 362
#     4  10  22  39  57  93 128 154 197 258 299 353
#     4  11  21  36  61  90 124 156 202 242 310 349
#
# _framework density 21.138173999999999
#
# number of rings (size 3 to 8) (size 9 to 14) (size 15 to 20)
#    0.857    0.857    2.857    2.143    0.000    5.714 
#    0.000    1.429    0.000    0.000    0.000    0.000 
#    0.000    0.000    0.000    0.000    0.000    0.000 
#
# Total GULP energy -78049.396616 kJ/mol
# GULP energy per Si atom -5574.956901 kJ/mol
# Density = 2.109006 g / cm^3
# Si number density = 21.138174 Si / 1000 Ang^3
#
#
#
# Elastic Constant Matrix: (Units=GPa)
#
#
# Indices 1 2 3 4 5 6 
#
# 1 84.3464 1.3545 20.3697 -4.7587 -8.3766 -2.0030
# 2 1.3545 42.3606 4.9096 -8.6665 -7.5052 3.2733
# 3 20.3697 4.9096 100.7030 -15.0800 4.3609 0.6236
# 4 -4.7587 -8.6665 -15.0800 15.8044 -4.4928 -7.9807
# 5 -8.3766 -7.5052 4.3609 -4.4928 18.5478 -0.5813
# 6 -2.0030 3.2733 0.6236 -7.9807 -0.5813 25.7748
#
#
#
# Elastic Compliance Matrix: (Units=1/GPa)
#
#
# Indices 1 2 3 4 5 6 
#
# 1 0.013910 0.003090 -0.002146 0.008573 0.010227 0.003626
# 2 0.003090 0.032648 0.001128 0.028774 0.021482 0.005460
# 3 -0.002146 0.001128 0.012313 0.013522 -0.000020 0.003579
# 4 0.008573 0.028774 0.013522 0.125445 0.043866 0.036516
# 5 0.010227 0.021482 -0.000020 0.043866 0.078277 0.013415
# 6 0.003626 0.005460 0.003579 0.036516 0.013415 0.049908
#
#
# Mechanical properties :
#
#
# Convention : Reuss Voigt Hill
#
# Bulk Modulus (GPa) = 15.86925 31.18639 23.52782
# Shear Modulus (GPa) = 15.18084 25.41046 20.29565
#
# Velocity S-wave (km/s) = 2.68278 3.47091 3.10198
# Velocity P-wave (km/s) = 4.13764 5.55415 4.89738
#
# Compressibility (1/GPa) = 0.06301497
#
# Stress axis : x y z
#
# Youngs Moduli (GPa) = 71.89116 30.62954 81.21564
#
# Poissons Ratio (x) = -0.09464 0.17427
# Poissons Ratio (y) = -0.22212 -0.09161
# Poissons Ratio (z) = 0.15426 -0.03455
#
# Static dielectric constant tensor:
#      x y z
#    x 1.799160 -0.013500 -0.001560 
#    y -0.013500 1.824120 -0.008090 
#    z -0.001560 -0.008090 1.770560 
# 
# From -- ./inp_files/291922.got.cif
#   From: 2010.05.17/outbox.cif.g08.bks.cpg/sg2_146_cif.got.tgz:291922.got - 2010.06.03 11:33:40.
