data_PCOD9003556
_publ_section_title
;
Structure prediction by ZEFSAII (Michael W. Deem and Ramdas Pophale) SiO2 
 PCOD9003556
Probable space group: P -1
;
_chemical_formula_sum "Si O2"
_cell_formula_units_Z 12
_cell_length_a 5.159619
_cell_length_b 17.249461
_cell_length_c 5.129410
_cell_angle_alpha 92.270539
_cell_angle_beta 96.017398
_cell_angle_gamma 115.162277
_cell_volume 409.122192
_symmetry_space_group_name_H-M "P -1"
_symmetry_group_IT_number 2
_symmetry_cell_setting 'triclinic'
loop_
_space_group_symop_operation_xyz
x,y,z
-x,-y,-z
loop_
_atom_site_type_symbol
_atom_site_label
_atom_site_fract_x
_atom_site_fract_y
_atom_site_fract_z
Si Si1 0.972922 0.425432 0.683224
Si Si2 0.434954 0.382477 0.947862
Si Si3 0.442644 0.216422 0.826780
Si Si4 0.972265 0.284744 0.289174
Si Si5 0.059832 0.888671 0.850078
Si Si6 0.404839 0.055086 0.689819
O O1 0.765924 0.422054 0.900000
O O2 0.000000 0.500000 0.500000
O O3 0.282877 0.436951 0.815351
O O4 0.872354 0.335603 0.496801
O O5 0.338582 0.290399 0.777361
O O6 0.287386 0.350573 0.211223
O O7 0.422876 0.145885 0.602267
O O8 0.748026 0.263197 0.017364
O O9 0.214313 0.152492 0.999739
O O10 0.959410 0.191574 0.337854
O O11 0.104716 0.979455 0.747678
O O12 0.348809 0.913441 0.056688
O O13 0.500000 0.000000 0.500000
#
# Coordination Sequence:
#
# PCOD9003556 Si02
#       6
#     2   2   2   2   2   2
#     4  12  28  47  74 107 138 181 233 285 355 423
#     4  11  25  47  70 104 141 179 234 284 346 423
#     4  10  21  44  65  97 138 183 229 281 345 400
#     4  10  24  45  71 100 141 188 224 293 343 405
#     4   9  21  38  60  93 137 175 233 273 338 401
#     4  10  21  37  60  96 134 181 225 283 332 399
#
# _framework density 29.33109
#
# number of rings (size 3 to 8) (size 9 to 14) (size 15 to 20)
#    0.000    1.667    1.667    1.000    7.000    2.000 
#    0.000    0.000    0.000    0.000    0.000    0.000 
#    0.000    0.000    0.000    0.000    0.000    0.000 
#
# Total GULP energy -67257.938442 kJ/mol
# GULP energy per Si atom -5604.828204 kJ/mol
# Density = 2.926433 g / cm^3
# Si number density = 29.331090 Si / 1000 Ang^3
#
#
#
# Elastic Constant Matrix: (Units=GPa)
#
#
# Indices 1 2 3 4 5 6 
#
# 1 167.0841 55.8913 39.5527 -4.8322 -26.1008 4.0441
# 2 55.8913 200.4055 42.7587 7.7275 5.2047 -30.1786
# 3 39.5527 42.7587 89.1165 16.4673 -17.1099 4.7696
# 4 -4.8322 7.7275 16.4673 63.1728 2.1340 -0.7188
# 5 -26.1008 5.2047 -17.1099 2.1340 61.3047 -1.0328
# 6 4.0441 -30.1786 4.7696 -0.7188 -1.0328 68.9334
#
#
#
# Elastic Compliance Matrix: (Units=1/GPa)
#
#
# Indices 1 2 3 4 5 6 
#
# 1 0.007635 -0.001973 -0.002083 0.001262 0.002774 -0.001113
# 2 -0.001973 0.006706 -0.002911 -0.000103 -0.002164 0.003220
# 3 -0.002083 -0.002911 0.015081 -0.003883 0.003668 -0.002181
# 4 0.001262 -0.000103 -0.003883 0.016992 -0.001124 0.000310
# 5 0.002774 -0.002164 0.003668 -0.001124 0.018721 -0.001095
# 6 -0.001113 0.003220 -0.002181 0.000310 -0.001095 0.016119
#
#
# Mechanical properties :
#
#
# Convention : Reuss Voigt Hill
#
# Bulk Modulus (GPa) = 64.56486 81.44574 73.00530
# Shear Modulus (GPa) = 49.82507 59.90907 54.86707
#
# Velocity S-wave (km/s) = 4.12601 4.52432 4.32975
# Velocity P-wave (km/s) = 6.69021 7.42432 7.06681
#
# Compressibility (1/GPa) = 0.01548830
#
# Stress axis : x y z
#
# Youngs Moduli (GPa) = 130.97704 149.11514 66.30971
#
# Poissons Ratio (x) = 0.29424 0.13811
# Poissons Ratio (y) = 0.25845 0.19301
# Poissons Ratio (z) = 0.27281 0.43403
#
# Static dielectric constant tensor:
#      x y z
#    x 2.312310 -0.029240 0.006090 
#    y -0.029240 2.421450 0.013550 
#    z 0.006090 0.013550 2.320490 
# 
# From -- ./inp_files/4543.got.cif
#   From: 2010.05.17/outbox.cif.g08.bks.cpg/sg2_3_cif.got.tgz:4543.got - 2010.06.03 11:33:40.
