data_PCOD9003079
_publ_section_title
;
Structure prediction by ZEFSAII (Michael W. Deem and Ramdas Pophale) SiO2 
 PCOD9003079
Probable space group: P -1
;
_chemical_formula_sum "Si O2"
_cell_formula_units_Z 16
_cell_length_a 5.342803
_cell_length_b 18.083386
_cell_length_c 9.568480
_cell_angle_alpha 96.714776
_cell_angle_beta 83.530430
_cell_angle_gamma 56.937163
_cell_volume 751.964219
_symmetry_space_group_name_H-M "P -1"
_symmetry_group_IT_number 2
_symmetry_cell_setting 'triclinic'
loop_
_space_group_symop_operation_xyz
x,y,z
-x,-y,-z
loop_
_atom_site_type_symbol
_atom_site_label
_atom_site_fract_x
_atom_site_fract_y
_atom_site_fract_z
Si Si1 0.800804 0.510472 0.172067
Si Si2 0.201940 0.680936 0.306000
Si Si3 0.773447 0.029145 0.890965
Si Si4 0.052325 0.695307 0.630140
Si Si5 0.765807 0.580435 0.636084
Si Si6 0.931003 0.638446 0.058014
Si Si7 0.872124 0.853765 0.885960
Si Si8 0.698187 0.200565 0.887604
O O1 0.508125 0.581389 0.297635
O O2 0.787318 0.581077 0.080521
O O3 0.110719 0.464576 0.230287
O O4 0.801061 0.429823 0.079814
O O5 0.050285 0.720247 0.473225
O O6 0.246012 0.749664 0.229433
O O7 0.028664 0.656720 0.202189
O O8 0.795682 0.100797 0.816020
O O9 0.858572 0.932698 0.812849
O O10 0.437269 0.089195 0.992004
O O11 0.000000 0.000000 0.000000
O O12 0.410655 0.625647 0.636521
O O13 0.857127 0.652270 0.639444
O O14 0.912547 0.779221 0.762055
O O15 0.000000 0.500000 0.500000
O O16 0.662210 0.734659 0.040696
O O17 0.130935 0.808780 0.980529
#
# Coordination Sequence:
#
# PCOD9003079 Si02
#       8
#     2   2   2   2   2   2   2   2
#     4  10  22  36  59  84 123 176 223 273 314 376
#     4  11  23  39  58  90 130 172 215 269 328 382
#     4   9  20  40  69  96 129 157 210 274 335 394
#     4  12  28  41  69  96 136 176 223 274 329 391
#     4  12  25  44  63  92 135 181 227 266 323 379
#     4  10  21  37  57  87 126 166 224 266 323 379
#     4  10  22  42  67 101 125 165 214 274 330 397
#     4  10  21  38  65  92 126 167 213 268 329 390
#
# _framework density 21.277609000000002
#
# number of rings (size 3 to 8) (size 9 to 14) (size 15 to 20)
#    0.000    1.500    1.250    3.000   10.500    0.000 
#    0.000    0.625    0.000   10.500    0.000    0.000 
#    0.000    0.000    0.000    0.000    0.000    0.000 
#
# Total GULP energy -89255.325312 kJ/mol
# GULP energy per Si atom -5578.457832 kJ/mol
# Density = 2.122918 g / cm^3
# Si number density = 21.277609 Si / 1000 Ang^3
#
#
#
# Elastic Constant Matrix: (Units=GPa)
#
#
# Indices 1 2 3 4 5 6 
#
# 1 49.0396 15.4116 2.7067 -8.7523 7.6301 -1.1591
# 2 15.4116 112.0260 23.8598 -11.5949 2.9608 14.9822
# 3 2.7067 23.8598 91.9663 -8.6737 5.5246 11.6276
# 4 -8.7523 -11.5949 -8.6737 27.9315 2.1489 6.7745
# 5 7.6301 2.9608 5.5246 2.1489 21.4253 -2.8588
# 6 -1.1591 14.9822 11.6276 6.7745 -2.8588 36.0958
#
#
#
# Elastic Compliance Matrix: (Units=1/GPa)
#
#
# Indices 1 2 3 4 5 6 
#
# 1 0.023921 -0.002393 0.001338 0.007860 -0.009441 -0.000892
# 2 -0.002393 0.010767 -0.001582 0.004544 -0.001350 -0.004996
# 3 0.001338 -0.001582 0.012607 0.005176 -0.004655 -0.004702
# 4 0.007860 0.004544 0.005176 0.045702 -0.011047 -0.012753
# 5 -0.009441 -0.001350 -0.004655 -0.011047 0.053608 0.008076
# 6 -0.000892 -0.004996 -0.004702 -0.012753 0.008076 0.034297
#
#
# Mechanical properties :
#
#
# Convention : Reuss Voigt Hill
#
# Bulk Modulus (GPa) = 23.79780 37.44310 30.62045
# Shear Modulus (GPa) = 24.97732 31.16076 28.06904
#
# Velocity S-wave (km/s) = 3.42991 3.83101 3.63599
# Velocity P-wave (km/s) = 5.18598 6.09955 5.66122
#
# Compressibility (1/GPa) = 0.04202070
#
# Stress axis : x y z
#
# Youngs Moduli (GPa) = 41.80490 92.87835 79.32236
#
# Poissons Ratio (x) = 0.22230 -0.10615
# Poissons Ratio (y) = 0.10006 0.12545
# Poissons Ratio (z) = -0.05594 0.14689
#
# Static dielectric constant tensor:
#      x y z
#    x 1.728980 0.111700 -0.001130 
#    y 0.111700 1.774490 0.000320 
#    z -0.001130 0.000320 1.812760 
# 
# From -- ./inp_files/82577.got.cif
#   From: 2010.05.17/outbox.cif.g08.bks.cpg/sg2_42_cif.got.tgz:82577.got - 2010.06.03 11:33:40.
