data_PCOD9003510
_publ_section_title
;
Structure prediction by ZEFSAII (Michael W. Deem and Ramdas Pophale) SiO2 
 PCOD9003510
Probable space group: P -1
;
_chemical_formula_sum "Si O2"
_cell_formula_units_Z 16
_cell_length_a 16.727227
_cell_length_b 6.984314
_cell_length_c 7.564284
_cell_angle_alpha 120.536287
_cell_angle_beta 104.841218
_cell_angle_gamma 54.935813
_cell_volume 622.211620
_symmetry_space_group_name_H-M "P -1"
_symmetry_group_IT_number 2
_symmetry_cell_setting 'triclinic'
loop_
_space_group_symop_operation_xyz
x,y,z
-x,-y,-z
loop_
_atom_site_type_symbol
_atom_site_label
_atom_site_fract_x
_atom_site_fract_y
_atom_site_fract_z
Si Si1 0.393242 0.501525 0.782796
Si Si2 0.910500 0.541831 0.803187
Si Si3 0.195686 0.565247 0.584188
Si Si4 0.104619 0.760569 0.003591
Si Si5 0.875991 0.860822 0.246768
Si Si6 0.567582 0.236210 0.525049
Si Si7 0.696191 0.402073 0.844150
Si Si8 0.670333 0.933307 0.132304
O O1 0.307888 0.482140 0.626746
O O2 0.499396 0.274225 0.668885
O O3 0.370824 0.518738 0.983453
O O4 0.375419 0.789935 0.864279
O O5 0.832782 0.594110 0.634714
O O6 0.022236 0.364027 0.714480
O O7 0.907415 0.379418 0.895439
O O8 0.889112 0.800668 0.014127
O O9 0.151901 0.600589 0.772233
O O10 0.141020 0.855655 0.601291
O O11 0.191041 0.796183 0.137846
O O12 0.000000 0.000000 0.000000
O O13 0.776145 0.871013 0.225991
O O14 0.500000 0.500000 0.500000
O O15 0.604351 0.996239 0.299574
O O16 0.658745 0.261720 0.634311
O O17 0.682762 0.683262 0.918108
#
# Coordination Sequence:
#
# PCOD9003510 Si02
#       8
#     2   2   2   2   2   2   2   2
#     4   9  22  42  64  95 132 163 224 272 321 403
#     4  11  22  39  65  86 129 174 204 270 328 369
#     4  10  22  41  63  89 127 173 207 265 330 380
#     4  11  23  39  64  99 126 169 227 256 325 403
#     4  10  21  37  60  92 121 162 221 256 310 399
#     4  10  23  41  67 100 123 170 224 264 334 402
#     4  11  23  43  66  91 137 172 207 284 327 378
#     4  10  22  40  66  94 128 170 219 265 327 400
#
# _framework density 25.714722999999999
#
# number of rings (size 3 to 8) (size 9 to 14) (size 15 to 20)
#    0.000    1.750    2.500    0.750    5.250    2.500 
#    0.000   15.000    0.000    0.000    0.000    0.000 
#    0.000    0.000    0.000    0.000    0.000    0.000 
#
# Total GULP energy -89468.301569 kJ/mol
# GULP energy per Si atom -5591.768848 kJ/mol
# Density = 2.565620 g / cm^3
# Si number density = 25.714723 Si / 1000 Ang^3
#
#
#
# Elastic Constant Matrix: (Units=GPa)
#
#
# Indices 1 2 3 4 5 6 
#
# 1 108.2882 13.4600 10.5753 -1.5860 -15.7935 -8.6743
# 2 13.4600 64.1092 4.6661 8.8568 1.2456 0.3857
# 3 10.5753 4.6661 86.4834 -8.6228 24.8674 -10.9766
# 4 -1.5860 8.8568 -8.6228 35.8309 -3.6550 -1.9547
# 5 -15.7935 1.2456 24.8674 -3.6550 34.6357 2.2977
# 6 -8.6743 0.3857 -10.9766 -1.9547 2.2977 39.5809
#
#
#
# Elastic Compliance Matrix: (Units=1/GPa)
#
#
# Indices 1 2 3 4 5 6 
#
# 1 0.011019 -0.002401 -0.003061 0.001161 0.007350 0.001220
# 2 -0.002401 0.016840 -0.000758 -0.004669 -0.001580 -0.001039
# 3 -0.003061 -0.000758 0.016754 0.002984 -0.013408 0.004909
# 4 0.001161 -0.004669 0.002984 0.030130 0.001567 0.002524
# 5 0.007350 -0.001580 -0.013408 0.001567 0.042369 -0.004474
# 6 0.001220 -0.001039 0.004909 0.002524 -0.004474 0.027288
#
#
# Mechanical properties :
#
#
# Convention : Reuss Voigt Hill
#
# Bulk Modulus (GPa) = 31.08240 35.14264 33.11252
# Shear Modulus (GPa) = 29.83961 37.35480 33.59721
#
# Velocity S-wave (km/s) = 3.41017 3.81552 3.61852
# Velocity P-wave (km/s) = 5.25541 5.75386 5.51027
#
# Compressibility (1/GPa) = 0.03217255
#
# Stress axis : x y z
#
# Youngs Moduli (GPa) = 90.75536 59.38347 59.68784
#
# Poissons Ratio (x) = 0.14259 0.18268
# Poissons Ratio (y) = 0.21792 0.04525
# Poissons Ratio (z) = 0.27776 0.04502
#
# Static dielectric constant tensor:
#      x y z
#    x 1.975430 0.041190 -0.034290 
#    y 0.041190 2.062680 0.028460 
#    z -0.034290 0.028460 1.986160 
# 
# From -- ./inp_files/329632.got.cif
#   From: 2010.05.17/outbox.cif.g08.bks.cpg/sg2_165_cif.got.tgz:329632.got - 2010.06.03 11:33:40.
