data_PCOD9003515
_publ_section_title
;
Structure prediction by ZEFSAII (Michael W. Deem and Ramdas Pophale) SiO2 
 PCOD9003515
Probable space group: P -1
;
_chemical_formula_sum "Si O2"
_cell_formula_units_Z 14
_cell_length_a 9.056945
_cell_length_b 12.012079
_cell_length_c 5.345577
_cell_angle_alpha 98.056208
_cell_angle_beta 93.939437
_cell_angle_gamma 95.240144
_cell_volume 571.451731
_symmetry_space_group_name_H-M "P -1"
_symmetry_group_IT_number 2
_symmetry_cell_setting 'triclinic'
loop_
_space_group_symop_operation_xyz
x,y,z
-x,-y,-z
loop_
_atom_site_type_symbol
_atom_site_label
_atom_site_fract_x
_atom_site_fract_y
_atom_site_fract_z
Si Si1 0.384557 0.402644 0.232055
Si Si2 0.646154 0.741590 0.301010
Si Si3 0.683813 0.207930 0.687591
Si Si4 0.705062 0.402849 0.425889
Si Si5 0.113648 0.173748 0.004186
Si Si6 0.870106 0.011216 0.691154
Si Si7 0.063965 0.619898 0.933134
O O1 0.352408 0.318414 0.444775
O O2 0.562854 0.429607 0.260338
O O3 0.309254 0.515222 0.316043
O O4 0.347825 0.352185 0.943418
O O5 0.488363 0.792221 0.252748
O O6 0.786777 0.823270 0.236033
O O7 0.683103 0.270867 0.442605
O O8 0.738558 0.085060 0.621835
O O9 0.804990 0.296577 0.880851
O O10 0.861311 0.419042 0.321111
O O11 0.185467 0.104874 0.211070
O O12 0.958088 0.097476 0.925071
O O13 0.064641 0.297117 0.098634
O O14 0.000000 0.000000 0.500000
O O15 0.000000 0.500000 0.000000
#
# Coordination Sequence:
#
# PCOD9003515 Si02
#       7
#     2   2   2   2   2   2   2
#     4  10  23  37  67  91 141 168 216 261 329 383
#     4  11  23  44  64 102 126 174 215 274 322 390
#     4  10  23  40  66  90 128 168 222 265 326 379
#     4  10  21  37  60  92 124 182 209 266 314 394
#     4  10  24  40  66  93 129 168 220 268 331 384
#     4  10  22  45  66  90 126 174 217 273 324 390
#     4  11  22  39  60  95 132 168 213 265 324 396
#
# _framework density 24.499006999999999
#
# number of rings (size 3 to 8) (size 9 to 14) (size 15 to 20)
#    0.000    1.714    1.429    1.714    6.000    2.857 
#    0.000    0.714    0.000    0.000    0.000    0.000 
#    0.000    0.000    0.000    0.000    0.000    0.000 
#
# Total GULP energy -78116.923899 kJ/mol
# GULP energy per Si atom -5579.780278 kJ/mol
# Density = 2.444325 g / cm^3
# Si number density = 24.499007 Si / 1000 Ang^3
#
#
#
# Elastic Constant Matrix: (Units=GPa)
#
#
# Indices 1 2 3 4 5 6 
#
# 1 125.7169 71.8182 22.1680 -10.2667 -33.3861 -18.9300
# 2 71.8182 191.4593 44.8074 -19.7710 -24.4668 -36.0142
# 3 22.1680 44.8074 68.9620 -16.7925 -24.9663 -6.4054
# 4 -10.2667 -19.7710 -16.7925 34.0982 9.3659 0.4168
# 5 -33.3861 -24.4668 -24.9663 9.3659 48.0251 10.1827
# 6 -18.9300 -36.0142 -6.4054 0.4168 10.1827 50.5550
#
#
#
# Elastic Compliance Matrix: (Units=1/GPa)
#
#
# Indices 1 2 3 4 5 6 
#
# 1 0.011747 -0.003699 0.001142 0.000097 0.006740 0.000550
# 2 -0.003699 0.008367 -0.003916 0.002226 -0.001713 0.004406
# 3 0.001142 -0.003916 0.021278 0.006100 0.008995 -0.001528
# 4 0.000097 0.002226 0.006100 0.034418 -0.002912 0.002697
# 5 0.006740 -0.001713 0.008995 -0.002912 0.030665 -0.003709
# 6 0.000550 0.004406 -0.001528 0.002697 -0.003709 0.023656
#
#
# Mechanical properties :
#
#
# Convention : Reuss Voigt Hill
#
# Bulk Modulus (GPa) = 35.15554 73.74727 54.45140
# Shear Modulus (GPa) = 32.77440 43.02530 37.89985
#
# Velocity S-wave (km/s) = 3.66154 4.19526 3.93745
# Velocity P-wave (km/s) = 5.67951 7.32355 6.55329
#
# Compressibility (1/GPa) = 0.02844502
#
# Stress axis : x y z
#
# Youngs Moduli (GPa) = 85.13122 119.52215 46.99713
#
# Poissons Ratio (x) = 0.44209 -0.05366
# Poissons Ratio (y) = 0.31488 0.18405
# Poissons Ratio (z) = -0.09721 0.46806
#
# Static dielectric constant tensor:
#      x y z
#    x 2.034020 0.099450 0.092290 
#    y 0.099450 2.051730 -0.005330 
#    z 0.092290 -0.005330 2.016800 
# 
# From -- ./inp_files/26820.got.cif
#   From: 2010.05.17/outbox.cif.g08.bks.cpg/sg2_14_cif.got.tgz:26820.got - 2010.06.03 11:33:40.
