data_PCOD9003784
_publ_section_title
;
Structure prediction by ZEFSAII (Michael W. Deem and Ramdas Pophale) SiO2 
 PCOD9003784
Probable space group: P -1
;
_chemical_formula_sum "Si O2"
_cell_formula_units_Z 16
_cell_length_a 12.504618
_cell_length_b 14.438660
_cell_length_c 10.619722
_cell_angle_alpha 132.104752
_cell_angle_beta 38.703980
_cell_angle_gamma 133.559766
_cell_volume 830.716998
_symmetry_space_group_name_H-M "P -1"
_symmetry_group_IT_number 2
_symmetry_cell_setting 'triclinic'
loop_
_space_group_symop_operation_xyz
x,y,z
-x,-y,-z
loop_
_atom_site_type_symbol
_atom_site_label
_atom_site_fract_x
_atom_site_fract_y
_atom_site_fract_z
Si Si1 0.041186 0.459681 0.228165
Si Si2 0.488163 0.901626 0.804444
Si Si3 0.101770 0.995417 0.774222
Si Si4 0.897263 0.910574 0.398674
Si Si5 0.277398 0.396054 0.744119
Si Si6 0.862121 0.283891 0.455569
Si Si7 0.677564 0.400957 0.340973
Si Si8 0.488707 0.884583 0.502952
O O1 0.002967 0.348743 0.272082
O O2 0.852025 0.435236 0.303333
O O3 0.104182 0.603125 0.368143
O O4 0.196098 0.449348 0.984230
O O5 0.695503 0.914988 0.601421
O O6 0.367382 0.748479 0.808544
O O7 0.431250 0.917776 0.725767
O O8 0.500000 0.000000 0.000000
O O9 0.121366 0.850221 0.624031
O O10 0.010461 0.023056 0.756556
O O11 0.303848 0.110804 0.686898
O O12 0.000000 0.000000 0.000000
O O13 0.862758 0.754040 0.291224
O O14 0.000000 0.000000 0.500000
O O15 0.483072 0.394988 0.575025
O O16 0.283521 0.490076 0.705255
O O17 0.665210 0.243953 0.531248
O O18 0.500000 0.000000 0.500000
#
# Coordination Sequence:
#
# PCOD9003784 Si02
#       8
#     2   2   2   2   2   2   2   2
#     4  11  22  40  65  87 125 166 204 257 306 370
#     4  10  21  37  62  90 116 159 202 248 316 362
#     4  10  21  39  62  87 123 161 199 255 317 361
#     4  10  23  37  58  90 122 154 204 260 303 372
#     4  10  23  41  61  88 124 167 204 252 319 363
#     4  10  22  39  60  93 115 159 216 244 310 380
#     4  10  22  41  62  88 128 158 209 258 299 377
#     4   9  19  38  58  83 124 151 193 257 290 366
#
# _framework density 19.260470000000002
#
# number of rings (size 3 to 8) (size 9 to 14) (size 15 to 20)
#    0.000    2.000    1.250    1.125    3.500    5.000 
#    2.250    1.250    0.000    0.000    0.000    0.000 
#    0.000    0.000    0.000    0.000    0.000    0.000 
#
# Total GULP energy -89174.991974 kJ/mol
# GULP energy per Si atom -5573.436998 kJ/mol
# Density = 1.921663 g / cm^3
# Si number density = 19.260470 Si / 1000 Ang^3
#
#
#
# Elastic Constant Matrix: (Units=GPa)
#
#
# Indices 1 2 3 4 5 6 
#
# 1 86.3912 56.3744 49.0638 10.5437 28.9352 12.2134
# 2 56.3744 128.4051 60.9797 3.9372 22.7181 -0.0693
# 3 49.0638 60.9797 122.7071 -4.6452 26.7033 6.7300
# 4 10.5437 3.9372 -4.6452 21.0864 1.4043 7.1318
# 5 28.9352 22.7181 26.7033 1.4043 25.8817 0.5491
# 6 12.2134 -0.0693 6.7300 7.1318 0.5491 36.8293
#
#
#
# Elastic Compliance Matrix: (Units=1/GPa)
#
#
# Indices 1 2 3 4 5 6 
#
# 1 0.025900 -0.006165 -0.002992 -0.009110 -0.019837 -0.005994
# 2 -0.006165 0.012373 -0.003901 -0.001103 0.000053 0.002993
# 3 -0.002992 -0.003901 0.013235 0.006493 -0.007184 -0.002584
# 4 -0.009110 -0.001103 0.006493 0.056606 0.001578 -0.009152
# 5 -0.019837 0.000053 -0.007184 0.001578 0.067955 0.006572
# 6 -0.005994 0.002993 -0.002584 -0.009152 0.006572 0.031292
#
#
# Mechanical properties :
#
#
# Convention : Reuss Voigt Hill
#
# Bulk Modulus (GPa) = 39.38084 74.48214 56.93149
# Shear Modulus (GPa) = 20.66609 28.16517 24.41563
#
# Velocity S-wave (km/s) = 3.27919 3.82819 3.56428
# Velocity P-wave (km/s) = 5.90155 7.63512 6.82361
#
# Compressibility (1/GPa) = 0.02539306
#
# Stress axis : x y z
#
# Youngs Moduli (GPa) = 38.60944 80.81951 75.55505
#
# Poissons Ratio (x) = 0.49822 0.22606
# Poissons Ratio (y) = 0.23801 0.29477
# Poissons Ratio (z) = 0.11552 0.31531
#
# Static dielectric constant tensor:
#      x y z
#    x 1.787790 0.005440 -0.019280 
#    y 0.005440 1.690840 -0.018260 
#    z -0.019280 -0.018260 1.658840 
# 
# From -- ./inp_files/175141.got.cif
#   From: 2010.05.17/outbox.cif.g08.bks.cpg/sg2_88_cif.got.tgz:175141.got - 2010.06.03 11:33:40.
