data_PCOD9003285
_publ_section_title
;
Structure prediction by ZEFSAII (Michael W. Deem and Ramdas Pophale) SiO2 
 PCOD9003285
Probable space group: P -1
;
_chemical_formula_sum "Si O2"
_cell_formula_units_Z 12
_cell_length_a 11.865670
_cell_length_b 14.217989
_cell_length_c 14.051183
_cell_angle_alpha 35.576370
_cell_angle_beta 29.959147
_cell_angle_gamma 32.160327
_cell_volume 600.986607
_symmetry_space_group_name_H-M "P -1"
_symmetry_group_IT_number 2
_symmetry_cell_setting 'triclinic'
loop_
_space_group_symop_operation_xyz
x,y,z
-x,-y,-z
loop_
_atom_site_type_symbol
_atom_site_label
_atom_site_fract_x
_atom_site_fract_y
_atom_site_fract_z
Si Si1 0.249663 0.857890 0.995045
Si Si2 0.609159 0.986179 0.061330
Si Si3 0.923807 0.873472 0.727115
Si Si4 0.459788 0.747249 0.495237
Si Si5 0.658264 0.921054 0.546640
Si Si6 0.145188 0.579487 0.393138
O O1 0.272683 0.661486 0.160345
O O2 0.507473 0.828132 0.781748
O O3 0.244292 0.961435 0.010873
O O4 0.000000 0.000000 0.000000
O O5 0.581511 0.810969 0.266584
O O6 0.304103 0.144067 0.146187
O O7 0.233919 0.044281 0.126387
O O8 0.215601 0.720676 0.666119
O O9 0.000000 0.000000 0.500000
O O10 0.669027 0.571527 0.543854
O O11 0.359212 0.918759 0.502915
O O12 0.941964 0.763132 0.445635
O O13 0.500000 0.000000 0.500000
O O14 0.000000 0.500000 0.500000
#
# Coordination Sequence:
#
# PCOD9003285 Si02
#       6
#     2   2   2   2   2   2
#     4  11  22  37  61  87 120 163 196 242 304 355
#     4   9  19  37  61  88 118 156 203 243 298 358
#     4   9  18  35  63  88 114 157 200 247 298 351
#     4  10  21  37  59  87 120 156 199 246 296 351
#     4  11  21  39  57  83 124 159 193 244 294 351
#     4  12  23  37  57  89 122 159 205 243 294 357
#
# _framework density 19.967165999999999
#
# number of rings (size 3 to 8) (size 9 to 14) (size 15 to 20)
#    0.000    1.667    3.333    2.000    0.000    2.000 
#    0.000    0.833    0.000   41.000    0.000    0.000 
#    0.000    0.000    0.000    0.000    0.000    0.000 
#
# Total GULP energy -66840.522029 kJ/mol
# GULP energy per Si atom -5570.043502 kJ/mol
# Density = 1.992172 g / cm^3
# Si number density = 19.967166 Si / 1000 Ang^3
#
#
#
# Elastic Constant Matrix: (Units=GPa)
#
#
# Indices 1 2 3 4 5 6 
#
# 1 117.4182 24.7262 31.6323 4.6376 -4.2901 -27.2592
# 2 24.7262 74.8319 31.6312 3.1167 2.8124 -27.0475
# 3 31.6323 31.6312 119.3291 -0.0229 7.4607 -8.9070
# 4 4.6376 3.1167 -0.0229 24.8555 -0.9048 0.5856
# 5 -4.2901 2.8124 7.4607 -0.9048 37.3439 10.0717
# 6 -27.2592 -27.0475 -8.9070 0.5856 10.0717 36.6229
#
#
#
# Elastic Compliance Matrix: (Units=1/GPa)
#
#
# Indices 1 2 3 4 5 6 
#
# 1 0.011032 0.000421 -0.002397 -0.002324 -0.000532 0.008122
# 2 0.000421 0.021310 -0.004198 -0.003335 -0.005256 0.016529
# 3 -0.002397 -0.004198 0.010061 0.000981 -0.001386 -0.002072
# 4 -0.002324 -0.003335 0.000981 0.041288 0.002196 -0.005218
# 5 -0.000532 -0.005256 -0.001386 0.002196 0.030996 -0.013175
# 6 0.008122 0.016529 -0.002072 -0.005218 -0.013175 0.048761
#
#
# Mechanical properties :
#
#
# Convention : Reuss Voigt Hill
#
# Bulk Modulus (GPa) = 33.27476 54.17320 43.72398
# Shear Modulus (GPa) = 26.90862 34.67042 30.78952
#
# Velocity S-wave (km/s) = 3.67501 4.17150 3.93110
# Velocity P-wave (km/s) = 5.89139 7.09873 6.52305
#
# Compressibility (1/GPa) = 0.03005281
#
# Stress axis : x y z
#
# Youngs Moduli (GPa) = 90.64824 46.92703 99.39757
#
# Poissons Ratio (x) = -0.01973 0.23822
# Poissons Ratio (y) = -0.03812 0.41731
# Poissons Ratio (z) = 0.21725 0.19702
#
# Static dielectric constant tensor:
#      x y z
#    x 1.846900 -0.026180 0.095700 
#    y -0.026180 1.691520 -0.015140 
#    z 0.095700 -0.015140 1.823490 
# 
# From -- ./inp_files/520701.got.cif
#   From: 2010.05.17/outbox.cif.g08.bks.cpg/sg2_261_cif.got.tgz:520701.got - 2010.06.03 11:33:40.
