data_PCOD9003349
_publ_section_title
;
Structure prediction by ZEFSAII (Michael W. Deem and Ramdas Pophale) SiO2 
 PCOD9003349
Probable space group: P -1
;
_chemical_formula_sum "Si O2"
_cell_formula_units_Z 16
_cell_length_a 11.473020
_cell_length_b 9.769139
_cell_length_c 7.342130
_cell_angle_alpha 131.305730
_cell_angle_beta 84.145304
_cell_angle_gamma 96.990344
_cell_volume 613.319458
_symmetry_space_group_name_H-M "P -1"
_symmetry_group_IT_number 2
_symmetry_cell_setting 'triclinic'
loop_
_space_group_symop_operation_xyz
x,y,z
-x,-y,-z
loop_
_atom_site_type_symbol
_atom_site_label
_atom_site_fract_x
_atom_site_fract_y
_atom_site_fract_z
Si Si1 0.807281 0.514063 0.241925
Si Si2 0.659519 0.900608 0.368313
Si Si3 0.153328 0.057965 0.382742
Si Si4 0.050583 0.531603 0.318879
Si Si5 0.717623 0.151916 0.112118
Si Si6 0.300681 0.448599 0.102382
Si Si7 0.454411 0.782063 0.525411
Si Si8 0.078471 0.955440 0.762607
O O1 0.825789 0.727222 0.486893
O O2 0.756717 0.366647 0.265956
O O3 0.941970 0.466272 0.149841
O O4 0.729600 0.498101 0.056355
O O5 0.799577 0.934606 0.409747
O O6 0.589545 0.809750 0.473775
O O7 0.606113 0.084914 0.488618
O O8 0.643467 0.744086 0.083939
O O9 0.024172 0.971497 0.288464
O O10 0.246719 0.939412 0.161396
O O11 0.169453 0.432586 0.189627
O O12 0.078497 0.748360 0.496999
O O13 0.000000 0.500000 0.500000
O O14 0.587016 0.155581 0.215783
O O15 0.794835 0.048150 0.156230
O O16 0.391012 0.587389 0.313379
O O17 0.000000 0.000000 0.000000
#
# Coordination Sequence:
#
# PCOD9003349 Si02
#       8
#     2   2   2   2   2   2   2   2
#     4  10  21  37  59  90 128 161 192 243 302 369
#     4  10  24  44  60  87 119 162 206 255 301 358
#     4   9  21  38  59  86 124 156 198 246 301 357
#     4  11  19  35  58  88 125 158 197 239 295 366
#     4  11  20  38  62  90 120 161 200 249 300 356
#     4  11  22  40  61  89 124 160 203 247 305 358
#     4  11  23  41  65  85 118 161 210 252 305 353
#     4   9  18  33  56  83 120 152 187 238 294 355
#
# _framework density 26.087547000000001
#
# number of rings (size 3 to 8) (size 9 to 14) (size 15 to 20)
#    0.000    1.750    2.500    1.500    0.000    4.500 
#    0.000    3.125    0.000    0.000    0.000    0.000 
#    0.000    0.000    0.000    0.000    0.000    0.000 
#
# Total GULP energy -89247.095650 kJ/mol
# GULP energy per Si atom -5577.943478 kJ/mol
# Density = 2.602817 g / cm^3
# Si number density = 26.087547 Si / 1000 Ang^3
#
#
#
# Elastic Constant Matrix: (Units=GPa)
#
#
# Indices 1 2 3 4 5 6 
#
# 1 96.1300 -6.1010 7.2993 13.3570 2.5427 19.5415
# 2 -6.1010 69.8519 -6.0264 16.2982 -1.3781 3.6246
# 3 7.2993 -6.0264 67.4271 18.8499 -4.0971 1.0785
# 4 13.3570 16.2982 18.8499 31.0810 -1.6342 5.8448
# 5 2.5427 -1.3781 -4.0971 -1.6342 43.7417 -8.9811
# 6 19.5415 3.6246 1.0785 5.8448 -8.9811 39.0127
#
#
#
# Elastic Compliance Matrix: (Units=1/GPa)
#
#
# Indices 1 2 3 4 5 6 
#
# 1 0.012737 0.002923 0.000623 -0.006328 -0.002100 -0.006204
# 2 0.002923 0.018297 0.005194 -0.013766 0.000129 -0.001216
# 3 0.000623 0.005194 0.019492 -0.014969 0.001659 0.001291
# 4 -0.006328 -0.013766 -0.014969 0.051732 -0.000135 -0.002919
# 5 -0.002100 0.000129 0.001659 -0.000135 0.024504 0.006655
# 6 -0.006204 -0.001216 0.001291 -0.002919 0.006655 0.030787
#
#
# Mechanical properties :
#
#
# Convention : Reuss Voigt Hill
#
# Bulk Modulus (GPa) = 14.70415 24.86143 19.78279
# Shear Modulus (GPa) = 30.72437 38.64957 34.68697
#
# Velocity S-wave (km/s) = 3.43555 3.85324 3.65037
# Velocity P-wave (km/s) = 4.62450 5.41732 5.03653
#
# Compressibility (1/GPa) = 0.06800800
#
# Stress axis : x y z
#
# Youngs Moduli (GPa) = 78.51275 54.65381 51.30180
#
# Poissons Ratio (x) = -0.15976 -0.03197
# Poissons Ratio (y) = -0.22951 -0.26649
# Poissons Ratio (z) = -0.04893 -0.28390
#
# Static dielectric constant tensor:
#      x y z
#    x 2.027410 -0.044440 -0.028050 
#    y -0.044440 1.907920 -0.088120 
#    z -0.028050 -0.088120 2.038860 
# 
# From -- ./inp_files/256033.got.cif
#   From: 2010.05.17/outbox.cif.g08.bks.cpg/sg2_129_cif.got.tgz:256033.got - 2010.06.03 11:33:40.
