data_PCOD9003258
_publ_section_title
;
Structure prediction by ZEFSAII (Michael W. Deem and Ramdas Pophale) SiO2 
 PCOD9003258
Probable space group: P -1
;
_chemical_formula_sum "Si O2"
_cell_formula_units_Z 14
_cell_length_a 18.564425
_cell_length_b 5.914465
_cell_length_c 15.605583
_cell_angle_alpha 65.673398
_cell_angle_beta 159.040236
_cell_angle_gamma 116.420225
_cell_volume 548.878125
_symmetry_space_group_name_H-M "P -1"
_symmetry_group_IT_number 2
_symmetry_cell_setting 'triclinic'
loop_
_space_group_symop_operation_xyz
x,y,z
-x,-y,-z
loop_
_atom_site_type_symbol
_atom_site_label
_atom_site_fract_x
_atom_site_fract_y
_atom_site_fract_z
Si Si1 0.380574 0.966092 0.994697
Si Si2 0.947528 0.516648 0.244537
Si Si3 0.820375 0.637982 0.249388
Si Si4 0.396686 0.404176 0.747611
Si Si5 0.823870 0.358444 0.939717
Si Si6 0.142287 0.169426 0.201281
Si Si7 0.509653 0.110056 0.308559
O O1 0.214123 0.713570 0.860319
O O2 0.230460 0.154494 0.773126
O O3 0.586612 0.889142 0.198559
O O4 0.457971 0.061845 0.159258
O O5 0.900439 0.730345 0.226492
O O6 0.179774 0.474796 0.516790
O O7 0.887167 0.491556 0.081196
O O8 0.000000 0.500000 0.500000
O O9 0.590307 0.475877 0.014786
O O10 0.460238 0.583157 0.703916
O O11 0.750375 0.575777 0.767804
O O12 0.662129 0.095109 0.803984
O O13 0.017751 0.276412 0.121709
O O14 0.284452 0.986895 0.424571
O O15 0.000000 0.000000 0.000000
#
# Coordination Sequence:
#
# PCOD9003258 Si02
#       7
#     2   2   2   2   2   2   2
#     4   9  21  39  61  87 120 157 196 248 300 358
#     4  10  21  39  64  88 120 161 204 245 297 362
#     4  10  23  42  63  92 124 154 195 249 304 361
#     4  10  21  37  61  90 119 159 202 245 300 361
#     4  10  23  40  58  87 122 162 204 248 302 351
#     4  11  23  37  59  89 123 158 204 256 296 349
#     4  10  21  37  59  85 120 158 200 246 298 355
#
# _framework density 25.506571999999998
#
# number of rings (size 3 to 8) (size 9 to 14) (size 15 to 20)
#    0.000    2.000    0.000    2.143    0.000   17.143 
#    0.000    1.429    0.000    0.000    0.000    0.000 
#    0.000    0.000    0.000    0.000    0.000    0.000 
#
# Total GULP energy -78004.227914 kJ/mol
# GULP energy per Si atom -5571.730565 kJ/mol
# Density = 2.544852 g / cm^3
# Si number density = 25.506572 Si / 1000 Ang^3
#
#
#
# Elastic Constant Matrix: (Units=GPa)
#
#
# Indices 1 2 3 4 5 6 
#
# 1 108.2580 20.9153 22.5008 -11.5587 25.0584 -22.1944
# 2 20.9153 82.3837 30.2271 -35.6356 12.8045 -2.8814
# 3 22.5008 30.2271 148.6359 -32.5032 22.5711 -11.3425
# 4 -11.5587 -35.6356 -32.5032 49.3961 -4.4314 4.8718
# 5 25.0584 12.8045 22.5711 -4.4314 35.1932 -12.7315
# 6 -22.1944 -2.8814 -11.3425 4.8718 -12.7315 30.1940
#
#
#
# Elastic Compliance Matrix: (Units=1/GPa)
#
#
# Indices 1 2 3 4 5 6 
#
# 1 0.012261 -0.001822 -0.000053 0.000382 -0.005684 0.006360
# 2 -0.001822 0.019010 -0.000241 0.013047 -0.005245 -0.003932
# 3 -0.000053 -0.000241 0.008618 0.005029 -0.004617 0.000417
# 4 0.000382 0.013047 0.005029 0.032972 -0.005643 -0.004284
# 5 -0.005684 -0.005245 -0.004617 -0.005643 0.040863 0.011728
# 6 0.006360 -0.003932 0.000417 -0.004284 0.011728 0.043212
#
#
# Mechanical properties :
#
#
# Convention : Reuss Voigt Hill
#
# Bulk Modulus (GPa) = 28.04542 54.06267 41.05404
# Shear Modulus (GPa) = 28.89283 40.66563 34.77923
#
# Velocity S-wave (km/s) = 3.36930 3.99723 3.69662
# Velocity P-wave (km/s) = 5.11424 6.52268 5.86092
#
# Compressibility (1/GPa) = 0.03565645
#
# Stress axis : x y z
#
# Youngs Moduli (GPa) = 81.56193 52.60259 116.04204
#
# Poissons Ratio (x) = 0.09583 0.00621
# Poissons Ratio (y) = 0.14859 0.02794
# Poissons Ratio (z) = 0.00436 0.01266
#
# Static dielectric constant tensor:
#      x y z
#    x 2.164060 -0.161460 -0.036730 
#    y -0.161460 2.663860 0.050350 
#    z -0.036730 0.050350 1.991300 
# 
# From -- ./inp_files/576706.got.cif
#   From: 2010.05.17/outbox.cif.g08.bks.cpg/sg2_289_cif.got.tgz:576706.got - 2010.06.03 11:33:40.
