data_PCOD9003856
_publ_section_title
;
Structure prediction by ZEFSAII (Michael W. Deem and Ramdas Pophale) SiO2 
 PCOD9003856
Probable space group: P -1
;
_chemical_formula_sum "Si O2"
_cell_formula_units_Z 16
_cell_length_a 11.974946
_cell_length_b 9.715435
_cell_length_c 11.634385
_cell_angle_alpha 137.104288
_cell_angle_beta 104.675284
_cell_angle_gamma 53.186097
_cell_volume 693.479204
_symmetry_space_group_name_H-M "P -1"
_symmetry_group_IT_number 2
_symmetry_cell_setting 'triclinic'
loop_
_space_group_symop_operation_xyz
x,y,z
-x,-y,-z
loop_
_atom_site_type_symbol
_atom_site_label
_atom_site_fract_x
_atom_site_fract_y
_atom_site_fract_z
Si Si1 0.892144 0.636994 0.234543
Si Si2 0.366422 0.536815 0.555048
Si Si3 0.437867 0.925816 0.038704
Si Si4 0.808651 0.258716 0.757645
Si Si5 0.617532 0.695993 0.162896
Si Si6 0.905059 0.903617 0.182312
Si Si7 0.175012 0.470421 0.293346
Si Si8 0.535506 0.350709 0.698589
O O1 0.735398 0.708640 0.265836
O O2 0.862698 0.818535 0.230768
O O3 0.999877 0.619471 0.345649
O O4 0.999862 0.344682 0.028075
O O5 0.500000 0.500000 0.500000
O O6 0.268655 0.504447 0.426427
O O7 0.447832 0.347333 0.568787
O O8 0.242674 0.835429 0.745095
O O9 0.264147 0.162519 0.137979
O O10 0.517742 0.903771 0.164248
O O11 0.500000 0.000000 0.000000
O O12 0.480786 0.645444 0.861884
O O13 0.807297 0.438753 0.771216
O O14 0.713287 0.179946 0.632926
O O15 0.978633 0.056735 0.715826
O O16 0.719048 0.428773 0.951386
O O17 0.514327 0.696984 0.226577
#
# Coordination Sequence:
#
# PCOD9003856 Si02
#       8
#     2   2   2   2   2   2   2   2
#     4   9  20  37  63  90 122 152 211 254 309 350
#     4  12  24  39  58  91 130 161 208 247 305 367
#     4  11  19  35  66  92 116 151 210 258 299 346
#     4   9  17  36  59  91 117 144 203 257 308 345
#     4  10  21  37  62  94 125 156 200 260 313 358
#     4   9  20  36  63  92 117 157 204 263 298 357
#     4  11  21  36  58  94 117 159 205 256 297 358
#     4  11  22  39  61  92 127 161 201 256 311 360
#
# _framework density 23.072071000000001
#
# number of rings (size 3 to 8) (size 9 to 14) (size 15 to 20)
#    0.000    1.750    3.750    3.000    3.500    2.000 
#    0.000    8.125    0.000    0.000    0.000    0.000 
#    0.000    0.000    0.000    0.000    0.000    0.000 
#
# Total GULP energy -89402.152051 kJ/mol
# GULP energy per Si atom -5587.634503 kJ/mol
# Density = 2.301956 g / cm^3
# Si number density = 23.072071 Si / 1000 Ang^3
#
#
#
# Elastic Constant Matrix: (Units=GPa)
#
#
# Indices 1 2 3 4 5 6 
#
# 1 135.3784 68.7429 21.2246 -0.0380 -0.5889 -29.9821
# 2 68.7429 121.9390 25.0550 -6.8166 -16.2061 -31.4707
# 3 21.2246 25.0550 54.5083 -0.2932 12.1700 -5.6869
# 4 -0.0380 -6.8166 -0.2932 29.8179 -14.0385 -5.9459
# 5 -0.5889 -16.2061 12.1700 -14.0385 36.8219 -5.9034
# 6 -29.9821 -31.4707 -5.6869 -5.9459 -5.9034 49.6394
#
#
#
# Elastic Compliance Matrix: (Units=1/GPa)
#
#
# Indices 1 2 3 4 5 6 
#
# 1 0.011005 -0.005969 -0.000723 -0.002188 -0.002694 0.002198
# 2 -0.005969 0.020896 -0.010578 0.017280 0.021274 0.013030
# 3 -0.000723 -0.010578 0.027023 -0.013101 -0.019873 -0.007980
# 4 -0.002188 0.017280 -0.013101 0.058941 0.037523 0.019655
# 5 -0.002694 0.021274 -0.019873 0.037523 0.060767 0.021305
# 6 0.002198 0.013030 -0.007980 0.019655 0.021305 0.033708
#
#
# Mechanical properties :
#
#
# Convention : Reuss Voigt Hill
#
# Bulk Modulus (GPa) = 41.00849 60.20785 50.60817
# Shear Modulus (GPa) = 19.60724 36.37604 27.99164
#
# Velocity S-wave (km/s) = 2.91834 3.97498 3.48692
# Velocity P-wave (km/s) = 5.40077 6.87165 6.18012
#
# Compressibility (1/GPa) = 0.02438520
#
# Stress axis : x y z
#
# Youngs Moduli (GPa) = 90.86547 47.85719 37.00488
#
# Poissons Ratio (x) = 0.28565 0.02674
# Poissons Ratio (y) = 0.54236 0.39144
# Poissons Ratio (z) = 0.06567 0.50624
#
# Static dielectric constant tensor:
#      x y z
#    x 1.890560 -0.047950 0.125300 
#    y -0.047950 1.822280 0.009610 
#    z 0.125300 0.009610 2.028760 
# 
# From -- ./inp_files/419742.got.cif
#   From: 2010.05.17/outbox.cif.g08.bks.cpg/sg2_210_cif.got.tgz:419742.got - 2010.06.03 11:33:40.
