data_PCOD9003827
_publ_section_title
;
Structure prediction by ZEFSAII (Michael W. Deem and Ramdas Pophale) SiO2 
 PCOD9003827
Probable space group: P -1
;
_chemical_formula_sum "Si O2"
_cell_formula_units_Z 16
_cell_length_a 12.862072
_cell_length_b 11.585504
_cell_length_c 10.481415
_cell_angle_alpha 41.109461
_cell_angle_beta 54.913659
_cell_angle_gamma 85.329449
_cell_volume 635.970506
_symmetry_space_group_name_H-M "P -1"
_symmetry_group_IT_number 2
_symmetry_cell_setting 'triclinic'
loop_
_space_group_symop_operation_xyz
x,y,z
-x,-y,-z
loop_
_atom_site_type_symbol
_atom_site_label
_atom_site_fract_x
_atom_site_fract_y
_atom_site_fract_z
Si Si1 0.657562 0.230724 0.840207
Si Si2 0.803565 0.543078 0.926232
Si Si3 0.273868 0.940247 0.282397
Si Si4 0.031307 0.057913 0.714909
Si Si5 0.598780 0.557615 0.247613
Si Si6 0.541459 0.197125 0.215764
Si Si7 0.746156 0.706363 0.386028
Si Si8 0.832127 0.172089 0.283691
O O1 0.722328 0.482030 0.547694
O O2 0.755544 0.176221 0.735509
O O3 0.458434 0.031927 0.117116
O O4 0.659378 0.232269 0.989719
O O5 0.938765 0.790732 0.554835
O O6 0.732003 0.532933 0.125058
O O7 0.648783 0.426298 0.032520
O O8 0.842702 0.370753 0.044338
O O9 0.148893 0.783799 0.615052
O O10 0.303327 0.173210 0.064087
O O11 0.164434 0.207712 0.611767
O O12 0.049649 0.872620 0.813521
O O13 0.855562 0.910383 0.036194
O O14 0.500000 0.500000 0.500000
O O15 0.441439 0.391791 0.401826
O O16 0.500000 0.000000 0.500000
O O17 0.357696 0.081124 0.389338
#
# Coordination Sequence:
#
# PCOD9003827 Si02
#       8
#     2   2   2   2   2   2   2   2
#     4   9  17  33  57  85 118 163 202 256 316 364
#     4  11  22  38  66  93 128 163 216 270 315 374
#     4   9  19  34  59  87 122 159 211 261 307 374
#     4  11  22  44  65  94 132 172 209 256 325 388
#     4  11  24  39  65  98 125 169 214 272 318 369
#     4   9  18  30  56  92 120 155 205 272 308 360
#     4  10  23  41  66  91 132 171 209 263 321 386
#     4  10  21  37  62  92 124 166 213 262 316 378
#
# _framework density 25.158398999999999
#
# number of rings (size 3 to 8) (size 9 to 14) (size 15 to 20)
#    0.000    2.000    2.500    0.750    8.750    1.000 
#    0.000    5.000    0.000    0.000    0.000    0.000 
#    0.000    0.000    0.000    0.000    0.000    0.000 
#
# Total GULP energy -89419.606708 kJ/mol
# GULP energy per Si atom -5588.725419 kJ/mol
# Density = 2.510114 g / cm^3
# Si number density = 25.158399 Si / 1000 Ang^3
#
#
#
# Elastic Constant Matrix: (Units=GPa)
#
#
# Indices 1 2 3 4 5 6 
#
# 1 58.5016 27.2405 36.8127 -5.0006 -0.2270 7.6630
# 2 27.2405 125.8755 38.8700 34.2239 3.3197 -13.7343
# 3 36.8127 38.8700 152.5301 13.9005 16.3355 -2.9530
# 4 -5.0006 34.2239 13.9005 -13.0809 8.0890 19.3482
# 5 -0.2270 3.3197 16.3355 8.0890 44.4941 -9.3888
# 6 7.6630 -13.7343 -2.9530 19.3482 -9.3888 32.5618
#
#
#
# Elastic Compliance Matrix: (Units=1/GPa)
#
#
# Indices 1 2 3 4 5 6 
#
# 1 0.018927 -0.000441 -0.004004 -0.008753 0.003442 0.001191
# 2 -0.000441 0.006124 -0.002077 0.008377 -0.001855 -0.003014
# 3 -0.004004 -0.002077 0.008267 0.001374 -0.003355 -0.000968
# 4 -0.008753 0.008377 0.001374 -0.018567 0.006107 0.018511
# 5 0.003442 -0.001855 -0.003355 0.006107 0.022985 0.001101
# 6 0.001191 -0.003014 -0.000968 0.018511 0.001101 0.018390
#
#
# Mechanical properties :
#
#
# Convention : Reuss Voigt Hill
#
# Bulk Modulus (GPa) = 49.32187 60.30597 54.81392
# Shear Modulus (GPa) = 65.85333 28.39393 47.12363
#
# Velocity S-wave (km/s) = 5.12175 3.36312 4.33260
# Velocity P-wave (km/s) = 7.39077 6.25326 6.84568
#
# Compressibility (1/GPa) = 0.02027498
#
# Stress axis : x y z
#
# Youngs Moduli (GPa) = 52.83401 163.30090 120.96325
#
# Poissons Ratio (x) = 0.07196 0.48429
# Poissons Ratio (y) = 0.02328 0.25127
# Poissons Ratio (z) = 0.21152 0.33921
#
# Static dielectric constant tensor:
#      x y z
#    x 2.081350 0.058870 -0.047830 
#    y 0.058870 1.998540 0.009830 
#    z -0.047830 0.009830 1.959490 
# 
# From -- ./inp_files/463487.got.cif
#   From: 2010.05.17/outbox.cif.g08.bks.cpg/sg2_232_cif.got.tgz:463487.got - 2010.06.03 11:33:40.
