data_PCOD9003012
_publ_section_title
;
Structure prediction by ZEFSAII (Michael W. Deem and Ramdas Pophale) SiO2 
 PCOD9003012
Probable space group: P -1
;
_chemical_formula_sum "Si O2"
_cell_formula_units_Z 16
_cell_length_a 10.069904
_cell_length_b 8.547874
_cell_length_c 14.296522
_cell_angle_alpha 109.173486
_cell_angle_beta 47.928142
_cell_angle_gamma 132.739636
_cell_volume 652.639470
_symmetry_space_group_name_H-M "P -1"
_symmetry_group_IT_number 2
_symmetry_cell_setting 'triclinic'
loop_
_space_group_symop_operation_xyz
x,y,z
-x,-y,-z
loop_
_atom_site_type_symbol
_atom_site_label
_atom_site_fract_x
_atom_site_fract_y
_atom_site_fract_z
Si Si1 0.770886 0.611437 0.393364
Si Si2 0.629774 0.201186 0.743004
Si Si3 0.709544 0.499335 0.606018
Si Si4 0.766575 0.587729 0.883660
Si Si5 0.465893 0.102428 0.125043
Si Si6 0.931348 0.893044 0.710756
Si Si7 0.750629 0.530382 0.187669
Si Si8 0.068282 0.853149 0.957909
O O1 0.500000 0.500000 0.500000
O O2 0.803529 0.544654 0.464854
O O3 0.797426 0.515084 0.270366
O O4 0.896684 0.862017 0.359462
O O5 0.689232 0.312916 0.634508
O O6 0.723248 0.399614 0.806714
O O7 0.687261 0.071379 0.750926
O O8 0.345299 0.013939 0.842674
O O9 0.891075 0.727622 0.620171
O O10 0.461493 0.457454 0.716766
O O11 0.956861 0.815519 0.781533
O O12 0.892667 0.642493 0.933448
O O13 0.500000 0.500000 0.000000
O O14 0.315137 0.162084 0.168912
O O15 0.677003 0.324246 0.123463
O O16 0.500000 0.000000 0.000000
O O17 0.986242 0.756228 0.081159
O O18 0.000000 0.000000 0.000000
#
# Coordination Sequence:
#
# PCOD9003012 Si02
#       8
#     2   2   2   2   2   2   2   2
#     4  10  21  37  64  91 118 152 211 264 298 347
#     4  11  23  38  58  89 122 163 202 249 302 377
#     4   9  19  39  63  87 113 152 212 254 299 351
#     4  11  20  35  59  90 121 155 204 250 305 365
#     4  11  24  40  58  86 132 166 197 239 310 384
#     4  10  21  38  63  90 122 161 199 253 310 357
#     4  10  21  37  56  92 121 155 201 254 299 363
#     4  12  20  33  62  88 124 157 200 256 314 350
#
# _framework density 24.515834999999999
#
# number of rings (size 3 to 8) (size 9 to 14) (size 15 to 20)
#    0.000    1.500    2.500    4.125    3.500    0.500 
#    2.250    1.250    0.000    0.000    0.000    0.000 
#    0.000    0.000    0.000    0.000    0.000    0.000 
#
# Total GULP energy -89362.564961 kJ/mol
# GULP energy per Si atom -5585.160310 kJ/mol
# Density = 2.446004 g / cm^3
# Si number density = 24.515835 Si / 1000 Ang^3
#
#
#
# Elastic Constant Matrix: (Units=GPa)
#
#
# Indices 1 2 3 4 5 6 
#
# 1 53.4059 25.7857 40.2248 2.1088 21.5584 -5.2515
# 2 25.7857 118.2236 68.3307 -19.7045 24.1478 10.2750
# 3 40.2248 68.3307 147.6381 -18.1817 48.1145 5.4777
# 4 2.1088 -19.7045 -18.1817 45.4824 1.1643 9.8176
# 5 21.5584 24.1478 48.1145 1.1643 51.0948 -5.6853
# 6 -5.2515 10.2750 5.4777 9.8176 -5.6853 41.4423
#
#
#
# Elastic Compliance Matrix: (Units=1/GPa)
#
#
# Indices 1 2 3 4 5 6 
#
# 1 0.026848 -0.003466 -0.005460 -0.006110 -0.003750 0.005916
# 2 -0.003466 0.013009 -0.003595 0.005434 -0.001952 -0.004744
# 3 -0.005460 -0.003595 0.013909 0.005422 -0.009691 -0.004253
# 4 -0.006110 0.005434 0.005422 0.029285 -0.006957 -0.010730
# 5 -0.003750 -0.001952 -0.009691 -0.006957 0.032179 0.007352
# 6 0.005916 -0.004744 -0.004253 -0.010730 0.007352 0.030169
#
#
# Mechanical properties :
#
#
# Convention : Reuss Voigt Hill
#
# Bulk Modulus (GPa) = 34.81680 65.32778 50.07229
# Shear Modulus (GPa) = 27.77524 39.93233 33.85378
#
# Velocity S-wave (km/s) = 3.36959 4.04027 3.72007
# Velocity P-wave (km/s) = 5.41954 6.96204 6.23865
#
# Compressibility (1/GPa) = 0.02872176
#
# Stress axis : x y z
#
# Youngs Moduli (GPa) = 37.24712 76.86832 71.89694
#
# Poissons Ratio (x) = 0.26646 0.39258
# Poissons Ratio (y) = 0.12911 0.25849
# Poissons Ratio (z) = 0.20338 0.27636
#
# Static dielectric constant tensor:
#      x y z
#    x 2.041650 0.056100 0.041650 
#    y 0.056100 1.939480 0.019330 
#    z 0.041650 0.019330 2.003580 
# 
# From -- ./inp_files/515763.got.cif
#   From: 2010.05.17/outbox.cif.g08.bks.cpg/sg2_258_cif.got.tgz:515763.got - 2010.06.03 11:33:40.
