data_PCOD9003681
_publ_section_title
;
Structure prediction by ZEFSAII (Michael W. Deem and Ramdas Pophale) SiO2 
 PCOD9003681
Probable space group: P -1
;
_chemical_formula_sum "Si O2"
_cell_formula_units_Z 14
_cell_length_a 12.433912
_cell_length_b 9.286463
_cell_length_c 9.877833
_cell_angle_alpha 46.925658
_cell_angle_beta 56.943455
_cell_angle_gamma 40.644984
_cell_volume 541.794124
_symmetry_space_group_name_H-M "P -1"
_symmetry_group_IT_number 2
_symmetry_cell_setting 'triclinic'
loop_
_space_group_symop_operation_xyz
x,y,z
-x,-y,-z
loop_
_atom_site_type_symbol
_atom_site_label
_atom_site_fract_x
_atom_site_fract_y
_atom_site_fract_z
Si Si1 0.286618 0.380302 0.560057
Si Si2 0.871498 0.800021 0.361145
Si Si3 0.330918 0.459028 0.989072
Si Si4 0.168482 0.776497 0.146279
Si Si5 0.153471 0.484134 0.857589
Si Si6 0.684867 0.064823 0.882162
Si Si7 0.338619 0.990740 0.368475
O O1 0.257347 0.181575 0.662460
O O2 0.249989 0.550531 0.347304
O O3 0.154799 0.555235 0.657566
O O4 0.472475 0.232737 0.576897
O O5 0.000000 0.500000 0.500000
O O6 0.990643 0.852605 0.188619
O O7 0.778367 0.950752 0.464384
O O8 0.284733 0.651497 0.015946
O O9 0.317289 0.248201 0.193318
O O10 0.202975 0.591345 0.867650
O O11 0.511809 0.309828 0.899418
O O12 0.174912 0.973070 0.097629
O O13 0.000000 0.500000 0.000000
O O14 0.305626 0.179352 0.948004
O O15 0.702359 0.076318 0.702054
#
# Coordination Sequence:
#
# PCOD9003681 Si02
#       7
#     2   2   2   2   2   2   2
#     4  11  21  40  66  94 118 161 225 251 293 374
#     4  10  21  37  61  92 126 161 207 256 308 364
#     4  11  20  44  64  90 127 172 206 247 314 383
#     4  11  25  40  65  94 131 162 202 261 323 359
#     4  11  23  40  68  91 123 166 217 253 301 375
#     4  11  24  42  63  93 132 165 200 257 326 367
#     4  11  20  39  66  92 119 167 214 252 299 375
#
# _framework density 25.840074000000001
#
# number of rings (size 3 to 8) (size 9 to 14) (size 15 to 20)
#    0.000    1.143    5.714    2.571    6.000    1.143 
#    0.000    2.857    0.000    0.000    0.000    0.000 
#    0.000    0.000    0.000    0.000    0.000    0.000 
#
# Total GULP energy -78491.498977 kJ/mol
# GULP energy per Si atom -5606.535641 kJ/mol
# Density = 2.578126 g / cm^3
# Si number density = 25.840074 Si / 1000 Ang^3
#
#
#
# Elastic Constant Matrix: (Units=GPa)
#
#
# Indices 1 2 3 4 5 6 
#
# 1 103.7699 32.4916 21.8902 24.5064 10.3547 16.9370
# 2 32.4916 95.0142 41.2329 28.9924 2.7576 -3.2072
# 3 21.8902 41.2329 104.6943 40.5876 6.1443 9.7027
# 4 24.5064 28.9924 40.5876 52.0948 8.1522 -5.0619
# 5 10.3547 2.7576 6.1443 8.1522 44.3810 9.8316
# 6 16.9370 -3.2072 9.7027 -5.0619 9.8316 43.6792
#
#
#
# Elastic Compliance Matrix: (Units=1/GPa)
#
#
# Indices 1 2 3 4 5 6 
#
# 1 0.012824 -0.003471 0.001535 -0.005802 -0.000569 -0.006113
# 2 -0.003471 0.014501 -0.004104 -0.003021 0.000393 0.002884
# 3 0.001535 -0.004104 0.015797 -0.011509 0.001153 -0.005999
# 4 -0.005802 -0.003021 -0.011509 0.034358 -0.005340 0.009768
# 5 -0.000569 0.000393 0.001153 -0.005340 0.024839 -0.006216
# 6 -0.006113 0.002884 -0.005999 0.009768 -0.006216 0.029340
#
#
# Mechanical properties :
#
#
# Convention : Reuss Voigt Hill
#
# Bulk Modulus (GPa) = 32.21577 54.96755 43.59166
# Shear Modulus (GPa) = 32.44917 41.88858 37.16887
#
# Velocity S-wave (km/s) = 3.54753 4.03062 3.79676
# Velocity P-wave (km/s) = 5.41058 6.55588 6.01057
#
# Compressibility (1/GPa) = 0.03104070
#
# Stress axis : x y z
#
# Youngs Moduli (GPa) = 77.97617 68.96286 63.30232
#
# Poissons Ratio (x) = 0.23937 -0.09715
# Poissons Ratio (y) = 0.27066 0.25982
# Poissons Ratio (z) = -0.11967 0.28306
#
# Static dielectric constant tensor:
#      x y z
#    x 2.055770 -0.000130 0.016700 
#    y -0.000130 2.004720 -0.041990 
#    z 0.016700 -0.041990 2.058840 
# 
# From -- ./inp_files/156877.got.cif
#   From: 2010.05.17/outbox.cif.g08.bks.cpg/sg2_79_cif.got.tgz:156877.got - 2010.06.03 11:33:40.
