data_PCOD9003869
_publ_section_title
;
Structure prediction by ZEFSAII (Michael W. Deem and Ramdas Pophale) SiO2 
 PCOD9003869
Probable space group: P -1
;
_chemical_formula_sum "Si O2"
_cell_formula_units_Z 16
_cell_length_a 9.352466
_cell_length_b 13.386234
_cell_length_c 9.115778
_cell_angle_alpha 78.589290
_cell_angle_beta 122.225035
_cell_angle_gamma 68.880263
_cell_volume 782.940573
_symmetry_space_group_name_H-M "P -1"
_symmetry_group_IT_number 2
_symmetry_cell_setting 'triclinic'
loop_
_space_group_symop_operation_xyz
x,y,z
-x,-y,-z
loop_
_atom_site_type_symbol
_atom_site_label
_atom_site_fract_x
_atom_site_fract_y
_atom_site_fract_z
Si Si1 0.435029 0.459319 0.332594
Si Si2 0.104840 0.692093 0.894365
Si Si3 0.115437 0.049405 0.136959
Si Si4 0.379400 0.900435 0.591298
Si Si5 0.219118 0.059417 0.732984
Si Si6 0.686458 0.727942 0.588317
Si Si7 0.756388 0.265772 0.347163
Si Si8 0.547141 0.095701 0.853921
O O1 0.500000 0.500000 0.500000
O O2 0.353414 0.375047 0.358944
O O3 0.631155 0.378853 0.357235
O O4 0.259339 0.574741 0.110955
O O5 0.216510 0.700396 0.810424
O O6 0.016064 0.812414 0.914381
O O7 0.919723 0.685729 0.729501
O O8 0.210890 0.961843 0.354799
O O9 0.303297 0.017832 0.142328
O O10 0.000000 0.000000 0.000000
O O11 0.585327 0.832614 0.630308
O O12 0.365543 0.799026 0.698435
O O13 0.307796 0.008672 0.634563
O O14 0.354898 0.111834 0.830909
O O15 0.982529 0.163309 0.562250
O O16 0.289745 0.944564 0.912776
O O17 0.561236 0.789359 0.350540
#
# Coordination Sequence:
#
# PCOD9003869 Si02
#       8
#     2   2   2   2   2   2   2   2
#     4  11  28  46  67  92 123 173 231 274 313 371
#     4  12  24  43  70  90 131 177 217 266 320 377
#     4  11  23  36  63 100 132 170 214 258 327 390
#     4  10  21  37  62  94 134 161 207 256 328 395
#     4  11  20  36  61 100 132 165 201 265 330 388
#     4  10  22  46  66  94 129 173 218 259 319 393
#     4  11  23  41  64  93 127 166 217 263 318 382
#     4  10  22  35  62  95 136 159 207 256 329 387
#
# _framework density 20.435779
#
# number of rings (size 3 to 8) (size 9 to 14) (size 15 to 20)
#    0.000    1.250    2.500    2.625    8.750    2.000 
#    0.000    0.625    0.000    0.000    0.000    0.000 
#    0.000    0.000    0.000    0.000    0.000    0.000 
#
# Total GULP energy -89213.975210 kJ/mol
# GULP energy per Si atom -5575.873451 kJ/mol
# Density = 2.038927 g / cm^3
# Si number density = 20.435779 Si / 1000 Ang^3
#
#
#
# Elastic Constant Matrix: (Units=GPa)
#
#
# Indices 1 2 3 4 5 6 
#
# 1 85.9737 16.2126 34.3167 -9.4409 -12.7104 -16.7188
# 2 16.2126 79.4093 27.1850 0.1085 -2.2133 -14.4726
# 3 34.3167 27.1850 134.8990 -7.5803 -28.4330 -3.9767
# 4 -9.4409 0.1085 -7.5803 27.4978 -0.1625 -0.8806
# 5 -12.7104 -2.2133 -28.4330 -0.1625 30.8824 0.4200
# 6 -16.7188 -14.4726 -3.9767 -0.8806 0.4200 23.5842
#
#
#
# Elastic Compliance Matrix: (Units=1/GPa)
#
#
# Indices 1 2 3 4 5 6 
#
# 1 0.015979 -0.000317 -0.002526 0.005162 0.004108 0.010827
# 2 -0.000317 0.015278 -0.003240 -0.000799 -0.002140 0.008613
# 3 -0.002526 -0.003240 0.010549 0.002037 0.008479 -0.002075
# 4 0.005162 -0.000799 0.002037 0.038884 0.004081 0.004892
# 5 0.004108 -0.002140 0.008479 0.004081 0.041714 0.002438
# 6 0.010827 0.008613 -0.002075 0.004892 0.002438 0.055151
#
#
# Mechanical properties :
#
#
# Convention : Reuss Voigt Hill
#
# Bulk Modulus (GPa) = 33.73842 50.63451 42.18647
# Shear Modulus (GPa) = 25.04995 31.23073 28.14034
#
# Velocity S-wave (km/s) = 3.50493 3.91351 3.71484
# Velocity P-wave (km/s) = 5.73800 6.72695 6.25206
#
# Compressibility (1/GPa) = 0.02963980
#
# Stress axis : x y z
#
# Youngs Moduli (GPa) = 62.58197 65.45310 94.79540
#
# Poissons Ratio (x) = 0.02075 0.23944
# Poissons Ratio (y) = 0.01984 0.30717
# Poissons Ratio (z) = 0.15807 0.21209
#
# Static dielectric constant tensor:
#      x y z
#    x 1.792100 0.026820 0.020410 
#    y 0.026820 1.748930 0.032350 
#    z 0.020410 0.032350 1.754020 
# 
# From -- ./inp_files/207114.got.cif
#   From: 2010.05.17/outbox.cif.g08.bks.cpg/sg2_104_cif.got.tgz:207114.got - 2010.06.03 11:33:40.
