data_PCOD9003049
_publ_section_title
;
Structure prediction by ZEFSAII (Michael W. Deem and Ramdas Pophale) SiO2 
 PCOD9003049
Probable space group: P -1
;
_chemical_formula_sum "Si O2"
_cell_formula_units_Z 14
_cell_length_a 7.498913
_cell_length_b 9.104043
_cell_length_c 13.258699
_cell_angle_alpha 104.938357
_cell_angle_beta 42.619770
_cell_angle_gamma 91.555672
_cell_volume 573.640247
_symmetry_space_group_name_H-M "P -1"
_symmetry_group_IT_number 2
_symmetry_cell_setting 'triclinic'
loop_
_space_group_symop_operation_xyz
x,y,z
-x,-y,-z
loop_
_atom_site_type_symbol
_atom_site_label
_atom_site_fract_x
_atom_site_fract_y
_atom_site_fract_z
Si Si1 0.061524 0.426863 0.819321
Si Si2 0.664176 0.019092 0.088736
Si Si3 0.072235 0.052610 0.251759
Si Si4 0.038703 0.152088 0.572648
Si Si5 0.292560 0.405799 0.516787
Si Si6 0.696380 0.336456 0.578616
Si Si7 0.015033 0.747993 0.001984
O O1 0.051032 0.434981 0.705462
O O2 0.376715 0.350542 0.704776
O O3 0.910392 0.325478 0.931789
O O4 0.988061 0.603072 0.920605
O O5 0.748395 0.887208 0.115996
O O6 0.359256 0.048923 0.184583
O O7 0.857932 0.961847 0.898520
O O8 0.744073 0.175686 0.116796
O O9 0.856765 0.209299 0.407025
O O10 0.982603 0.905995 0.314535
O O11 0.810140 0.282031 0.631619
O O12 0.308211 0.220078 0.463406
O O13 0.000000 0.000000 0.500000
O O14 0.500000 0.500000 0.500000
O O15 0.256577 0.496035 0.443009
#
# Coordination Sequence:
#
# PCOD9003049 Si02
#       7
#     2   2   2   2   2   2   2
#     4  10  21  38  59  86 117 152 196 243 293 348
#     4  10  21  38  59  83 115 155 197 240 289 347
#     4  10  21  38  59  86 117 152 196 243 293 348
#     4  10  21  37  57  84 119 155 194 239 290 349
#     4  10  21  37  57  84 119 155 194 239 290 349
#     4  10  21  38  61  88 119 154 197 244 297 352
#     4  10  21  38  59  83 115 155 197 240 289 347
#
# _framework density 24.405539000000001
#
# number of rings (size 3 to 8) (size 9 to 14) (size 15 to 20)
#    0.000    2.000    0.000    3.000    0.000    5.714 
#    0.000   23.571    0.000    9.429    0.000    0.000 
#    0.000    0.000    0.000    0.000    0.000    0.000 
#
# Total GULP energy -78065.659956 kJ/mol
# GULP energy per Si atom -5576.118568 kJ/mol
# Density = 2.434999 g / cm^3
# Si number density = 24.405539 Si / 1000 Ang^3
#
#
#
# Elastic Constant Matrix: (Units=GPa)
#
#
# Indices 1 2 3 4 5 6 
#
# 1 67.1125 33.8156 -17.1800 3.9341 -7.8440 16.3441
# 2 33.8156 184.0434 27.0088 -15.9809 -1.6556 -4.7245
# 3 -17.1800 27.0088 39.0750 -2.5584 -1.7136 -0.2402
# 4 3.9341 -15.9809 -2.5584 32.2857 -1.6661 5.4880
# 5 -7.8440 -1.6556 -1.7136 -1.6661 36.6912 -0.4520
# 6 16.3441 -4.7245 -0.2402 5.4880 -0.4520 36.2780
#
#
#
# Elastic Compliance Matrix: (Units=1/GPa)
#
#
# Indices 1 2 3 4 5 6 
#
# 1 0.027692 -0.008294 0.017861 -0.003572 0.006060 -0.012822
# 2 -0.008294 0.008777 -0.009508 0.003802 -0.001597 0.004222
# 3 0.017861 -0.009508 0.040056 -0.001976 0.005064 -0.008658
# 4 -0.003572 0.003802 -0.001976 0.033685 0.000808 -0.002994
# 5 0.006060 -0.001597 0.005064 0.000808 0.028718 -0.002669
# 6 -0.012822 0.004222 -0.008658 -0.002994 -0.002669 0.034254
#
#
# Mechanical properties :
#
#
# Convention : Reuss Voigt Hill
#
# Bulk Modulus (GPa) = 13.04759 41.94661 27.49710
# Shear Modulus (GPa) = 25.17476 37.49009 31.33242
#
# Velocity S-wave (km/s) = 3.21521 3.92360 3.58694
# Velocity P-wave (km/s) = 4.37507 6.14417 5.33348
#
# Compressibility (1/GPa) = 0.07664253
#
# Stress axis : x y z
#
# Youngs Moduli (GPa) = 36.11178 113.93552 24.96480
#
# Poissons Ratio (x) = 0.94498 -0.44590
# Poissons Ratio (y) = 0.29951 0.23737
# Poissons Ratio (z) = -0.64499 1.08334
#
# Static dielectric constant tensor:
#      x y z
#    x 1.978740 0.034480 0.052480 
#    y 0.034480 2.004390 0.027550 
#    z 0.052480 0.027550 2.025460 
# 
# From -- ./inp_files/205122.got.cif
#   From: 2010.05.17/outbox.cif.g08.bks.cpg/sg2_103_cif.got.tgz:205122.got - 2010.06.03 11:33:40.
