data_PCOD9003201
_publ_section_title
;
Structure prediction by ZEFSAII (Michael W. Deem and Ramdas Pophale) SiO2 
 PCOD9003201
Probable space group: P -1
;
_chemical_formula_sum "Si O2"
_cell_formula_units_Z 13
_cell_length_a 8.491727
_cell_length_b 12.706370
_cell_length_c 18.445636
_cell_angle_alpha 19.969225
_cell_angle_beta 46.193318
_cell_angle_gamma 50.572821
_cell_volume 489.557840
_symmetry_space_group_name_H-M "P -1"
_symmetry_group_IT_number 2
_symmetry_cell_setting 'triclinic'
loop_
_space_group_symop_operation_xyz
x,y,z
-x,-y,-z
loop_
_atom_site_type_symbol
_atom_site_label
_atom_site_fract_x
_atom_site_fract_y
_atom_site_fract_z
Si Si1 0.260608 0.595467 0.937752
Si Si2 0.462437 0.233806 0.460450
Si Si3 0.443509 0.543368 0.406635
Si Si4 0.760583 0.407195 0.884469
Si Si5 0.750849 0.127197 0.924982
Si Si6 0.059856 0.951292 0.597257
Si Si7 0.000000 0.500000 0.500000
O O1 0.508201 0.499899 0.908142
O O2 0.286372 0.957741 0.673693
O O3 0.192067 0.616944 0.030157
O O4 0.107773 0.302454 0.148899
O O5 0.478355 0.252124 0.531184
O O6 0.374655 0.557298 0.255076
O O7 0.701103 0.181867 0.390272
O O8 0.500000 0.500000 0.500000
O O9 0.200027 0.627172 0.409556
O O10 0.612854 0.819333 0.148071
O O11 0.782706 0.137667 0.994477
O O12 0.911450 0.693666 0.617545
O O13 0.954669 0.198134 0.762454
O O14 0.000000 0.000000 0.500000
#
# Coordination Sequence:
#
# PCOD9003201 Si02
#       7
#     2   2   2   2   2   2   1
#     4   9  18  34  58  86 119 160 209 264 324 387
#     4  10  21  37  58  89 128 166 213 273 324 385
#     4  11  25  44  69  98 132 177 226 279 334 393
#     4   9  19  36  57  86 120 159 210 266 320 385
#     4  11  24  42  63  93 135 174 222 279 330 395
#     4   9  19  35  59  88 119 160 210 262 321 388
#     4  10  24  44  64  94 132 174 222 268 326 390
#
# _framework density 26.554576000000001
#
# number of rings (size 3 to 8) (size 9 to 14) (size 15 to 20)
#    0.000    2.154    0.000    3.692    0.000   11.692 
#    0.000    1.538    0.000    0.000    0.000    0.000 
#    0.000    0.000    0.000    0.000    0.000    0.000 
#
# Total GULP energy -72432.238711 kJ/mol
# GULP energy per Si atom -5571.710670 kJ/mol
# Density = 2.649414 g / cm^3
# Si number density = 26.554576 Si / 1000 Ang^3
#
#
#
# Elastic Constant Matrix: (Units=GPa)
#
#
# Indices 1 2 3 4 5 6 
#
# 1 96.6191 32.4784 31.9737 7.7750 8.9684 32.4515
# 2 32.4784 82.9160 10.7090 -2.9184 -4.0847 20.5299
# 3 31.9737 10.7090 203.7004 8.1069 -41.5195 -1.7679
# 4 7.7750 -2.9184 8.1069 28.1724 9.0783 3.9563
# 5 8.9684 -4.0847 -41.5195 9.0783 54.4724 -0.9790
# 6 32.4515 20.5299 -1.7679 3.9563 -0.9790 46.4399
#
#
#
# Elastic Compliance Matrix: (Units=1/GPa)
#
#
# Indices 1 2 3 4 5 6 
#
# 1 0.017007 -0.003929 -0.003761 -0.000615 -0.006045 -0.010366
# 2 -0.003929 0.014754 -0.000070 0.002821 0.001158 -0.003995
# 3 -0.003761 -0.000070 0.007027 -0.003602 0.006631 0.003373
# 4 -0.000615 0.002821 -0.003602 0.040635 -0.009288 -0.004612
# 5 -0.006045 0.001158 0.006631 -0.009288 0.026138 0.005307
# 6 -0.010366 -0.003995 0.003373 -0.004612 0.005307 0.031176
#
#
# Mechanical properties :
#
#
# Convention : Reuss Voigt Hill
#
# Bulk Modulus (GPa) = 42.97403 59.28416 51.12910
# Shear Modulus (GPa) = 31.24758 46.35523 38.80140
#
# Velocity S-wave (km/s) = 3.43407 4.18264 3.82670
# Velocity P-wave (km/s) = 5.65174 6.76017 6.23065
#
# Compressibility (1/GPa) = 0.02326987
#
# Stress axis : x y z
#
# Youngs Moduli (GPa) = 58.79858 67.77823 142.30099
#
# Poissons Ratio (x) = 0.26630 0.53513
# Poissons Ratio (y) = 0.23102 0.00994
# Poissons Ratio (z) = 0.22112 0.00473
#
# Static dielectric constant tensor:
#      x y z
#    x 2.143560 -0.002960 0.057060 
#    y -0.002960 2.153040 0.063420 
#    z 0.057060 0.063420 2.082810 
# 
# From -- ./inp_files/265251.got.cif
#   From: 2010.05.17/outbox.cif.g08.bks.cpg/sg2_133_cif.got.tgz:265251.got - 2010.06.03 11:33:40.
