data_PCOD9003547
_publ_section_title
;
Structure prediction by ZEFSAII (Michael W. Deem and Ramdas Pophale) SiO2 
 PCOD9003547
Probable space group: P -1
;
_chemical_formula_sum "Si O2"
_cell_formula_units_Z 16
_cell_length_a 17.692612
_cell_length_b 18.039686
_cell_length_c 7.553041
_cell_angle_alpha 129.705951
_cell_angle_beta 39.019056
_cell_angle_gamma 156.991864
_cell_volume 563.997363
_symmetry_space_group_name_H-M "P -1"
_symmetry_group_IT_number 2
_symmetry_cell_setting 'triclinic'
loop_
_space_group_symop_operation_xyz
x,y,z
-x,-y,-z
loop_
_atom_site_type_symbol
_atom_site_label
_atom_site_fract_x
_atom_site_fract_y
_atom_site_fract_z
Si Si1 0.324348 0.553077 0.367578
Si Si2 0.838781 0.789978 0.512868
Si Si3 0.280639 0.183007 0.711242
Si Si4 0.368589 0.523438 0.805057
Si Si5 0.884506 0.131870 0.548879
Si Si6 0.561754 0.091253 0.821245
Si Si7 0.885864 0.493074 0.957661
Si Si8 0.460361 0.847638 0.423901
O O1 0.545323 0.649948 0.202853
O O2 0.443214 0.723792 0.305133
O O3 0.107389 0.337323 0.349188
O O4 0.195312 0.513324 0.719445
O O5 0.547674 0.620511 0.790613
O O6 0.813361 0.689894 0.253791
O O7 0.971855 0.824552 0.484501
O O8 0.000000 0.000000 0.500000
O O9 0.407361 0.305297 0.487274
O O10 0.287284 0.071944 0.528403
O O11 0.000000 0.000000 0.000000
O O12 0.213393 0.511128 0.031171
O O13 0.688026 0.077544 0.867265
O O14 0.770007 0.306060 0.853614
O O15 0.470488 0.084556 0.799653
O O16 0.618856 0.026369 0.539236
O O17 0.179111 0.688332 0.714662
#
# Coordination Sequence:
#
# PCOD9003547 Si02
#       8
#     2   2   2   2   2   2   2   2
#     4  11  24  44  67  98 133 175 223 263 333 399
#     4  11  19  35  65  94 117 166 220 258 321 390
#     4  11  24  44  64  93 132 168 219 279 324 387
#     4  10  21  37  60  95 124 164 217 266 320 387
#     4  12  22  43  70  92 131 183 213 269 334 397
#     4  11  23  41  69  96 136 169 222 270 328 385
#     4  11  20  42  67  92 134 171 216 268 324 391
#     4  11  25  41  65 104 131 173 218 275 321 389
#
# _framework density 28.368926999999999
#
# number of rings (size 3 to 8) (size 9 to 14) (size 15 to 20)
#    0.000    1.000    7.500    0.750    0.000    3.000 
#    2.250    2.500    0.000    0.000    0.000    0.000 
#    0.000    0.000    0.000    0.000    0.000    0.000 
#
# Total GULP energy -89599.239204 kJ/mol
# GULP energy per Si atom -5599.952450 kJ/mol
# Density = 2.830436 g / cm^3
# Si number density = 28.368927 Si / 1000 Ang^3
#
#
#
# Elastic Constant Matrix: (Units=GPa)
#
#
# Indices 1 2 3 4 5 6 
#
# 1 90.1303 19.3711 -19.0284 12.5816 -15.2739 -2.0811
# 2 19.3711 208.4896 11.0318 3.6443 -6.2273 -5.6362
# 3 -19.0284 11.0318 53.1738 -6.0367 -14.9909 16.2405
# 4 12.5816 3.6443 -6.0367 47.3374 1.6001 -8.3045
# 5 -15.2739 -6.2273 -14.9909 1.6001 45.7348 7.6297
# 6 -2.0811 -5.6362 16.2405 -8.3045 7.6297 65.9540
#
#
#
# Elastic Compliance Matrix: (Units=1/GPa)
#
#
# Indices 1 2 3 4 5 6 
#
# 1 0.015124 -0.001639 0.008673 -0.003634 0.008335 -0.003220
# 2 -0.001639 0.005068 -0.002148 -0.000030 -0.000726 0.000991
# 3 0.008673 -0.002148 0.028729 -0.000440 0.013470 -0.008598
# 4 -0.003634 -0.000030 -0.000440 0.022682 -0.002682 0.003157
# 5 0.008335 -0.000726 0.013470 -0.002682 0.030218 -0.006949
# 6 -0.003220 0.000991 -0.008598 0.003157 -0.006949 0.018464
#
#
# Mechanical properties :
#
#
# Convention : Reuss Voigt Hill
#
# Bulk Modulus (GPa) = 17.03808 41.61586 29.32697
# Shear Modulus (GPa) = 38.43872 54.49983 46.46927
#
# Velocity S-wave (km/s) = 3.68497 4.38780 4.05165
# Velocity P-wave (km/s) = 4.91165 6.35388 5.67873
#
# Compressibility (1/GPa) = 0.05869206
#
# Stress axis : x y z
#
# Youngs Moduli (GPa) = 66.12181 197.31798 34.80785
#
# Poissons Ratio (x) = 0.32333 -0.30188
# Poissons Ratio (y) = 0.10835 0.07478
# Poissons Ratio (z) = -0.57345 0.42391
#
# Static dielectric constant tensor:
#      x y z
#    x 2.410540 0.026060 0.132920 
#    y 0.026060 2.103310 0.092010 
#    z 0.132920 0.092010 2.376090 
# 
# From -- ./inp_files/349533.got.cif
#   From: 2010.05.17/outbox.cif.g08.bks.cpg/sg2_175_cif.got.tgz:349533.got - 2010.06.03 11:33:40.
