data_PCOD9003619
_publ_section_title
;
Structure prediction by ZEFSAII (Michael W. Deem and Ramdas Pophale) SiO2 
 PCOD9003619
Probable space group: P -1
;
_chemical_formula_sum "Si O2"
_cell_formula_units_Z 16
_cell_length_a 8.290818
_cell_length_b 22.259779
_cell_length_c 6.328065
_cell_angle_alpha 108.853027
_cell_angle_beta 48.888714
_cell_angle_gamma 129.268656
_cell_volume 672.486192
_symmetry_space_group_name_H-M "P -1"
_symmetry_group_IT_number 2
_symmetry_cell_setting 'triclinic'
loop_
_space_group_symop_operation_xyz
x,y,z
-x,-y,-z
loop_
_atom_site_type_symbol
_atom_site_label
_atom_site_fract_x
_atom_site_fract_y
_atom_site_fract_z
Si Si1 0.979678 0.234442 0.452078
Si Si2 0.479752 0.396681 0.326952
Si Si3 0.064142 0.107077 0.130705
Si Si4 0.283674 0.573700 0.410292
Si Si5 0.785430 0.955567 0.448762
Si Si6 0.276217 0.445964 0.902414
Si Si7 0.243027 0.697737 0.586986
Si Si8 0.558273 0.173110 0.101567
O O1 0.831882 0.261193 0.467810
O O2 0.279502 0.310113 0.315037
O O3 0.985820 0.166572 0.264206
O O4 0.819888 0.203689 0.776094
O O5 0.673756 0.404979 0.350558
O O6 0.279867 0.413326 0.629002
O O7 0.663039 0.470241 0.100742
O O8 0.316968 0.141410 0.108677
O O9 0.144814 0.091414 0.818105
O O10 0.825033 0.023305 0.341489
O O11 0.368063 0.655860 0.331701
O O12 0.000000 0.500000 0.500000
O O13 0.477895 0.548184 0.200791
O O14 0.519500 0.895181 0.740083
O O15 0.000000 0.000000 0.500000
O O16 0.027983 0.378535 0.170569
O O17 0.400737 0.757819 0.709919
#
# Coordination Sequence:
#
# PCOD9003619 Si02
#       8
#     2   2   2   2   2   2   2   2
#     4  12  25  41  67 100 136 173 224 274 332 394
#     4   9  20  44  61  89 132 174 221 283 329 383
#     4  10  23  45  72 101 132 174 216 270 329 397
#     4  10  21  37  61  89 120 169 228 273 328 384
#     4   9  21  45  73  99 134 172 215 265 330 400
#     4   9  21  42  60  86 132 171 226 273 328 379
#     4  12  25  38  65  95 129 178 221 274 332 390
#     4  11  23  44  66  98 137 173 216 273 329 397
#
# _framework density 23.792310000000001
#
# number of rings (size 3 to 8) (size 9 to 14) (size 15 to 20)
#    0.750    1.000    1.250    2.250    0.000    7.000 
#    0.000    8.750    0.000    0.000    0.000    0.000 
#    0.000    0.000    0.000    0.000    0.000    0.000 
#
# Total GULP energy -89397.604945 kJ/mol
# GULP energy per Si atom -5587.350309 kJ/mol
# Density = 2.373816 g / cm^3
# Si number density = 23.792310 Si / 1000 Ang^3
#
#
#
# Elastic Constant Matrix: (Units=GPa)
#
#
# Indices 1 2 3 4 5 6 
#
# 1 93.0986 50.4418 27.6827 7.2990 9.1737 -0.9832
# 2 50.4418 180.2517 71.7093 6.9839 1.9685 -10.5642
# 3 27.6827 71.7093 144.1427 -23.8607 10.6846 -1.9452
# 4 7.2990 6.9839 -23.8607 46.9442 4.9390 3.1431
# 5 9.1737 1.9685 10.6846 4.9390 26.8326 2.3605
# 6 -0.9832 -10.5642 -1.9452 3.1431 2.3605 41.1161
#
#
#
# Elastic Compliance Matrix: (Units=1/GPa)
#
#
# Indices 1 2 3 4 5 6 
#
# 1 0.013263 -0.003245 -0.000945 -0.001667 -0.003593 -0.000228
# 2 -0.003245 0.008363 -0.004253 -0.003310 0.002625 0.001972
# 3 -0.000945 -0.004253 0.010702 0.006781 -0.004799 -0.000852
# 4 -0.001667 -0.003310 0.006781 0.026336 -0.006541 -0.002207
# 5 -0.003593 0.002625 -0.004799 -0.006541 0.041553 -0.001524
# 6 -0.000228 0.001972 -0.000852 -0.002207 -0.001524 0.025039
#
#
# Mechanical properties :
#
#
# Convention : Reuss Voigt Hill
#
# Bulk Modulus (GPa) = 64.76400 79.68451 72.22425
# Shear Modulus (GPa) = 33.94673 40.82253 37.38463
#
# Velocity S-wave (km/s) = 3.78139 4.14670 3.96825
# Velocity P-wave (km/s) = 6.80771 7.51607 7.17064
#
# Compressibility (1/GPa) = 0.01544068
#
# Stress axis : x y z
#
# Youngs Moduli (GPa) = 75.39847 119.57375 93.44170
#
# Poissons Ratio (x) = 0.38800 0.08835
# Poissons Ratio (y) = 0.24466 0.39742
# Poissons Ratio (z) = 0.07129 0.50857
#
# Static dielectric constant tensor:
#      x y z
#    x 1.892180 -0.002340 -0.003520 
#    y -0.002340 1.917660 0.050960 
#    z -0.003520 0.050960 2.023560 
# 
# From -- ./inp_files/53237.got.cif
#   From: 2010.05.17/outbox.cif.g08.bks.cpg/sg2_27_cif.got.tgz:53237.got - 2010.06.03 11:33:40.
