data_PCOD9003199
_publ_section_title
;
Structure prediction by ZEFSAII (Michael W. Deem and Ramdas Pophale) SiO2 
 PCOD9003199
Probable space group: P -1
;
_chemical_formula_sum "Si O2"
_cell_formula_units_Z 16
_cell_length_a 14.669370
_cell_length_b 12.189954
_cell_length_c 6.195989
_cell_angle_alpha 113.356729
_cell_angle_beta 93.042454
_cell_angle_gamma 132.195596
_cell_volume 665.337309
_symmetry_space_group_name_H-M "P -1"
_symmetry_group_IT_number 2
_symmetry_cell_setting 'triclinic'
loop_
_space_group_symop_operation_xyz
x,y,z
-x,-y,-z
loop_
_atom_site_type_symbol
_atom_site_label
_atom_site_fract_x
_atom_site_fract_y
_atom_site_fract_z
Si Si1 0.623412 0.863898 0.761231
Si Si2 0.871382 0.228418 0.842856
Si Si3 0.764956 0.761363 0.701544
Si Si4 0.413248 0.978969 0.781921
Si Si5 0.052929 0.469132 0.669233
Si Si6 0.207337 0.402979 0.734327
Si Si7 0.036491 0.172073 0.896991
Si Si8 0.384197 0.725177 0.340634
O O1 0.657075 0.760003 0.735199
O O2 0.473040 0.739964 0.541100
O O3 0.729501 0.020055 0.714076
O O4 0.651193 0.973159 0.060950
O O5 0.924988 0.291289 0.654998
O O6 0.989688 0.263774 0.002576
O O7 0.865020 0.355761 0.032089
O O8 0.710109 0.612284 0.402998
O O9 0.834482 0.755207 0.898655
O O10 0.899516 0.962903 0.777647
O O11 0.328130 0.787658 0.507052
O O12 0.514223 0.127106 0.722796
O O13 0.500000 0.000000 0.000000
O O14 0.151720 0.455616 0.620685
O O15 0.000000 0.500000 0.500000
O O16 0.076197 0.208734 0.679027
O O17 0.281163 0.539063 0.051298
#
# Coordination Sequence:
#
# PCOD9003199 Si02
#       8
#     2   2   2   2   2   2   2   2
#     4  10  22  41  63  91 123 168 213 257 306 373
#     4   9  20  38  58  91 121 156 210 255 310 367
#     4  10  21  39  67  91 122 165 211 249 313 379
#     4   9  21  41  62  84 123 167 214 254 306 371
#     4  10  21  37  58  89 127 160 201 258 314 374
#     4  11  23  38  63  93 127 166 201 261 319 365
#     4   9  20  41  63  88 125 164 209 258 304 372
#     4  10  23  41  61  93 125 163 210 263 313 374
#
# _framework density 24.04795
#
# number of rings (size 3 to 8) (size 9 to 14) (size 15 to 20)
#    0.000    2.250    0.000    1.125    5.250    4.500 
#    4.500    3.750    0.000    0.000    0.000    0.000 
#    0.000    0.000    0.000    0.000    0.000    0.000 
#
# Total GULP energy -89410.029494 kJ/mol
# GULP energy per Si atom -5588.126843 kJ/mol
# Density = 2.399322 g / cm^3
# Si number density = 24.047950 Si / 1000 Ang^3
#
#
#
# Elastic Constant Matrix: (Units=GPa)
#
#
# Indices 1 2 3 4 5 6 
#
# 1 167.9599 27.6025 69.1135 3.1435 -22.2045 -39.3391
# 2 27.6025 86.6465 14.8868 -13.1412 1.4376 -22.0122
# 3 69.1135 14.8868 120.8365 4.4306 -7.2560 -25.5973
# 4 3.1435 -13.1412 4.4306 20.5037 -6.1797 4.7061
# 5 -22.2045 1.4376 -7.2560 -6.1797 42.9906 6.1278
# 6 -39.3391 -22.0122 -25.5973 4.7061 6.1278 27.5009
#
#
#
# Elastic Compliance Matrix: (Units=1/GPa)
#
#
# Indices 1 2 3 4 5 6 
#
# 1 0.010475 -0.000328 -0.003216 -0.002941 0.002801 0.011607
# 2 -0.000328 0.015556 0.000357 0.006947 -0.001257 0.011406
# 3 -0.003216 0.000357 0.011745 -0.003964 -0.001343 0.007595
# 4 -0.002941 0.006947 -0.003964 0.060375 0.008328 -0.014524
# 5 0.002801 -0.001257 -0.001343 0.008328 0.026516 -0.005582
# 6 0.011607 0.011406 0.007595 -0.014524 -0.005582 0.072894
#
#
# Mechanical properties :
#
#
# Convention : Reuss Voigt Hill
#
# Bulk Modulus (GPa) = 31.84508 66.51651 49.18079
# Shear Modulus (GPa) = 23.32058 35.78837 29.55448
#
# Velocity S-wave (km/s) = 3.11746 3.86192 3.50949
# Velocity P-wave (km/s) = 5.12144 6.89970 6.07598
#
# Compressibility (1/GPa) = 0.03140203
#
# Stress axis : x y z
#
# Youngs Moduli (GPa) = 95.46438 64.28228 85.14565
#
# Poissons Ratio (x) = 0.02110 0.27383
# Poissons Ratio (y) = 0.03133 -0.03041
# Poissons Ratio (z) = 0.30701 -0.02296
#
# Static dielectric constant tensor:
#      x y z
#    x 1.939550 0.025550 0.010590 
#    y 0.025550 1.961150 0.020410 
#    z 0.010590 0.020410 1.953100 
# 
# From -- ./inp_files/95344.got.cif
#   From: 2010.05.17/outbox.cif.g08.bks.cpg/sg2_48_cif.got.tgz:95344.got - 2010.06.03 11:33:40.
