data_PCOD9003829
_publ_section_title
;
Structure prediction by ZEFSAII (Michael W. Deem and Ramdas Pophale) SiO2 
 PCOD9003829
Probable space group: P -1
;
_chemical_formula_sum "Si O2"
_cell_formula_units_Z 14
_cell_length_a 10.719014
_cell_length_b 8.126421
_cell_length_c 9.459547
_cell_angle_alpha 110.182770
_cell_angle_beta 62.438088
_cell_angle_gamma 118.040763
_cell_volume 636.115112
_symmetry_space_group_name_H-M "P -1"
_symmetry_group_IT_number 2
_symmetry_cell_setting 'triclinic'
loop_
_space_group_symop_operation_xyz
x,y,z
-x,-y,-z
loop_
_atom_site_type_symbol
_atom_site_label
_atom_site_fract_x
_atom_site_fract_y
_atom_site_fract_z
Si Si1 0.867037 0.701212 0.438327
Si Si2 0.904903 0.630875 0.073712
Si Si3 0.492700 0.900382 0.823084
Si Si4 0.809775 0.078544 0.653094
Si Si5 0.200213 0.946128 0.006687
Si Si6 0.552425 0.521004 0.639795
Si Si7 0.634997 0.634653 0.065070
O O1 0.850738 0.649847 0.266196
O O2 0.840068 0.897925 0.524689
O O3 0.729946 0.556907 0.557400
O O4 0.039107 0.742032 0.409646
O O5 0.763659 0.555716 0.020191
O O6 0.000000 0.500000 0.000000
O O7 0.029082 0.829440 0.014091
O O8 0.634788 0.043331 0.701177
O O9 0.526266 0.709536 0.761701
O O10 0.320659 0.860317 0.856172
O O11 0.500000 0.000000 0.000000
O O12 0.811906 0.071791 0.821667
O O13 0.275325 0.164448 0.991742
O O14 0.500000 0.500000 0.500000
O O15 0.448974 0.352171 0.741534
O O16 0.500000 0.500000 0.000000
#
# Coordination Sequence:
#
# PCOD9003829 Si02
#       7
#     2   2   2   2   2   2   2
#     4   9  17  33  57  85 115 155 215 248 304 362
#     4  11  23  40  65  93 124 170 219 259 308 393
#     4   9  17  34  60  90 118 160 211 257 304 384
#     4   8  16  32  60  89 117 157 205 261 304 381
#     4  10  21  37  62  92 126 159 210 267 324 369
#     4  11  21  37  62  88 124 171 217 253 309 391
#     4  12  24  40  63  96 132 167 208 271 331 372
#
# _framework density 22.008596000000001
#
# number of rings (size 3 to 8) (size 9 to 14) (size 15 to 20)
#    0.000    2.000    1.429    3.857    0.000    2.286 
#    0.000    0.714    0.000    4.286    0.000    0.000 
#    0.000    0.000    0.000    0.000    0.000    0.000 
#
# Total GULP energy -78077.855662 kJ/mol
# GULP energy per Si atom -5576.989690 kJ/mol
# Density = 2.195850 g / cm^3
# Si number density = 22.008596 Si / 1000 Ang^3
#
#
#
# Elastic Constant Matrix: (Units=GPa)
#
#
# Indices 1 2 3 4 5 6 
#
# 1 97.6783 26.1021 34.7064 -4.4691 -20.1602 23.2093
# 2 26.1021 77.5820 20.2585 -15.3896 -8.8118 13.8883
# 3 34.7064 20.2585 99.4531 -4.1768 -23.1603 10.1163
# 4 -4.4691 -15.3896 -4.1768 29.4026 9.3655 -3.5241
# 5 -20.1602 -8.8118 -23.1603 9.3655 30.8510 -3.5250
# 6 23.2093 13.8883 10.1163 -3.5241 -3.5250 28.2153
#
#
#
# Elastic Compliance Matrix: (Units=1/GPa)
#
#
# Indices 1 2 3 4 5 6 
#
# 1 0.015536 -0.002547 -0.002258 -0.002880 0.007445 -0.010146
# 2 -0.002547 0.016473 -0.001996 0.007844 -0.001351 -0.004487
# 3 -0.002258 -0.001996 0.013241 -0.002343 0.008476 -0.001141
# 4 -0.002880 0.007844 -0.002343 0.042103 -0.013853 0.002876
# 5 0.007445 -0.001351 0.008476 -0.013853 0.046963 -0.004361
# 6 -0.010146 -0.004487 -0.001141 0.002876 -0.004361 0.046220
#
#
# Mechanical properties :
#
#
# Convention : Reuss Voigt Hill
#
# Bulk Modulus (GPa) = 31.59606 48.53860 40.06733
# Shear Modulus (GPa) = 24.42746 30.60353 27.51549
#
# Velocity S-wave (km/s) = 3.33514 3.73302 3.53967
# Velocity P-wave (km/s) = 5.40539 6.37831 5.91190
#
# Compressibility (1/GPa) = 0.03164951
#
# Stress axis : x y z
#
# Youngs Moduli (GPa) = 64.36572 60.70387 75.52323
#
# Poissons Ratio (x) = 0.15460 0.17054
# Poissons Ratio (y) = 0.16393 0.15072
# Poissons Ratio (z) = 0.14534 0.12114
#
# Static dielectric constant tensor:
#      x y z
#    x 1.896050 0.055420 -0.031580 
#    y 0.055420 1.906880 -0.025110 
#    z -0.031580 -0.025110 1.809360 
# 
# From -- ./inp_files/418026.got.cif
#   From: 2010.05.17/outbox.cif.g08.bks.cpg/sg2_210_cif.got.tgz:418026.got - 2010.06.03 11:33:40.
