data_PCOD9003384
_publ_section_title
;
Structure prediction by ZEFSAII (Michael W. Deem and Ramdas Pophale) SiO2 
 PCOD9003384
Probable space group: P -1
;
_chemical_formula_sum "Si O2"
_cell_formula_units_Z 16
_cell_length_a 15.615021
_cell_length_b 11.766030
_cell_length_c 9.824520
_cell_angle_alpha 53.954856
_cell_angle_beta 61.284595
_cell_angle_gamma 27.862699
_cell_volume 678.302021
_symmetry_space_group_name_H-M "P -1"
_symmetry_group_IT_number 2
_symmetry_cell_setting 'triclinic'
loop_
_space_group_symop_operation_xyz
x,y,z
-x,-y,-z
loop_
_atom_site_type_symbol
_atom_site_label
_atom_site_fract_x
_atom_site_fract_y
_atom_site_fract_z
Si Si1 0.960562 0.904098 0.338382
Si Si2 0.693486 0.609293 0.444294
Si Si3 0.621017 0.285016 0.178741
Si Si4 0.697200 0.930392 0.210022
Si Si5 0.938184 0.498755 0.908193
Si Si6 0.449376 0.715057 0.185804
Si Si7 0.309859 0.968649 0.383652
Si Si8 0.844255 0.336357 0.238550
O O1 0.174588 0.599928 0.384662
O O2 0.833424 0.080135 0.176395
O O3 0.841252 0.923258 0.484194
O O4 0.943993 0.067115 0.324462
O O5 0.642687 0.835403 0.331452
O O6 0.506825 0.754247 0.453451
O O7 0.828538 0.417297 0.345607
O O8 0.515504 0.483376 0.246684
O O9 0.633002 0.106703 0.257946
O O10 0.500000 0.500000 0.000000
O O11 0.916191 0.661693 0.210687
O O12 0.632459 0.089748 0.009573
O O13 0.756554 0.799091 0.784550
O O14 0.920782 0.359370 0.062028
O O15 0.000000 0.500000 0.000000
O O16 0.325015 0.856302 0.314403
O O17 0.633051 0.568610 0.196107
#
# Coordination Sequence:
#
# PCOD9003384 Si02
#       8
#     2   2   2   2   2   2   2   2
#     4  11  23  44  63  93 133 162 209 261 318 375
#     4  11  22  37  63  97 129 166 202 260 326 373
#     4   9  22  42  64  87 122 178 211 249 313 374
#     4  11  20  38  64  91 130 169 212 255 304 378
#     4  12  20  36  64  98 129 163 211 259 316 367
#     4   9  19  37  63  91 126 162 213 258 309 370
#     4  11  22  39  68 100 127 159 206 267 325 366
#     4  10  21  37  59  94 130 161 207 260 313 375
#
# _framework density 23.588312999999999
#
# number of rings (size 3 to 8) (size 9 to 14) (size 15 to 20)
#    0.000    1.500    3.750    1.125    0.000    7.000 
#    6.750    3.125    2.750    0.000    0.000    0.000 
#    0.000    0.000    0.000    0.000    0.000    0.000 
#
# Total GULP energy -89395.630178 kJ/mol
# GULP energy per Si atom -5587.226886 kJ/mol
# Density = 2.353463 g / cm^3
# Si number density = 23.588313 Si / 1000 Ang^3
#
#
#
# Elastic Constant Matrix: (Units=GPa)
#
#
# Indices 1 2 3 4 5 6 
#
# 1 115.3901 39.8128 52.6978 -22.7184 -10.1333 15.7321
# 2 39.8128 77.7315 31.1406 -27.7229 7.4822 1.5413
# 3 52.6978 31.1406 79.3087 -24.6933 -6.4573 -9.0097
# 4 -22.7184 -27.7229 -24.6933 41.7094 -1.0266 3.1121
# 5 -10.1333 7.4822 -6.4573 -1.0266 44.2790 -11.0254
# 6 15.7321 1.5413 -9.0097 3.1121 -11.0254 41.5916
#
#
#
# Elastic Compliance Matrix: (Units=1/GPa)
#
#
# Indices 1 2 3 4 5 6 
#
# 1 0.015547 -0.003824 -0.009293 0.001014 0.000989 -0.007566
# 2 -0.003824 0.019873 -0.002958 0.009399 -0.004930 -0.001941
# 3 -0.009293 -0.002958 0.023265 0.006154 0.004231 0.009325
# 4 0.001014 0.009399 0.006154 0.034566 -0.000162 -0.002028
# 5 0.000989 -0.004930 0.004231 -0.000162 0.026167 0.007674
# 6 -0.007566 -0.001941 0.009325 -0.002028 0.007674 0.031183
#
#
# Mechanical properties :
#
#
# Convention : Reuss Voigt Hill
#
# Bulk Modulus (GPa) = 37.68319 57.74806 47.71563
# Shear Modulus (GPa) = 26.09647 35.43461 30.76554
#
# Velocity S-wave (km/s) = 3.32976 3.88004 3.61539
# Velocity P-wave (km/s) = 5.54916 6.67890 6.14007
#
# Compressibility (1/GPa) = 0.02653703
#
# Stress axis : x y z
#
# Youngs Moduli (GPa) = 64.31928 50.31843 42.98292
#
# Poissons Ratio (x) = 0.19241 0.39942
# Poissons Ratio (y) = 0.24594 0.12715
# Poissons Ratio (z) = 0.59769 0.14885
#
# Static dielectric constant tensor:
#      x y z
#    x 1.905380 -0.001510 0.074140 
#    y -0.001510 1.901710 -0.005800 
#    z 0.074140 -0.005800 1.954580 
# 
# From -- ./inp_files/451085.got.cif
#   From: 2010.05.17/outbox.cif.g08.bks.cpg/sg2_226_cif.got.tgz:451085.got - 2010.06.03 11:33:40.
