data_PCOD9003586
_publ_section_title
;
Structure prediction by ZEFSAII (Michael W. Deem and Ramdas Pophale) SiO2 
 PCOD9003586
Probable space group: P -1
;
_chemical_formula_sum "Si O2"
_cell_formula_units_Z 16
_cell_length_a 19.979892
_cell_length_b 9.017335
_cell_length_c 19.533925
_cell_angle_alpha 46.733667
_cell_angle_beta 158.762907
_cell_angle_gamma 141.356808
_cell_volume 781.817209
_symmetry_space_group_name_H-M "P -1"
_symmetry_group_IT_number 2
_symmetry_cell_setting 'triclinic'
loop_
_space_group_symop_operation_xyz
x,y,z
-x,-y,-z
loop_
_atom_site_type_symbol
_atom_site_label
_atom_site_fract_x
_atom_site_fract_y
_atom_site_fract_z
Si Si1 0.751531 0.583870 0.212893
Si Si2 0.653610 0.877089 0.509583
Si Si3 0.036797 0.156931 0.282457
Si Si4 0.807514 0.255745 0.927324
Si Si5 0.075092 0.549595 0.447278
Si Si6 0.252774 0.150985 0.106334
Si Si7 0.739778 0.500814 0.490075
Si Si8 0.800517 0.079386 0.723211
O O1 0.816320 0.502732 0.369070
O O2 0.837530 0.490045 0.262893
O O3 0.896238 0.872942 0.252828
O O4 0.500000 0.500000 0.000000
O O5 0.414934 0.750409 0.290071
O O6 0.797165 0.790260 0.638384
O O7 0.775823 0.163853 0.518294
O O8 0.654059 0.868813 0.594962
O O9 0.175216 0.295252 0.436914
O O10 0.876614 0.236847 0.075905
O O11 0.769935 0.023987 0.921700
O O12 0.000000 0.500000 0.000000
O O13 0.093044 0.420441 0.438706
O O14 0.494787 0.390607 0.262850
O O15 0.225399 0.013841 0.195277
O O16 0.050252 0.187128 0.901948
O O17 0.738540 0.277443 0.595231
#
# Coordination Sequence:
#
# PCOD9003586 Si02
#       8
#     2   2   2   2   2   2   2   2
#     4  10  21  40  67  90 118 154 200 252 302 370
#     4  10  21  40  62  86 127 160 205 254 295 362
#     4  11  25  40  60  94 124 159 204 251 309 353
#     4  12  24  37  60  91 122 163 209 249 294 358
#     4   9  20  39  64  90 114 160 201 238 311 364
#     4  11  22  38  61  85 118 167 210 248 299 358
#     4  11  23  39  62  86 128 158 196 256 302 356
#     4  10  21  37  61  86 116 167 215 243 299 355
#
# _framework density 20.465142
#
# number of rings (size 3 to 8) (size 9 to 14) (size 15 to 20)
#    0.000    1.500    3.750    1.875    1.750    4.000 
#    0.000    0.625    0.000    0.000    0.000    0.000 
#    0.000    0.000    0.000    0.000    0.000    0.000 
#
# Total GULP energy -89436.408399 kJ/mol
# GULP energy per Si atom -5589.775525 kJ/mol
# Density = 2.041856 g / cm^3
# Si number density = 20.465142 Si / 1000 Ang^3
#
#
#
# Elastic Constant Matrix: (Units=GPa)
#
#
# Indices 1 2 3 4 5 6 
#
# 1 64.7918 4.9082 11.2698 11.1186 -0.6735 -3.9616
# 2 4.9082 31.3043 14.7849 7.2120 -1.5284 -4.6562
# 3 11.2698 14.7849 132.2448 4.2435 15.2878 -7.1508
# 4 11.1186 7.2120 4.2435 24.7700 -1.6640 -8.8864
# 5 -0.6735 -1.5284 15.2878 -1.6640 31.2916 -4.2809
# 6 -3.9616 -4.6562 -7.1508 -8.8864 -4.2809 23.3247
#
#
#
# Elastic Compliance Matrix: (Units=1/GPa)
#
#
# Indices 1 2 3 4 5 6 
#
# 1 0.016927 -0.000395 -0.001238 -0.007337 0.000521 -0.000283
# 2 -0.000395 0.036521 -0.004032 -0.008239 0.003792 0.003544
# 3 -0.001238 -0.004032 0.008658 0.000303 -0.004306 0.000965
# 4 -0.007337 -0.008239 0.000303 0.052841 0.004588 0.018176
# 5 0.000521 0.003792 -0.004306 0.004588 0.035569 0.007801
# 6 -0.000283 0.003544 0.000965 0.018176 0.007801 0.052185
#
#
# Mechanical properties :
#
#
# Convention : Reuss Voigt Hill
#
# Bulk Modulus (GPa) = 19.69474 32.25184 25.97329
# Shear Modulus (GPa) = 21.64919 29.03579 25.34249
#
# Velocity S-wave (km/s) = 3.25600 3.77077 3.52280
# Velocity P-wave (km/s) = 4.87646 5.89508 5.40979
#
# Compressibility (1/GPa) = 0.05077499
#
# Stress axis : x y z
#
# Youngs Moduli (GPa) = 59.07859 27.38147 115.49795
#
# Poissons Ratio (x) = 0.01083 0.14303
# Poissons Ratio (y) = 0.02336 0.46565
# Poissons Ratio (z) = 0.07316 0.11039
#
# Static dielectric constant tensor:
#      x y z
#    x 1.748270 -0.005530 0.017440 
#    y -0.005530 1.714250 -0.008160 
#    z 0.017440 -0.008160 1.742490 
# 
# From -- ./inp_files/202260.got.cif
#   From: 2010.05.17/outbox.cif.g08.bks.cpg/sg2_102_cif.got.tgz:202260.got - 2010.06.03 11:33:40.
