data_PCOD9003344
_publ_section_title
;
Structure prediction by ZEFSAII (Michael W. Deem and Ramdas Pophale) SiO2 
 PCOD9003344
Probable space group: P -1
;
_chemical_formula_sum "Si O2"
_cell_formula_units_Z 15
_cell_length_a 24.033195
_cell_length_b 9.267956
_cell_length_c 10.164478
_cell_angle_alpha 134.235466
_cell_angle_beta 27.487891
_cell_angle_gamma 147.462434
_cell_volume 550.409035
_symmetry_space_group_name_H-M "P -1"
_symmetry_group_IT_number 2
_symmetry_cell_setting 'triclinic'
loop_
_space_group_symop_operation_xyz
x,y,z
-x,-y,-z
loop_
_atom_site_type_symbol
_atom_site_label
_atom_site_fract_x
_atom_site_fract_y
_atom_site_fract_z
Si Si1 0.853900 0.082971 0.050146
Si Si2 0.866167 0.499831 0.428006
Si Si3 0.572883 0.441793 0.539308
Si Si4 0.500000 0.500000 0.500000
Si Si5 0.319158 0.036281 0.039946
Si Si6 0.483622 0.779324 0.979384
Si Si7 0.031781 0.438199 0.254660
Si Si8 0.109059 0.110008 0.683682
O O1 0.960461 0.195617 0.765326
O O2 0.991035 0.147575 0.901616
O O3 0.827075 0.290727 0.263582
O O4 0.690004 0.777228 0.223253
O O5 0.709778 0.461777 0.744234
O O6 0.895395 0.387128 0.417579
O O7 0.570955 0.367906 0.347857
O O8 0.737623 0.630469 0.394092
O O9 0.435400 0.222349 0.791746
O O10 0.544318 0.651037 0.686588
O O11 0.195004 0.075784 0.365287
O O12 0.213379 0.721842 0.021176
O O13 0.422475 0.122574 0.014830
O O14 0.500000 0.000000 0.000000
O O15 0.000000 0.500000 0.500000
O O16 0.990231 0.162130 0.194561
#
# Coordination Sequence:
#
# PCOD9003344 Si02
#       8
#     2   2   2   1   2   2   2   2
#     4  11  25  43  64  88 126 168 212 259 309 373
#     4  11  23  42  64  91 125 168 208 253 314 372
#     4  11  23  41  65  92 127 166 208 257 311 376
#     4  12  26  40  58  94 128 164 210 260 312 360
#     4  10  21  40  67  96 123 159 208 261 313 369
#     4  11  21  39  68  98 128 161 207 261 314 374
#     4  10  21  37  59  90 124 156 200 251 305 367
#     4  10  21  42  66  91 121 163 207 252 315 379
#
# _framework density 27.252457
#
# number of rings (size 3 to 8) (size 9 to 14) (size 15 to 20)
#    0.000    1.333    0.000    8.000    0.000    6.400 
#    0.000    4.667    0.000    8.800    0.000    0.000 
#    0.000    0.000    0.000    0.000    0.000    0.000 
#
# Total GULP energy -83888.970675 kJ/mol
# GULP energy per Si atom -5592.598045 kJ/mol
# Density = 2.719043 g / cm^3
# Si number density = 27.252457 Si / 1000 Ang^3
#
#
#
# Elastic Constant Matrix: (Units=GPa)
#
#
# Indices 1 2 3 4 5 6 
#
# 1 120.6068 37.5227 12.3086 -10.6619 -2.3086 -16.9519
# 2 37.5227 121.9484 78.3880 -17.0906 0.3721 -8.1887
# 3 12.3086 78.3880 142.7138 -32.7655 0.9976 -5.1838
# 4 -10.6619 -17.0906 -32.7655 62.5582 -6.8817 5.9413
# 5 -2.3086 0.3721 0.9976 -6.8817 51.6869 -8.5270
# 6 -16.9519 -8.1887 -5.1838 5.9413 -8.5270 43.4907
#
#
#
# Elastic Compliance Matrix: (Units=1/GPa)
#
#
# Indices 1 2 3 4 5 6 
#
# 1 0.009880 -0.003634 0.001561 0.001315 0.001174 0.003403
# 2 -0.003634 0.014130 -0.007616 -0.000805 -0.000156 0.000415
# 3 0.001561 -0.007616 0.012105 0.004574 0.000515 0.000094
# 4 0.001315 -0.000805 0.004574 0.018750 0.002273 -0.001210
# 5 0.001174 -0.000156 0.000515 0.002273 0.020382 0.004175
# 6 0.003403 0.000415 0.000094 -0.001210 0.004175 0.025393
#
#
# Mechanical properties :
#
#
# Convention : Reuss Voigt Hill
#
# Bulk Modulus (GPa) = 59.74887 71.30082 65.52485
# Shear Modulus (GPa) = 39.80974 48.68382 44.24678
#
# Velocity S-wave (km/s) = 3.82616 4.23117 4.03375
# Velocity P-wave (km/s) = 6.44136 7.07745 6.76688
#
# Compressibility (1/GPa) = 0.01673672
#
# Stress axis : x y z
#
# Youngs Moduli (GPa) = 101.21631 70.77307 82.60714
#
# Poissons Ratio (x) = 0.25722 -0.12898
# Poissons Ratio (y) = 0.36786 0.62915
# Poissons Ratio (z) = -0.15804 0.53902
#
# Static dielectric constant tensor:
#      x y z
#    x 16.526570 15.064290 -1.142710 
#    y 15.064290 18.431140 -1.382830 
#    z -1.142710 -1.382830 2.329020 
# 
# From -- ./inp_files/474276.got.cif
#   From: 2010.05.17/outbox.cif.g08.bks.cpg/sg2_238_cif.got.tgz:474276.got - 2010.06.03 11:33:40.
