data_PCOD9003357
_publ_section_title
;
Structure prediction by ZEFSAII (Michael W. Deem and Ramdas Pophale) SiO2 
 PCOD9003357
Probable space group: P -1
;
_chemical_formula_sum "Si O2"
_cell_formula_units_Z 16
_cell_length_a 9.465246
_cell_length_b 7.927963
_cell_length_c 15.561214
_cell_angle_alpha 91.901852
_cell_angle_beta 143.041862
_cell_angle_gamma 68.753167
_cell_volume 581.838961
_symmetry_space_group_name_H-M "P -1"
_symmetry_group_IT_number 2
_symmetry_cell_setting 'triclinic'
loop_
_space_group_symop_operation_xyz
x,y,z
-x,-y,-z
loop_
_atom_site_type_symbol
_atom_site_label
_atom_site_fract_x
_atom_site_fract_y
_atom_site_fract_z
Si Si1 0.561113 0.130538 0.966519
Si Si2 0.241066 0.782385 0.476108
Si Si3 0.500048 0.837087 0.352688
Si Si4 0.326433 0.129476 0.128786
Si Si5 0.958481 0.471842 0.685990
Si Si6 0.298738 0.768970 0.798194
Si Si7 0.265275 0.522458 0.638745
Si Si8 0.163602 0.266493 0.223824
O O1 0.252044 0.296378 0.782390
O O2 0.752581 0.984068 0.979876
O O3 0.659043 0.237534 0.079180
O O4 0.500000 0.000000 0.000000
O O5 0.190907 0.652045 0.380086
O O6 0.214101 0.697533 0.552092
O O7 0.548120 0.741563 0.620785
O O8 0.002557 0.018760 0.357415
O O9 0.743531 0.681264 0.533909
O O10 0.466729 0.683040 0.276221
O O11 0.548436 0.956277 0.302358
O O12 0.250899 0.037358 0.284179
O O13 0.476400 0.210055 0.146478
O O14 0.100564 0.285366 0.091562
O O15 0.038864 0.543039 0.811742
O O16 0.303916 0.588358 0.751148
O O17 0.000000 0.500000 0.500000
#
# Coordination Sequence:
#
# PCOD9003357 Si02
#       8
#     2   2   2   2   2   2   2   2
#     4  10  21  39  59  85 128 162 201 246 293 368
#     4  11  20  34  59  86 125 149 200 260 307 358
#     4   9  21  33  60  84 122 149 202 255 303 346
#     4   9  19  38  60  85 121 159 199 251 301 353
#     4  11  21  36  62  90 121 160 198 251 309 362
#     4  11  20  37  60  87 126 159 197 246 305 359
#     4  11  20  31  59  96 116 152 199 259 310 348
#     4  10  21  37  59  91 119 156 202 255 311 350
#
# _framework density 27.499020000000002
#
# number of rings (size 3 to 8) (size 9 to 14) (size 15 to 20)
#    0.750    1.000    3.750    2.625    1.750    0.000 
#    0.000    3.125    0.000    0.750    0.000    0.000 
#    0.000    0.000    0.000    0.000    0.000    0.000 
#
# Total GULP energy -89408.781361 kJ/mol
# GULP energy per Si atom -5588.048835 kJ/mol
# Density = 2.743643 g / cm^3
# Si number density = 27.499020 Si / 1000 Ang^3
#
#
#
# Elastic Constant Matrix: (Units=GPa)
#
#
# Indices 1 2 3 4 5 6 
#
# 1 55.7019 31.7940 26.3418 9.5284 -7.6963 -11.1476
# 2 31.7940 188.1099 55.0222 43.9387 -9.4713 -25.9478
# 3 26.3418 55.0222 94.5255 20.4220 -19.9599 5.7651
# 4 9.5284 43.9387 20.4220 70.4790 -8.9957 -22.2673
# 5 -7.6963 -9.4713 -19.9599 -8.9957 38.3256 10.8519
# 6 -11.1476 -25.9478 5.7651 -22.2673 10.8519 52.7345
#
#
#
# Elastic Compliance Matrix: (Units=1/GPa)
#
#
# Indices 1 2 3 4 5 6 
#
# 1 0.022500 -0.001674 -0.005928 0.001337 -0.000134 0.005172
# 2 -0.001674 0.007766 -0.004116 -0.002673 -0.002100 0.003221
# 3 -0.005928 -0.004116 0.017664 -0.003299 0.008587 -0.008370
# 4 0.001337 -0.002673 -0.003299 0.018966 0.000281 0.007279
# 5 -0.000134 -0.002100 0.008587 0.000281 0.032512 -0.008572
# 6 0.005172 0.003221 -0.008370 0.007279 -0.008572 0.027394
#
#
# Mechanical properties :
#
#
# Convention : Reuss Voigt Hill
#
# Bulk Modulus (GPa) = 40.82965 62.73924 51.78445
# Shear Modulus (GPa) = 31.56540 47.31976 39.44258
#
# Velocity S-wave (km/s) = 3.39170 4.15273 3.79136
# Velocity P-wave (km/s) = 5.49710 6.77186 6.16751
#
# Compressibility (1/GPa) = 0.02449201
#
# Stress axis : x y z
#
# Youngs Moduli (GPa) = 44.44477 128.76760 56.61376
#
# Poissons Ratio (x) = 0.21562 0.33560
# Poissons Ratio (y) = 0.07442 0.23304
# Poissons Ratio (z) = 0.26346 0.53004
#
# Static dielectric constant tensor:
#      x y z
#    x 2.258520 -0.057380 -0.051280 
#    y -0.057380 2.211390 0.060560 
#    z -0.051280 0.060560 2.131520 
# 
# From -- ./inp_files/515792.got.cif
#   From: 2010.05.17/outbox.cif.g08.bks.cpg/sg2_258_cif.got.tgz:515792.got - 2010.06.03 11:33:40.
