data_PCOD9003998
_publ_section_title
;
Structure prediction by ZEFSAII (Michael W. Deem and Ramdas Pophale) SiO2 
 PCOD9003998
Probable space group: P -1
;
_chemical_formula_sum "Si O2"
_cell_formula_units_Z 14
_cell_length_a 5.731568
_cell_length_b 18.833408
_cell_length_c 11.859645
_cell_angle_alpha 153.060356
_cell_angle_beta 100.035084
_cell_angle_gamma 76.196055
_cell_volume 561.084464
_symmetry_space_group_name_H-M "P -1"
_symmetry_group_IT_number 2
_symmetry_cell_setting 'triclinic'
loop_
_space_group_symop_operation_xyz
x,y,z
-x,-y,-z
loop_
_atom_site_type_symbol
_atom_site_label
_atom_site_fract_x
_atom_site_fract_y
_atom_site_fract_z
Si Si1 0.828778 0.875787 0.786209
Si Si2 0.005726 0.452349 0.601355
Si Si3 0.700287 0.388847 0.287319
Si Si4 0.208790 0.689722 0.316299
Si Si5 0.652782 0.996326 0.174664
Si Si6 0.334126 0.322925 0.833216
Si Si7 0.355472 0.211742 0.916320
O O1 0.632329 0.935843 0.760378
O O2 0.946766 0.692525 0.514610
O O3 0.693860 0.881417 0.905822
O O4 0.000000 0.000000 0.000000
O O5 0.923005 0.371475 0.365999
O O6 0.248165 0.515003 0.681907
O O7 0.820590 0.614628 0.840489
O O8 0.500000 0.500000 0.500000
O O9 0.609609 0.232906 0.021827
O O10 0.221609 0.850837 0.613587
O O11 0.423054 0.700636 0.256534
O O12 0.934429 0.695749 0.258368
O O13 0.294431 0.513616 0.126906
O O14 0.732402 0.910235 0.177926
O O15 0.382914 0.200542 0.769297
#
# Coordination Sequence:
#
# PCOD9003998 Si02
#       7
#     2   2   2   2   2   2   2
#     4  11  25  41  65 100 143 189 228 282 356 431
#     4  10  21  37  63  92 137 182 229 275 339 433
#     4   9  18  34  57  90 131 171 222 276 335 403
#     4  10  25  49  73 104 139 185 242 300 357 429
#     4  11  26  43  66 102 144 179 232 297 358 414
#     4  10  25  47  76 103 137 187 246 293 361 429
#     4  11  24  40  69 101 136 183 228 296 349 423
#
# _framework density 24.951678999999999
#
# number of rings (size 3 to 8) (size 9 to 14) (size 15 to 20)
#    0.000    1.714    0.000    3.429    8.000    4.571 
#    0.000    0.000    0.000    0.000    0.000    0.000 
#    0.000    0.000    0.000    0.000    0.000    0.000 
#
# Total GULP energy -78144.654798 kJ/mol
# GULP energy per Si atom -5581.761057 kJ/mol
# Density = 2.489489 g / cm^3
# Si number density = 24.951679 Si / 1000 Ang^3
#
#
#
# Elastic Constant Matrix: (Units=GPa)
#
#
# Indices 1 2 3 4 5 6 
#
# 1 110.0076 35.3274 28.7464 10.8472 7.9621 4.8420
# 2 35.3274 139.5822 26.6556 25.5620 -7.3360 4.1645
# 3 28.7464 26.6556 80.9322 18.0446 -3.5372 -2.0818
# 4 10.8472 25.5620 18.0446 40.4448 1.7102 -1.0868
# 5 7.9621 -7.3360 -3.5372 1.7102 40.1691 -0.1416
# 6 4.8420 4.1645 -2.0818 -1.0868 -0.1416 35.5110
#
#
#
# Elastic Compliance Matrix: (Units=1/GPa)
#
#
# Indices 1 2 3 4 5 6 
#
# 1 0.010949 -0.002255 -0.003321 0.000054 -0.002882 -0.001433
# 2 -0.002255 0.008934 -0.001021 -0.004704 0.002186 -0.000935
# 3 -0.003321 -0.001021 0.015173 -0.005284 0.002037 0.001308
# 4 0.000054 -0.004704 -0.005284 0.030182 -0.002616 0.001148
# 5 -0.002882 0.002186 0.002037 -0.002616 0.026157 0.000280
# 6 -0.001433 -0.000935 0.001308 0.001148 0.000280 0.028578
#
#
# Mechanical properties :
#
#
# Convention : Reuss Voigt Hill
#
# Bulk Modulus (GPa) = 45.74450 56.88676 51.31563
# Shear Modulus (GPa) = 35.59843 39.21115 37.40479
#
# Velocity S-wave (km/s) = 3.78126 3.96849 3.87601
# Velocity P-wave (km/s) = 6.11857 6.62170 6.37510
#
# Compressibility (1/GPa) = 0.02186055
#
# Stress axis : x y z
#
# Youngs Moduli (GPa) = 91.33495 111.92840 65.90730
#
# Poissons Ratio (x) = 0.25245 0.21887
# Poissons Ratio (y) = 0.20600 0.06731
# Poissons Ratio (z) = 0.30331 0.11431
#
# Static dielectric constant tensor:
#      x y z
#    x 2.050960 0.072630 -0.059450 
#    y 0.072630 2.080380 -0.010480 
#    z -0.059450 -0.010480 2.017470 
# 
# From -- ./inp_files/84305.got.cif
#   From: 2010.05.17/outbox.cif.g08.bks.cpg/sg2_43_cif.got.tgz:84305.got - 2010.06.03 11:33:40.
