data_PCOD9003630
_publ_section_title
;
Structure prediction by ZEFSAII (Michael W. Deem and Ramdas Pophale) SiO2 
 PCOD9003630
Probable space group: P -1
;
_chemical_formula_sum "Si O2"
_cell_formula_units_Z 13
_cell_length_a 12.558668
_cell_length_b 9.637899
_cell_length_c 12.724953
_cell_angle_alpha 110.922707
_cell_angle_beta 65.129690
_cell_angle_gamma 159.311596
_cell_volume 490.491741
_symmetry_space_group_name_H-M "P -1"
_symmetry_group_IT_number 2
_symmetry_cell_setting 'triclinic'
loop_
_space_group_symop_operation_xyz
x,y,z
-x,-y,-z
loop_
_atom_site_type_symbol
_atom_site_label
_atom_site_fract_x
_atom_site_fract_y
_atom_site_fract_z
Si Si1 0.894879 0.163181 0.590468
Si Si2 0.790505 0.259631 0.848769
Si Si3 0.559135 0.896182 0.465477
Si Si4 0.910748 0.589920 0.069938
Si Si5 0.000000 0.000000 0.500000
Si Si6 0.866014 0.874212 0.135084
Si Si7 0.704368 0.594770 0.730205
O O1 0.894661 0.295103 0.710053
O O2 0.228629 0.460819 0.541363
O O3 0.821427 0.151127 0.505449
O O4 0.710127 0.795136 0.580996
O O5 0.834510 0.186267 0.901433
O O6 0.427546 0.871563 0.880294
O O7 0.952089 0.588639 0.930327
O O8 0.536392 0.798253 0.335059
O O9 0.500000 0.000000 0.500000
O O10 0.874641 0.720447 0.140476
O O11 0.968072 0.932686 0.625040
O O12 0.523713 0.539788 0.180144
O O13 0.115571 0.258155 0.204533
O O14 0.000000 0.000000 0.000000
#
# Coordination Sequence:
#
# PCOD9003630 Si02
#       7
#     2   2   2   2   1   2   2
#     4  11  22  38  64  93 122 161 204 262 324 380
#     4  10  21  37  61  90 120 156 204 260 319 367
#     4  11  25  42  61  89 125 165 209 255 315 386
#     4  10  21  38  59  88 122 159 205 257 308 371
#     4  10  22  40  68  98 126 160 212 268 330 368
#     4  12  25  42  64  92 129 172 212 254 315 384
#     4  11  25  43  66  94 127 165 212 270 317 378
#
# _framework density 26.504014999999999
#
# number of rings (size 3 to 8) (size 9 to 14) (size 15 to 20)
#    0.000    1.231    0.000    6.462    0.000    9.231 
#    0.000    0.000    0.000    0.000    0.000    0.000 
#    0.000    0.000    0.000    0.000    0.000    0.000 
#
# Total GULP energy -72439.133512 kJ/mol
# GULP energy per Si atom -5572.241039 kJ/mol
# Density = 2.644369 g / cm^3
# Si number density = 26.504015 Si / 1000 Ang^3
#
#
#
# Elastic Constant Matrix: (Units=GPa)
#
#
# Indices 1 2 3 4 5 6 
#
# 1 96.9684 30.8442 2.9294 9.1370 -4.3808 17.4768
# 2 30.8442 70.4590 40.7133 5.1718 -4.4927 28.1605
# 3 2.9294 40.7133 157.8184 14.4906 5.2336 15.9988
# 4 9.1370 5.1718 14.4906 41.5783 9.7995 -6.8052
# 5 -4.3808 -4.4927 5.2336 9.7995 46.9532 -0.1571
# 6 17.4768 28.1605 15.9988 -6.8052 -0.1571 38.2933
#
#
#
# Elastic Compliance Matrix: (Units=1/GPa)
#
#
# Indices 1 2 3 4 5 6 
#
# 1 0.012854 -0.004733 0.001661 -0.003740 0.001329 -0.003739
# 2 -0.004733 0.025625 -0.004725 -0.003788 0.003276 -0.015370
# 3 0.001661 -0.004725 0.007884 -0.002541 -0.000649 -0.001031
# 4 -0.003740 -0.003788 -0.002541 0.029539 -0.006557 0.010777
# 5 0.001329 0.003276 -0.000649 -0.006557 0.023163 -0.003815
# 6 -0.003739 -0.015370 -0.001031 0.010777 -0.003815 0.041454
#
#
# Mechanical properties :
#
#
# Convention : Reuss Voigt Hill
#
# Bulk Modulus (GPa) = 32.50161 52.69105 42.59633
# Shear Modulus (GPa) = 30.05337 42.08222 36.06780
#
# Velocity S-wave (km/s) = 3.37102 3.98900 3.69296
# Velocity P-wave (km/s) = 5.23844 6.41403 5.85581
#
# Compressibility (1/GPa) = 0.03076771
#
# Stress axis : x y z
#
# Youngs Moduli (GPa) = 77.79447 39.02451 126.84018
#
# Poissons Ratio (x) = 0.18471 -0.21066
# Poissons Ratio (y) = 0.36821 0.59938
# Poissons Ratio (z) = -0.12920 0.18441
#
# Static dielectric constant tensor:
#      x y z
#    x 2.467670 -0.939600 -0.170630 
#    y -0.939600 4.006560 0.307430 
#    z -0.170630 0.307430 2.190630 
# 
# From -- ./inp_files/92058.got.cif
#   From: 2010.05.17/outbox.cif.g08.bks.cpg/sg2_47_cif.got.tgz:92058.got - 2010.06.03 11:33:40.
