data_PCOD9003907
_publ_section_title
;
Structure prediction by ZEFSAII (Michael W. Deem and Ramdas Pophale) SiO2 
 PCOD9003907
Probable space group: P -1
;
_chemical_formula_sum "Si O2"
_cell_formula_units_Z 14
_cell_length_a 16.089792
_cell_length_b 9.784281
_cell_length_c 5.415090
_cell_angle_alpha 42.732105
_cell_angle_beta 60.895359
_cell_angle_gamma 68.075881
_cell_volume 505.241596
_symmetry_space_group_name_H-M "P -1"
_symmetry_group_IT_number 2
_symmetry_cell_setting 'triclinic'
loop_
_space_group_symop_operation_xyz
x,y,z
-x,-y,-z
loop_
_atom_site_type_symbol
_atom_site_label
_atom_site_fract_x
_atom_site_fract_y
_atom_site_fract_z
Si Si1 0.500000 0.500000 0.000000
Si Si2 0.969336 0.333201 0.576745
Si Si3 0.638750 0.114622 0.222919
Si Si4 0.697941 0.523525 0.016400
Si Si5 0.698516 0.034229 0.743006
Si Si6 0.783228 0.471076 0.461668
Si Si7 0.500000 0.500000 0.500000
Si Si8 0.087513 0.022681 0.533349
O O1 0.448082 0.735006 0.787914
O O2 0.560886 0.561552 0.566839
O O3 0.895234 0.422219 0.367641
O O4 0.000000 0.500000 0.500000
O O5 0.912380 0.170909 0.033374
O O6 0.056341 0.211576 0.492981
O O7 0.661700 0.968285 0.613649
O O8 0.630244 0.009057 0.109292
O O9 0.728717 0.259263 0.850669
O O10 0.696386 0.277952 0.375044
O O11 0.751331 0.577655 0.115947
O O12 0.583809 0.560401 0.091087
O O13 0.753834 0.579770 0.615850
O O14 0.806536 0.967311 0.736083
O O15 0.000000 0.000000 0.500000
#
# Coordination Sequence:
#
# PCOD9003907 Si02
#       8
#     1   2   2   2   2   2   1   2
#     4  12  16  24  40  72 114 146 186 234 300 358
#     4  11  25  41  61  90 121 163 218 263 310 378
#     4  10  17  28  46  75 109 154 185 241 298 361
#     4  10  17  28  47  74 111 152 187 239 302 358
#     4  10  18  30  50  72 106 152 193 230 305 354
#     4  10  18  33  49  72 110 155 186 243 307 345
#     4  12  16  24  40  74 110 148 186 234 294 366
#     4  11  23  40  63  85 119 168 204 265 322 367
#
# _framework density 27.709515
#
# number of rings (size 3 to 8) (size 9 to 14) (size 15 to 20)
#    0.000    1.429    8.571    1.714    2.000    0.571 
#    0.000    0.000    0.000    0.000    0.000    0.000 
#    0.000    9.143    0.286    0.143    0.000    0.000 
#
# Total GULP energy -78038.152971 kJ/mol
# GULP energy per Si atom -5574.153784 kJ/mol
# Density = 2.764645 g / cm^3
# Si number density = 27.709515 Si / 1000 Ang^3
#
#
#
# Elastic Constant Matrix: (Units=GPa)
#
#
# Indices 1 2 3 4 5 6 
#
# 1 146.5231 72.0777 41.5520 -2.1402 24.1590 -20.4933
# 2 72.0777 125.8864 60.9852 23.4952 13.3562 -2.5674
# 3 41.5520 60.9852 127.5243 17.1313 31.0413 20.8173
# 4 -2.1402 23.4952 17.1313 56.9749 18.0350 11.6684
# 5 24.1590 13.3562 31.0413 18.0350 55.5120 3.5712
# 6 -20.4933 -2.5674 20.8173 11.6684 3.5712 38.8435
#
#
#
# Elastic Compliance Matrix: (Units=1/GPa)
#
#
# Indices 1 2 3 4 5 6 
#
# 1 0.011880 -0.006309 -0.001185 0.003656 -0.004551 0.005806
# 2 -0.006309 0.015157 -0.005734 -0.006603 0.004300 0.002334
# 3 -0.001185 -0.005734 0.013456 0.001752 -0.005670 -0.008221
# 4 0.003656 -0.006603 0.001752 0.023704 -0.008310 -0.005803
# 5 -0.004551 0.004300 -0.005670 -0.008310 0.024757 0.001142
# 6 0.005806 0.002334 -0.008221 -0.005803 0.001142 0.035006
#
#
# Mechanical properties :
#
#
# Convention : Reuss Voigt Hill
#
# Bulk Modulus (GPa) = 71.23203 83.24039 77.23621
# Shear Modulus (GPa) = 32.23806 45.28734 38.76270
#
# Velocity S-wave (km/s) = 3.41461 4.04711 3.74424
# Velocity P-wave (km/s) = 6.42717 7.20724 6.82836
#
# Compressibility (1/GPa) = 0.01403863
#
# Stress axis : x y z
#
# Youngs Moduli (GPa) = 84.17190 65.97415 74.31417
#
# Poissons Ratio (x) = 0.41625 0.08806
# Poissons Ratio (y) = 0.53107 0.42608
# Poissons Ratio (z) = 0.09974 0.37827
#
# Static dielectric constant tensor:
#      x y z
#    x 2.765320 0.312930 0.322850 
#    y 0.312930 2.476200 0.123690 
#    z 0.322850 0.123690 2.308600 
# 
# From -- ./inp_files/104491.got.cif
#   From: 2010.05.17/outbox.cif.g08.bks.cpg/sg2_53_cif.got.tgz:104491.got - 2010.06.03 11:33:40.
