data_PCOD9003594
_publ_section_title
;
Structure prediction by ZEFSAII (Michael W. Deem and Ramdas Pophale) SiO2 
 PCOD9003594
Probable space group: P -1
;
_chemical_formula_sum "Si O2"
_cell_formula_units_Z 14
_cell_length_a 11.730846
_cell_length_b 14.572780
_cell_length_c 19.748270
_cell_angle_alpha 153.289939
_cell_angle_beta 155.682821
_cell_angle_gamma 40.060547
_cell_volume 602.862493
_symmetry_space_group_name_H-M "P -1"
_symmetry_group_IT_number 2
_symmetry_cell_setting 'triclinic'
loop_
_space_group_symop_operation_xyz
x,y,z
-x,-y,-z
loop_
_atom_site_type_symbol
_atom_site_label
_atom_site_fract_x
_atom_site_fract_y
_atom_site_fract_z
Si Si1 0.595930 0.721597 0.275666
Si Si2 0.025400 0.330952 0.125106
Si Si3 0.566991 0.524671 0.748321
Si Si4 0.660410 0.859326 0.123263
Si Si5 0.158501 0.812587 0.289319
Si Si6 0.414433 0.711230 0.657072
Si Si7 0.622479 0.274314 0.983886
O O1 0.702701 0.516677 0.214369
O O2 0.744905 0.954288 0.535764
O O3 0.602711 0.733910 0.204916
O O4 0.255484 0.674326 0.074782
O O5 0.203490 0.571443 0.395639
O O6 0.260079 0.226924 0.153443
O O7 0.884838 0.232457 0.055644
O O8 0.583536 0.292237 0.625173
O O9 0.409640 0.560369 0.619270
O O10 0.480877 0.657620 0.850499
O O11 0.981091 0.829147 0.273419
O O12 0.904803 0.652886 0.005266
O O13 0.670013 0.075156 0.231580
O O14 0.525097 0.868024 0.128533
#
# Coordination Sequence:
#
# PCOD9003594 Si02
#       7
#     2   2   2   2   2   2   2
#     4   9  19  37  61  86 117 149 184 252 285 328
#     4   9  22  37  58  86 114 152 193 233 291 339
#     4   9  22  38  61  86 113 153 201 231 274 352
#     4  10  21  37  61  87 116 154 192 232 288 345
#     4   9  20  39  63  84 109 155 197 236 280 335
#     4  11  21  40  61  81 120 160 185 234 289 349
#     4   9  20  37  58  92 119 139 197 243 286 341
#
# _framework density 23.222543999999999
#
# number of rings (size 3 to 8) (size 9 to 14) (size 15 to 20)
#    1.714    0.857    0.000    1.286    2.000    3.429 
#    2.571    3.571    0.000    0.000    0.000    0.000 
#    0.000    0.000    0.000    0.000    0.000    0.000 
#
# Total GULP energy -77971.771333 kJ/mol
# GULP energy per Si atom -5569.412238 kJ/mol
# Density = 2.316969 g / cm^3
# Si number density = 23.222544 Si / 1000 Ang^3
#
#
#
# Elastic Constant Matrix: (Units=GPa)
#
#
# Indices 1 2 3 4 5 6 
#
# 1 48.5503 1.1766 -17.7644 -8.2247 4.8720 -6.8241
# 2 1.1766 66.2538 4.7578 10.6606 -6.5777 -7.7438
# 3 -17.7644 4.7578 43.6309 3.3535 -2.6915 2.8570
# 4 -8.2247 10.6606 3.3535 29.4565 -8.0122 3.2540
# 5 4.8720 -6.5777 -2.6915 -8.0122 12.8712 4.0511
# 6 -6.8241 -7.7438 2.8570 3.2540 4.0511 26.5345
#
#
#
# Elastic Compliance Matrix: (Units=1/GPa)
#
#
# Indices 1 2 3 4 5 6 
#
# 1 0.026615 -0.001967 0.009828 0.004087 -0.008364 0.005988
# 2 -0.001967 0.017215 -0.002306 -0.006044 0.003744 0.004936
# 3 0.009828 -0.002306 0.027308 0.001196 0.002042 -0.001544
# 4 0.004087 -0.006044 0.001196 0.045789 0.027469 -0.010650
# 5 -0.008364 0.003744 0.002042 0.027469 0.106898 -0.020968
# 6 0.005988 0.004936 -0.001544 -0.010650 -0.020968 0.045341
#
#
# Mechanical properties :
#
#
# Convention : Reuss Voigt Hill
#
# Bulk Modulus (GPa) = 12.15811 14.97498 13.56655
# Shear Modulus (GPa) = 17.51502 25.12346 21.31924
#
# Velocity S-wave (km/s) = 2.74929 3.29273 3.03321
# Velocity P-wave (km/s) = 3.91472 4.57368 4.25697
#
# Compressibility (1/GPa) = 0.08224961
#
# Stress axis : x y z
#
# Youngs Moduli (GPa) = 37.57348 58.08861 36.61963
#
# Poissons Ratio (x) = 0.11424 -0.35991
# Poissons Ratio (y) = 0.07389 0.08443
# Poissons Ratio (z) = -0.36929 0.13393
#
# Static dielectric constant tensor:
#      x y z
#    x 1.907840 -0.019260 -0.016730 
#    y -0.019260 1.884570 -0.015630 
#    z -0.016730 -0.015630 1.905570 
# 
# From -- ./inp_files/610734.got.cif
#   From: 2010.05.17/outbox.cif.g08.bks.cpg/sg2_306_cif.got.tgz:610734.got - 2010.06.03 11:33:40.
