data_PCOD9003320
_publ_section_title
;
Structure prediction by ZEFSAII (Michael W. Deem and Ramdas Pophale) SiO2 
 PCOD9003320
Probable space group: P -1
;
_chemical_formula_sum "Si O2"
_cell_formula_units_Z 10
_cell_length_a 10.152559
_cell_length_b 11.779359
_cell_length_c 10.128060
_cell_angle_alpha 51.877569
_cell_angle_beta 25.847057
_cell_angle_gamma 53.797640
_cell_volume 413.243239
_symmetry_space_group_name_H-M "P -1"
_symmetry_group_IT_number 2
_symmetry_cell_setting 'triclinic'
loop_
_space_group_symop_operation_xyz
x,y,z
-x,-y,-z
loop_
_atom_site_type_symbol
_atom_site_label
_atom_site_fract_x
_atom_site_fract_y
_atom_site_fract_z
Si Si1 0.316047 0.892515 0.661787
Si Si2 0.776691 0.804251 0.804072
Si Si3 0.130260 0.309064 0.781455
Si Si4 0.788520 0.035815 0.855135
Si Si5 0.613430 0.491723 0.252683
O O1 0.571598 0.808142 0.396114
O O2 0.500000 0.000000 0.500000
O O3 0.039122 0.980372 0.773202
O O4 0.131528 0.774740 0.993562
O O5 0.094399 0.837640 0.433195
O O6 0.748537 0.898660 0.895678
O O7 0.531189 0.886995 0.866698
O O8 0.715279 0.641572 0.001114
O O9 0.320585 0.442362 0.471841
O O10 0.913461 0.375989 0.047900
O O11 0.500000 0.500000 0.500000
#
# Coordination Sequence:
#
# PCOD9003320 Si02
#       5
#     2   2   2   2   2
#     4  11  22  41  65  87 117 158 208 258 294 341
#     4  10  21  37  59  88 124 158 189 245 309 365
#     4  10  23  36  58  90 118 152 203 249 295 357
#     4  10  21  37  59  89 120 156 202 242 301 364
#     4  11  21  37  60  87 123 161 197 242 302 365
#
# _framework density 24.198822
#
# number of rings (size 3 to 8) (size 9 to 14) (size 15 to 20)
#    0.000    1.600    0.000    4.800    0.000    9.600 
#    0.000    0.000    0.000   24.000    0.000    0.000 
#    0.000    0.000    0.000    0.000    0.000    0.200 
#
# Total GULP energy -55727.209194 kJ/mol
# GULP energy per Si atom -5572.720919 kJ/mol
# Density = 2.414374 g / cm^3
# Si number density = 24.198822 Si / 1000 Ang^3
#
#
#
# Elastic Constant Matrix: (Units=GPa)
#
#
# Indices 1 2 3 4 5 6 
#
# 1 56.9724 38.8499 22.5645 -4.1371 -36.4214 3.9695
# 2 38.8499 127.0149 59.6378 -19.2589 -12.5404 4.9550
# 3 22.5645 59.6378 179.5898 -31.1104 -29.7386 11.2592
# 4 -4.1371 -19.2589 -31.1104 76.7598 10.8790 -16.4759
# 5 -36.4214 -12.5404 -29.7386 10.8790 42.8968 -4.4517
# 6 3.9695 4.9550 11.2592 -16.4759 -4.4517 18.5121
#
#
#
# Elastic Compliance Matrix: (Units=1/GPa)
#
#
# Indices 1 2 3 4 5 6 
#
# 1 0.057930 -0.016231 0.005440 -0.006971 0.049386 -0.005714
# 2 -0.016231 0.013985 -0.004389 0.003181 -0.013331 0.002031
# 3 0.005440 -0.004389 0.008014 0.000782 0.008472 -0.002133
# 4 -0.006971 0.003181 0.000782 0.017898 -0.007503 0.014293
# 5 0.049386 -0.013331 0.008472 -0.007503 0.068885 -0.002287
# 6 -0.005714 0.002031 -0.002133 0.014293 -0.002287 0.068169
#
#
# Mechanical properties :
#
#
# Convention : Reuss Voigt Hill
#
# Bulk Modulus (GPa) = 20.17383 67.29794 43.73589
# Shear Modulus (GPa) = 17.74542 43.80208 30.77375
#
# Velocity S-wave (km/s) = 2.71092 4.25913 3.56997
# Velocity P-wave (km/s) = 4.26070 7.21510 5.92500
#
# Compressibility (1/GPa) = 0.04956917
#
# Stress axis : x y z
#
# Youngs Moduli (GPa) = 17.26235 71.50417 124.77908
#
# Poissons Ratio (x) = 1.16060 -0.67881
# Poissons Ratio (y) = 0.28019 0.54761
# Poissons Ratio (z) = -0.09391 0.31381
#
# Static dielectric constant tensor:
#      x y z
#    x 1.986130 0.012670 0.003340 
#    y 0.012670 2.016330 -0.059290 
#    z 0.003340 -0.059290 1.964060 
# 
# From -- ./inp_files/211226.got.cif
#   From: 2010.05.17/outbox.cif.g08.bks.cpg/sg2_106_cif.got.tgz:211226.got - 2010.06.03 11:33:40.
