data_PCOD9003069
_publ_section_title
;
Structure prediction by ZEFSAII (Michael W. Deem and Ramdas Pophale) SiO2 
 PCOD9003069
Probable space group: P -1
;
_chemical_formula_sum "Si O2"
_cell_formula_units_Z 15
_cell_length_a 16.306022
_cell_length_b 11.976600
_cell_length_c 7.050335
_cell_angle_alpha 111.595396
_cell_angle_beta 137.019016
_cell_angle_gamma 39.876741
_cell_volume 539.722055
_symmetry_space_group_name_H-M "P -1"
_symmetry_group_IT_number 2
_symmetry_cell_setting 'triclinic'
loop_
_space_group_symop_operation_xyz
x,y,z
-x,-y,-z
loop_
_atom_site_type_symbol
_atom_site_label
_atom_site_fract_x
_atom_site_fract_y
_atom_site_fract_z
Si Si1 0.383446 0.763699 0.876649
Si Si2 0.362706 0.837807 0.321886
Si Si3 0.784924 0.420514 0.819570
Si Si4 0.834837 0.857138 0.330375
Si Si5 0.974243 0.534517 0.750137
Si Si6 0.443121 0.045015 0.653933
Si Si7 0.788558 0.354607 0.364335
Si Si8 0.000000 0.000000 0.000000
O O1 0.381862 0.834408 0.120933
O O2 0.603359 0.555603 0.067462
O O3 0.275355 0.725779 0.721660
O O4 0.264176 0.935195 0.631731
O O5 0.553993 0.616276 0.575588
O O6 0.379631 0.957143 0.511133
O O7 0.160299 0.933388 0.081245
O O8 0.812073 0.407843 0.631417
O O9 0.869966 0.229144 0.914986
O O10 0.914570 0.431961 0.111892
O O11 0.946878 0.641784 0.336595
O O12 0.010490 0.796781 0.495222
O O13 0.624676 0.957012 0.014235
O O14 0.745164 0.732680 0.467364
O O15 0.000000 0.500000 0.000000
O O16 0.500000 0.000000 0.500000
#
# Coordination Sequence:
#
# PCOD9003069 Si02
#       8
#     2   2   2   2   2   2   2   1
#     4  10  21  37  57  86 121 155 190 232 292 352
#     4  11  21  37  56  84 117 153 193 233 285 344
#     4  11  21  37  56  84 117 153 193 233 285 344
#     4  12  20  29  52  84 121 148 175 234 299 352
#     4  12  19  31  53  83 118 147 175 237 304 345
#     4  12  19  31  53  83 118 147 175 237 304 345
#     4  10  21  37  57  86 121 155 190 232 292 352
#     4  12  24  38  54  78 124 162 194 228 274 352
#
# _framework density 27.792079000000001
#
# number of rings (size 3 to 8) (size 9 to 14) (size 15 to 20)
#    0.000    0.800    6.667    2.400    0.000    0.000 
#    0.000    0.000    0.000    0.000    0.000    7.467 
#    0.000    0.000    0.000    0.000    0.000    0.000 
#
# Total GULP energy -83610.780367 kJ/mol
# GULP energy per Si atom -5574.052024 kJ/mol
# Density = 2.772882 g / cm^3
# Si number density = 27.792079 Si / 1000 Ang^3
#
#
#
# Elastic Constant Matrix: (Units=GPa)
#
#
# Indices 1 2 3 4 5 6 
#
# 1 87.3485 30.6562 35.4345 -20.6589 34.7388 -6.5465
# 2 30.6562 120.7771 31.2707 -18.4739 -54.4902 62.2325
# 3 35.4345 31.2707 114.4959 -37.5164 37.9444 -23.3355
# 4 -20.6589 -18.4739 -37.5164 54.4061 14.4744 -3.8182
# 5 34.7388 -54.4902 37.9444 14.4744 -16.3364 54.4768
# 6 -6.5465 62.2325 -23.3355 -3.8182 54.4768 8.3919
#
#
#
# Elastic Compliance Matrix: (Units=1/GPa)
#
#
# Indices 1 2 3 4 5 6 
#
# 1 0.013236 0.000631 -0.004665 0.001726 -0.000225 -0.005085
# 2 0.000631 0.005512 0.001824 0.004835 -0.005252 0.000981
# 3 -0.004665 0.001824 0.009940 0.004881 0.002373 -0.002709
# 4 0.001726 0.004835 0.004881 0.023773 -0.000610 -0.006163
# 5 -0.000225 -0.005252 0.002373 -0.000610 0.004909 0.013228
# 6 -0.005085 0.000981 -0.002709 -0.006163 0.013228 0.011715
#
#
# Mechanical properties :
#
#
# Convention : Reuss Voigt Hill
#
# Bulk Modulus (GPa) = 41.20639 57.48270 49.34454
# Shear Modulus (GPa) = 61.27920 24.30966 42.79443
#
# Velocity S-wave (km/s) = 4.70075 2.96074 3.92829
# Velocity P-wave (km/s) = 6.65744 5.69350 6.19425
#
# Compressibility (1/GPa) = 0.02426808
#
# Stress axis : x y z
#
# Youngs Moduli (GPa) = 75.55301 181.42236 100.60284
#
# Poissons Ratio (x) = -0.11454 0.46932
# Poissons Ratio (y) = -0.04770 -0.18349
# Poissons Ratio (z) = 0.35246 -0.33089
#
# Static dielectric constant tensor:
#      x y z
#    x 2.252040 0.088850 -0.198470 
#    y 0.088850 2.281850 0.056670 
#    z -0.198470 0.056670 2.256510 
# 
# From -- ./inp_files/389602.got.cif
#   From: 2010.05.17/outbox.cif.g08.bks.cpg/sg2_195_cif.got.tgz:389602.got - 2010.06.03 11:33:40.
