data_PCOD9003753
_publ_section_title
;
Structure prediction by ZEFSAII (Michael W. Deem and Ramdas Pophale) SiO2 
 PCOD9003753
Probable space group: P -1
;
_chemical_formula_sum "Si O2"
_cell_formula_units_Z 14
_cell_length_a 9.512404
_cell_length_b 17.262820
_cell_length_c 11.805619
_cell_angle_alpha 45.413498
_cell_angle_beta 53.779033
_cell_angle_gamma 27.914696
_cell_volume 643.847451
_symmetry_space_group_name_H-M "P -1"
_symmetry_group_IT_number 2
_symmetry_cell_setting 'triclinic'
loop_
_space_group_symop_operation_xyz
x,y,z
-x,-y,-z
loop_
_atom_site_type_symbol
_atom_site_label
_atom_site_fract_x
_atom_site_fract_y
_atom_site_fract_z
Si Si1 0.829256 0.516896 0.723348
Si Si2 0.789441 0.841931 0.943830
Si Si3 0.721012 0.971517 0.360704
Si Si4 0.220663 0.680715 0.584507
Si Si5 0.156197 0.836067 0.678537
Si Si6 0.827922 0.694594 0.843930
Si Si7 0.110279 0.598148 0.443982
O O1 0.470844 0.715197 0.703341
O O2 0.884073 0.438598 0.652488
O O3 0.990636 0.551391 0.611730
O O4 0.970207 0.361393 0.904078
O O5 0.735435 0.817311 0.870121
O O6 0.927665 0.892360 0.812434
O O7 0.500000 0.000000 0.000000
O O8 0.980335 0.873319 0.427313
O O9 0.895905 0.809435 0.351698
O O10 0.500000 0.000000 0.500000
O O11 0.485476 0.171661 0.208278
O O12 0.241148 0.699338 0.688003
O O13 0.558749 0.534666 0.535401
O O14 0.060268 0.644910 0.704789
O O15 0.000000 0.000000 0.500000
O O16 0.000000 0.500000 0.000000
#
# Coordination Sequence:
#
# PCOD9003753 Si02
#       7
#     2   2   2   2   2   2   2
#     4  10  23  38  67  89 125 165 209 259 324 370
#     4  11  24  40  64  97 131 163 211 265 316 373
#     4  10  21  37  62  86 122 163 207 251 310 372
#     4   9  21  39  62  89 122 164 211 261 308 377
#     4  10  23  40  64  93 129 164 210 258 318 380
#     4  10  23  41  63  89 129 168 208 259 319 378
#     4  10  21  39  64  94 121 161 216 265 308 377
#
# _framework density 21.744281000000001
#
# number of rings (size 3 to 8) (size 9 to 14) (size 15 to 20)
#    0.000    2.000    0.000    1.714   16.000    0.000 
#    0.000    0.714    0.000    0.000    0.000    0.000 
#    0.000    0.000    0.000    0.000    0.000    0.000 
#
# Total GULP energy -78129.100656 kJ/mol
# GULP energy per Si atom -5580.650047 kJ/mol
# Density = 2.169479 g / cm^3
# Si number density = 21.744281 Si / 1000 Ang^3
#
#
#
# Elastic Constant Matrix: (Units=GPa)
#
#
# Indices 1 2 3 4 5 6 
#
# 1 105.8711 50.3273 23.0627 11.6512 17.0175 -17.6930
# 2 50.3273 155.8396 59.1122 -0.4540 -2.5737 -39.2992
# 3 23.0627 59.1122 124.6675 -8.7131 -1.6712 -39.6773
# 4 11.6512 -0.4540 -8.7131 43.0596 -9.1980 9.4037
# 5 17.0175 -2.5737 -1.6712 -9.1980 27.2210 0.2478
# 6 -17.6930 -39.2992 -39.6773 9.4037 0.2478 42.7613
#
#
#
# Elastic Compliance Matrix: (Units=1/GPa)
#
#
# Indices 1 2 3 4 5 6 
#
# 1 0.014847 -0.003883 -0.000323 -0.007626 -0.012282 0.004024
# 2 -0.003883 0.009924 -0.002211 0.000226 0.003257 0.005394
# 3 -0.000323 -0.002211 0.011992 0.000765 0.000907 0.008788
# 4 -0.007626 0.000226 0.000765 0.030692 0.015289 -0.009076
# 5 -0.012282 0.003257 0.000907 0.015289 0.049989 -0.004899
# 6 0.004024 0.005394 0.008788 -0.009076 -0.004899 0.040186
#
#
# Mechanical properties :
#
#
# Convention : Reuss Voigt Hill
#
# Bulk Modulus (GPa) = 41.78826 72.37586 57.08206
# Shear Modulus (GPa) = 28.02033 39.53345 33.77689
#
# Velocity S-wave (km/s) = 3.59364 4.26855 3.94556
# Velocity P-wave (km/s) = 6.03977 7.59285 6.86040
#
# Compressibility (1/GPa) = 0.02393017
#
# Stress axis : x y z
#
# Youngs Moduli (GPa) = 67.35165 100.76355 83.38880
#
# Poissons Ratio (x) = 0.39125 0.02690
# Poissons Ratio (y) = 0.26152 0.18439
# Poissons Ratio (z) = 0.02173 0.22281
#
# Static dielectric constant tensor:
#      x y z
#    x 1.872960 0.023390 0.016570 
#    y 0.023390 1.838570 0.016380 
#    z 0.016570 0.016380 1.778690 
# 
# From -- ./inp_files/158288.got.cif
#   From: 2010.05.17/outbox.cif.g08.bks.cpg/sg2_80_cif.got.tgz:158288.got - 2010.06.03 11:33:40.
