data_PCOD9003584
_publ_section_title
;
Structure prediction by ZEFSAII (Michael W. Deem and Ramdas Pophale) SiO2 
 PCOD9003584
Probable space group: P -1
;
_chemical_formula_sum "Si O2"
_cell_formula_units_Z 12
_cell_length_a 9.272436
_cell_length_b 9.204353
_cell_length_c 16.063713
_cell_angle_alpha 31.541901
_cell_angle_beta 132.380172
_cell_angle_gamma 138.271893
_cell_volume 474.510251
_symmetry_space_group_name_H-M "P -1"
_symmetry_group_IT_number 2
_symmetry_cell_setting 'triclinic'
loop_
_space_group_symop_operation_xyz
x,y,z
-x,-y,-z
loop_
_atom_site_type_symbol
_atom_site_label
_atom_site_fract_x
_atom_site_fract_y
_atom_site_fract_z
Si Si1 0.002185 0.662156 0.672272
Si Si2 0.427056 0.818106 0.352787
Si Si3 0.817705 0.433822 0.883735
Si Si4 0.407650 0.916952 0.876759
Si Si5 0.531093 0.707090 0.625109
Si Si6 0.405269 0.554892 0.816751
O O1 0.791297 0.426745 0.654105
O O2 0.980866 0.526157 0.824521
O O3 0.198974 0.609091 0.735112
O O4 0.000000 0.000000 0.500000
O O5 0.492151 0.676670 0.527155
O O6 0.604462 0.936798 0.288495
O O7 0.406779 0.111837 0.242617
O O8 0.765267 0.728684 0.729125
O O9 0.591745 0.189186 0.869671
O O10 0.793497 0.272928 0.044112
O O11 0.518879 0.695861 0.000047
O O12 0.374970 0.466653 0.749611
O O13 0.500000 0.000000 0.500000
#
# Coordination Sequence:
#
# PCOD9003584 Si02
#       6
#     2   2   2   2   2   2
#     4  11  23  37  59  89 118 149 193 242 287 339
#     4  10  21  37  61  86 114 153 194 235 288 343
#     4   9  19  36  58  84 117 153 190 237 287 337
#     4   9  19  37  60  83 114 156 192 231 289 345
#     4   9  18  35  59  83 114 152 189 233 282 335
#     4  10  21  38  58  85 119 152 190 237 288 342
#
# _framework density 25.289232999999999
#
# number of rings (size 3 to 8) (size 9 to 14) (size 15 to 20)
#    0.000    2.333    0.000    2.500    0.000    9.333 
#    0.000    0.833    0.000    4.000    0.000    0.000 
#    0.000    0.000    0.000    0.000    0.000    0.000 
#
# Total GULP energy -66831.910259 kJ/mol
# GULP energy per Si atom -5569.325855 kJ/mol
# Density = 2.523167 g / cm^3
# Si number density = 25.289233 Si / 1000 Ang^3
#
#
#
# Elastic Constant Matrix: (Units=GPa)
#
#
# Indices 1 2 3 4 5 6 
#
# 1 174.3298 35.8039 61.4997 4.9081 -21.7316 -17.3030
# 2 35.8039 91.0476 55.1586 3.1298 -19.9982 -19.2980
# 3 61.4997 55.1586 143.7171 37.1546 -21.5742 -27.2219
# 4 4.9081 3.1298 37.1546 53.6507 -28.5896 -7.9109
# 5 -21.7316 -19.9982 -21.5742 -28.5896 71.6646 2.3776
# 6 -17.3030 -19.2980 -27.2219 -7.9109 2.3776 38.4013
#
#
#
# Elastic Compliance Matrix: (Units=1/GPa)
#
#
# Indices 1 2 3 4 5 6 
#
# 1 0.007246 -0.000224 -0.003180 0.002994 0.002326 0.001371
# 2 -0.000224 0.017028 -0.006542 0.007172 0.005411 0.004961
# 3 -0.003180 -0.006542 0.013496 -0.009656 -0.002679 0.003024
# 4 0.002994 0.007172 -0.009656 0.031930 0.012611 0.003906
# 5 0.002326 0.005411 -0.002679 0.012611 0.020287 0.003210
# 6 0.001371 0.004961 0.003024 0.003906 0.003210 0.031901
#
#
# Mechanical properties :
#
#
# Convention : Reuss Voigt Hill
#
# Bulk Modulus (GPa) = 55.93196 79.33544 67.63370
# Shear Modulus (GPa) = 33.84338 49.85213 41.84775
#
# Velocity S-wave (km/s) = 3.66218 4.44473 4.07229
# Velocity P-wave (km/s) = 6.32827 7.60132 6.99382
#
# Compressibility (1/GPa) = 0.01787887
#
# Stress axis : x y z
#
# Youngs Moduli (GPa) = 138.01053 58.72640 74.09452
#
# Poissons Ratio (x) = 0.01318 0.23559
# Poissons Ratio (y) = 0.03098 0.48469
# Poissons Ratio (z) = 0.43883 0.38416
#
# Static dielectric constant tensor:
#      x y z
#    x 2.101500 0.035020 -0.105080 
#    y 0.035020 2.106740 -0.014240 
#    z -0.105080 -0.014240 2.198290 
# 
# From -- ./inp_files/242265.got.cif
#   From: 2010.05.17/outbox.cif.g08.bks.cpg/sg2_122_cif.got.tgz:242265.got - 2010.06.03 11:33:40.
