data_PCOD9003325
_publ_section_title
;
Structure prediction by ZEFSAII (Michael W. Deem and Ramdas Pophale) SiO2 
 PCOD9003325
Probable space group: P -1
;
_chemical_formula_sum "Si O2"
_cell_formula_units_Z 14
_cell_length_a 9.643544
_cell_length_b 8.659466
_cell_length_c 16.237911
_cell_angle_alpha 151.076494
_cell_angle_beta 85.481811
_cell_angle_gamma 93.110521
_cell_volume 653.473785
_symmetry_space_group_name_H-M "P -1"
_symmetry_group_IT_number 2
_symmetry_cell_setting 'triclinic'
loop_
_space_group_symop_operation_xyz
x,y,z
-x,-y,-z
loop_
_atom_site_type_symbol
_atom_site_label
_atom_site_fract_x
_atom_site_fract_y
_atom_site_fract_z
Si Si1 0.849249 0.019559 0.475703
Si Si2 0.422944 0.659227 0.339603
Si Si3 0.566796 0.717718 0.667248
Si Si4 0.795292 0.179285 0.852595
Si Si5 0.926427 0.168362 0.356858
Si Si6 0.676890 0.845336 0.149553
Si Si7 0.674794 0.520528 0.166879
O O1 0.775465 0.682478 0.304225
O O2 0.734833 0.242682 0.632219
O O3 0.871601 0.149236 0.443147
O O4 0.000000 0.000000 0.500000
O O5 0.412935 0.485283 0.346408
O O6 0.528501 0.446269 0.179970
O O7 0.500000 0.000000 0.500000
O O8 0.500000 0.500000 0.500000
O O9 0.705393 0.870680 0.696712
O O10 0.456164 0.011542 0.823089
O O11 0.735548 0.496339 0.957429
O O12 0.761477 0.257479 0.987238
O O13 0.954792 0.106389 0.791649
O O14 0.000000 0.500000 0.500000
O O15 0.800886 0.092901 0.265829
O O16 0.636760 0.775523 0.214558
#
# Coordination Sequence:
#
# PCOD9003325 Si02
#       7
#     2   2   2   2   2   2   2
#     4  10  21  37  59  89 116 159 203 242 300 362
#     4  10  21  40  60  87 125 158 197 253 307 360
#     4  12  22  37  63  93 120 157 211 253 297 368
#     4  10  22  39  63  88 129 158 202 252 312 354
#     4  11  21  38  64  90 123 163 202 251 301 363
#     4   9  21  39  58  92 121 156 203 247 308 357
#     4   8  20  39  60  81 125 159 197 244 310 353
#
# _framework density 21.423967000000001
#
# number of rings (size 3 to 8) (size 9 to 14) (size 15 to 20)
#    0.857    1.143    0.000    5.143    0.000    6.286 
#    0.000    0.000    0.000    4.286    0.000    0.000 
#    0.000    0.000    0.000    0.000    0.000    0.000 
#
# Total GULP energy -78080.696711 kJ/mol
# GULP energy per Si atom -5577.192622 kJ/mol
# Density = 2.137520 g / cm^3
# Si number density = 21.423967 Si / 1000 Ang^3
#
#
#
# Elastic Constant Matrix: (Units=GPa)
#
#
# Indices 1 2 3 4 5 6 
#
# 1 132.6661 19.3262 12.0678 -5.7815 -16.1518 0.6195
# 2 19.3262 31.9889 12.8596 8.5688 0.2832 -1.8262
# 3 12.0678 12.8596 57.8465 -6.5072 -2.5768 5.8515
# 4 -5.7815 8.5688 -6.5072 27.7337 4.2349 -4.4162
# 5 -16.1518 0.2832 -2.5768 4.2349 42.3898 -0.2020
# 6 0.6195 -1.8262 5.8515 -4.4162 -0.2020 32.6155
#
#
#
# Elastic Compliance Matrix: (Units=1/GPa)
#
#
# Indices 1 2 3 4 5 6 
#
# 1 0.008993 -0.006399 0.000073 0.003380 0.003136 -0.000065
# 2 -0.006399 0.044061 -0.010653 -0.016837 -0.001687 0.002210
# 3 0.000073 -0.010653 0.020854 0.007582 0.000593 -0.003309
# 4 0.003380 -0.016837 0.007582 0.044723 -0.002589 0.003672
# 5 0.003136 -0.001687 0.000593 -0.002589 0.025089 -0.000456
# 6 -0.000065 0.002210 -0.003309 0.003672 -0.000456 0.031873
#
#
# Mechanical properties :
#
#
# Convention : Reuss Voigt Hill
#
# Bulk Modulus (GPa) = 25.03143 34.55654 29.79398
# Shear Modulus (GPa) = 22.43492 32.43099 27.43295
#
# Velocity S-wave (km/s) = 3.23954 3.89494 3.58226
# Velocity P-wave (km/s) = 5.06972 6.03260 5.57200
#
# Compressibility (1/GPa) = 0.03994978
#
# Stress axis : x y z
#
# Youngs Moduli (GPa) = 111.20225 22.69606 47.95220
#
# Poissons Ratio (x) = 0.14523 -0.00350
# Poissons Ratio (y) = 0.71159 0.51082
# Poissons Ratio (z) = -0.00812 0.24177
#
# Static dielectric constant tensor:
#      x y z
#    x 1.848240 0.039600 0.006810 
#    y 0.039600 1.733740 0.008430 
#    z 0.006810 0.008430 1.889390 
# 
# From -- ./inp_files/556714.got.cif
#   From: 2010.05.17/outbox.cif.g08.bks.cpg/sg2_279_cif.got.tgz:556714.got - 2010.06.03 11:33:40.
