data_PCOD9003106
_publ_section_title
;
Structure prediction by ZEFSAII (Michael W. Deem and Ramdas Pophale) SiO2 
 PCOD9003106
Probable space group: P -1
;
_chemical_formula_sum "Si O2"
_cell_formula_units_Z 16
_cell_length_a 8.609108
_cell_length_b 15.339549
_cell_length_c 6.256595
_cell_angle_alpha 116.809585
_cell_angle_beta 88.911866
_cell_angle_gamma 85.907177
_cell_volume 734.334872
_symmetry_space_group_name_H-M "P -1"
_symmetry_group_IT_number 2
_symmetry_cell_setting 'triclinic'
loop_
_space_group_symop_operation_xyz
x,y,z
-x,-y,-z
loop_
_atom_site_type_symbol
_atom_site_label
_atom_site_fract_x
_atom_site_fract_y
_atom_site_fract_z
Si Si1 0.465064 0.589169 0.374962
Si Si2 0.019784 0.400365 0.028272
Si Si3 0.206374 0.198758 0.626932
Si Si4 0.245324 0.701196 0.851141
Si Si5 0.496716 0.737138 0.173109
Si Si6 0.950275 0.143344 0.239058
Si Si7 0.309805 0.403053 0.282292
Si Si8 0.110312 0.028796 0.717536
O O1 0.368079 0.637463 0.630921
O O2 0.445701 0.651265 0.231982
O O3 0.397205 0.485152 0.243485
O O4 0.640691 0.586621 0.461553
O O5 0.113307 0.304641 0.806073
O O6 0.129050 0.418308 0.249481
O O7 0.000000 0.500000 0.000000
O O8 0.858011 0.364308 0.073739
O O9 0.391515 0.207873 0.610607
O O10 0.205876 0.113127 0.711728
O O11 0.102706 0.163190 0.395052
O O12 0.136351 0.759320 0.745823
O O13 0.340731 0.770402 0.080323
O O14 0.618679 0.697681 0.940291
O O15 0.834442 0.077389 0.300109
O O16 0.007861 0.082816 0.963821
O O17 0.000000 0.000000 0.500000
#
# Coordination Sequence:
#
# PCOD9003106 Si02
#       8
#     2   2   2   2   2   2   2   2
#     4  10  21  37  58  79 119 167 206 247 297 354
#     4  11  23  38  58  88 129 158 202 256 300 344
#     4  10  22  39  63  88 122 162 202 243 298 364
#     4  11  24  37  58  92 122 155 203 253 304 350
#     4  10  22  38  57  82 123 164 196 246 304 350
#     4  10  21  37  67  94 116 153 202 252 303 357
#     4   9  21  38  55  79 113 167 216 245 286 361
#     4   9  19  40  66  93 119 151 198 250 306 362
#
# _framework density 21.788426000000001
#
# number of rings (size 3 to 8) (size 9 to 14) (size 15 to 20)
#    0.000    2.000    1.250    1.125    5.250    6.500 
#    0.000    0.625    0.000    7.500    0.000    0.000 
#    0.000    0.000    0.000    0.000    0.000    0.000 
#
# Total GULP energy -89125.782529 kJ/mol
# GULP energy per Si atom -5570.361408 kJ/mol
# Density = 2.173883 g / cm^3
# Si number density = 21.788426 Si / 1000 Ang^3
#
#
#
# Elastic Constant Matrix: (Units=GPa)
#
#
# Indices 1 2 3 4 5 6 
#
# 1 102.5208 24.4119 30.0930 -7.8529 31.3535 6.5013
# 2 24.4119 99.2577 7.5654 -16.4946 11.8862 18.6458
# 3 30.0930 7.5654 63.0464 3.1191 15.0064 2.4696
# 4 -7.8529 -16.4946 3.1191 28.8977 -1.1430 6.8936
# 5 31.3535 11.8862 15.0064 -1.1430 29.1611 -4.2469
# 6 6.5013 18.6458 2.4696 6.8936 -4.2469 15.2366
#
#
#
# Elastic Compliance Matrix: (Units=1/GPa)
#
#
# Indices 1 2 3 4 5 6 
#
# 1 0.021037 0.007557 -0.003871 0.017259 -0.027862 -0.033171
# 2 0.007557 0.027272 0.000207 0.030325 -0.026571 -0.057758
# 3 -0.003871 0.000207 0.019422 -0.002737 -0.006357 -0.002283
# 4 0.017259 0.030325 -0.002737 0.076753 -0.039577 -0.089788
# 5 -0.027862 -0.026571 -0.006357 -0.039577 0.089663 0.088332
# 6 -0.033171 -0.057758 -0.002283 -0.089788 0.088332 0.216080
#
#
# Mechanical properties :
#
#
# Convention : Reuss Voigt Hill
#
# Bulk Modulus (GPa) = 13.24213 43.21839 28.23026
# Shear Modulus (GPa) = 10.69258 28.17604 19.43431
#
# Velocity S-wave (km/s) = 2.21768 3.59996 2.98980
# Velocity P-wave (km/s) = 3.55644 6.09575 4.99031
#
# Compressibility (1/GPa) = 0.07551655
#
# Stress axis : x y z
#
# Youngs Moduli (GPa) = 47.53454 36.66821 51.48774
#
# Poissons Ratio (x) = -0.27710 0.19932
# Poissons Ratio (y) = -0.35921 -0.01066
# Poissons Ratio (z) = 0.18401 -0.00759
#
# Static dielectric constant tensor:
#      x y z
#    x 1.857210 -0.009060 0.029460 
#    y -0.009060 1.897610 0.022950 
#    z 0.029460 0.022950 1.828400 
# 
# From -- ./inp_files/37308.got.cif
#   From: 2010.05.17/outbox.cif.g08.bks.cpg/sg2_19_cif.got.tgz:37308.got - 2010.06.03 11:33:40.
