data_PCOD9003854
_publ_section_title
;
Structure prediction by ZEFSAII (Michael W. Deem and Ramdas Pophale) SiO2 
 PCOD9003854
Probable space group: P -1
;
_chemical_formula_sum "Si O2"
_cell_formula_units_Z 16
_cell_length_a 17.978222
_cell_length_b 5.857249
_cell_length_c 19.506555
_cell_angle_alpha 80.571241
_cell_angle_beta 159.150852
_cell_angle_gamma 95.427546
_cell_volume 711.110535
_symmetry_space_group_name_H-M "P -1"
_symmetry_group_IT_number 2
_symmetry_cell_setting 'triclinic'
loop_
_space_group_symop_operation_xyz
x,y,z
-x,-y,-z
loop_
_atom_site_type_symbol
_atom_site_label
_atom_site_fract_x
_atom_site_fract_y
_atom_site_fract_z
Si Si1 0.366434 0.822176 0.430660
Si Si2 0.706053 0.074249 0.377301
Si Si3 0.893175 0.005375 0.051063
Si Si4 0.431667 0.306626 0.247349
Si Si5 0.385380 0.750880 0.088159
Si Si6 0.882872 0.275245 0.902348
Si Si7 0.455318 0.725852 0.903105
Si Si8 0.202871 0.952214 0.794737
O O1 0.496760 0.690701 0.612330
O O2 0.284988 0.674540 0.306023
O O3 0.500000 0.000000 0.500000
O O4 0.146421 0.957449 0.267541
O O5 0.607752 0.125309 0.365586
O O6 0.622715 0.283488 0.241489
O O7 0.600719 0.858573 0.268452
O O8 0.956342 0.022098 0.591870
O O9 0.795692 0.062064 0.038731
O O10 0.806844 0.221231 0.915333
O O11 0.791021 0.787833 0.945099
O O12 0.415355 0.531694 0.174591
O O13 0.295842 0.735620 0.935751
O O14 0.000000 0.500000 0.000000
O O15 0.000000 0.000000 0.000000
O O16 0.268827 0.892057 0.776454
O O17 0.500000 0.500000 0.000000
O O18 0.664280 0.846485 0.078696
#
# Coordination Sequence:
#
# PCOD9003854 Si02
#       8
#     2   2   2   2   2   2   2   2
#     4  11  23  43  68  97 128 172 229 282 345 415
#     4  10  22  40  61  93 128 164 216 269 322 397
#     4  10  23  41  64  88 133 166 218 279 344 400
#     4  11  23  42  64  94 127 172 224 272 340 406
#     4  10  23  39  61  88 126 172 212 270 330 399
#     4  10  23  44  68  96 134 177 223 288 358 413
#     4  10  21  37  62  94 124 170 209 262 324 390
#     4  10  21  39  60  89 131 164 215 263 325 388
#
# _framework density 22.500019999999999
#
# number of rings (size 3 to 8) (size 9 to 14) (size 15 to 20)
#    0.000    1.750    1.250    1.875    3.500    2.500 
#    9.000    3.125    0.000    0.000    0.000    0.000 
#    0.000    0.000    0.000    0.000    0.000    0.000 
#
# Total GULP energy -89328.301847 kJ/mol
# GULP energy per Si atom -5583.018865 kJ/mol
# Density = 2.244881 g / cm^3
# Si number density = 22.500020 Si / 1000 Ang^3
#
#
#
# Elastic Constant Matrix: (Units=GPa)
#
#
# Indices 1 2 3 4 5 6 
#
# 1 130.9620 24.7274 47.7537 7.4110 -13.9745 15.9630
# 2 24.7274 104.3151 50.7999 5.3863 -11.2907 34.2524
# 3 47.7537 50.7999 145.8000 7.4454 12.8785 14.6260
# 4 7.4110 5.3863 7.4454 29.1702 9.1013 -3.9310
# 5 -13.9745 -11.2907 12.8785 9.1013 51.5954 -5.7424
# 6 15.9630 34.2524 14.6260 -3.9310 -5.7424 42.4664
#
#
#
# Elastic Compliance Matrix: (Units=1/GPa)
#
#
# Indices 1 2 3 4 5 6 
#
# 1 0.009664 0.000937 -0.003362 -0.003401 0.003926 -0.003014
# 2 0.000937 0.016409 -0.005008 -0.005026 0.004679 -0.011695
# 3 -0.003362 -0.005008 0.009922 0.000826 -0.004478 0.001357
# 4 -0.003401 -0.005026 0.000826 0.039489 -0.008350 0.007574
# 5 0.003926 0.004679 -0.004478 -0.008350 0.023921 -0.001246
# 6 -0.003014 -0.011695 0.001357 0.007574 -0.001246 0.034179
#
#
# Mechanical properties :
#
#
# Convention : Reuss Voigt Hill
#
# Bulk Modulus (GPa) = 47.32888 69.73768 58.53328
# Shear Modulus (GPa) = 32.15583 41.83283 36.99433
#
# Velocity S-wave (km/s) = 3.78451 4.31656 4.05926
# Velocity P-wave (km/s) = 6.33856 7.47699 6.93119
#
# Compressibility (1/GPa) = 0.02112875
#
# Stress axis : x y z
#
# Youngs Moduli (GPa) = 103.47941 60.94197 100.78620
#
# Poissons Ratio (x) = -0.05710 0.33888
# Poissons Ratio (y) = -0.09696 0.50470
# Poissons Ratio (z) = 0.34794 0.30518
#
# Static dielectric constant tensor:
#      x y z
#    x 1.899670 -0.053830 0.008510 
#    y -0.053830 1.906480 -0.063680 
#    z 0.008510 -0.063680 1.810700 
# 
# From -- ./inp_files/598995.got.cif
#   From: 2010.05.17/outbox.cif.g08.bks.cpg/sg2_300_cif.got.tgz:598995.got - 2010.06.03 11:33:40.
