data_PCOD9003394
_publ_section_title
;
Structure prediction by ZEFSAII (Michael W. Deem and Ramdas Pophale) SiO2 
 PCOD9003394
Probable space group: P -1
;
_chemical_formula_sum "Si O2"
_cell_formula_units_Z 12
_cell_length_a 8.295572
_cell_length_b 14.180849
_cell_length_c 15.582808
_cell_angle_alpha 26.111539
_cell_angle_beta 42.099459
_cell_angle_gamma 33.284137
_cell_volume 442.479839
_symmetry_space_group_name_H-M "P -1"
_symmetry_group_IT_number 2
_symmetry_cell_setting 'triclinic'
loop_
_space_group_symop_operation_xyz
x,y,z
-x,-y,-z
loop_
_atom_site_type_symbol
_atom_site_label
_atom_site_fract_x
_atom_site_fract_y
_atom_site_fract_z
Si Si1 0.151871 0.653979 0.034753
Si Si2 0.618817 0.377544 0.462668
Si Si3 0.950146 0.193832 0.237904
Si Si4 0.708671 0.612812 0.634368
Si Si5 0.523922 0.987788 0.260298
Si Si6 0.756773 0.185429 0.865578
O O1 0.010143 0.723784 0.939125
O O2 0.500000 0.500000 0.000000
O O3 0.151057 0.468166 0.260038
O O4 0.979352 0.933884 0.924189
O O5 0.500000 0.500000 0.500000
O O6 0.526867 0.613965 0.243574
O O7 0.440038 0.257762 0.601519
O O8 0.937933 0.110989 0.558782
O O9 0.610295 0.340549 0.272086
O O10 0.166213 0.192997 0.222821
O O11 0.867128 0.359461 0.715990
O O12 0.637446 0.875957 0.402500
O O13 0.655852 0.104680 0.054296
#
# Coordination Sequence:
#
# PCOD9003394 Si02
#       6
#     2   2   2   2   2   2
#     4  10  21  37  60  79 113 153 187 228 277 335
#     4   9  18  34  57  85 111 144 182 232 279 323
#     4   9  19  38  58  85 113 146 187 231 279 319
#     4  10  21  38  58  81 118 152 180 226 279 339
#     4   9  21  34  59  88 112 140 190 236 270 331
#     4  11  20  36  62  85 108 151 188 226 287 324
#
# _framework density 27.119883000000002
#
# number of rings (size 3 to 8) (size 9 to 14) (size 15 to 20)
#    1.000    1.333    1.667    1.000    0.000    4.000 
#    0.000    0.000    3.667    7.000    0.000    0.000 
#    0.000    0.000    0.000    0.000    0.000    0.000 
#
# Total GULP energy -67007.662664 kJ/mol
# GULP energy per Si atom -5583.971889 kJ/mol
# Density = 2.705816 g / cm^3
# Si number density = 27.119883 Si / 1000 Ang^3
#
#
#
# Elastic Constant Matrix: (Units=GPa)
#
#
# Indices 1 2 3 4 5 6 
#
# 1 53.6279 28.2737 82.5594 6.1846 31.2260 1.1559
# 2 28.2737 131.2101 61.2926 -14.4145 6.1479 0.4118
# 3 82.5594 61.2926 204.7739 5.9508 59.5544 1.3660
# 4 6.1846 -14.4145 5.9508 54.3854 1.5432 6.4338
# 5 31.2260 6.1479 59.5544 1.5432 72.8996 10.5096
# 6 1.1559 0.4118 1.3660 6.4338 10.5096 30.0441
#
#
#
# Elastic Compliance Matrix: (Units=1/GPa)
#
#
# Indices 1 2 3 4 5 6 
#
# 1 0.053477 -0.003256 -0.018089 -0.005058 -0.008142 0.002741
# 2 -0.003256 0.009727 -0.002489 0.003328 0.002764 -0.001575
# 3 -0.018089 -0.002489 0.013984 -0.000196 -0.003666 0.001419
# 4 -0.005058 0.003328 -0.000196 0.020395 0.002340 -0.005028
# 5 -0.008142 0.002764 -0.003666 0.002340 0.020984 -0.007399
# 6 0.002741 -0.001575 0.001419 -0.005028 -0.007399 0.036801
#
#
# Mechanical properties :
#
#
# Convention : Reuss Voigt Hill
#
# Bulk Modulus (GPa) = 33.87591 81.54037 57.70814
# Shear Modulus (GPa) = 23.48793 45.96488 34.72640
#
# Velocity S-wave (km/s) = 2.94611 4.12136 3.58226
# Velocity P-wave (km/s) = 4.90826 7.26494 6.19961
#
# Compressibility (1/GPa) = 0.02951950
#
# Stress axis : x y z
#
# Youngs Moduli (GPa) = 18.69961 102.81041 71.51108
#
# Poissons Ratio (x) = 0.33477 1.29358
# Poissons Ratio (y) = 0.06089 0.17797
# Poissons Ratio (z) = 0.33826 0.25586
#
# Static dielectric constant tensor:
#      x y z
#    x 2.243940 -0.134450 0.100510 
#    y -0.134450 2.174630 -0.051940 
#    z 0.100510 -0.051940 2.156630 
# 
# From -- ./inp_files/247817.got.cif
#   From: 2010.05.17/outbox.cif.g08.bks.cpg/sg2_124_cif.got.tgz:247817.got - 2010.06.03 11:33:40.
