data_PCOD9003391
_publ_section_title
;
Structure prediction by ZEFSAII (Michael W. Deem and Ramdas Pophale) SiO2 
 PCOD9003391
Probable space group: P -1
;
_chemical_formula_sum "Si O2"
_cell_formula_units_Z 16
_cell_length_a 11.969772
_cell_length_b 14.832238
_cell_length_c 14.577260
_cell_angle_alpha 152.227193
_cell_angle_beta 114.982699
_cell_angle_gamma 46.739974
_cell_volume 737.877408
_symmetry_space_group_name_H-M "P -1"
_symmetry_group_IT_number 2
_symmetry_cell_setting 'triclinic'
loop_
_space_group_symop_operation_xyz
x,y,z
-x,-y,-z
loop_
_atom_site_type_symbol
_atom_site_label
_atom_site_fract_x
_atom_site_fract_y
_atom_site_fract_z
Si Si1 0.505986 0.088286 0.979502
Si Si2 0.126995 0.355613 0.102151
Si Si3 0.796955 0.204291 0.571440
Si Si4 0.501595 0.832020 0.132778
Si Si5 0.681375 0.224292 0.262682
Si Si6 0.921754 0.210150 0.422408
Si Si7 0.681666 0.167036 0.772836
Si Si8 0.244897 0.147171 0.671099
O O1 0.595038 0.939589 0.778765
O O2 0.301259 0.259769 0.033308
O O3 0.594786 0.196369 0.126611
O O4 0.500000 0.000000 0.000000
O O5 0.081715 0.554411 0.349841
O O6 0.960731 0.544429 0.144221
O O7 0.191046 0.076730 0.910404
O O8 0.822667 0.236785 0.503212
O O9 0.753978 0.028095 0.412544
O O10 0.640059 0.506368 0.844397
O O11 0.000000 0.000000 0.500000
O O12 0.349324 0.916076 0.220203
O O13 0.625830 0.830212 0.234079
O O14 0.500000 0.500000 0.500000
O O15 0.809481 0.265260 0.345668
O O16 0.135387 0.915769 0.232818
O O17 0.696739 0.016435 0.552492
O O18 0.500000 0.500000 0.000000
#
# Coordination Sequence:
#
# PCOD9003391 Si02
#       8
#     2   2   2   2   2   2   2   2
#     4  10  22  41  61  95 128 167 223 287 322 381
#     4  10  21  37  59  99 130 159 220 275 339 390
#     4  12  21  37  62  99 135 168 224 273 335 396
#     4  12  24  43  66  93 142 180 222 278 335 410
#     4  11  22  39  67  92 126 177 222 278 341 380
#     4  11  23  40  63  99 133 177 217 280 331 398
#     4  11  23  45  64  96 145 181 216 273 339 420
#     4  11  25  38  67 101 134 182 220 268 352 409
#
# _framework density 21.683819
#
# number of rings (size 3 to 8) (size 9 to 14) (size 15 to 20)
#    0.000    1.000    6.250    0.375    7.000    1.000 
#    0.000    0.625    0.000   12.000    0.000    0.000 
#    0.000    0.000    0.000    0.000    0.000    0.000 
#
# Total GULP energy -89109.938668 kJ/mol
# GULP energy per Si atom -5569.371167 kJ/mol
# Density = 2.163447 g / cm^3
# Si number density = 21.683819 Si / 1000 Ang^3
#
#
#
# Elastic Constant Matrix: (Units=GPa)
#
#
# Indices 1 2 3 4 5 6 
#
# 1 87.7476 33.4817 19.6285 -11.1052 -14.6050 -2.4759
# 2 33.4817 91.3670 21.3865 -15.5660 -6.9280 -9.9040
# 3 19.6285 21.3865 69.8544 5.7160 -4.6124 -4.5795
# 4 -11.1052 -15.5660 5.7160 32.0359 0.8978 8.0962
# 5 -14.6050 -6.9280 -4.6124 0.8978 30.9327 -6.5147
# 6 -2.4759 -9.9040 -4.5795 8.0962 -6.5147 48.3480
#
#
#
# Elastic Compliance Matrix: (Units=1/GPa)
#
#
# Indices 1 2 3 4 5 6 
#
# 1 0.014887 -0.003701 -0.002999 0.003780 0.005610 -0.000157
# 2 -0.003701 0.014434 -0.003692 0.005963 0.001091 0.001566
# 3 -0.002999 -0.003692 0.016991 -0.006366 0.000872 0.001883
# 4 0.003780 0.005963 -0.006366 0.037966 -0.000102 -0.005559
# 5 0.005610 0.001091 0.000872 -0.000102 0.036519 0.005531
# 6 -0.000157 0.001566 0.001883 -0.005559 0.005531 0.022851
#
#
# Mechanical properties :
#
#
# Convention : Reuss Voigt Hill
#
# Bulk Modulus (GPa) = 39.17505 44.21802 41.69654
# Shear Modulus (GPa) = 28.91151 33.89481 31.40316
#
# Velocity S-wave (km/s) = 3.65543 3.95794 3.80969
# Velocity P-wave (km/s) = 5.99349 6.42834 6.21472
#
# Compressibility (1/GPa) = 0.02552645
#
# Stress axis : x y z
#
# Youngs Moduli (GPa) = 67.17203 69.28210 58.85635
#
# Poissons Ratio (x) = 0.25642 0.17652
# Poissons Ratio (y) = 0.24861 0.21731
# Poissons Ratio (z) = 0.20146 0.25581
#
# Static dielectric constant tensor:
#      x y z
#    x 1.832760 0.057640 0.040740 
#    y 0.057640 1.899080 0.070430 
#    z 0.040740 0.070430 1.921720 
# 
# From -- ./inp_files/522646.got.cif
#   From: 2010.05.17/outbox.cif.g08.bks.cpg/sg2_262_cif.got.tgz:522646.got - 2010.06.03 11:33:40.
