data_PCOD9003434
_publ_section_title
;
Structure prediction by ZEFSAII (Michael W. Deem and Ramdas Pophale) SiO2 
 PCOD9003434
Probable space group: P -1
;
_chemical_formula_sum "Si O2"
_cell_formula_units_Z 16
_cell_length_a 12.636572
_cell_length_b 10.696800
_cell_length_c 5.294135
_cell_angle_alpha 120.389967
_cell_angle_beta 75.944219
_cell_angle_gamma 103.781802
_cell_volume 593.089418
_symmetry_space_group_name_H-M "P -1"
_symmetry_group_IT_number 2
_symmetry_cell_setting 'triclinic'
loop_
_space_group_symop_operation_xyz
x,y,z
-x,-y,-z
loop_
_atom_site_type_symbol
_atom_site_label
_atom_site_fract_x
_atom_site_fract_y
_atom_site_fract_z
Si Si1 0.265631 0.472026 0.349781
Si Si2 0.023565 0.675511 0.135188
Si Si3 0.208127 0.374225 0.783890
Si Si4 0.537170 0.653562 0.492713
Si Si5 0.560812 0.755373 0.081427
Si Si6 0.696662 0.048398 0.436775
Si Si7 0.058247 0.953315 0.670670
Si Si8 0.732675 0.232546 0.099886
O O1 0.178329 0.402035 0.537312
O O2 0.308856 0.617770 0.630800
O O3 0.228444 0.501423 0.116863
O O4 0.343447 0.346895 0.131146
O O5 0.049411 0.776499 0.470704
O O6 0.905769 0.712625 0.136168
O O7 0.134256 0.724149 0.959889
O O8 0.000000 0.500000 0.000000
O O9 0.329971 0.328046 0.626053
O O10 0.500000 0.500000 0.500000
O O11 0.488816 0.668554 0.255479
O O12 0.518299 0.770303 0.837049
O O13 0.602750 0.911018 0.335930
O O14 0.812635 0.988632 0.349244
O O15 0.705499 0.122549 0.234019
O O16 0.690130 0.159317 0.785568
O O17 0.000000 0.000000 0.500000
O O18 0.000000 0.000000 0.000000
#
# Coordination Sequence:
#
# PCOD9003434 Si02
#       8
#     2   2   2   2   2   2   2   2
#     4  10  21  37  60  87 119 161 209 246 308 350
#     4  11  24  41  61  90 128 168 221 251 304 364
#     4  10  22  36  60  90 121 159 205 258 313 361
#     4  10  21  39  65  99 126 152 205 269 327 367
#     4  10  22  39  68  94 123 162 203 259 314 378
#     4  11  24  41  58  88 127 165 217 244 314 368
#     4  11  26  40  57  82 126 169 208 261 298 354
#     4  11  23  40  57  88 129 172 206 257 292 367
#
# _framework density 26.977378999999999
#
# number of rings (size 3 to 8) (size 9 to 14) (size 15 to 20)
#    0.000    1.500    1.250    3.375    8.750    2.500 
#    0.000    0.000    0.000    0.000    0.000   70.000 
#    0.000    0.000    0.000    0.000    0.000    0.000 
#
# Total GULP energy -89347.922558 kJ/mol
# GULP energy per Si atom -5584.245160 kJ/mol
# Density = 2.691598 g / cm^3
# Si number density = 26.977379 Si / 1000 Ang^3
#
#
#
# Elastic Constant Matrix: (Units=GPa)
#
#
# Indices 1 2 3 4 5 6 
#
# 1 77.0310 14.9761 49.1673 -2.4487 -18.3425 9.2548
# 2 14.9761 113.3186 70.7632 -3.0696 3.6556 2.7622
# 3 49.1673 70.7632 257.9603 -30.2105 11.5219 4.9370
# 4 -2.4487 -3.0696 -30.2105 60.0406 -2.4360 10.4720
# 5 -18.3425 3.6556 11.5219 -2.4360 59.7743 -3.8551
# 6 9.2548 2.7622 4.9370 10.4720 -3.8551 35.8169
#
#
#
# Elastic Compliance Matrix: (Units=1/GPa)
#
#
# Indices 1 2 3 4 5 6 
#
# 1 0.016901 -0.000237 -0.003374 -0.000232 0.005635 -0.003210
# 2 -0.000237 0.010708 -0.002994 -0.000961 -0.000195 -0.000092
# 3 -0.003374 -0.002994 0.005748 0.002641 -0.001895 -0.000666
# 4 -0.000232 -0.000961 0.002641 0.018928 -0.000123 -0.005777
# 5 0.005635 -0.000195 -0.001895 -0.000123 0.018888 0.000889
# 6 -0.003210 -0.000092 -0.000666 -0.005777 0.000889 0.030633
#
#
# Mechanical properties :
#
#
# Convention : Reuss Voigt Hill
#
# Bulk Modulus (GPa) = 49.63409 79.79145 64.71277
# Shear Modulus (GPa) = 41.07376 52.01990 46.54683
#
# Velocity S-wave (km/s) = 3.90619 4.39598 4.15830
# Velocity P-wave (km/s) = 6.22758 7.44363 6.86259
#
# Compressibility (1/GPa) = 0.02014744
#
# Stress axis : x y z
#
# Youngs Moduli (GPa) = 59.16731 93.38477 173.98270
#
# Poissons Ratio (x) = 0.02210 0.58700
# Poissons Ratio (y) = 0.01400 0.52098
# Poissons Ratio (z) = 0.19962 0.27963
#
# Static dielectric constant tensor:
#      x y z
#    x 2.414970 -0.006820 0.043480 
#    y -0.006820 2.132280 0.045250 
#    z 0.043480 0.045250 2.065780 
# 
# From -- ./inp_files/109900.got.cif
#   From: 2010.05.17/outbox.cif.g08.bks.cpg/sg2_55_cif.got.tgz:109900.got - 2010.06.03 11:33:40.
