data_PCOD9003430
_publ_section_title
;
Structure prediction by ZEFSAII (Michael W. Deem and Ramdas Pophale) SiO2 
 PCOD9003430
Probable space group: P -1
;
_chemical_formula_sum "Si O2"
_cell_formula_units_Z 14
_cell_length_a 8.402774
_cell_length_b 12.172834
_cell_length_c 11.877736
_cell_angle_alpha 105.524541
_cell_angle_beta 112.367201
_cell_angle_gamma 32.656635
_cell_volume 602.857742
_symmetry_space_group_name_H-M "P -1"
_symmetry_group_IT_number 2
_symmetry_cell_setting 'triclinic'
loop_
_space_group_symop_operation_xyz
x,y,z
-x,-y,-z
loop_
_atom_site_type_symbol
_atom_site_label
_atom_site_fract_x
_atom_site_fract_y
_atom_site_fract_z
Si Si1 0.107355 0.114881 0.976494
Si Si2 0.640842 0.157968 0.837898
Si Si3 0.399250 0.838151 0.793869
Si Si4 0.778429 0.614728 0.617370
Si Si5 0.135150 0.234000 0.479039
Si Si6 0.815013 0.042412 0.604544
Si Si7 0.236947 0.461471 0.004519
O O1 0.884576 0.127673 0.904326
O O2 0.910773 0.335031 0.981447
O O3 0.342512 0.978288 0.896892
O O4 0.260697 0.006046 0.107951
O O5 0.634303 0.132187 0.699132
O O6 0.349605 0.363820 0.884776
O O7 0.672044 0.691851 0.737261
O O8 0.480243 0.699139 0.873316
O O9 0.084914 0.984935 0.682297
O O10 0.925505 0.647746 0.610150
O O11 0.451295 0.780079 0.506934
O O12 0.993741 0.386941 0.585219
O O13 0.500000 0.000000 0.500000
O O14 0.010179 0.173821 0.431122
O O15 0.000000 0.500000 0.000000
#
# Coordination Sequence:
#
# PCOD9003430 Si02
#       7
#     2   2   2   2   2   2   2
#     4   9  20  40  60  81 114 153 198 251 297 347
#     4   9  20  38  60  84 111 151 202 248 294 350
#     4  10  23  39  57  87 119 155 200 243 295 353
#     4  10  21  38  59  86 121 155 191 238 294 353
#     4   9  21  38  57  84 116 154 195 236 288 348
#     4  10  21  37  60  87 115 154 200 243 290 346
#     4  11  24  37  58  89 119 157 200 247 304 353
#
# _framework density 23.222726000000002
#
# number of rings (size 3 to 8) (size 9 to 14) (size 15 to 20)
#    0.000    2.286    0.000    1.714    0.000   14.286 
#    0.000    0.000    0.000    0.000    0.000    0.000 
#    0.000    0.000    0.000    0.000    0.000    0.000 
#
# Total GULP energy -78169.905600 kJ/mol
# GULP energy per Si atom -5583.564686 kJ/mol
# Density = 2.316987 g / cm^3
# Si number density = 23.222726 Si / 1000 Ang^3
#
#
#
# Elastic Constant Matrix: (Units=GPa)
#
#
# Indices 1 2 3 4 5 6 
#
# 1 37.1351 25.0183 22.9425 7.5179 -11.5123 -6.9928
# 2 25.0183 165.1110 45.5432 22.1279 -11.7226 15.6232
# 3 22.9425 45.5432 89.6327 19.4338 -23.6071 -10.7700
# 4 7.5179 22.1279 19.4338 43.4158 -22.5084 -1.1161
# 5 -11.5123 -11.7226 -23.6071 -22.5084 27.8995 6.9656
# 6 -6.9928 15.6232 -10.7700 -1.1161 6.9656 43.1592
#
#
#
# Elastic Compliance Matrix: (Units=1/GPa)
#
#
# Indices 1 2 3 4 5 6 
#
# 1 0.036219 -0.004470 -0.004274 0.004015 0.011525 0.004664
# 2 -0.004470 0.008424 -0.003738 -0.003724 -0.003410 -0.004252
# 3 -0.004274 -0.003738 0.017298 0.000738 0.011098 0.003205
# 4 0.004015 -0.003724 0.000738 0.042165 0.035341 -0.002431
# 5 0.011525 -0.003410 0.011098 0.035341 0.078538 -0.005890
# 6 0.004664 -0.004252 0.003205 -0.002431 -0.005890 0.027153
#
#
# Mechanical properties :
#
#
# Convention : Reuss Voigt Hill
#
# Bulk Modulus (GPa) = 27.04390 53.20965 40.12677
# Shear Modulus (GPa) = 20.23578 36.11989 28.17784
#
# Velocity S-wave (km/s) = 2.95511 3.94809 3.48713
# Velocity P-wave (km/s) = 4.82849 6.61406 5.79051
#
# Compressibility (1/GPa) = 0.03697692
#
# Stress axis : x y z
#
# Youngs Moduli (GPa) = 27.60957 118.70472 57.81054
#
# Poissons Ratio (x) = 0.53064 0.24708
# Poissons Ratio (y) = 0.12342 0.21610
# Poissons Ratio (z) = 0.11800 0.44372
#
# Static dielectric constant tensor:
#      x y z
#    x 1.941360 -0.063400 0.033720 
#    y -0.063400 1.878220 -0.021360 
#    z 0.033720 -0.021360 1.892070 
# 
# From -- ./inp_files/27802.got.cif
#   From: 2010.05.17/outbox.cif.g08.bks.cpg/sg2_14_cif.got.tgz:27802.got - 2010.06.03 11:33:40.
