data_PCOD9003895
_publ_section_title
;
Structure prediction by ZEFSAII (Michael W. Deem and Ramdas Pophale) SiO2 
 PCOD9003895
Probable space group: P -1
;
_chemical_formula_sum "Si O2"
_cell_formula_units_Z 16
_cell_length_a 9.097789
_cell_length_b 16.354116
_cell_length_c 25.394474
_cell_angle_alpha 25.865490
_cell_angle_beta 30.465201
_cell_angle_gamma 47.151816
_cell_volume 753.768881
_symmetry_space_group_name_H-M "P -1"
_symmetry_group_IT_number 2
_symmetry_cell_setting 'triclinic'
loop_
_space_group_symop_operation_xyz
x,y,z
-x,-y,-z
loop_
_atom_site_type_symbol
_atom_site_label
_atom_site_fract_x
_atom_site_fract_y
_atom_site_fract_z
Si Si1 0.420911 0.798958 0.484101
Si Si2 0.529166 0.388403 0.694888
Si Si3 0.678097 0.221959 0.844847
Si Si4 0.566439 0.095537 0.365838
Si Si5 0.179997 0.369729 0.307500
Si Si6 0.881745 0.973070 0.146788
Si Si7 0.284960 0.211452 0.073354
Si Si8 0.293804 0.798018 0.352607
O O1 0.507005 0.604510 0.575027
O O2 0.679653 0.954375 0.272934
O O3 0.071730 0.716246 0.612667
O O4 0.452349 0.913689 0.462855
O O5 0.722038 0.376819 0.693811
O O6 0.660888 0.331295 0.634267
O O7 0.171688 0.199283 0.920447
O O8 0.973647 0.197443 0.795057
O O9 0.440971 0.237933 0.952246
O O10 0.500000 0.000000 0.000000
O O11 0.375428 0.233150 0.334780
O O12 0.950065 0.226518 0.166429
O O13 0.500000 0.000000 0.500000
O O14 0.964976 0.338799 0.444717
O O15 0.440149 0.607305 0.083039
O O16 0.634618 0.911911 0.210732
O O17 0.212588 0.981688 0.249285
#
# Coordination Sequence:
#
# PCOD9003895 Si02
#       8
#     2   2   2   2   2   2   2   2
#     4  11  27  45  71 100 139 178 224 280 342 400
#     4  11  23  39  66 103 141 179 220 269 335 412
#     4  10  21  37  62  96 140 179 213 262 335 397
#     4  12  26  50  72  96 132 178 235 289 333 391
#     4  11  27  47  71 100 132 183 230 280 339 396
#     4  10  22  40  63 100 143 182 212 268 337 404
#     4  12  24  45  72  99 136 180 226 280 342 395
#     4  11  23  40  68 103 142 174 222 272 332 412
#
# _framework density 21.226665000000001
#
# number of rings (size 3 to 8) (size 9 to 14) (size 15 to 20)
#    0.000    1.000    3.750    3.375    5.250    1.500 
#    2.250    0.625    0.000    0.000    0.000    0.000 
#    0.000    0.000    0.000    0.000    0.000    0.000 
#
# Total GULP energy -89563.615830 kJ/mol
# GULP energy per Si atom -5597.725989 kJ/mol
# Density = 2.117835 g / cm^3
# Si number density = 21.226665 Si / 1000 Ang^3
#
#
#
# Elastic Constant Matrix: (Units=GPa)
#
#
# Indices 1 2 3 4 5 6 
#
# 1 89.5560 29.7015 16.7820 9.7537 -5.0886 11.8550
# 2 29.7015 85.0109 22.7266 12.7975 -10.8094 9.2394
# 3 16.7820 22.7266 88.9432 -2.9803 -23.4112 21.1852
# 4 9.7537 12.7975 -2.9803 27.2715 -4.5381 6.7884
# 5 -5.0886 -10.8094 -23.4112 -4.5381 28.4400 1.3121
# 6 11.8550 9.2394 21.1852 6.7884 1.3121 40.2924
#
#
#
# Elastic Compliance Matrix: (Units=1/GPa)
#
#
# Indices 1 2 3 4 5 6 
#
# 1 0.013153 -0.003692 -0.001315 -0.002734 -0.000483 -0.001855
# 2 -0.003692 0.014889 -0.002866 -0.005714 0.001723 0.000086
# 3 -0.001315 -0.002866 0.019782 0.009686 0.017038 -0.011544
# 4 -0.002734 -0.005714 0.009686 0.046382 0.013231 -0.011223
# 5 -0.000483 0.001723 0.017038 0.013231 0.052474 -0.013149
# 6 -0.001855 0.000086 -0.011544 -0.011223 -0.013149 0.033733
#
#
# Mechanical properties :
#
#
# Convention : Reuss Voigt Hill
#
# Bulk Modulus (GPa) = 31.17386 44.65893 37.91639
# Shear Modulus (GPa) = 24.17174 32.15410 28.16292
#
# Velocity S-wave (km/s) = 3.37819 3.89626 3.64644
# Velocity P-wave (km/s) = 5.47122 6.42852 5.96909
#
# Compressibility (1/GPa) = 0.03207816
#
# Stress axis : x y z
#
# Youngs Moduli (GPa) = 76.02787 67.16159 50.54985
#
# Poissons Ratio (x) = 0.24797 0.06648
# Poissons Ratio (y) = 0.28070 0.14488
# Poissons Ratio (z) = 0.09999 0.19249
#
# Static dielectric constant tensor:
#      x y z
#    x 1.809860 -0.002470 -0.048270 
#    y -0.002470 1.739810 -0.020550 
#    z -0.048270 -0.020550 1.844710 
# 
# From -- ./inp_files/226373.got.cif
#   From: 2010.05.17/outbox.cif.g08.bks.cpg/sg2_114_cif.got.tgz:226373.got - 2010.06.03 11:33:40.
