data_PCOD9003291
_publ_section_title
;
Structure prediction by ZEFSAII (Michael W. Deem and Ramdas Pophale) SiO2 
 PCOD9003291
Probable space group: P -1
;
_chemical_formula_sum "Si O2"
_cell_formula_units_Z 14
_cell_length_a 7.086906
_cell_length_b 8.348518
_cell_length_c 19.322592
_cell_angle_alpha 59.822354
_cell_angle_beta 122.375022
_cell_angle_gamma 141.497016
_cell_volume 593.436486
_symmetry_space_group_name_H-M "P -1"
_symmetry_group_IT_number 2
_symmetry_cell_setting 'triclinic'
loop_
_space_group_symop_operation_xyz
x,y,z
-x,-y,-z
loop_
_atom_site_type_symbol
_atom_site_label
_atom_site_fract_x
_atom_site_fract_y
_atom_site_fract_z
Si Si1 0.361961 0.732187 0.999982
Si Si2 0.446567 0.794444 0.584554
Si Si3 0.982764 0.751161 0.339838
Si Si4 0.303020 0.091238 0.660127
Si Si5 0.277460 0.378817 0.415460
Si Si6 0.801964 0.680644 0.165497
Si Si7 0.526861 0.151443 0.165530
O O1 0.564340 0.684634 0.082447
O O2 0.399570 0.767306 0.917473
O O3 0.000000 0.500000 0.000000
O O4 0.500000 0.000000 0.000000
O O5 0.106843 0.511739 0.598761
O O6 0.595249 0.702472 0.595243
O O7 0.500000 0.000000 0.500000
O O8 0.651954 0.979095 0.650656
O O9 0.859575 0.820109 0.359570
O O10 0.814503 0.701685 0.246275
O O11 0.649392 0.370548 0.650674
O O12 0.321781 0.948215 0.753680
O O13 0.090654 0.889721 0.598708
O O14 0.500000 0.500000 0.500000
O O15 0.678805 0.407027 0.181860
O O16 0.153029 0.920646 0.154155
#
# Coordination Sequence:
#
# PCOD9003291 Si02
#       7
#     2   2   2   2   2   2   2
#     4  12  26  46  72  98 130 176 214 256 320 396
#     4  10  21  37  59  87 122 163 213 268 317 374
#     4  10  22  40  61  88 124 169 214 259 318 387
#     4  10  22  40  61  88 124 169 214 259 318 387
#     4  10  21  37  59  87 122 163 213 268 317 374
#     4  12  25  43  67 100 134 167 213 273 323 376
#     4  12  25  43  67 100 134 167 213 273 323 376
#
# _framework density 23.591405000000002
#
# number of rings (size 3 to 8) (size 9 to 14) (size 15 to 20)
#    0.000    1.143    0.000    6.000    0.000    6.857 
#    0.000    0.000    0.000    0.000    0.000    0.000 
#    0.000    0.000    0.000    0.000    0.000    0.000 
#
# Total GULP energy -78335.280894 kJ/mol
# GULP energy per Si atom -5595.377207 kJ/mol
# Density = 2.353771 g / cm^3
# Si number density = 23.591405 Si / 1000 Ang^3
#
#
#
# Elastic Constant Matrix: (Units=GPa)
#
#
# Indices 1 2 3 4 5 6 
#
# 1 50.1982 62.7900 -1.2412 -4.8379 2.5662 12.6666
# 2 62.7900 253.6479 71.5020 -11.8742 10.5709 -1.9721
# 3 -1.2412 71.5020 145.2730 3.1664 -6.8471 -12.2449
# 4 -4.8379 -11.8742 3.1664 24.4934 25.5387 0.3032
# 5 2.5662 10.5709 -6.8471 25.5387 -13.8690 -1.6024
# 6 12.6666 -1.9721 -12.2449 0.3032 -1.6024 43.7636
#
#
#
# Elastic Compliance Matrix: (Units=1/GPa)
#
#
# Indices 1 2 3 4 5 6 
#
# 1 0.034846 -0.009877 0.004360 0.001334 0.000299 -0.009309
# 2 -0.009877 0.007147 -0.003240 -0.001113 0.002893 0.002388
# 3 0.004360 -0.003240 0.008403 0.001490 -0.003162 0.000817
# 4 0.001334 -0.001113 0.001490 0.014328 0.024955 0.000795
# 5 0.000299 0.002893 -0.003162 0.024955 -0.022118 -0.001823
# 6 -0.009309 0.002388 0.000817 0.000795 -0.001823 0.025808
#
#
# Mechanical properties :
#
#
# Convention : Reuss Voigt Hill
#
# Bulk Modulus (GPa) = 30.41335 79.46896 54.94116
# Shear Modulus (GPa) = 51.60468 31.94882 41.77675
#
# Velocity S-wave (km/s) = 4.68208 3.68402 4.21271
# Velocity P-wave (km/s) = 6.49221 7.20102 6.85578
#
# Compressibility (1/GPa) = 0.03288030
#
# Stress axis : x y z
#
# Youngs Moduli (GPa) = 28.69748 139.92158 119.00548
#
# Poissons Ratio (x) = 1.38207 -0.51883
# Poissons Ratio (y) = 0.28346 0.38559
# Poissons Ratio (z) = -0.12511 0.45336
#
# Static dielectric constant tensor:
#      x y z
#    x 1.864300 0.149110 -0.051910 
#    y 0.149110 1.780960 0.078840 
#    z -0.051910 0.078840 2.271270 
# 
# From -- ./inp_files/328291.got.cif
#   From: 2010.05.17/outbox.cif.g08.bks.cpg/sg2_165_cif.got.tgz:328291.got - 2010.06.03 11:33:40.
