data_PCOD9003607
_publ_section_title
;
Structure prediction by ZEFSAII (Michael W. Deem and Ramdas Pophale) SiO2 
 PCOD9003607
Probable space group: P -1
;
_chemical_formula_sum "Si O2"
_cell_formula_units_Z 16
_cell_length_a 9.985991
_cell_length_b 13.615902
_cell_length_c 9.489302
_cell_angle_alpha 99.376337
_cell_angle_beta 30.009543
_cell_angle_gamma 95.550308
_cell_volume 634.108880
_symmetry_space_group_name_H-M "P -1"
_symmetry_group_IT_number 2
_symmetry_cell_setting 'triclinic'
loop_
_space_group_symop_operation_xyz
x,y,z
-x,-y,-z
loop_
_atom_site_type_symbol
_atom_site_label
_atom_site_fract_x
_atom_site_fract_y
_atom_site_fract_z
Si Si1 0.732787 0.017983 0.987478
Si Si2 0.863412 0.193858 0.732433
Si Si3 0.297102 0.470145 0.380986
Si Si4 0.713458 0.935696 0.385688
Si Si5 0.680716 0.794283 0.911448
Si Si6 0.452312 0.385275 0.494165
Si Si7 0.764420 0.593782 0.901806
Si Si8 0.014802 0.731690 0.046064
O O1 0.479821 0.081434 0.308095
O O2 0.800898 0.080450 0.801929
O O3 0.019580 0.011096 0.805610
O O4 0.647156 0.907330 0.023639
O O5 0.110352 0.202015 0.405709
O O6 0.922202 0.242792 0.840780
O O7 0.601670 0.237260 0.896628
O O8 0.407964 0.384054 0.365415
O O9 0.251259 0.429774 0.257444
O O10 0.019717 0.523391 0.704260
O O11 0.502597 0.554922 0.199871
O O12 0.844339 0.832702 0.176814
O O13 0.500000 0.000000 0.500000
O O14 0.784236 0.711756 0.912983
O O15 0.500000 0.500000 0.500000
O O16 0.181713 0.355301 0.802784
O O17 0.702318 0.307269 0.287765
#
# Coordination Sequence:
#
# PCOD9003607 Si02
#       8
#     2   2   2   2   2   2   2   2
#     4  11  23  40  62  97 134 163 218 267 322 382
#     4  11  21  37  65  92 132 172 208 264 315 393
#     4  10  21  40  60  86 124 164 210 262 315 387
#     4  11  24  46  68  92 129 179 219 267 314 389
#     4  12  22  37  61 100 132 167 207 260 336 383
#     4  12  25  44  67  97 129 166 222 290 330 367
#     4  10  21  37  61  88 124 168 207 252 321 397
#     4  11  23  43  68  96 122 171 227 254 325 398
#
# _framework density 25.232261000000001
#
# number of rings (size 3 to 8) (size 9 to 14) (size 15 to 20)
#    0.000    1.000    0.000    9.000    0.000    2.000 
#    6.750    0.000    0.000    0.000    0.000    0.000 
#    0.000    0.000    0.000    0.000    0.000    0.000 
#
# Total GULP energy -89649.752068 kJ/mol
# GULP energy per Si atom -5603.109504 kJ/mol
# Density = 2.517483 g / cm^3
# Si number density = 25.232261 Si / 1000 Ang^3
#
#
#
# Elastic Constant Matrix: (Units=GPa)
#
#
# Indices 1 2 3 4 5 6 
#
# 1 63.3358 14.0677 24.4223 11.8873 -17.7906 -4.9667
# 2 14.0677 113.4134 21.8933 9.7035 -16.7012 -3.1974
# 3 24.4223 21.8933 126.3873 13.0719 -18.0395 3.3557
# 4 11.8873 9.7035 13.0719 41.3009 -8.9594 -7.3695
# 5 -17.7906 -16.7012 -18.0395 -8.9594 40.9539 1.6693
# 6 -4.9667 -3.1974 3.3557 -7.3695 1.6693 41.8931
#
#
#
# Elastic Compliance Matrix: (Units=1/GPa)
#
#
# Indices 1 2 3 4 5 6 
#
# 1 0.019353 -0.000695 -0.002454 -0.002961 0.006327 0.001665
# 2 -0.000695 0.009633 -0.001021 -0.001025 0.002935 0.000437
# 3 -0.002454 -0.001021 0.009096 -0.001719 0.002209 -0.001488
# 4 -0.002961 -0.001025 -0.001719 0.027358 0.003345 0.004388
# 5 0.006327 0.002935 0.002209 0.003345 0.030060 0.000188
# 6 0.001665 0.000437 -0.001488 0.004388 0.000188 0.024985
#
#
# Mechanical properties :
#
#
# Convention : Reuss Voigt Hill
#
# Bulk Modulus (GPa) = 33.62308 47.10036 40.36172
# Shear Modulus (GPa) = 36.03904 41.01310 38.52607
#
# Velocity S-wave (km/s) = 3.78338 4.03603 3.91174
# Velocity P-wave (km/s) = 5.69558 6.35819 6.03598
#
# Compressibility (1/GPa) = 0.02974147
#
# Stress axis : x y z
#
# Youngs Moduli (GPa) = 51.67149 103.81209 109.94046
#
# Poissons Ratio (x) = 0.07213 0.26982
# Poissons Ratio (y) = 0.03590 0.11226
# Poissons Ratio (z) = 0.12681 0.10600
#
# Static dielectric constant tensor:
#      x y z
#    x 2.116000 0.032750 0.026510 
#    y 0.032750 1.989680 0.018180 
#    z 0.026510 0.018180 1.908700 
# 
# From -- ./inp_files/434113.got.cif
#   From: 2010.05.17/outbox.cif.g08.bks.cpg/sg2_218_cif.got.tgz:434113.got - 2010.06.03 11:33:40.
