data_PCOD9003543
_publ_section_title
;
Structure prediction by ZEFSAII (Michael W. Deem and Ramdas Pophale) SiO2 
 PCOD9003543
Probable space group: P -1
;
_chemical_formula_sum "Si O2"
_cell_formula_units_Z 16
_cell_length_a 5.022517
_cell_length_b 10.485278
_cell_length_c 17.535127
_cell_angle_alpha 58.525441
_cell_angle_beta 87.671567
_cell_angle_gamma 112.600507
_cell_volume 692.118787
_symmetry_space_group_name_H-M "P -1"
_symmetry_group_IT_number 2
_symmetry_cell_setting 'triclinic'
loop_
_space_group_symop_operation_xyz
x,y,z
-x,-y,-z
loop_
_atom_site_type_symbol
_atom_site_label
_atom_site_fract_x
_atom_site_fract_y
_atom_site_fract_z
Si Si1 0.928528 0.158406 0.940098
Si Si2 0.381065 0.461112 0.745960
Si Si3 0.452054 0.961983 0.881572
Si Si4 0.991701 0.995573 0.764267
Si Si5 0.219165 0.161893 0.338874
Si Si6 0.097837 0.542262 0.360797
Si Si7 0.568645 0.693675 0.429012
Si Si8 0.035268 0.823407 0.504893
O O1 0.222800 0.322632 0.856532
O O2 0.679045 0.105418 0.892571
O O3 0.777312 0.179808 0.012547
O O4 0.000000 0.000000 0.000000
O O5 0.499278 0.651970 0.715654
O O6 0.656671 0.448981 0.706451
O O7 0.142846 0.428270 0.691921
O O8 0.678776 0.936715 0.830755
O O9 0.237234 0.004254 0.818789
O O10 0.928670 0.870595 0.732424
O O11 0.146710 0.180586 0.665771
O O12 0.997517 0.152909 0.412818
O O13 0.271702 0.999847 0.408276
O O14 0.282068 0.666807 0.388996
O O15 0.935442 0.346151 0.452910
O O16 0.500000 0.500000 0.500000
O O17 0.709944 0.776621 0.483487
#
# Coordination Sequence:
#
# PCOD9003543 Si02
#       8
#     2   2   2   2   2   2   2   2
#     4  11  24  43  70  95 125 155 204 267 327 380
#     4  11  24  39  63  92 125 164 208 255 313 372
#     4  11  24  41  67  95 119 161 201 260 321 375
#     4  11  22  40  64  91 128 166 208 247 309 372
#     4   9  20  40  62  90 128 173 212 250 296 372
#     4  10  21  37  60  94 128 163 205 260 308 364
#     4   9  18  36  59  92 127 163 206 259 306 357
#     4   8  17  38  63  89 127 171 213 250 304 362
#
# _framework density 23.117417
#
# number of rings (size 3 to 8) (size 9 to 14) (size 15 to 20)
#    0.000    2.000    1.250    1.500    3.500    2.500 
#    0.000   33.125    0.000    0.000    0.000    0.000 
#    0.000    0.000    0.000    0.000    0.000    0.000 
#
# Total GULP energy -89410.065169 kJ/mol
# GULP energy per Si atom -5588.129073 kJ/mol
# Density = 2.306480 g / cm^3
# Si number density = 23.117417 Si / 1000 Ang^3
#
#
#
# Elastic Constant Matrix: (Units=GPa)
#
#
# Indices 1 2 3 4 5 6 
#
# 1 100.9582 28.6259 43.0587 2.3975 -7.0491 14.1185
# 2 28.6259 116.3387 71.3579 3.5556 -16.1035 9.5993
# 3 43.0587 71.3579 148.5426 0.6964 -20.4164 12.0908
# 4 2.3975 3.5556 0.6964 44.7437 -0.2335 -6.8922
# 5 -7.0491 -16.1035 -20.4164 -0.2335 31.5293 2.7113
# 6 14.1185 9.5993 12.0908 -6.8922 2.7113 17.1835
#
#
#
# Elastic Compliance Matrix: (Units=1/GPa)
#
#
# Indices 1 2 3 4 5 6 
#
# 1 0.012561 -0.000560 -0.002345 -0.002040 0.001802 -0.009461
# 2 -0.000560 0.012756 -0.005149 -0.001532 0.003405 -0.004194
# 3 -0.002345 -0.005149 0.010728 -0.000142 0.004089 -0.003448
# 4 -0.002040 -0.001532 -0.000142 0.024548 -0.002252 0.012833
# 5 0.001802 0.003405 0.004089 -0.002252 0.037616 -0.013099
# 6 -0.009461 -0.004194 -0.003448 0.012833 -0.013099 0.077952
#
#
# Mechanical properties :
#
#
# Convention : Reuss Voigt Hill
#
# Bulk Modulus (GPa) = 50.15506 72.43608 61.29557
# Shear Modulus (GPa) = 25.13645 33.54442 29.34043
#
# Velocity S-wave (km/s) = 3.30106 3.81339 3.56644
# Velocity P-wave (km/s) = 6.02264 7.12680 6.59786
#
# Compressibility (1/GPa) = 0.01993817
#
# Stress axis : x y z
#
# Youngs Moduli (GPa) = 79.60975 78.39661 93.21053
#
# Poissons Ratio (x) = 0.04392 0.21855
# Poissons Ratio (y) = 0.04459 0.47991
# Poissons Ratio (z) = 0.18666 0.40364
#
# Static dielectric constant tensor:
#      x y z
#    x 2.014890 -0.048600 -0.053440 
#    y -0.048600 1.883100 -0.005540 
#    z -0.053440 -0.005540 1.914950 
# 
# From -- ./inp_files/549441.got.cif
#   From: 2010.05.17/outbox.cif.g08.bks.cpg/sg2_275_cif.got.tgz:549441.got - 2010.06.03 11:33:40.
