data_PCOD9003066
_publ_section_title
;
Structure prediction by ZEFSAII (Michael W. Deem and Ramdas Pophale) SiO2 
 PCOD9003066
Probable space group: P -1
;
_chemical_formula_sum "Si O2"
_cell_formula_units_Z 14
_cell_length_a 14.513078
_cell_length_b 11.623427
_cell_length_c 8.213767
_cell_angle_alpha 111.990610
_cell_angle_beta 107.899215
_cell_angle_gamma 130.850216
_cell_volume 599.092831
_symmetry_space_group_name_H-M "P -1"
_symmetry_group_IT_number 2
_symmetry_cell_setting 'triclinic'
loop_
_space_group_symop_operation_xyz
x,y,z
-x,-y,-z
loop_
_atom_site_type_symbol
_atom_site_label
_atom_site_fract_x
_atom_site_fract_y
_atom_site_fract_z
Si Si1 0.064841 0.471436 0.647508
Si Si2 0.464294 0.794265 0.954853
Si Si3 0.424295 0.980644 0.209562
Si Si4 0.199436 0.157532 0.135458
Si Si5 0.120886 0.972903 0.628420
Si Si6 0.508041 0.686042 0.451632
Si Si7 0.321667 0.419829 0.863749
O O1 0.232296 0.576561 0.699952
O O2 0.000000 0.500000 0.500000
O O3 0.892402 0.190387 0.468478
O O4 0.200143 0.689311 0.971816
O O5 0.569505 0.944119 0.924228
O O6 0.446650 0.631406 0.907179
O O7 0.531143 0.968482 0.222941
O O8 0.498679 0.172667 0.464366
O O9 0.358141 0.446658 0.364346
O O10 0.283844 0.143987 0.292356
O O11 0.165268 0.063841 0.886345
O O12 0.000000 0.000000 0.000000
O O13 0.897442 0.763968 0.349391
O O14 0.266291 0.213228 0.718812
O O15 0.426488 0.563289 0.166071
#
# Coordination Sequence:
#
# PCOD9003066 Si02
#       7
#     2   2   2   2   2   2   2
#     4   9  16  29  54  81 106 146 192 230 272 334
#     4   8  18  32  53  84 110 152 185 227 283 338
#     4   9  18  33  54  84 110 145 196 230 275 345
#     4  10  22  36  60  82 113 154 198 235 285 345
#     4   9  18  34  57  83 114 153 189 237 288 343
#     4  10  21  37  57  86 115 148 194 242 287 340
#     4   9  18  35  58  82 119 148 190 234 296 341
#
# _framework density 23.368666000000001
#
# number of rings (size 3 to 8) (size 9 to 14) (size 15 to 20)
#    0.857    2.000    0.000    0.857    4.000    0.571 
#    0.000    0.714   25.143    0.000    0.000   11.000 
#    0.000    0.000    0.000    0.000    0.000    0.000 
#
# Total GULP energy -78058.327454 kJ/mol
# GULP energy per Si atom -5575.594818 kJ/mol
# Density = 2.331548 g / cm^3
# Si number density = 23.368666 Si / 1000 Ang^3
#
#
#
# Elastic Constant Matrix: (Units=GPa)
#
#
# Indices 1 2 3 4 5 6 
#
# 1 84.5770 33.2821 44.7656 11.2643 2.2508 -22.3017
# 2 33.2821 118.1538 32.4171 28.1042 -19.5059 -34.8750
# 3 44.7656 32.4171 99.6637 3.3598 -7.5655 -0.2564
# 4 11.2643 28.1042 3.3598 45.7440 -20.1159 -8.0944
# 5 2.2508 -19.5059 -7.5655 -20.1159 29.9916 -0.6693
# 6 -22.3017 -34.8750 -0.2564 -8.0944 -0.6693 31.6259
#
#
#
# Elastic Compliance Matrix: (Units=1/GPa)
#
#
# Indices 1 2 3 4 5 6 
#
# 1 0.021846 0.001554 -0.010604 -0.005864 -0.006894 0.015386
# 2 0.001554 0.017545 -0.005639 -0.003905 0.007689 0.019561
# 3 -0.010604 -0.005639 0.016758 0.004450 0.004065 -0.012335
# 4 -0.005864 -0.003905 0.004450 0.035707 0.022999 0.001220
# 5 -0.006894 0.007689 0.004065 0.022999 0.055551 0.010713
# 6 0.015386 0.019561 -0.012335 0.001220 0.010713 0.064479
#
#
# Mechanical properties :
#
#
# Convention : Reuss Voigt Hill
#
# Bulk Modulus (GPa) = 37.35462 58.14711 47.75087
# Shear Modulus (GPa) = 19.98496 34.26760 27.12628
#
# Velocity S-wave (km/s) = 2.92756 3.83350 3.41074
# Velocity P-wave (km/s) = 5.23900 6.67314 5.99908
#
# Compressibility (1/GPa) = 0.02677045
#
# Stress axis : x y z
#
# Youngs Moduli (GPa) = 45.77440 56.99669 59.67400
#
# Poissons Ratio (x) = -0.08857 0.63279
# Poissons Ratio (y) = -0.07113 0.33650
# Poissons Ratio (z) = 0.48539 0.32141
#
# Static dielectric constant tensor:
#      x y z
#    x 1.927680 -0.059340 0.027240 
#    y -0.059340 1.900640 0.031770 
#    z 0.027240 0.031770 1.973700 
# 
# From -- ./inp_files/305589.got.cif
#   From: 2010.05.17/outbox.cif.g08.bks.cpg/sg2_153_cif.got.tgz:305589.got - 2010.06.03 11:33:40.
