data_PCOD9003229
_publ_section_title
;
Structure prediction by ZEFSAII (Michael W. Deem and Ramdas Pophale) SiO2 
 PCOD9003229
Probable space group: P -1
;
_chemical_formula_sum "Si O2"
_cell_formula_units_Z 16
_cell_length_a 11.880541
_cell_length_b 23.525250
_cell_length_c 8.892931
_cell_angle_alpha 73.905447
_cell_angle_beta 45.305424
_cell_angle_gamma 39.498855
_cell_volume 909.708044
_symmetry_space_group_name_H-M "P -1"
_symmetry_group_IT_number 2
_symmetry_cell_setting 'triclinic'
loop_
_space_group_symop_operation_xyz
x,y,z
-x,-y,-z
loop_
_atom_site_type_symbol
_atom_site_label
_atom_site_fract_x
_atom_site_fract_y
_atom_site_fract_z
Si Si1 0.065951 0.275456 0.170599
Si Si2 0.249793 0.692930 0.830989
Si Si3 0.595474 0.930378 0.819639
Si Si4 0.982002 0.102346 0.097469
Si Si5 0.701232 0.979327 0.430343
Si Si6 0.075333 0.644570 0.204266
Si Si7 0.684955 0.463370 0.625067
Si Si8 0.473603 0.176556 0.604635
O O1 0.218434 0.183128 0.212106
O O2 0.894611 0.292664 0.189915
O O3 0.841355 0.387656 0.389021
O O4 0.322055 0.228156 0.872151
O O5 0.180775 0.783066 0.820528
O O6 0.584264 0.563162 0.622870
O O7 0.100236 0.708055 0.106539
O O8 0.782261 0.912257 0.543156
O O9 0.500000 0.000000 0.000000
O O10 0.293789 0.006466 0.962890
O O11 0.772932 0.117912 0.347248
O O12 0.053568 0.073056 0.874688
O O13 0.500000 0.000000 0.500000
O O14 0.530998 0.089367 0.577574
O O15 0.118642 0.609997 0.358028
O O16 0.769681 0.723026 0.358883
O O17 0.367220 0.533244 0.915816
#
# Coordination Sequence:
#
# PCOD9003229 Si02
#       8
#     2   2   2   2   2   2   2   2
#     4  11  20  34  61  83 113 144 188 233 278 331
#     4   9  18  36  55  80 109 145 189 227 273 325
#     4  11  20  37  56  85 108 144 194 230 268 327
#     4  11  23  37  56  80 120 153 177 231 283 338
#     4  10  21  37  59  80 108 149 192 226 269 329
#     4   8  18  35  59  80 108 137 198 233 270 320
#     4   9  19  33  63  85 102 141 198 243 263 314
#     4  11  22  37  53  86 120 147 178 225 296 340
#
# _framework density 17.588059999999999
#
# number of rings (size 3 to 8) (size 9 to 14) (size 15 to 20)
#    0.750    1.250    2.500    3.000    5.250    0.500 
#    0.000    1.250    0.000    0.000    0.000    0.000 
#    0.000    0.000    0.000    0.000    0.000    0.000 
#
# Total GULP energy -89074.365527 kJ/mol
# GULP energy per Si atom -5567.147845 kJ/mol
# Density = 1.754803 g / cm^3
# Si number density = 17.588060 Si / 1000 Ang^3
#
#
#
# Elastic Constant Matrix: (Units=GPa)
#
#
# Indices 1 2 3 4 5 6 
#
# 1 31.4655 21.4337 23.3683 -2.1477 9.3750 -9.7559
# 2 21.4337 100.3275 5.2785 -1.3569 0.0724 -18.3667
# 3 23.3683 5.2785 78.5291 -9.1566 11.5091 -4.1604
# 4 -2.1477 -1.3569 -9.1566 22.2543 0.5939 6.7808
# 5 9.3750 0.0724 11.5091 0.5939 26.1039 2.8875
# 6 -9.7559 -18.3667 -4.1604 6.7808 2.8875 25.8424
#
#
#
# Elastic Compliance Matrix: (Units=1/GPa)
#
#
# Indices 1 2 3 4 5 6 
#
# 1 0.057598 -0.008593 -0.013923 -0.005320 -0.016240 0.016606
# 2 -0.008593 0.012855 0.001627 -0.001347 0.001664 0.006322
# 3 -0.013923 0.001627 0.017838 0.007010 -0.002723 -0.002763
# 4 -0.005320 -0.001347 0.007010 0.051930 -0.000655 -0.015390
# 5 -0.016240 0.001664 -0.002723 -0.000655 0.046503 -0.010410
# 6 0.016606 0.006322 -0.002763 -0.015390 -0.010410 0.054215
#
#
# Mechanical properties :
#
#
# Convention : Reuss Voigt Hill
#
# Bulk Modulus (GPa) = 21.49886 34.49812 27.99849
# Shear Modulus (GPa) = 16.76601 25.52288 21.14445
#
# Velocity S-wave (km/s) = 3.09084 3.81353 3.47104
# Velocity P-wave (km/s) = 4.99878 6.24882 5.65843
#
# Compressibility (1/GPa) = 0.04651410
#
# Stress axis : x y z
#
# Youngs Moduli (GPa) = 17.36163 77.78801 56.06054
#
# Poissons Ratio (x) = 0.66842 0.78052
# Poissons Ratio (y) = 0.14918 -0.09120
# Poissons Ratio (z) = 0.24172 -0.12655
#
# Static dielectric constant tensor:
#      x y z
#    x 1.593800 -0.004640 0.012860 
#    y -0.004640 1.627550 0.005820 
#    z 0.012860 0.005820 1.623640 
# 
# From -- ./inp_files/285160.got.cif
#   From: 2010.05.17/outbox.cif.g08.bks.cpg/sg2_143_cif.got.tgz:285160.got - 2010.06.03 11:33:40.
