data_PCOD9003177
_publ_section_title
;
Structure prediction by ZEFSAII (Michael W. Deem and Ramdas Pophale) SiO2 
 PCOD9003177
Probable space group: P -1
;
_chemical_formula_sum "Si O2"
_cell_formula_units_Z 16
_cell_length_a 11.190458
_cell_length_b 8.180369
_cell_length_c 13.903482
_cell_angle_alpha 103.900131
_cell_angle_beta 32.398151
_cell_angle_gamma 114.313615
_cell_volume 606.232968
_symmetry_space_group_name_H-M "P -1"
_symmetry_group_IT_number 2
_symmetry_cell_setting 'triclinic'
loop_
_space_group_symop_operation_xyz
x,y,z
-x,-y,-z
loop_
_atom_site_type_symbol
_atom_site_label
_atom_site_fract_x
_atom_site_fract_y
_atom_site_fract_z
Si Si1 0.735817 0.387301 0.947590
Si Si2 0.124778 0.267136 0.560459
Si Si3 0.704697 0.248778 0.608783
Si Si4 0.924216 0.945010 0.256032
Si Si5 0.484158 0.356947 0.597585
Si Si6 0.149199 0.759241 0.774572
Si Si7 0.775286 0.627436 0.708651
Si Si8 0.670208 0.099136 0.117788
O O1 0.469775 0.360097 0.086197
O O2 0.684079 0.257721 0.058118
O O3 0.909948 0.330363 0.750767
O O4 0.887903 0.595403 0.909382
O O5 0.087073 0.094504 0.629137
O O6 0.385528 0.430166 0.434087
O O7 0.138972 0.262563 0.435548
O O8 0.520242 0.252945 0.652266
O O9 0.722166 0.416560 0.689111
O O10 0.976200 0.302058 0.389655
O O11 0.596778 0.051317 0.702033
O O12 0.785263 0.740704 0.273742
O O13 0.809355 0.070950 0.301088
O O14 0.195816 0.013473 0.043171
O O15 0.653475 0.321714 0.397612
O O16 0.197529 0.825417 0.860483
#
# Coordination Sequence:
#
# PCOD9003177 Si02
#       8
#     2   2   2   2   2   2   2   2
#     4  10  23  40  60  92 120 158 200 248 299 354
#     4   9  22  39  59  92 120 154 203 245 297 356
#     4  10  22  41  62  91 114 161 205 243 292 356
#     4  11  21  35  59  88 123 157 189 247 301 356
#     4  10  21  37  58  87 127 151 195 248 298 358
#     4  11  22  36  58  90 124 155 196 243 301 362
#     4  10  22  43  68  80 123 163 200 247 298 347
#     4  11  23  37  59  89 126 152 200 245 298 363
#
# _framework density 26.392493000000002
#
# number of rings (size 3 to 8) (size 9 to 14) (size 15 to 20)
#    0.000    1.750    1.250    2.250    5.250    0.500 
#    0.000   13.750    0.000    0.000    0.000    0.000 
#    0.000    0.000    0.000    0.000    0.000    0.000 
#
# Total GULP energy -89665.365720 kJ/mol
# GULP energy per Si atom -5604.085357 kJ/mol
# Density = 2.633242 g / cm^3
# Si number density = 26.392493 Si / 1000 Ang^3
#
#
#
# Elastic Constant Matrix: (Units=GPa)
#
#
# Indices 1 2 3 4 5 6 
#
# 1 110.7449 29.3323 28.6158 -9.8307 19.7742 -16.7395
# 2 29.3323 54.5564 19.9911 -11.1864 7.9844 -6.2664
# 3 28.6158 19.9911 114.3905 -4.6098 -20.8810 8.6361
# 4 -9.8307 -11.1864 -4.6098 36.6816 -9.7548 2.9597
# 5 19.7742 7.9844 -20.8810 -9.7548 48.2895 -6.0428
# 6 -16.7395 -6.2664 8.6361 2.9597 -6.0428 33.2451
#
#
#
# Elastic Compliance Matrix: (Units=1/GPa)
#
#
# Indices 1 2 3 4 5 6 
#
# 1 0.013036 -0.004068 -0.004048 -0.000252 -0.005737 0.005828
# 2 -0.004068 0.023418 -0.003514 0.004760 -0.002463 0.002407
# 3 -0.004048 -0.003514 0.012108 0.001664 0.007225 -0.004681
# 4 -0.000252 0.004760 0.001664 0.030567 0.006050 -0.001283
# 5 -0.005737 -0.002463 0.007225 0.006050 0.027720 -0.000730
# 6 0.005828 0.002407 -0.004681 -0.001283 -0.000730 0.034665
#
#
# Mechanical properties :
#
#
# Convention : Reuss Voigt Hill
#
# Bulk Modulus (GPa) = 39.52322 48.39667 43.95995
# Shear Modulus (GPa) = 28.86696 37.09342 32.98019
#
# Velocity S-wave (km/s) = 3.31079 3.75300 3.53881
# Velocity P-wave (km/s) = 5.44268 6.09567 5.77840
#
# Compressibility (1/GPa) = 0.02530158
#
# Stress axis : x y z
#
# Youngs Moduli (GPa) = 76.70942 42.70275 82.59082
#
# Poissons Ratio (x) = 0.17373 0.33429
# Poissons Ratio (y) = 0.31208 0.29024
# Poissons Ratio (z) = 0.31049 0.15007
#
# Static dielectric constant tensor:
#      x y z
#    x 2.066470 0.000350 0.007600 
#    y 0.000350 2.051270 0.022880 
#    z 0.007600 0.022880 2.035000 
# 
# From -- ./inp_files/186559.got.cif
#   From: 2010.05.17/outbox.cif.g08.bks.cpg/sg2_94_cif.got.tgz:186559.got - 2010.06.03 11:33:40.
