data_PCOD9003483
_publ_section_title
;
Structure prediction by ZEFSAII (Michael W. Deem and Ramdas Pophale) SiO2 
 PCOD9003483
Probable space group: P -1
;
_chemical_formula_sum "Si O2"
_cell_formula_units_Z 16
_cell_length_a 10.077642
_cell_length_b 6.921317
_cell_length_c 18.390196
_cell_angle_alpha 93.149881
_cell_angle_beta 78.121631
_cell_angle_gamma 136.056122
_cell_volume 862.838566
_symmetry_space_group_name_H-M "P -1"
_symmetry_group_IT_number 2
_symmetry_cell_setting 'triclinic'
loop_
_space_group_symop_operation_xyz
x,y,z
-x,-y,-z
loop_
_atom_site_type_symbol
_atom_site_label
_atom_site_fract_x
_atom_site_fract_y
_atom_site_fract_z
Si Si1 0.611735 0.395743 0.827864
Si Si2 0.583446 0.990904 0.916996
Si Si3 0.617801 0.683604 0.564301
Si Si4 0.936364 0.322684 0.574571
Si Si5 0.376422 0.800060 0.584636
Si Si6 0.379845 0.686803 0.342989
Si Si7 0.850231 0.913815 0.909876
Si Si8 0.289983 0.345780 0.920953
O O1 0.611179 0.373763 0.741460
O O2 0.781189 0.712515 0.846035
O O3 0.412073 0.290711 0.876364
O O4 0.629777 0.206578 0.859630
O O5 0.770436 0.048475 0.913113
O O6 0.418869 0.670360 0.901047
O O7 0.500000 0.000000 0.000000
O O8 0.500000 0.500000 0.500000
O O9 0.472948 0.706807 0.604910
O O10 0.651846 0.529648 0.605424
O O11 0.825284 0.014683 0.552578
O O12 0.785157 0.314557 0.630842
O O13 0.000000 0.500000 0.500000
O O14 0.147142 0.517731 0.593487
O O15 0.500000 0.000000 0.500000
O O16 0.419665 0.012085 0.642033
O O17 0.745653 0.718970 0.990041
O O18 0.080445 0.144604 0.902586
#
# Coordination Sequence:
#
# PCOD9003483 Si02
#       8
#     2   2   2   2   2   2   2   2
#     4  11  23  41  58  86 129 156 195 254 305 346
#     4  11  19  37  63  88 115 163 201 241 297 353
#     4  11  21  39  64  89 116 158 202 243 302 366
#     4  11  21  39  63  89 120 151 202 253 295 358
#     4  11  21  41  60  90 120 148 201 253 293 359
#     4  11  25  40  60  90 122 160 197 252 309 355
#     4  10  21  37  60  90 120 152 205 249 289 361
#     4  10  21  37  61  90 119 155 202 249 290 355
#
# _framework density 18.543447
#
# number of rings (size 3 to 8) (size 9 to 14) (size 15 to 20)
#    0.000    1.250    6.250    0.750    0.000    9.500 
#    0.000    2.500    0.000    0.000    0.000    0.000 
#    0.000    0.000    0.000    0.000    0.000    0.000 
#
# Total GULP energy -89170.593850 kJ/mol
# GULP energy per Si atom -5573.162116 kJ/mol
# Density = 1.850124 g / cm^3
# Si number density = 18.543447 Si / 1000 Ang^3
#
#
#
# Elastic Constant Matrix: (Units=GPa)
#
#
# Indices 1 2 3 4 5 6 
#
# 1 99.2093 62.6914 9.3245 5.4201 12.6185 8.7207
# 2 62.6914 122.6692 31.4847 17.8681 9.4468 3.4397
# 3 9.3245 31.4847 76.2479 29.9837 13.1392 1.8389
# 4 5.4201 17.8681 29.9837 25.5880 -1.4163 5.3584
# 5 12.6185 9.4468 13.1392 -1.4163 18.2401 -2.2867
# 6 8.7207 3.4397 1.8389 5.3584 -2.2867 44.9456
#
#
#
# Elastic Compliance Matrix: (Units=1/GPa)
#
#
# Indices 1 2 3 4 5 6 
#
# 1 0.016801 -0.008369 0.004665 -0.003176 -0.011272 -0.003005
# 2 -0.008369 0.013781 -0.003022 -0.004540 0.000635 0.001266
# 3 0.004665 -0.003022 0.035981 -0.043039 -0.030744 0.001421
# 4 -0.003176 -0.004540 -0.043039 0.097097 0.042250 -0.006702
# 5 -0.011272 0.000635 -0.030744 0.042250 0.088077 0.002840
# 6 -0.003005 0.001266 0.001421 -0.006702 0.002840 0.023621
#
#
# Mechanical properties :
#
#
# Convention : Reuss Voigt Hill
#
# Bulk Modulus (GPa) = 18.82851 56.12530 37.47691
# Shear Modulus (GPa) = 16.31250 30.72981 23.52116
#
# Velocity S-wave (km/s) = 2.96918 4.07526 3.56537
# Velocity P-wave (km/s) = 4.68300 7.24405 6.09946
#
# Compressibility (1/GPa) = 0.05311094
#
# Stress axis : x y z
#
# Youngs Moduli (GPa) = 59.52078 72.56174 27.79273
#
# Poissons Ratio (x) = 0.60724 -0.12965
# Poissons Ratio (y) = 0.49811 0.08399
# Poissons Ratio (z) = -0.27765 0.21929
#
# Static dielectric constant tensor:
#      x y z
#    x 1.725060 0.033040 -0.001330 
#    y 0.033040 1.696980 0.013520 
#    z -0.001330 0.013520 1.635050 
# 
# From -- ./inp_files/51796.got.cif
#   From: 2010.05.17/outbox.cif.g08.bks.cpg/sg2_26_cif.got.tgz:51796.got - 2010.06.03 11:33:40.
