data_PCOD9003911
_publ_section_title
;
Structure prediction by ZEFSAII (Michael W. Deem and Ramdas Pophale) SiO2 
 PCOD9003911
Probable space group: P -1
;
_chemical_formula_sum "Si O2"
_cell_formula_units_Z 16
_cell_length_a 22.504216
_cell_length_b 13.793707
_cell_length_c 14.239869
_cell_angle_alpha 146.880593
_cell_angle_beta 19.831020
_cell_angle_gamma 148.113643
_cell_volume 773.348003
_symmetry_space_group_name_H-M "P -1"
_symmetry_group_IT_number 2
_symmetry_cell_setting 'triclinic'
loop_
_space_group_symop_operation_xyz
x,y,z
-x,-y,-z
loop_
_atom_site_type_symbol
_atom_site_label
_atom_site_fract_x
_atom_site_fract_y
_atom_site_fract_z
Si Si1 0.298768 0.169461 0.361934
Si Si2 0.019828 0.711439 0.117937
Si Si3 0.196977 0.351175 0.261963
Si Si4 0.627761 0.965962 0.202396
Si Si5 0.898164 0.237126 0.756153
Si Si6 0.600777 0.351480 0.198460
Si Si7 0.871706 0.324798 0.606943
Si Si8 0.574200 0.249422 0.847786
O O1 0.430665 0.186955 0.269730
O O2 0.153764 0.279414 0.675881
O O3 0.178444 0.957834 0.344312
O O4 0.422639 0.254639 0.154955
O O5 0.038004 0.801106 0.267605
O O6 0.000000 0.500000 0.000000
O O7 0.204105 0.840655 0.899735
O O8 0.329004 0.548167 0.182531
O O9 0.080092 0.376615 0.547430
O O10 0.027004 0.252698 0.363518
O O11 0.301560 0.207235 0.016387
O O12 0.519622 0.904435 0.215275
O O13 0.500000 0.000000 0.500000
O O14 0.719725 0.307272 0.070801
O O15 0.500000 0.500000 0.500000
O O16 0.754109 0.389758 0.915835
O O17 0.727296 0.202395 0.646675
O O18 0.000000 0.500000 0.500000
#
# Coordination Sequence:
#
# PCOD9003911 Si02
#       8
#     2   2   2   2   2   2   2   2
#     4  11  21  41  65  89 123 164 212 254 307 383
#     4  12  26  41  60  88 127 165 208 262 327 359
#     4  10  21  40  67  90 119 165 209 251 306 378
#     4  12  26  42  58  92 129 158 213 265 313 363
#     4  11  21  41  65  89 123 164 212 254 307 383
#     4  10  21  37  62  99 126 155 204 265 318 367
#     4   8  18  39  63  91 123 165 209 239 303 384
#     4  10  21  40  67  90 119 165 209 251 306 378
#
# _framework density 20.689263
#
# number of rings (size 3 to 8) (size 9 to 14) (size 15 to 20)
#    0.000    1.500    2.500    2.625    3.500    0.000 
#    4.500    0.625    0.000    0.000    0.000    0.000 
#    0.000    0.000    0.000    0.000    0.000    0.000 
#
# Total GULP energy -89200.645800 kJ/mol
# GULP energy per Si atom -5575.040362 kJ/mol
# Density = 2.064217 g / cm^3
# Si number density = 20.689263 Si / 1000 Ang^3
#
#
#
# Elastic Constant Matrix: (Units=GPa)
#
#
# Indices 1 2 3 4 5 6 
#
# 1 72.9280 -2.0573 26.1625 -12.5300 -9.6658 10.7397
# 2 -2.0573 85.5190 21.0258 -19.0125 6.3557 -4.1774
# 3 26.1625 21.0258 69.5936 -9.5113 -13.6638 6.9682
# 4 -12.5300 -19.0125 -9.5113 40.9798 -6.1233 5.7028
# 5 -9.6658 6.3557 -13.6638 -6.1233 28.3012 -3.9554
# 6 10.7397 -4.1774 6.9682 5.7028 -3.9554 34.0061
#
#
#
# Elastic Compliance Matrix: (Units=1/GPa)
#
#
# Indices 1 2 3 4 5 6 
#
# 1 0.018162 0.002790 -0.005517 0.006811 0.003691 -0.004976
# 2 0.002790 0.014693 -0.005485 0.005759 -0.003657 0.000656
# 3 -0.005517 -0.005485 0.020497 0.002266 0.009396 -0.002419
# 4 0.006811 0.005759 0.002266 0.031772 0.008122 -0.006291
# 5 0.003691 -0.003657 0.009396 0.008122 0.043735 0.000185
# 6 -0.004976 0.000656 -0.002419 -0.006291 0.000185 0.032631
#
#
# Mechanical properties :
#
#
# Convention : Reuss Voigt Hill
#
# Bulk Modulus (GPa) = 27.07869 35.36695 31.22282
# Shear Modulus (GPa) = 26.28496 32.85140 29.56818
#
# Velocity S-wave (km/s) = 3.56822 3.98910 3.78452
# Velocity P-wave (km/s) = 5.48571 6.19263 5.84986
#
# Compressibility (1/GPa) = 0.03692941
#
# Stress axis : x y z
#
# Youngs Moduli (GPa) = 55.05919 68.05901 48.78817
#
# Poissons Ratio (x) = -0.18990 0.26916
# Poissons Ratio (y) = -0.15363 0.26759
# Poissons Ratio (z) = 0.30376 0.37328
#
# Static dielectric constant tensor:
#      x y z
#    x 1.818590 -0.002950 -0.016390 
#    y -0.002950 1.747530 -0.026790 
#    z -0.016390 -0.026790 1.747510 
# 
# From -- ./inp_files/543037.got.cif
#   From: 2010.05.17/outbox.cif.g08.bks.cpg/sg2_272_cif.got.tgz:543037.got - 2010.06.03 11:33:40.
