data_PCOD9003684
_publ_section_title
;
Structure prediction by ZEFSAII (Michael W. Deem and Ramdas Pophale) SiO2 
 PCOD9003684
Probable space group: P -1
;
_chemical_formula_sum "Si O2"
_cell_formula_units_Z 16
_cell_length_a 19.108370
_cell_length_b 8.580304
_cell_length_c 11.326593
_cell_angle_alpha 40.279796
_cell_angle_beta 41.526122
_cell_angle_gamma 38.699081
_cell_volume 694.622211
_symmetry_space_group_name_H-M "P -1"
_symmetry_group_IT_number 2
_symmetry_cell_setting 'triclinic'
loop_
_space_group_symop_operation_xyz
x,y,z
-x,-y,-z
loop_
_atom_site_type_symbol
_atom_site_label
_atom_site_fract_x
_atom_site_fract_y
_atom_site_fract_z
Si Si1 0.994786 0.723194 0.193322
Si Si2 0.841805 0.802403 0.550503
Si Si3 0.702953 0.701985 0.353992
Si Si4 0.168326 0.354283 0.020012
Si Si5 0.566425 0.119197 0.472298
Si Si6 0.590256 0.863741 0.815053
Si Si7 0.131931 0.900771 0.442992
Si Si8 0.368148 0.434519 0.844126
O O1 0.088449 0.500824 0.300129
O O2 0.030411 0.557825 0.119789
O O3 0.873182 0.794606 0.377350
O O4 0.000000 0.000000 0.000000
O O5 0.701327 0.911597 0.682872
O O6 0.879435 0.995801 0.466095
O O7 0.576608 0.714428 0.468976
O O8 0.784192 0.423922 0.483577
O O9 0.651802 0.980877 0.332487
O O10 0.785187 0.680622 0.150829
O O11 0.192008 0.061147 0.208577
O O12 0.243289 0.474903 0.927012
O O13 0.602954 0.327928 0.366196
O O14 0.588762 0.863650 0.676342
O O15 0.465809 0.133193 0.848674
O O16 0.614670 0.603568 0.013738
O O17 0.000000 0.000000 0.500000
#
# Coordination Sequence:
#
# PCOD9003684 Si02
#       8
#     2   2   2   2   2   2   2   2
#     4  10  21  37  61  92 127 169 215 278 330 364
#     4  10  22  40  63  98 130 167 227 277 326 396
#     4  11  26  47  66  98 147 178 224 273 345 413
#     4  11  24  46  70 100 132 179 226 284 333 401
#     4  11  26  41  68 107 138 182 214 279 347 411
#     4  11  22  40  71 104 135 170 222 279 341 402
#     4  11  25  47  68  92 136 193 228 272 341 404
#     4  11  23  40  71 108 132 170 228 275 343 399
#
# _framework density 23.034105
#
# number of rings (size 3 to 8) (size 9 to 14) (size 15 to 20)
#    0.000    1.250    3.750    1.875    5.250    4.500 
#    2.250    2.500    0.000    0.000    0.000    0.000 
#    0.000    0.000    0.000    0.000    0.000    0.000 
#
# Total GULP energy -89331.402364 kJ/mol
# GULP energy per Si atom -5583.212648 kJ/mol
# Density = 2.298168 g / cm^3
# Si number density = 23.034105 Si / 1000 Ang^3
#
#
#
# Elastic Constant Matrix: (Units=GPa)
#
#
# Indices 1 2 3 4 5 6 
#
# 1 56.3449 19.0962 1.7894 -0.9470 -8.8217 -17.6717
# 2 19.0962 86.8649 43.0287 10.6270 4.7430 0.0516
# 3 1.7894 43.0287 100.7629 4.4072 17.0366 10.7866
# 4 -0.9470 10.6270 4.4072 41.9789 4.1333 9.0441
# 5 -8.8217 4.7430 17.0366 4.1333 29.0820 3.4023
# 6 -17.6717 0.0516 10.7866 9.0441 3.4023 26.7140
#
#
#
# Elastic Compliance Matrix: (Units=1/GPa)
#
#
# Indices 1 2 3 4 5 6 
#
# 1 0.026373 -0.005250 -0.001368 -0.002562 0.007931 0.017866
# 2 -0.005250 0.016521 -0.006890 -0.003707 0.000217 0.000504
# 3 -0.001368 -0.006890 0.014772 0.002343 -0.007495 -0.006695
# 4 -0.002562 -0.003707 0.002343 0.027306 -0.004097 -0.011357
# 5 0.007931 0.000217 -0.007495 -0.004097 0.041213 0.004411
# 6 0.017866 0.000504 -0.006695 -0.011357 0.004411 0.055237
#
#
# Mechanical properties :
#
#
# Convention : Reuss Voigt Hill
#
# Bulk Modulus (GPa) = 32.62732 41.31127 36.96929
# Shear Modulus (GPa) = 22.86701 31.55889 27.21295
#
# Velocity S-wave (km/s) = 3.15420 3.70549 3.44091
# Velocity P-wave (km/s) = 5.24031 6.02340 5.64545
#
# Compressibility (1/GPa) = 0.03064916
#
# Stress axis : x y z
#
# Youngs Moduli (GPa) = 37.91787 60.52952 67.69434
#
# Poissons Ratio (x) = 0.31781 0.09259
# Poissons Ratio (y) = 0.19909 0.46643
# Poissons Ratio (z) = 0.05186 0.41706
#
# Static dielectric constant tensor:
#      x y z
#    x 1.897340 0.009950 0.068140 
#    y 0.009950 1.860250 0.046080 
#    z 0.068140 0.046080 1.886850 
# 
# From -- ./inp_files/469146.got.cif
#   From: 2010.05.17/outbox.cif.g08.bks.cpg/sg2_235_cif.got.tgz:469146.got - 2010.06.03 11:33:40.
