data_PCOD9003622
_publ_section_title
;
Structure prediction by ZEFSAII (Michael W. Deem and Ramdas Pophale) SiO2 
 PCOD9003622
Probable space group: P -1
;
_chemical_formula_sum "Si O2"
_cell_formula_units_Z 16
_cell_length_a 14.311889
_cell_length_b 8.957696
_cell_length_c 7.949346
_cell_angle_alpha 92.211627
_cell_angle_beta 49.735639
_cell_angle_gamma 76.460189
_cell_volume 730.855045
_symmetry_space_group_name_H-M "P -1"
_symmetry_group_IT_number 2
_symmetry_cell_setting 'triclinic'
loop_
_space_group_symop_operation_xyz
x,y,z
-x,-y,-z
loop_
_atom_site_type_symbol
_atom_site_label
_atom_site_fract_x
_atom_site_fract_y
_atom_site_fract_z
Si Si1 0.386522 0.504624 0.764886
Si Si2 0.494569 0.964854 0.701751
Si Si3 0.716775 0.159938 0.933515
Si Si4 0.020577 0.037156 0.259232
Si Si5 0.823553 0.317901 0.369882
Si Si6 0.417690 0.753014 0.262669
Si Si7 0.933084 0.828264 0.124564
Si Si8 0.273882 0.346955 0.609930
O O1 0.500000 0.500000 0.500000
O O2 0.307208 0.684453 0.916563
O O3 0.461144 0.401081 0.832708
O O4 0.304019 0.414681 0.756152
O O5 0.538907 0.095997 0.748526
O O6 0.500000 0.000000 0.500000
O O7 0.356921 0.954844 0.913507
O O8 0.597190 0.790193 0.606148
O O9 0.868948 0.052335 0.742673
O O10 0.643310 0.230428 0.849834
O O11 0.938796 0.928294 0.286582
O O12 0.919981 0.216521 0.398347
O O13 0.097764 0.055050 0.997001
O O14 0.704543 0.253166 0.482867
O O15 0.765396 0.505475 0.465496
O O16 0.920948 0.284654 0.096375
O O17 0.836863 0.731013 0.246821
#
# Coordination Sequence:
#
# PCOD9003622 Si02
#       8
#     2   2   2   2   2   2   2   2
#     4  12  23  41  68  96 126 168 216 264 321 380
#     4  12  24  40  67  95 128 165 221 266 318 376
#     4  12  25  43  63  95 135 171 206 263 334 383
#     4   9  21  38  64  88 129 165 218 261 316 370
#     4  10  21  37  61  89 124 167 213 256 313 369
#     4  12  25  42  63  95 134 171 209 263 326 391
#     4   9  20  36  61  95 122 158 220 270 308 359
#     4  12  21  37  68  96 126 156 217 280 311 360
#
# _framework density 21.892166
#
# number of rings (size 3 to 8) (size 9 to 14) (size 15 to 20)
#    0.750    0.250    3.750    3.375    1.750    0.500 
#    0.000    0.000    0.000    2.250    0.000    0.000 
#    0.000    0.000    0.000    0.000    0.000    0.000 
#
# Total GULP energy -89367.677853 kJ/mol
# GULP energy per Si atom -5585.479866 kJ/mol
# Density = 2.184234 g / cm^3
# Si number density = 21.892166 Si / 1000 Ang^3
#
#
#
# Elastic Constant Matrix: (Units=GPa)
#
#
# Indices 1 2 3 4 5 6 
#
# 1 131.4010 69.8581 22.8657 -9.6945 -13.8970 1.6003
# 2 69.8581 130.2375 12.7678 13.4211 -12.4123 -8.8927
# 3 22.8657 12.7678 18.6906 1.7400 -13.0274 -1.1971
# 4 -9.6945 13.4211 1.7400 32.5917 -2.6248 -6.1298
# 5 -13.8970 -12.4123 -13.0274 -2.6248 35.9670 -5.6596
# 6 1.6003 -8.8927 -1.1971 -6.1298 -5.6596 56.6220
#
#
#
# Elastic Compliance Matrix: (Units=1/GPa)
#
#
# Indices 1 2 3 4 5 6 
#
# 1 0.014511 -0.007398 -0.014868 0.007765 -0.001960 -0.001242
# 2 -0.007398 0.012409 0.002881 -0.006968 0.002224 0.001687
# 3 -0.014868 0.002881 0.090371 -0.007255 0.028211 0.004818
# 4 0.007765 -0.006968 -0.007255 0.036829 0.001069 0.002627
# 5 -0.001960 0.002224 0.028211 0.001069 0.038897 0.005005
# 6 -0.001242 0.001687 0.004818 0.002627 0.005005 0.018847
#
#
# Mechanical properties :
#
#
# Convention : Reuss Voigt Hill
#
# Bulk Modulus (GPa) = 12.73531 54.59023 33.66277
# Shear Modulus (GPa) = 18.06293 36.69196 27.37745
#
# Velocity S-wave (km/s) = 2.87555 4.09838 3.54016
# Velocity P-wave (km/s) = 4.10548 6.88373 5.66748
#
# Compressibility (1/GPa) = 0.07852186
#
# Stress axis : x y z
#
# Youngs Moduli (GPa) = 68.91188 80.58464 11.06546
#
# Poissons Ratio (x) = 0.59616 0.16452
# Poissons Ratio (y) = 0.50981 -0.03188
# Poissons Ratio (z) = 1.02456 -0.23214
#
# Static dielectric constant tensor:
#      x y z
#    x 1.815600 -0.051550 0.012870 
#    y -0.051550 1.819620 -0.016590 
#    z 0.012870 -0.016590 1.844820 
# 
# From -- ./inp_files/295400.got.cif
#   From: 2010.05.17/outbox.cif.g08.bks.cpg/sg2_148_cif.got.tgz:295400.got - 2010.06.03 11:33:40.
