data_PCOD9003761
_publ_section_title
;
Structure prediction by ZEFSAII (Michael W. Deem and Ramdas Pophale) SiO2 
 PCOD9003761
Probable space group: P -1
;
_chemical_formula_sum "Si O2"
_cell_formula_units_Z 14
_cell_length_a 13.610901
_cell_length_b 8.479912
_cell_length_c 9.808574
_cell_angle_alpha 79.354003
_cell_angle_beta 41.211401
_cell_angle_gamma 72.911728
_cell_volume 711.756499
_symmetry_space_group_name_H-M "P -1"
_symmetry_group_IT_number 2
_symmetry_cell_setting 'triclinic'
loop_
_space_group_symop_operation_xyz
x,y,z
-x,-y,-z
loop_
_atom_site_type_symbol
_atom_site_label
_atom_site_fract_x
_atom_site_fract_y
_atom_site_fract_z
Si Si1 0.346269 0.978137 0.095962
Si Si2 0.656543 0.376938 0.899953
Si Si3 0.336200 0.583653 0.595845
Si Si4 0.133528 0.096870 0.066354
Si Si5 0.198361 0.790918 0.474573
Si Si6 0.880979 0.640100 0.187765
Si Si7 0.147005 0.715166 0.041936
O O1 0.258138 0.100477 0.053701
O O2 0.387067 0.799136 0.009797
O O3 0.228428 0.952702 0.342510
O O4 0.500000 0.000000 0.000000
O O5 0.774747 0.341351 0.655361
O O6 0.747491 0.399579 0.937091
O O7 0.500000 0.500000 0.000000
O O8 0.500000 0.500000 0.500000
O O9 0.326682 0.718422 0.465414
O O10 0.261756 0.441653 0.631257
O O11 0.230880 0.672745 0.816069
O O12 0.965757 0.178212 0.289383
O O13 0.134069 0.907032 0.060816
O O14 0.161118 0.198015 0.889167
O O15 0.978640 0.680550 0.206414
O O16 0.000000 0.500000 0.000000
#
# Coordination Sequence:
#
# PCOD9003761 Si02
#       7
#     2   2   2   2   2   2   2
#     4   9  22  36  62  86 116 162 196 240 306 350
#     4   9  20  38  62  84 123 157 194 244 304 348
#     4  11  23  40  63  87 123 158 200 244 302 362
#     4  11  20  40  63  87 123 154 205 248 296 360
#     4  10  21  38  63  85 119 154 204 238 303 345
#     4  10  21  37  62  88 116 159 197 242 307 353
#     4  10  21  38  63  88 119 159 194 252 301 346
#
# _framework density 19.669650000000001
#
# number of rings (size 3 to 8) (size 9 to 14) (size 15 to 20)
#    0.857    1.143    2.857    1.714    2.000    1.143 
#    0.000    5.714    0.000    0.000    0.000    0.000 
#    0.000    0.000    0.000    0.000    0.000    0.000 
#
# Total GULP energy -77968.107137 kJ/mol
# GULP energy per Si atom -5569.150510 kJ/mol
# Density = 1.962488 g / cm^3
# Si number density = 19.669650 Si / 1000 Ang^3
#
#
#
# Elastic Constant Matrix: (Units=GPa)
#
#
# Indices 1 2 3 4 5 6 
#
# 1 169.3182 36.6030 8.1192 -11.7223 2.3377 -11.1655
# 2 36.6030 50.0982 3.8265 5.0797 -5.2451 -9.0893
# 3 8.1192 3.8265 30.5896 1.0883 8.4473 2.3881
# 4 -11.7223 5.0797 1.0883 17.2016 -0.3545 -0.6899
# 5 2.3377 -5.2451 8.4473 -0.3545 32.4465 -4.2674
# 6 -11.1655 -9.0893 2.3881 -0.6899 -4.2674 35.4379
#
#
#
# Elastic Compliance Matrix: (Units=1/GPa)
#
#
# Indices 1 2 3 4 5 6 
#
# 1 0.007942 -0.006380 -0.001362 0.007400 -0.001040 0.000976
# 2 -0.006380 0.027881 -0.003646 -0.011977 0.006567 0.005944
# 3 -0.001362 -0.003646 0.037002 -0.002625 -0.010839 -0.005214
# 4 0.007400 -0.011977 -0.002625 0.066885 -0.000973 0.000621
# 5 -0.001040 0.006567 -0.010839 -0.000973 0.035604 0.006356
# 6 0.000976 0.005944 -0.005214 0.000621 0.006356 0.031179
#
#
# Mechanical properties :
#
#
# Convention : Reuss Voigt Hill
#
# Bulk Modulus (GPa) = 19.98048 38.56704 29.27376
# Shear Modulus (GPa) = 20.32915 30.44770 25.38842
#
# Velocity S-wave (km/s) = 3.21834 3.93867 3.59659
# Velocity P-wave (km/s) = 4.89800 6.35092 5.67118
#
# Compressibility (1/GPa) = 0.05004884
#
# Stress axis : x y z
#
# Youngs Moduli (GPa) = 125.91702 35.86623 27.02547
#
# Poissons Ratio (x) = 0.22884 0.03681
# Poissons Ratio (y) = 0.80341 0.09852
# Poissons Ratio (z) = 0.17152 0.13075
#
# Static dielectric constant tensor:
#      x y z
#    x 1.726220 -0.011870 0.005440 
#    y -0.011870 1.719220 -0.008950 
#    z 0.005440 -0.008950 1.699590 
# 
# From -- ./inp_files/155571.got.cif
#   From: 2010.05.17/outbox.cif.g08.bks.cpg/sg2_78_cif.got.tgz:155571.got - 2010.06.03 11:33:40.
