data_PCOD9003147
_publ_section_title
;
Structure prediction by ZEFSAII (Michael W. Deem and Ramdas Pophale) SiO2 
 PCOD9003147
Probable space group: P -1
;
_chemical_formula_sum "Si O2"
_cell_formula_units_Z 16
_cell_length_a 7.799686
_cell_length_b 18.844456
_cell_length_c 20.044881
_cell_angle_alpha 22.871175
_cell_angle_beta 132.412909
_cell_angle_gamma 130.935730
_cell_volume 839.539308
_symmetry_space_group_name_H-M "P -1"
_symmetry_group_IT_number 2
_symmetry_cell_setting 'triclinic'
loop_
_space_group_symop_operation_xyz
x,y,z
-x,-y,-z
loop_
_atom_site_type_symbol
_atom_site_label
_atom_site_fract_x
_atom_site_fract_y
_atom_site_fract_z
Si Si1 0.888535 0.259258 0.781295
Si Si2 0.960081 0.477795 0.745823
Si Si3 0.071988 0.391112 0.177690
Si Si4 0.798586 0.263537 0.012844
Si Si5 0.200190 0.152017 0.307430
Si Si6 0.459914 0.503187 0.565615
Si Si7 0.336140 0.135217 0.933369
Si Si8 0.296197 0.732446 0.698967
O O1 0.965265 0.392824 0.747499
O O2 0.741439 0.363547 0.598142
O O3 0.115653 0.194476 0.863788
O O4 0.731022 0.074429 0.925826
O O5 0.714352 0.566864 0.608475
O O6 0.175302 0.619218 0.703098
O O7 0.934542 0.315457 0.934543
O O8 0.174763 0.220249 0.318061
O O9 0.846943 0.341635 0.208690
O O10 0.242201 0.539013 0.136325
O O11 0.000000 0.500000 0.000000
O O12 0.966853 0.175057 0.184620
O O13 0.558465 0.147015 0.030669
O O14 0.425315 0.269234 0.230511
O O15 0.247260 0.942611 0.499124
O O16 0.500000 0.500000 0.500000
O O17 0.391961 0.296619 0.753706
#
# Coordination Sequence:
#
# PCOD9003147 Si02
#       8
#     2   2   2   2   2   2   2   2
#     4  10  21  37  59  84 115 154 183 241 292 333
#     4   9  20  36  55  83 110 150 189 231 282 340
#     4   9  19  36  58  82 111 152 186 232 289 331
#     4   9  20  36  55  83 110 150 189 231 282 340
#     4  10  21  37  59  84 115 154 183 241 292 333
#     4   9  19  36  58  82 111 152 186 232 289 331
#     4  10  21  37  58  86 117 145 198 231 284 356
#     4  10  21  37  58  86 117 145 198 231 284 356
#
# _framework density 19.058071000000002
#
# number of rings (size 3 to 8) (size 9 to 14) (size 15 to 20)
#    0.000    2.500    0.000    0.750    3.500    9.000 
#    4.500    0.000    0.000    0.000    0.000    0.000 
#    0.000    0.000    0.000    0.000    0.000    0.000 
#
# Total GULP energy -89125.263995 kJ/mol
# GULP energy per Si atom -5570.329000 kJ/mol
# Density = 1.901469 g / cm^3
# Si number density = 19.058071 Si / 1000 Ang^3
#
#
#
# Elastic Constant Matrix: (Units=GPa)
#
#
# Indices 1 2 3 4 5 6 
#
# 1 70.7707 39.3222 19.4454 -2.6998 2.7543 3.1938
# 2 39.3222 103.1434 36.0525 -4.6295 0.1744 7.6198
# 3 19.4454 36.0525 69.4628 0.4992 3.1687 4.4607
# 4 -2.6998 -4.6295 0.4992 26.6846 -0.1684 -3.0375
# 5 2.7543 0.1744 3.1687 -0.1684 29.1355 -1.1912
# 6 3.1938 7.6198 4.4607 -3.0375 -1.1912 28.5914
#
#
#
# Elastic Compliance Matrix: (Units=1/GPa)
#
#
# Indices 1 2 3 4 5 6 
#
# 1 0.018193 -0.006276 -0.001769 0.000768 -0.001488 -0.000064
# 2 -0.006276 0.014260 -0.005576 0.001722 0.001042 -0.002003
# 3 -0.001769 -0.005576 0.017968 -0.001650 -0.001819 -0.001371
# 4 0.000768 0.001722 -0.001650 0.038318 0.000474 0.003803
# 5 -0.001488 0.001042 -0.001819 0.000474 0.034726 0.001669
# 6 -0.000064 -0.002003 -0.001371 0.003803 0.001669 0.036204
#
#
# Mechanical properties :
#
#
# Convention : Reuss Voigt Hill
#
# Bulk Modulus (GPa) = 43.14038 48.11302 45.62670
# Shear Modulus (GPa) = 25.68865 26.78608 26.23736
#
# Velocity S-wave (km/s) = 3.67538 3.75306 3.71442
# Velocity P-wave (km/s) = 6.37939 6.63935 6.51067
#
# Compressibility (1/GPa) = 0.02318014
#
# Stress axis : x y z
#
# Youngs Moduli (GPa) = 54.96480 70.12475 55.65357
#
# Poissons Ratio (x) = 0.44009 0.09847
# Poissons Ratio (y) = 0.34495 0.31031
# Poissons Ratio (z) = 0.09725 0.39100
#
# Static dielectric constant tensor:
#      x y z
#    x 1.709650 0.002430 0.026300 
#    y 0.002430 1.664210 -0.016200 
#    z 0.026300 -0.016200 1.704420 
# 
# From -- ./inp_files/311693.got.cif
#   From: 2010.05.17/outbox.cif.g08.bks.cpg/sg2_156_cif.got.tgz:311693.got - 2010.06.03 11:33:40.
