data_PCOD9003080
_publ_section_title
;
Structure prediction by ZEFSAII (Michael W. Deem and Ramdas Pophale) SiO2 
 PCOD9003080
Probable space group: P -1
;
_chemical_formula_sum "Si O2"
_cell_formula_units_Z 16
_cell_length_a 12.776315
_cell_length_b 15.235060
_cell_length_c 10.963550
_cell_angle_alpha 55.705218
_cell_angle_beta 141.544205
_cell_angle_gamma 148.410658
_cell_volume 659.119191
_symmetry_space_group_name_H-M "P -1"
_symmetry_group_IT_number 2
_symmetry_cell_setting 'triclinic'
loop_
_space_group_symop_operation_xyz
x,y,z
-x,-y,-z
loop_
_atom_site_type_symbol
_atom_site_label
_atom_site_fract_x
_atom_site_fract_y
_atom_site_fract_z
Si Si1 0.915164 0.866472 0.140758
Si Si2 0.228510 0.370630 0.159365
Si Si3 0.106907 0.092496 0.357355
Si Si4 0.757763 0.277943 0.219150
Si Si5 0.250562 0.419925 0.667471
Si Si6 0.476645 0.265293 0.770927
Si Si7 0.002533 0.620101 0.283169
Si Si8 0.587278 0.895722 0.732289
O O1 0.738307 0.696936 0.191781
O O2 0.093555 0.032207 0.261102
O O3 0.140040 0.914642 0.228987
O O4 0.705667 0.836414 0.902027
O O5 0.083524 0.209019 0.238080
O O6 0.461003 0.416677 0.265010
O O7 0.381639 0.547535 0.226914
O O8 0.044086 0.331144 0.916522
O O9 0.391952 0.207796 0.598274
O O10 0.829269 0.902221 0.314943
O O11 0.889722 0.448535 0.271120
O O12 0.505591 0.117900 0.205720
O O13 0.998627 0.312649 0.426620
O O14 0.660824 0.269017 0.005494
O O15 0.173405 0.437297 0.710948
O O16 0.322112 0.773213 0.499480
#
# Coordination Sequence:
#
# PCOD9003080 Si02
#       8
#     2   2   2   2   2   2   2   2
#     4  11  23  37  61  93 128 159 208 255 297 372
#     4  11  23  40  66  94 119 162 214 250 305 370
#     4  11  23  40  71  86 120 170 202 262 306 356
#     4  10  21  40  60  88 128 165 198 258 308 363
#     4  11  22  37  60  91 130 159 202 251 305 369
#     4  10  22  46  64  90 122 157 218 254 306 364
#     4  10  23  36  60  91 130 166 196 250 314 371
#     4  10  21  37  57  87 131 157 200 244 310 368
#
# _framework density 24.274819999999998
#
# number of rings (size 3 to 8) (size 9 to 14) (size 15 to 20)
#    0.000    1.500    2.500    3.000    7.000    3.000 
#    0.000    1.250    2.750    0.000    0.000    0.000 
#    0.000    0.000    0.000    0.000    0.000    0.000 
#
# Total GULP energy -89461.842186 kJ/mol
# GULP energy per Si atom -5591.365137 kJ/mol
# Density = 2.421957 g / cm^3
# Si number density = 24.274820 Si / 1000 Ang^3
#
#
#
# Elastic Constant Matrix: (Units=GPa)
#
#
# Indices 1 2 3 4 5 6 
#
# 1 18.6790 4.5860 23.5788 5.5532 0.4691 -5.9879
# 2 4.5860 79.2587 -1.0803 11.9178 -12.0411 -6.7731
# 3 23.5788 -1.0803 169.7199 4.8530 -16.5971 -12.9129
# 4 5.5532 11.9178 4.8530 26.0406 5.3435 -5.3778
# 5 0.4691 -12.0411 -16.5971 5.3435 29.1662 9.6483
# 6 -5.9879 -6.7731 -12.9129 -5.3778 9.6483 17.2981
#
#
#
# Elastic Compliance Matrix: (Units=1/GPa)
#
#
# Indices 1 2 3 4 5 6 
#
# 1 0.077428 -0.004392 -0.010368 -0.003904 -0.016651 0.025417
# 2 -0.004392 0.015563 0.001755 -0.009082 0.009989 -0.002511
# 3 -0.010368 0.001755 0.007905 -0.001425 0.005892 -0.000730
# 4 -0.003904 -0.009082 -0.001425 0.052724 -0.021587 0.022461
# 5 -0.016651 0.009989 0.005892 -0.021587 0.058080 -0.036561
# 6 0.025417 -0.002511 -0.000730 0.022461 -0.036561 0.092455
#
#
# Mechanical properties :
#
#
# Convention : Reuss Voigt Hill
#
# Bulk Modulus (GPa) = 13.35355 35.75853 24.55604
# Shear Modulus (GPa) = 14.07941 30.53919 22.30930
#
# Velocity S-wave (km/s) = 2.41093 3.55076 3.03484
# Velocity P-wave (km/s) = 3.64185 5.61901 4.73478
#
# Compressibility (1/GPa) = 0.07488645
#
# Stress axis : x y z
#
# Youngs Moduli (GPa) = 12.91515 64.25309 126.50218
#
# Poissons Ratio (x) = 0.28220 1.31155
# Poissons Ratio (y) = 0.05672 -0.22197
# Poissons Ratio (z) = 0.13390 -0.11274
#
# Static dielectric constant tensor:
#      x y z
#    x 1.969390 0.021980 -0.007660 
#    y 0.021980 2.000400 -0.014280 
#    z -0.007660 -0.014280 1.926710 
# 
# From -- ./inp_files/456958.got.cif
#   From: 2010.05.17/outbox.cif.g08.bks.cpg/sg2_229_cif.got.tgz:456958.got - 2010.06.03 11:33:40.
