data_PCOD9003624
_publ_section_title
;
Structure prediction by ZEFSAII (Michael W. Deem and Ramdas Pophale) SiO2 
 PCOD9003624
Probable space group: P -1
;
_chemical_formula_sum "Si O2"
_cell_formula_units_Z 14
_cell_length_a 11.979221
_cell_length_b 9.788019
_cell_length_c 5.477576
_cell_angle_alpha 55.601137
_cell_angle_beta 99.189338
_cell_angle_gamma 95.269300
_cell_volume 523.143363
_symmetry_space_group_name_H-M "P -1"
_symmetry_group_IT_number 2
_symmetry_cell_setting 'triclinic'
loop_
_space_group_symop_operation_xyz
x,y,z
-x,-y,-z
loop_
_atom_site_type_symbol
_atom_site_label
_atom_site_fract_x
_atom_site_fract_y
_atom_site_fract_z
Si Si1 0.565965 0.659345 0.452325
Si Si2 0.895214 0.068261 0.248810
Si Si3 0.847428 0.407583 0.676828
Si Si4 0.447409 0.883215 0.859052
Si Si5 0.742175 0.309312 0.229655
Si Si6 0.661582 0.835583 0.690369
Si Si7 0.188114 0.244473 0.781267
O O1 0.500000 0.500000 0.500000
O O2 0.606214 0.668455 0.736053
O O3 0.685466 0.690205 0.321386
O O4 0.472777 0.800083 0.209517
O O5 0.814520 0.144548 0.355154
O O6 0.915403 0.235346 0.923128
O O7 0.850934 0.917735 0.215001
O O8 0.000000 0.000000 0.500000
O O9 0.772562 0.369900 0.447433
O O10 0.890634 0.594817 0.453990
O O11 0.782784 0.420973 0.902254
O O12 0.384993 0.746220 0.809501
O O13 0.572291 0.914711 0.766440
O O14 0.362664 0.037089 0.668475
O O15 0.782562 0.802681 0.880873
#
# Coordination Sequence:
#
# PCOD9003624 Si02
#       7
#     2   2   2   2   2   2   2
#     4  11  24  37  59  98 138 185 231 277 339 407
#     4  10  25  48  75 104 134 180 234 294 361 423
#     4  10  25  44  71 105 137 184 226 294 349 419
#     4  10  21  37  61  89 133 182 231 277 334 401
#     4  10  23  44  70  99 143 180 231 287 349 411
#     4  10  23  36  60  95 132 183 231 279 336 412
#     4  11  24  43  68 101 141 183 234 287 351 414
#
# _framework density 26.761305
#
# number of rings (size 3 to 8) (size 9 to 14) (size 15 to 20)
#    0.857    0.857    0.000    3.000    8.000    3.429 
#    0.000    0.714    0.000    0.000    0.000    0.000 
#    0.000    0.000    0.000    0.000    0.000    0.000 
#
# Total GULP energy -78078.388430 kJ/mol
# GULP energy per Si atom -5577.027745 kJ/mol
# Density = 2.670039 g / cm^3
# Si number density = 26.761305 Si / 1000 Ang^3
#
#
#
# Elastic Constant Matrix: (Units=GPa)
#
#
# Indices 1 2 3 4 5 6 
#
# 1 65.2245 36.0313 39.0499 -8.6489 14.3598 -1.3550
# 2 36.0313 176.9681 80.1029 -8.3610 20.9518 -5.8303
# 3 39.0499 80.1029 177.8664 -9.2276 41.3687 2.1654
# 4 -8.6489 -8.3610 -9.2276 62.6370 -4.1937 5.7921
# 5 14.3598 20.9518 41.3687 -4.1937 37.2492 -8.5982
# 6 -1.3550 -5.8303 2.1654 5.7921 -8.5982 31.3573
#
#
#
# Elastic Compliance Matrix: (Units=1/GPa)
#
#
# Indices 1 2 3 4 5 6 
#
# 1 0.018952 -0.002407 -0.002149 0.001815 -0.003543 -0.000787
# 2 -0.002407 0.007486 -0.002939 0.000113 0.000356 0.001567
# 3 -0.002149 -0.002939 0.009582 0.000477 -0.008996 -0.003856
# 4 0.001815 0.000113 0.000477 0.016573 -0.000126 -0.003029
# 5 -0.003543 0.000356 -0.008996 -0.000126 0.040693 0.011716
# 6 -0.000787 0.001567 -0.003856 -0.003029 0.011716 0.036186
#
#
# Mechanical properties :
#
#
# Convention : Reuss Voigt Hill
#
# Bulk Modulus (GPa) = 47.55106 81.15858 64.35482
# Shear Modulus (GPa) = 33.00964 43.90702 38.45833
#
# Velocity S-wave (km/s) = 3.51591 4.05494 3.79501
# Velocity P-wave (km/s) = 5.85571 7.23298 6.58048
#
# Compressibility (1/GPa) = 0.02103003
#
# Stress axis : x y z
#
# Youngs Moduli (GPa) = 52.76438 133.58538 104.36687
#
# Poissons Ratio (x) = 0.32149 0.22432
# Poissons Ratio (y) = 0.12698 0.30672
# Poissons Ratio (z) = 0.11341 0.39259
#
# Static dielectric constant tensor:
#      x y z
#    x 2.123450 0.031520 -0.083590 
#    y 0.031520 2.212740 -0.127440 
#    z -0.083590 -0.127440 2.267090 
# 
# From -- ./inp_files/89718.got.cif
#   From: 2010.05.17/outbox.cif.g08.bks.cpg/sg2_45_cif.got.tgz:89718.got - 2010.06.03 11:33:40.
