data_PCOD9003121
_publ_section_title
;
Structure prediction by ZEFSAII (Michael W. Deem and Ramdas Pophale) SiO2 
 PCOD9003121
Probable space group: P -1
;
_chemical_formula_sum "Si O2"
_cell_formula_units_Z 11
_cell_length_a 10.485948
_cell_length_b 6.741120
_cell_length_c 10.853696
_cell_angle_alpha 92.859595
_cell_angle_beta 39.562653
_cell_angle_gamma 107.100740
_cell_volume 446.920135
_symmetry_space_group_name_H-M "P -1"
_symmetry_group_IT_number 2
_symmetry_cell_setting 'triclinic'
loop_
_space_group_symop_operation_xyz
x,y,z
-x,-y,-z
loop_
_atom_site_type_symbol
_atom_site_label
_atom_site_fract_x
_atom_site_fract_y
_atom_site_fract_z
Si Si1 0.329091 0.147099 0.373101
Si Si2 0.500000 0.500000 0.500000
Si Si3 0.789933 0.226833 0.918361
Si Si4 0.906137 0.367237 0.191363
Si Si5 0.036454 0.743220 0.468827
Si Si6 0.830208 0.873785 0.250458
O O1 0.339012 0.238096 0.508032
O O2 0.194100 0.246217 0.392642
O O3 0.159428 0.896013 0.494948
O O4 0.557794 0.167053 0.152061
O O5 0.687874 0.399231 0.387348
O O6 0.682686 0.683341 0.266315
O O7 0.802826 0.160570 0.765867
O O8 0.913044 0.488175 0.841006
O O9 0.943872 0.131685 0.873732
O O10 0.858285 0.114229 0.209441
O O11 0.000000 0.500000 0.000000
O O12 0.000000 0.500000 0.500000
#
# Coordination Sequence:
#
# PCOD9003121 Si02
#       6
#     2   1   2   2   2   2
#     4  10  21  38  58  82 114 148 186 233 282 335
#     4  10  22  38  58  82 112 150 190 232 282 332
#     4  10  22  37  57  86 113 148 192 231 283 338
#     4  11  23  38  58  85 115 150 191 235 285 336
#     4  10  21  37  58  84 113 147 187 232 283 337
#     4  10  22  39  58  84 116 149 191 236 280 337
#
# _framework density 24.612897
#
# number of rings (size 3 to 8) (size 9 to 14) (size 15 to 20)
#    0.000    1.818    0.000    3.273    0.000    6.545 
#    0.000    0.000    0.000    0.000    0.000    0.000 
#    0.000    0.000    0.000    0.000    0.000    0.000 
#
# Total GULP energy -61321.141425 kJ/mol
# GULP energy per Si atom -5574.649220 kJ/mol
# Density = 2.455688 g / cm^3
# Si number density = 24.612897 Si / 1000 Ang^3
#
#
#
# Elastic Constant Matrix: (Units=GPa)
#
#
# Indices 1 2 3 4 5 6 
#
# 1 52.2076 16.9164 49.2671 -2.5123 -3.3985 11.8018
# 2 16.9164 201.7454 44.0999 -21.5514 -14.8136 -32.4968
# 3 49.2671 44.0999 181.9755 25.1428 -28.3668 -28.6302
# 4 -2.5123 -21.5514 25.1428 41.6493 6.1919 1.5947
# 5 -3.3985 -14.8136 -28.3668 6.1919 42.4598 4.4152
# 6 11.8018 -32.4968 -28.6302 1.5947 4.4152 35.8533
#
#
#
# Elastic Compliance Matrix: (Units=1/GPa)
#
#
# Indices 1 2 3 4 5 6 
#
# 1 0.051497 -0.004412 -0.023306 0.018105 -0.011579 -0.038940
# 2 -0.004412 0.006798 0.000664 0.002356 0.001299 0.007879
# 3 -0.023306 0.000664 0.018998 -0.015021 0.010881 0.022772
# 4 0.018105 0.002356 -0.015021 0.037728 -0.011595 -0.016069
# 5 -0.011579 0.001299 0.010881 -0.011595 0.030959 0.010381
# 6 -0.038940 0.007879 0.022772 -0.016069 0.010381 0.065472
#
#
# Mechanical properties :
#
#
# Convention : Reuss Voigt Hill
#
# Bulk Modulus (GPa) = 43.13107 72.94392 58.03749
# Shear Modulus (GPa) = 18.29567 45.70215 31.99891
#
# Velocity S-wave (km/s) = 2.72938 4.31378 3.60958
# Velocity P-wave (km/s) = 5.24352 7.38325 6.40339
#
# Compressibility (1/GPa) = 0.02318514
#
# Stress axis : x y z
#
# Youngs Moduli (GPa) = 19.41853 147.10627 52.63617
#
# Poissons Ratio (x) = 0.64906 1.22672
# Poissons Ratio (y) = 0.08568 -0.03494
# Poissons Ratio (z) = 0.45256 -0.09765
#
# Static dielectric constant tensor:
#      x y z
#    x 2.280880 0.385540 -0.000140 
#    y 0.385540 2.444480 -0.173450 
#    z -0.000140 -0.173450 2.121080 
# 
# From -- ./inp_files/2194.got.cif
#   From: 2010.05.17/outbox.cif.g08.bks.cpg/sg2_2_cif.got.tgz:2194.got - 2010.06.03 11:33:40.
