data_PCOD9003312
_publ_section_title
;
Structure prediction by ZEFSAII (Michael W. Deem and Ramdas Pophale) SiO2 
 PCOD9003312
Probable space group: P -1
;
_chemical_formula_sum "Si O2"
_cell_formula_units_Z 16
_cell_length_a 15.104966
_cell_length_b 17.396864
_cell_length_c 7.623676
_cell_angle_alpha 34.451534
_cell_angle_beta 52.696474
_cell_angle_gamma 39.278993
_cell_volume 714.576599
_symmetry_space_group_name_H-M "P -1"
_symmetry_group_IT_number 2
_symmetry_cell_setting 'triclinic'
loop_
_space_group_symop_operation_xyz
x,y,z
-x,-y,-z
loop_
_atom_site_type_symbol
_atom_site_label
_atom_site_fract_x
_atom_site_fract_y
_atom_site_fract_z
Si Si1 0.281603 0.611656 0.758298
Si Si2 0.374092 0.999238 0.354808
Si Si3 0.423628 0.256740 0.883950
Si Si4 0.315433 0.298483 0.329548
Si Si5 0.782199 0.120853 0.372122
Si Si6 0.264393 0.042247 0.801333
Si Si7 0.925487 0.071901 0.769230
Si Si8 0.574070 0.449587 0.814359
O O1 0.193179 0.723391 0.486599
O O2 0.450128 0.487294 0.766547
O O3 0.244080 0.492349 0.105553
O O4 0.245715 0.758593 0.660160
O O5 0.533466 0.831744 0.513615
O O6 0.297740 0.963172 0.371786
O O7 0.293726 0.038516 0.563945
O O8 0.380792 0.154681 0.018575
O O9 0.394120 0.419943 0.518499
O O10 0.346726 0.301201 0.079950
O O11 0.588123 0.120542 0.990775
O O12 0.238354 0.211434 0.593184
O O13 0.706994 0.253690 0.047498
O O14 0.946554 0.982636 0.408035
O O15 0.145560 0.019756 0.015907
O O16 0.000000 0.000000 0.000000
O O17 0.500000 0.500000 0.000000
#
# Coordination Sequence:
#
# PCOD9003312 Si02
#       8
#     2   2   2   2   2   2   2   2
#     4  11  23  40  58  87 122 163 197 244 306 352
#     4   9  17  35  60  93 120 152 196 251 301 352
#     4   9  18  34  62  91 121 152 199 253 299 345
#     4   9  19  34  63  89 120 154 199 253 297 351
#     4  11  23  39  59  89 129 154 197 249 301 359
#     4   9  18  37  58  91 120 154 200 248 300 352
#     4  12  24  39  62  88 120 161 207 246 295 364
#     4  10  21  37  59  88 121 152 200 247 291 352
#
# _framework density 22.390881
#
# number of rings (size 3 to 8) (size 9 to 14) (size 15 to 20)
#    0.000    2.000    3.750    1.875    1.750    0.500 
#    0.000    7.500    0.000    0.000    0.000    0.000 
#    0.000    0.000    0.000    0.000    0.000    0.000 
#
# Total GULP energy -89458.095950 kJ/mol
# GULP energy per Si atom -5591.130997 kJ/mol
# Density = 2.233992 g / cm^3
# Si number density = 22.390881 Si / 1000 Ang^3
#
#
#
# Elastic Constant Matrix: (Units=GPa)
#
#
# Indices 1 2 3 4 5 6 
#
# 1 94.0134 24.8160 41.1590 -5.6323 -35.2174 -15.3222
# 2 24.8160 35.4121 21.0275 3.1626 -0.7827 -13.1553
# 3 41.1590 21.0275 135.1767 -0.7230 -28.8600 -22.8070
# 4 -5.6323 3.1626 -0.7230 23.3893 -5.1509 2.3273
# 5 -35.2174 -0.7827 -28.8600 -5.1509 52.4481 4.9735
# 6 -15.3222 -13.1553 -22.8070 2.3273 4.9735 34.5727
#
#
#
# Elastic Compliance Matrix: (Units=1/GPa)
#
#
# Indices 1 2 3 4 5 6 
#
# 1 0.020877 -0.014512 -0.000941 0.010057 0.014235 0.000385
# 2 -0.014512 0.045826 -0.003757 -0.013934 -0.013579 0.011419
# 3 -0.000941 -0.003757 0.009904 0.001185 0.004503 0.003960
# 4 0.010057 -0.013934 0.001185 0.050407 0.012648 -0.005276
# 5 0.014235 -0.013579 0.004503 0.012648 0.032273 -0.001382
# 6 0.000385 0.011419 0.003960 -0.005276 -0.001382 0.036606
#
#
# Mechanical properties :
#
#
# Convention : Reuss Voigt Hill
#
# Bulk Modulus (GPa) = 26.18699 48.73410 37.46055
# Shear Modulus (GPa) = 20.23939 33.92200 27.08070
#
# Velocity S-wave (km/s) = 3.00977 3.89651 3.48149
# Velocity P-wave (km/s) = 4.87843 6.48507 5.73826
#
# Compressibility (1/GPa) = 0.03818690
#
# Stress axis : x y z
#
# Youngs Moduli (GPa) = 47.89912 21.82190 100.96422
#
# Poissons Ratio (x) = 0.31668 0.09506
# Poissons Ratio (y) = 0.69510 0.37931
# Poissons Ratio (z) = 0.04510 0.08198
#
# Static dielectric constant tensor:
#      x y z
#    x 1.927840 0.048800 0.023950 
#    y 0.048800 1.843710 0.022990 
#    z 0.023950 0.022990 1.847480 
# 
# From -- ./inp_files/467557.got.cif
#   From: 2010.05.17/outbox.cif.g08.bks.cpg/sg2_234_cif.got.tgz:467557.got - 2010.06.03 11:33:40.
