data_PCOD9003880
_publ_section_title
;
Structure prediction by ZEFSAII (Michael W. Deem and Ramdas Pophale) SiO2 
 PCOD9003880
Probable space group: P -1
;
_chemical_formula_sum "Si O2"
_cell_formula_units_Z 12
_cell_length_a 14.333110
_cell_length_b 14.779851
_cell_length_c 5.275201
_cell_angle_alpha 71.723183
_cell_angle_beta 64.332797
_cell_angle_gamma 29.262285
_cell_volume 487.079544
_symmetry_space_group_name_H-M "P -1"
_symmetry_group_IT_number 2
_symmetry_cell_setting 'triclinic'
loop_
_space_group_symop_operation_xyz
x,y,z
-x,-y,-z
loop_
_atom_site_type_symbol
_atom_site_label
_atom_site_fract_x
_atom_site_fract_y
_atom_site_fract_z
Si Si1 0.423335 0.164945 0.531634
Si Si2 0.141958 0.526674 0.271036
Si Si3 0.828619 0.096280 0.806389
Si Si4 0.124951 0.284669 0.075999
Si Si5 0.287514 0.968496 0.307211
Si Si6 0.107309 0.765824 0.169279
O O1 0.313128 0.313631 0.315236
O O2 0.257590 0.269814 0.851993
O O3 0.585091 0.105130 0.531514
O O4 0.500000 0.000000 0.500000
O O5 0.035430 0.601430 0.060587
O O6 0.210520 0.583014 0.155233
O O7 0.975173 0.637888 0.594959
O O8 0.663334 0.165598 0.788256
O O9 0.760980 0.245829 0.901012
O O10 0.000000 0.000000 0.500000
O O11 0.953852 0.926844 0.992838
O O12 0.275349 0.074684 0.070349
O O13 0.052948 0.135708 0.510710
#
# Coordination Sequence:
#
# PCOD9003880 Si02
#       6
#     2   2   2   2   2   2
#     4  12  26  42  63  97 136 177 219 273 330 376
#     4  11  24  44  67  95 134 177 223 269 317 395
#     4   9  17  34  66  92 120 159 219 260 324 394
#     4  11  23  44  66  93 130 183 225 261 317 394
#     4  10  21  37  62  95 128 165 213 274 321 381
#     4   9  18  37  63  94 121 168 214 261 321 398
#
# _framework density 24.636634999999998
#
# number of rings (size 3 to 8) (size 9 to 14) (size 15 to 20)
#    0.000    1.667    1.667    3.500    0.000    2.667 
#    0.000    0.833    0.000    9.000    0.000    0.000 
#    0.000    0.000    0.000    0.000    0.000    0.000 
#
# Total GULP energy -67064.634396 kJ/mol
# GULP energy per Si atom -5588.719533 kJ/mol
# Density = 2.458056 g / cm^3
# Si number density = 24.636635 Si / 1000 Ang^3
#
#
#
# Elastic Constant Matrix: (Units=GPa)
#
#
# Indices 1 2 3 4 5 6 
#
# 1 138.8954 40.8190 -1.9444 -0.9034 24.2943 16.6993
# 2 40.8190 111.4505 12.8036 -15.3883 5.8541 27.0825
# 3 -1.9444 12.8036 81.1878 -10.4808 -2.3363 11.6138
# 4 -0.9034 -15.3883 -10.4808 28.7947 6.1104 3.1691
# 5 24.2943 5.8541 -2.3363 6.1104 40.4977 -10.1825
# 6 16.6993 27.0825 11.6138 3.1691 -10.1825 27.1526
#
#
#
# Elastic Compliance Matrix: (Units=1/GPa)
#
#
# Indices 1 2 3 4 5 6 
#
# 1 0.010304 -0.000286 0.002126 0.004147 -0.009401 -0.010971
# 2 -0.000286 0.017058 0.002242 0.014669 -0.010250 -0.023354
# 3 0.002126 0.002242 0.014922 0.009282 -0.005418 -0.013042
# 4 0.004147 0.014669 0.009282 0.054480 -0.021210 -0.035464
# 5 -0.009401 -0.010250 -0.005418 -0.021210 0.044089 0.037332
# 6 -0.010971 -0.023354 -0.013042 -0.035464 0.037332 0.090587
#
#
# Mechanical properties :
#
#
# Convention : Reuss Voigt Hill
#
# Bulk Modulus (GPa) = 19.82160 48.32111 34.07136
# Shear Modulus (GPa) = 20.82540 37.94604 29.38572
#
# Velocity S-wave (km/s) = 2.91056 3.92883 3.45739
# Velocity P-wave (km/s) = 4.39980 6.34327 5.45872
#
# Compressibility (1/GPa) = 0.05045001
#
# Stress axis : x y z
#
# Youngs Moduli (GPa) = 97.05158 58.62215 67.01374
#
# Poissons Ratio (x) = 0.01675 -0.14247
# Poissons Ratio (y) = 0.02772 -0.15027
# Poissons Ratio (z) = -0.20633 -0.13145
#
# Static dielectric constant tensor:
#      x y z
#    x 2.025500 0.059750 0.016410 
#    y 0.059750 2.004360 0.060370 
#    z 0.016410 0.060370 2.034850 
# 
# From -- ./inp_files/86177.got.cif
#   From: 2010.05.17/outbox.cif.g08.bks.cpg/sg2_44_cif.got.tgz:86177.got - 2010.06.03 11:33:40.
