data_PCOD9003980
_publ_section_title
;
Structure prediction by ZEFSAII (Michael W. Deem and Ramdas Pophale) SiO2 
 PCOD9003980
Probable space group: P -1
;
_chemical_formula_sum "Si O2"
_cell_formula_units_Z 16
_cell_length_a 10.583856
_cell_length_b 12.014391
_cell_length_c 7.269948
_cell_angle_alpha 58.318927
_cell_angle_beta 85.415130
_cell_angle_gamma 61.595372
_cell_volume 673.913394
_symmetry_space_group_name_H-M "P -1"
_symmetry_group_IT_number 2
_symmetry_cell_setting 'triclinic'
loop_
_space_group_symop_operation_xyz
x,y,z
-x,-y,-z
loop_
_atom_site_type_symbol
_atom_site_label
_atom_site_fract_x
_atom_site_fract_y
_atom_site_fract_z
Si Si1 0.833687 0.573199 0.900729
Si Si2 0.267505 0.635349 0.901616
Si Si3 0.497889 0.373518 0.348715
Si Si4 0.691626 0.854108 0.077082
Si Si5 0.567677 0.191331 0.839979
Si Si6 0.129080 0.835282 0.063052
Si Si7 0.027348 0.619591 0.287311
Si Si8 0.378878 0.151083 0.478317
O O1 0.760077 0.751456 0.723451
O O2 0.849111 0.494455 0.769126
O O3 0.763078 0.487799 0.087681
O O4 0.000000 0.500000 0.000000
O O5 0.340261 0.687849 0.695789
O O6 0.393846 0.538050 0.127383
O O7 0.134733 0.777120 0.902201
O O8 0.505192 0.341055 0.591672
O O9 0.443209 0.263264 0.376409
O O10 0.578142 0.802125 0.062262
O O11 0.864242 0.740266 0.123784
O O12 0.671241 0.862238 0.298184
O O13 0.635436 0.026372 0.871589
O O14 0.714331 0.172393 0.931821
O O15 0.095523 0.716522 0.279452
O O16 0.000000 0.000000 0.000000
O O17 0.000000 0.500000 0.500000
O O18 0.500000 0.000000 0.500000
#
# Coordination Sequence:
#
# PCOD9003980 Si02
#       8
#     2   2   2   2   2   2   2   2
#     4  10  22  39  62  94 122 161 213 255 313 379
#     4   9  21  42  62  85 126 162 198 262 315 374
#     4   9  20  41  61  85 121 159 203 256 315 358
#     4  10  21  41  63  92 128 164 210 264 319 373
#     4  10  22  38  63  95 122 158 219 260 303 384
#     4  11  23  40  64  92 128 167 206 256 324 381
#     4  11  22  42  67  87 129 172 204 259 325 381
#     4  10  21  37  63  91 124 164 204 256 318 377
#
# _framework density 23.741924000000001
#
# number of rings (size 3 to 8) (size 9 to 14) (size 15 to 20)
#    0.000    2.000    2.500    0.000    3.500    4.500 
#    4.500    0.625    0.000    0.000    0.000    0.000 
#    0.000    0.000    0.000    0.000    0.000    0.000 
#
# Total GULP energy -89122.584720 kJ/mol
# GULP energy per Si atom -5570.161545 kJ/mol
# Density = 2.368789 g / cm^3
# Si number density = 23.741924 Si / 1000 Ang^3
#
#
#
# Elastic Constant Matrix: (Units=GPa)
#
#
# Indices 1 2 3 4 5 6 
#
# 1 124.9940 20.4630 18.0780 -10.8457 -6.4163 -4.9476
# 2 20.4630 113.5790 18.2813 -31.0893 -3.2917 -17.1040
# 3 18.0780 18.2813 70.2079 -17.2157 -10.8238 1.0164
# 4 -10.8457 -31.0893 -17.2157 31.7992 -5.7831 0.3347
# 5 -6.4163 -3.2917 -10.8238 -5.7831 39.9288 -8.3981
# 6 -4.9476 -17.1040 1.0164 0.3347 -8.3981 36.2110
#
#
#
# Elastic Compliance Matrix: (Units=1/GPa)
#
#
# Indices 1 2 3 4 5 6 
#
# 1 0.008585 -0.000577 -0.001390 0.001869 0.001493 0.001268
# 2 -0.000577 0.014156 0.000786 0.014906 0.005049 0.007619
# 3 -0.001390 0.000786 0.018185 0.011336 0.006646 0.001107
# 4 0.001869 0.014906 0.011336 0.055365 0.014698 0.009875
# 5 0.001493 0.005049 0.006646 0.014698 0.031652 0.009607
# 6 0.001268 0.007619 0.001107 0.009875 0.009607 0.033493
#
#
# Mechanical properties :
#
#
# Convention : Reuss Voigt Hill
#
# Bulk Modulus (GPa) = 25.93152 46.93615 36.43384
# Shear Modulus (GPa) = 28.30417 38.38506 33.34461
#
# Velocity S-wave (km/s) = 3.45651 4.02526 3.75168
# Velocity P-wave (km/s) = 5.18420 6.43552 5.84345
#
# Compressibility (1/GPa) = 0.03856311
#
# Stress axis : x y z
#
# Youngs Moduli (GPa) = 116.48296 70.64284 54.99024
#
# Poissons Ratio (x) = 0.04076 0.07644
# Poissons Ratio (y) = 0.06721 -0.04321
# Poissons Ratio (z) = 0.16193 -0.05551
#
# Static dielectric constant tensor:
#      x y z
#    x 2.157930 -0.021980 0.019580 
#    y -0.021980 1.898140 0.144370 
#    z 0.019580 0.144370 1.910560 
# 
# From -- ./inp_files/261600.got.cif
#   From: 2010.05.17/outbox.cif.g08.bks.cpg/sg2_131_cif.got.tgz:261600.got - 2010.06.03 11:33:40.
