data_PCOD9003180
_publ_section_title
;
Structure prediction by ZEFSAII (Michael W. Deem and Ramdas Pophale) SiO2 
 PCOD9003180
Probable space group: P -1
;
_chemical_formula_sum "Si O2"
_cell_formula_units_Z 16
_cell_length_a 8.348696
_cell_length_b 13.615402
_cell_length_c 16.356144
_cell_angle_alpha 153.910859
_cell_angle_beta 120.487264
_cell_angle_gamma 73.389002
_cell_volume 629.916641
_symmetry_space_group_name_H-M "P -1"
_symmetry_group_IT_number 2
_symmetry_cell_setting 'triclinic'
loop_
_space_group_symop_operation_xyz
x,y,z
-x,-y,-z
loop_
_atom_site_type_symbol
_atom_site_label
_atom_site_fract_x
_atom_site_fract_y
_atom_site_fract_z
Si Si1 0.436264 0.435430 0.535748
Si Si2 0.727164 0.220779 0.208138
Si Si3 0.872021 0.919348 0.490310
Si Si4 0.435509 0.808447 0.213479
Si Si5 0.183584 0.421434 0.980225
Si Si6 0.901447 0.871725 0.965937
Si Si7 0.300645 0.865424 0.053082
Si Si8 0.606754 0.712343 0.399828
O O1 0.398028 0.167117 0.291095
O O2 0.403590 0.385246 0.585826
O O3 0.274789 0.555447 0.570796
O O4 0.672676 0.638880 0.730923
O O5 0.732413 0.252605 0.134101
O O6 0.500000 0.000000 0.000000
O O7 0.878611 0.095453 0.174820
O O8 0.656233 0.911158 0.393334
O O9 0.770225 0.702130 0.369325
O O10 0.000000 0.000000 0.500000
O O11 0.060646 0.131318 0.749320
O O12 0.290054 0.528395 0.998908
O O13 0.441390 0.824973 0.129055
O O14 0.345532 0.997079 0.361923
O O15 0.374255 0.562371 0.194205
O O16 0.000000 0.500000 0.000000
O O17 0.074963 0.791472 0.980707
O O18 0.000000 0.000000 0.000000
#
# Coordination Sequence:
#
# PCOD9003180 Si02
#       8
#     2   2   2   2   2   2   2   2
#     4  10  22  38  62  88 122 156 193 252 298 346
#     4   9  20  40  60  86 119 149 192 242 296 365
#     4  11  23  37  55  87 121 156 202 247 287 347
#     4  10  21  37  58  88 116 154 207 238 286 359
#     4  11  19  35  63  77 115 167 187 236 293 331
#     4   9  20  38  60  88 113 149 197 237 296 372
#     4  10  22  38  62  89 120 153 198 247 296 352
#     4  10  21  37  58  88 116 154 210 234 286 362
#
# _framework density 25.400188
#
# number of rings (size 3 to 8) (size 9 to 14) (size 15 to 20)
#    0.000    2.000    2.500    0.750    1.750    9.000 
#    0.000    8.750    0.000    0.000    0.000    0.000 
#    0.000    0.000    0.000    0.000    0.000    0.000 
#
# Total GULP energy -89159.799567 kJ/mol
# GULP energy per Si atom -5572.487473 kJ/mol
# Density = 2.534238 g / cm^3
# Si number density = 25.400188 Si / 1000 Ang^3
#
#
#
# Elastic Constant Matrix: (Units=GPa)
#
#
# Indices 1 2 3 4 5 6 
#
# 1 110.2997 19.7585 32.5913 11.4940 14.6000 20.0136
# 2 19.7585 88.5246 3.1817 -4.8474 0.5131 27.4200
# 3 32.5913 3.1817 129.5987 19.4248 19.6731 3.4057
# 4 11.4940 -4.8474 19.4248 30.8921 3.0723 -1.5402
# 5 14.6000 0.5131 19.6731 3.0723 44.5701 5.0496
# 6 20.0136 27.4200 3.4057 -1.5402 5.0496 33.3428
#
#
#
# Elastic Compliance Matrix: (Units=1/GPa)
#
#
# Indices 1 2 3 4 5 6 
#
# 1 0.011447 -0.000851 -0.001907 -0.003284 -0.002012 -0.005824
# 2 -0.000851 0.015407 -0.000406 0.002229 0.001514 -0.012244
# 3 -0.001907 -0.000406 0.009419 -0.004911 -0.003279 0.000787
# 4 -0.003284 0.002229 -0.004911 0.037105 0.000400 0.002293
# 5 -0.002012 0.001514 -0.003279 0.000400 0.024889 -0.003454
# 6 -0.005824 -0.012244 0.000787 0.002293 -0.003454 0.044105
#
#
# Mechanical properties :
#
#
# Convention : Reuss Voigt Hill
#
# Bulk Modulus (GPa) = 33.39574 48.83179 41.11376
# Shear Modulus (GPa) = 31.50959 39.95376 35.73167
#
# Velocity S-wave (km/s) = 3.52593 3.97037 3.75473
# Velocity P-wave (km/s) = 5.45460 6.34706 5.91768
#
# Compressibility (1/GPa) = 0.02994394
#
# Stress axis : x y z
#
# Youngs Moduli (GPa) = 87.35632 64.90740 106.16949
#
# Poissons Ratio (x) = 0.05522 0.20249
# Poissons Ratio (y) = 0.07432 0.04315
# Poissons Ratio (z) = 0.16661 0.02638
#
# Static dielectric constant tensor:
#      x y z
#    x 2.084450 -0.028630 -0.100620 
#    y -0.028630 2.105430 0.003150 
#    z -0.100620 0.003150 2.031730 
# 
# From -- ./inp_files/215623.got.cif
#   From: 2010.05.17/outbox.cif.g08.bks.cpg/sg2_108_cif.got.tgz:215623.got - 2010.06.03 11:33:40.
