data_PCOD9003184
_publ_section_title
;
Structure prediction by ZEFSAII (Michael W. Deem and Ramdas Pophale) SiO2 
 PCOD9003184
Probable space group: P -1
;
_chemical_formula_sum "Si O2"
_cell_formula_units_Z 14
_cell_length_a 13.609492
_cell_length_b 9.706779
_cell_length_c 19.134273
_cell_angle_alpha 36.383300
_cell_angle_beta 28.690593
_cell_angle_gamma 36.806275
_cell_volume 679.096492
_symmetry_space_group_name_H-M "P -1"
_symmetry_group_IT_number 2
_symmetry_cell_setting 'triclinic'
loop_
_space_group_symop_operation_xyz
x,y,z
-x,-y,-z
loop_
_atom_site_type_symbol
_atom_site_label
_atom_site_fract_x
_atom_site_fract_y
_atom_site_fract_z
Si Si1 0.005690 0.227080 0.091401
Si Si2 0.740894 0.949719 0.612887
Si Si3 0.774397 0.258025 0.585832
Si Si4 0.518446 0.254091 0.361724
Si Si5 0.372107 0.838446 0.822991
Si Si6 0.043065 0.306436 0.879816
Si Si7 0.031084 0.125779 0.268816
O O1 0.758391 0.243731 0.235143
O O2 0.099401 0.081612 0.163308
O O3 0.000000 0.500000 0.000000
O O4 0.091478 0.171482 0.981509
O O5 0.560195 0.824582 0.766590
O O6 0.971324 0.777089 0.571832
O O7 0.669647 0.183075 0.613687
O O8 0.821371 0.044079 0.452321
O O9 0.650884 0.520806 0.585698
O O10 0.788572 0.052821 0.720118
O O11 0.504068 0.272508 0.279767
O O12 0.500000 0.000000 0.500000
O O13 0.236072 0.133238 0.782394
O O14 0.183327 0.716136 0.998273
O O15 0.020833 0.589404 0.792191
#
# Coordination Sequence:
#
# PCOD9003184 Si02
#       7
#     2   2   2   2   2   2   2
#     4   9  19  37  58  88 112 151 199 234 286 342
#     4   9  20  38  63  82 116 157 197 240 289 341
#     4   9  22  39  59  88 121 145 202 245 282 354
#     4  11  23  37  61  90 116 149 195 247 299 343
#     4  10  21  37  58  88 122 153 188 245 295 338
#     4   9  20  36  60  86 125 149 197 242 280 354
#     4   9  18  38  63  84 114 157 195 243 288 335
#
# _framework density 20.615627
#
# number of rings (size 3 to 8) (size 9 to 14) (size 15 to 20)
#    0.857    1.714    0.000    0.857    6.000    1.143 
#    0.000    7.143    0.000    0.000    0.000    0.000 
#    0.000    0.000    0.000    0.000    0.000    0.000 
#
# Total GULP energy -77948.790060 kJ/mol
# GULP energy per Si atom -5567.770719 kJ/mol
# Density = 2.056870 g / cm^3
# Si number density = 20.615627 Si / 1000 Ang^3
#
#
#
# Elastic Constant Matrix: (Units=GPa)
#
#
# Indices 1 2 3 4 5 6 
#
# 1 109.7393 42.5585 37.2082 1.7884 -22.6511 15.6031
# 2 42.5585 150.9188 24.5997 11.4836 -18.9153 12.4986
# 3 37.2082 24.5997 58.3792 -2.4049 -16.7481 5.1162
# 4 1.7884 11.4836 -2.4049 18.7904 2.3718 5.2884
# 5 -22.6511 -18.9153 -16.7481 2.3718 48.5406 -4.3116
# 6 15.6031 12.4986 5.1162 5.2884 -4.3116 23.3153
#
#
#
# Elastic Compliance Matrix: (Units=1/GPa)
#
#
# Indices 1 2 3 4 5 6 
#
# 1 0.013479 -0.001933 -0.006428 0.000466 0.002748 -0.006171
# 2 -0.001933 0.008164 -0.001787 -0.004910 0.001792 -0.001246
# 3 -0.006428 -0.001787 0.023346 0.004180 0.004151 -0.000044
# 4 0.000466 -0.004910 0.004180 0.060995 -0.004410 -0.013248
# 5 0.002748 0.001792 0.004151 -0.004410 0.024389 0.001800
# 6 -0.006171 -0.001246 -0.000044 -0.013248 0.001800 0.051035
#
#
# Mechanical properties :
#
#
# Convention : Reuss Voigt Hill
#
# Bulk Modulus (GPa) = 40.49783 58.64113 49.56948
# Shear Modulus (GPa) = 23.81695 32.44065 28.12880
#
# Velocity S-wave (km/s) = 3.40264 3.97116 3.69784
# Velocity P-wave (km/s) = 5.92656 7.03801 6.50606
#
# Compressibility (1/GPa) = 0.02469268
#
# Stress axis : x y z
#
# Youngs Moduli (GPa) = 74.19179 122.49170 42.83368
#
# Poissons Ratio (x) = 0.23680 0.27532
# Poissons Ratio (y) = 0.14343 0.07654
# Poissons Ratio (z) = 0.47689 0.21889
#
# Static dielectric constant tensor:
#      x y z
#    x 1.817390 0.027490 0.043420 
#    y 0.027490 1.729160 0.019100 
#    z 0.043420 0.019100 1.761270 
# 
# From -- ./inp_files/597106.got.cif
#   From: 2010.05.17/outbox.cif.g08.bks.cpg/sg2_299_cif.got.tgz:597106.got - 2010.06.03 11:33:40.
