data_PCOD9003987
_publ_section_title
;
Structure prediction by ZEFSAII (Michael W. Deem and Ramdas Pophale) SiO2 
 PCOD9003987
Probable space group: P -1
;
_chemical_formula_sum "Si O2"
_cell_formula_units_Z 16
_cell_length_a 9.374668
_cell_length_b 11.326312
_cell_length_c 11.458828
_cell_angle_alpha 53.747935
_cell_angle_beta 59.667090
_cell_angle_gamma 85.219330
_cell_volume 805.327216
_symmetry_space_group_name_H-M "P -1"
_symmetry_group_IT_number 2
_symmetry_cell_setting 'triclinic'
loop_
_space_group_symop_operation_xyz
x,y,z
-x,-y,-z
loop_
_atom_site_type_symbol
_atom_site_label
_atom_site_fract_x
_atom_site_fract_y
_atom_site_fract_z
Si Si1 0.847929 0.339777 0.148866
Si Si2 0.254804 0.112299 0.604576
Si Si3 0.432540 0.275156 0.748063
Si Si4 0.861566 0.070815 0.456859
Si Si5 0.305209 0.864822 0.888975
Si Si6 0.526124 0.402552 0.376836
Si Si7 0.862132 0.001702 0.921987
Si Si8 0.370908 0.965987 0.215433
O O1 0.918348 0.215229 0.261151
O O2 0.780919 0.271285 0.087419
O O3 0.680839 0.360315 0.272764
O O4 0.000000 0.500000 0.000000
O O5 0.344106 0.293078 0.467547
O O6 0.059873 0.052125 0.770478
O O7 0.256894 0.059890 0.502003
O O8 0.353076 0.019699 0.698092
O O9 0.510838 0.351106 0.548658
O O10 0.451480 0.417007 0.743234
O O11 0.534526 0.152763 0.803009
O O12 0.230089 0.169858 0.888135
O O13 0.752998 0.111005 0.581984
O O14 0.000000 0.000000 0.500000
O O15 0.481755 0.886338 0.877049
O O16 0.171749 0.884990 0.031550
O O17 0.751745 0.002204 0.850957
#
# Coordination Sequence:
#
# PCOD9003987 Si02
#       8
#     2   2   2   2   2   2   2   2
#     4  11  25  42  66  94 129 169 216 270 324 380
#     4  11  21  37  64  95 122 167 215 265 307 380
#     4  10  22  37  61  90 128 165 201 259 317 375
#     4  11  22  40  63  92 124 167 211 262 319 375
#     4  10  21  37  63  92 123 161 220 261 301 377
#     4  11  22  38  61  92 127 161 205 265 318 367
#     4  11  22  38  65  93 131 166 213 256 319 383
#     4  11  20  42  64  91 128 168 211 259 319 384
#
# _framework density 19.867699999999999
#
# number of rings (size 3 to 8) (size 9 to 14) (size 15 to 20)
#    0.000    1.250    5.000    2.625    3.500    3.000 
#    0.000    3.125    0.000    5.250    0.000    0.000 
#    0.000    0.000    0.000    0.000    0.000    0.000 
#
# Total GULP energy -89230.596196 kJ/mol
# GULP energy per Si atom -5576.912262 kJ/mol
# Density = 1.982248 g / cm^3
# Si number density = 19.867700 Si / 1000 Ang^3
#
#
#
# Elastic Constant Matrix: (Units=GPa)
#
#
# Indices 1 2 3 4 5 6 
#
# 1 106.9373 40.0811 30.0483 -1.7808 -4.0951 15.3250
# 2 40.0811 133.2465 48.8888 -8.7379 -11.0515 20.2597
# 3 30.0483 48.8888 78.3380 0.7808 -24.8264 7.0225
# 4 -1.7808 -8.7379 0.7808 34.5877 10.4705 -0.8043
# 5 -4.0951 -11.0515 -24.8264 10.4705 26.3822 9.1401
# 6 15.3250 20.2597 7.0225 -0.8043 9.1401 29.8066
#
#
#
# Elastic Compliance Matrix: (Units=1/GPa)
#
#
# Indices 1 2 3 4 5 6 
#
# 1 0.011410 -0.001730 -0.003283 0.000432 -0.000964 -0.003609
# 2 -0.001730 0.011159 -0.006194 0.003043 -0.000946 -0.004863
# 3 -0.003283 -0.006194 0.030107 -0.013198 0.034688 -0.012188
# 4 0.000432 0.003043 -0.013198 0.039554 -0.030690 0.011297
# 5 -0.000964 -0.000946 0.034688 -0.030690 0.094997 -0.036992
# 6 -0.003609 -0.004863 -0.012188 0.011297 -0.036992 0.053231
#
#
# Mechanical properties :
#
#
# Convention : Reuss Voigt Hill
#
# Bulk Modulus (GPa) = 33.04623 61.83980 47.44301
# Shear Modulus (GPa) = 18.31768 31.45554 24.88661
#
# Velocity S-wave (km/s) = 3.03971 3.98332 3.54307
# Velocity P-wave (km/s) = 5.38415 7.23527 6.37723
#
# Compressibility (1/GPa) = 0.03026064
#
# Stress axis : x y z
#
# Youngs Moduli (GPa) = 87.64360 89.61649 33.21437
#
# Poissons Ratio (x) = 0.15508 0.10904
# Poissons Ratio (y) = 0.15166 0.20574
# Poissons Ratio (z) = 0.28773 0.55511
#
# Static dielectric constant tensor:
#      x y z
#    x 1.733500 0.011250 -0.004310 
#    y 0.011250 1.726720 0.018970 
#    z -0.004310 0.018970 1.707650 
# 
# From -- ./inp_files/392030.got.cif
#   From: 2010.05.17/outbox.cif.g08.bks.cpg/sg2_197_cif.got.tgz:392030.got - 2010.06.03 11:33:40.
