data_PCOD9003489
_publ_section_title
;
Structure prediction by ZEFSAII (Michael W. Deem and Ramdas Pophale) SiO2 
 PCOD9003489
Probable space group: P -1
;
_chemical_formula_sum "Si O2"
_cell_formula_units_Z 16
_cell_length_a 22.883938
_cell_length_b 14.649034
_cell_length_c 11.331896
_cell_angle_alpha 50.167994
_cell_angle_beta 148.890605
_cell_angle_gamma 150.744844
_cell_volume 869.793249
_symmetry_space_group_name_H-M "P -1"
_symmetry_group_IT_number 2
_symmetry_cell_setting 'triclinic'
loop_
_space_group_symop_operation_xyz
x,y,z
-x,-y,-z
loop_
_atom_site_type_symbol
_atom_site_label
_atom_site_fract_x
_atom_site_fract_y
_atom_site_fract_z
Si Si1 0.510976 0.616193 0.267456
Si Si2 0.712524 0.744330 0.173855
Si Si3 0.772893 0.430677 0.600692
Si Si4 0.229317 0.177851 0.227350
Si Si5 0.229329 0.354468 0.440709
Si Si6 0.480824 0.207913 0.074221
Si Si7 0.237555 0.843852 0.104109
Si Si8 0.812129 0.990349 0.936922
O O1 0.319402 0.382885 0.174896
O O2 0.653104 0.760796 0.503919
O O3 0.619366 0.606817 0.385532
O O4 0.479973 0.706304 0.058750
O O5 0.840822 0.766466 0.456692
O O6 0.782210 0.845114 0.083737
O O7 0.500000 0.500000 0.000000
O O8 0.674708 0.831192 0.109532
O O9 0.687589 0.448769 0.535748
O O10 0.675097 0.378043 0.350282
O O11 0.726479 0.256174 0.700239
O O12 0.007855 0.649820 0.830601
O O13 0.259019 0.105460 0.235840
O O14 0.000000 0.000000 0.000000
O O15 0.046088 0.213069 0.155867
O O16 0.374081 0.993985 0.104036
O O17 0.268099 0.967195 0.160336
#
# Coordination Sequence:
#
# PCOD9003489 Si02
#       8
#     2   2   2   2   2   2   2   2
#     4  10  23  36  53  80 108 134 181 214 263 313
#     4  10  17  28  45  79 109 133 162 205 268 323
#     4  10  19  33  52  80 116 138 167 205 264 314
#     4  11  22  38  53  75 106 143 177 219 260 306
#     4  10  18  31  51  81 108 134 164 210 263 327
#     4  10  19  33  53  77 108 139 167 215 261 316
#     4   9  21  34  51  85 107 138 175 208 254 324
#     4  10  19  32  53  72 107 140 172 211 263 303
#
# _framework density 18.395175999999999
#
# number of rings (size 3 to 8) (size 9 to 14) (size 15 to 20)
#    0.000    2.000    2.500    2.250    1.750    2.000 
#    0.000    0.000    0.000    0.750    0.000    3.500 
#    0.000    0.000    0.000    0.000    0.000    0.000 
#
# Total GULP energy -89184.486282 kJ/mol
# GULP energy per Si atom -5574.030393 kJ/mol
# Density = 1.835331 g / cm^3
# Si number density = 18.395176 Si / 1000 Ang^3
#
#
#
# Elastic Constant Matrix: (Units=GPa)
#
#
# Indices 1 2 3 4 5 6 
#
# 1 71.0903 45.0597 44.7747 -4.6223 -24.9736 0.2122
# 2 45.0597 104.7131 51.8439 -1.3573 -21.1352 1.0423
# 3 44.7747 51.8439 103.8514 -3.2412 -28.8966 1.2132
# 4 -4.6223 -1.3573 -3.2412 32.6672 0.2593 2.2257
# 5 -24.9736 -21.1352 -28.8966 0.2593 33.3544 0.4045
# 6 0.2122 1.0423 1.2132 2.2257 0.4045 26.6492
#
#
#
# Elastic Compliance Matrix: (Units=1/GPa)
#
#
# Indices 1 2 3 4 5 6 
#
# 1 0.024797 -0.006242 -0.004517 0.002726 0.010678 -0.000137
# 2 -0.006242 0.014552 -0.004380 -0.000701 0.000761 -0.000273
# 3 -0.004517 -0.004380 0.015920 0.000745 0.007637 -0.000696
# 4 0.002726 -0.000701 0.000745 0.031208 0.002032 -0.002665
# 5 0.010678 0.000761 0.007637 0.002032 0.045075 -0.001316
# 6 -0.000137 -0.000273 -0.000696 -0.002665 -0.001316 0.037811
#
#
# Mechanical properties :
#
#
# Convention : Reuss Voigt Hill
#
# Bulk Modulus (GPa) = 40.01612 62.55683 51.28648
# Shear Modulus (GPa) = 24.04193 27.73260 25.88727
#
# Velocity S-wave (km/s) = 3.61913 3.88700 3.75545
# Velocity P-wave (km/s) = 6.26617 7.36383 6.83707
#
# Compressibility (1/GPa) = 0.02498993
#
# Stress axis : x y z
#
# Youngs Moduli (GPa) = 40.32780 68.71970 62.81575
#
# Poissons Ratio (x) = 0.42896 0.28373
# Poissons Ratio (y) = 0.25173 0.27514
# Poissons Ratio (z) = 0.18216 0.30100
#
# Static dielectric constant tensor:
#      x y z
#    x 1.652770 0.019340 -0.001480 
#    y 0.019340 1.707930 0.021100 
#    z -0.001480 0.021100 1.681330 
# 
# From -- ./inp_files/431584.got.cif
#   From: 2010.05.17/outbox.cif.g08.bks.cpg/sg2_216_cif.got.tgz:431584.got - 2010.06.03 11:33:40.
