data_PCOD9003752
_publ_section_title
;
Structure prediction by ZEFSAII (Michael W. Deem and Ramdas Pophale) SiO2 
 PCOD9003752
Probable space group: P -1
;
_chemical_formula_sum "Si O2"
_cell_formula_units_Z 16
_cell_length_a 25.009188
_cell_length_b 8.665735
_cell_length_c 9.966205
_cell_angle_alpha 134.407712
_cell_angle_beta 155.018873
_cell_angle_gamma 48.324287
_cell_volume 648.270557
_symmetry_space_group_name_H-M "P -1"
_symmetry_group_IT_number 2
_symmetry_cell_setting 'triclinic'
loop_
_space_group_symop_operation_xyz
x,y,z
-x,-y,-z
loop_
_atom_site_type_symbol
_atom_site_label
_atom_site_fract_x
_atom_site_fract_y
_atom_site_fract_z
Si Si1 0.476738 0.345230 0.137593
Si Si2 0.438691 0.268575 0.285762
Si Si3 0.273811 0.248408 0.233079
Si Si4 0.760242 0.510843 0.448818
Si Si5 0.432792 0.789021 0.027068
Si Si6 0.812476 0.510066 0.091742
Si Si7 0.893420 0.101291 0.419686
Si Si8 0.998192 0.863873 0.777239
O O1 0.506248 0.217985 0.265950
O O2 0.486692 0.595041 0.357297
O O3 0.332209 0.329931 0.755229
O O4 0.559507 0.276938 0.153511
O O5 0.397657 0.045975 0.113269
O O6 0.314539 0.437324 0.079679
O O7 0.194223 0.353094 0.241981
O O8 0.422716 0.247577 0.609015
O O9 0.229409 0.391022 0.089502
O O10 0.233628 0.009019 0.975251
O O11 0.863268 0.359012 0.510012
O O12 0.666379 0.349230 0.208929
O O13 0.868749 0.262266 0.048670
O O14 0.913935 0.660313 0.474807
O O15 0.000000 0.000000 0.500000
O O16 0.936326 0.019708 0.615532
O O17 0.000000 0.000000 0.000000
#
# Coordination Sequence:
#
# PCOD9003752 Si02
#       8
#     2   2   2   2   2   2   2   2
#     4  10  23  38  57  92 129 159 195 245 314 368
#     4  11  22  37  58  89 130 161 191 251 308 368
#     4  10  21  40  64  92 122 159 202 256 303 368
#     4  11  22  39  67  90 122 162 207 251 308 368
#     4  11  21  39  65  94 121 159 210 248 301 378
#     4  10  21  37  62  86 115 159 203 246 305 357
#     4  11  25  41  62  92 124 162 210 257 310 365
#     4  10  22  42  60  86 117 157 212 257 296 357
#
# _framework density 24.681052000000001
#
# number of rings (size 3 to 8) (size 9 to 14) (size 15 to 20)
#    0.000    1.500    0.000    6.375    1.750    3.000 
#    4.500    0.000    0.000    0.000    0.000    0.000 
#    0.000    0.000    0.000    0.000    0.000    0.000 
#
# Total GULP energy -89524.265532 kJ/mol
# GULP energy per Si atom -5595.266596 kJ/mol
# Density = 2.462488 g / cm^3
# Si number density = 24.681052 Si / 1000 Ang^3
#
#
#
# Elastic Constant Matrix: (Units=GPa)
#
#
# Indices 1 2 3 4 5 6 
#
# 1 78.1458 -8.1749 34.0077 10.5528 -19.5244 -20.9647
# 2 -8.1749 86.2838 18.3769 10.6043 -2.6075 -26.3488
# 3 34.0077 18.3769 86.3547 14.4648 -24.5575 -13.4993
# 4 10.5528 10.6043 14.4648 23.6271 -16.6846 0.2168
# 5 -19.5244 -2.6075 -24.5575 -16.6846 35.2889 1.1023
# 6 -20.9647 -26.3488 -13.4993 0.2168 1.1023 39.7578
#
#
#
# Elastic Compliance Matrix: (Units=1/GPa)
#
#
# Indices 1 2 3 4 5 6 
#
# 1 0.023027 0.009459 -0.005745 -0.007291 0.005483 0.016348
# 2 0.009459 0.020030 -0.003911 -0.012812 -0.002599 0.017076
# 3 -0.005745 -0.003911 0.017068 -0.000281 0.008279 -0.000054
# 4 -0.007291 -0.012812 -0.000281 0.072470 0.029514 -0.013645
# 5 0.005483 -0.002599 0.008279 0.029514 0.050819 0.002410
# 6 0.016348 0.017076 -0.000054 -0.013645 0.002410 0.045079
#
#
# Mechanical properties :
#
#
# Convention : Reuss Voigt Hill
#
# Bulk Modulus (GPa) = 16.74201 37.68932 27.21567
# Shear Modulus (GPa) = 20.09672 33.50640 26.80156
#
# Velocity S-wave (km/s) = 2.85661 3.68853 3.29890
# Velocity P-wave (km/s) = 4.20457 5.78308 5.05581
#
# Compressibility (1/GPa) = 0.05972997
#
# Stress axis : x y z
#
# Youngs Moduli (GPa) = 43.42787 49.92611 58.58966
#
# Poissons Ratio (x) = -0.47227 0.33660
# Poissons Ratio (y) = -0.41080 0.22917
# Poissons Ratio (z) = 0.24950 0.19528
#
# Static dielectric constant tensor:
#      x y z
#    x 2.025150 -0.011650 0.051310 
#    y -0.011650 1.948770 -0.011550 
#    z 0.051310 -0.011550 1.970970 
# 
# From -- ./inp_files/352465.got.cif
#   From: 2010.05.17/outbox.cif.g08.bks.cpg/sg2_177_cif.got.tgz:352465.got - 2010.06.03 11:33:40.
