data_PCOD9003797
_publ_section_title
;
Structure prediction by ZEFSAII (Michael W. Deem and Ramdas Pophale) SiO2 
 PCOD9003797
Probable space group: P -1
;
_chemical_formula_sum "Si O2"
_cell_formula_units_Z 16
_cell_length_a 9.188472
_cell_length_b 8.965871
_cell_length_c 11.843867
_cell_angle_alpha 93.704282
_cell_angle_beta 124.547128
_cell_angle_gamma 87.325099
_cell_volume 801.930373
_symmetry_space_group_name_H-M "P -1"
_symmetry_group_IT_number 2
_symmetry_cell_setting 'triclinic'
loop_
_space_group_symop_operation_xyz
x,y,z
-x,-y,-z
loop_
_atom_site_type_symbol
_atom_site_label
_atom_site_fract_x
_atom_site_fract_y
_atom_site_fract_z
Si Si1 0.972721 0.242623 0.756748
Si Si2 0.952628 0.176425 0.001291
Si Si3 0.331429 0.178023 0.218186
Si Si4 0.635375 0.094556 0.638386
Si Si5 0.586230 0.654640 0.516934
Si Si6 0.967852 0.539265 0.619957
Si Si7 0.343643 0.303670 0.987535
Si Si8 0.731454 0.362553 0.074396
O O1 0.824070 0.118169 0.660238
O O2 0.938578 0.386193 0.671085
O O3 0.185586 0.217336 0.848644
O O4 0.936062 0.254350 0.875968
O O5 0.801494 0.229963 0.020033
O O6 0.130263 0.235953 0.140123
O O7 0.000000 0.000000 0.000000
O O8 0.427259 0.260244 0.365177
O O9 0.339314 0.002579 0.242777
O O10 0.384260 0.220536 0.118263
O O11 0.537449 0.252526 0.618808
O O12 0.500000 0.000000 0.500000
O O13 0.500000 0.500000 0.500000
O O14 0.786803 0.635097 0.561041
O O15 0.000000 0.500000 0.500000
O O16 0.138465 0.615570 0.758625
O O17 0.267599 0.473706 0.977216
O O18 0.529662 0.326009 0.010970
#
# Coordination Sequence:
#
# PCOD9003797 Si02
#       8
#     2   2   2   2   2   2   2   2
#     4  10  21  40  61  95 123 163 217 261 314 388
#     4  11  21  38  69  91 125 170 212 266 318 378
#     4  10  21  39  63  93 125 163 210 268 320 378
#     4  10  21  37  62  90 127 159 211 262 308 379
#     4  11  22  37  63  93 119 171 219 257 312 376
#     4  11  24  40  61  93 133 168 210 269 321 380
#     4   9  22  38  65  94 128 164 203 270 335 380
#     4  10  22  42  61  98 133 165 212 267 328 384
#
# _framework density 19.951857
#
# number of rings (size 3 to 8) (size 9 to 14) (size 15 to 20)
#    0.000    1.750    3.750    0.000    3.500    1.500 
#    4.500    3.750    0.000    3.000    0.000    0.000 
#    0.000    0.000    0.000    0.000    0.000    0.000 
#
# Total GULP energy -89083.268863 kJ/mol
# GULP energy per Si atom -5567.704304 kJ/mol
# Density = 1.990645 g / cm^3
# Si number density = 19.951857 Si / 1000 Ang^3
#
#
#
# Elastic Constant Matrix: (Units=GPa)
#
#
# Indices 1 2 3 4 5 6 
#
# 1 94.6228 48.2546 39.5503 -0.0950 12.4724 12.5143
# 2 48.2546 97.0518 47.4469 -16.2720 -6.1462 10.0751
# 3 39.5503 47.4469 105.1629 -15.6366 6.9007 6.7413
# 4 -0.0950 -16.2720 -15.6366 39.8978 12.6411 2.1443
# 5 12.4724 -6.1462 6.9007 12.6411 31.9549 6.4524
# 6 12.5143 10.0751 6.7413 2.1443 6.4524 28.9321
#
#
#
# Elastic Compliance Matrix: (Units=1/GPa)
#
#
# Indices 1 2 3 4 5 6 
#
# 1 0.016566 -0.007408 -0.002623 -0.001961 -0.006048 -0.002480
# 2 -0.007408 0.017768 -0.004950 0.003332 0.006785 -0.003590
# 3 -0.002623 -0.004950 0.013756 0.004903 -0.004916 0.000386
# 4 -0.001961 0.003332 0.004903 0.032262 -0.012188 -0.001128
# 5 -0.006048 0.006785 -0.004916 -0.012188 0.042282 -0.007128
# 6 -0.002480 -0.003590 0.000386 -0.001128 -0.007128 0.038470
#
#
# Mechanical properties :
#
#
# Convention : Reuss Voigt Hill
#
# Bulk Modulus (GPa) = 55.16801 63.03789 59.10295
# Shear Modulus (GPa) = 25.36655 30.92934 28.14795
#
# Velocity S-wave (km/s) = 3.56952 3.94153 3.76013
# Velocity P-wave (km/s) = 6.68575 7.23725 6.96696
#
# Compressibility (1/GPa) = 0.01812645
#
# Stress axis : x y z
#
# Youngs Moduli (GPa) = 60.36405 56.28001 72.69612
#
# Poissons Ratio (x) = 0.41695 0.19072
# Poissons Ratio (y) = 0.44721 0.35985
# Poissons Ratio (z) = 0.15836 0.27859
#
# Static dielectric constant tensor:
#      x y z
#    x 1.702050 0.009900 0.060210 
#    y 0.009900 1.787890 -0.002280 
#    z 0.060210 -0.002280 1.778120 
# 
# From -- ./inp_files/263350.got.cif
#   From: 2010.05.17/outbox.cif.g08.bks.cpg/sg2_132_cif.got.tgz:263350.got - 2010.06.03 11:33:40.
