data_PCOD9003444
_publ_section_title
;
Structure prediction by ZEFSAII (Michael W. Deem and Ramdas Pophale) SiO2 
 PCOD9003444
Probable space group: P -1
;
_chemical_formula_sum "Si O2"
_cell_formula_units_Z 16
_cell_length_a 12.548483
_cell_length_b 14.029316
_cell_length_c 9.263210
_cell_angle_alpha 77.626611
_cell_angle_beta 30.743870
_cell_angle_gamma 90.476779
_cell_volume 751.344980
_symmetry_space_group_name_H-M "P -1"
_symmetry_group_IT_number 2
_symmetry_cell_setting 'triclinic'
loop_
_space_group_symop_operation_xyz
x,y,z
-x,-y,-z
loop_
_atom_site_type_symbol
_atom_site_label
_atom_site_fract_x
_atom_site_fract_y
_atom_site_fract_z
Si Si1 0.078638 0.423807 0.334790
Si Si2 0.314217 0.119324 0.706434
Si Si3 0.198028 0.247950 0.416571
Si Si4 0.814062 0.961999 0.432418
Si Si5 0.872905 0.718986 0.187055
Si Si6 0.369035 0.686813 0.272313
Si Si7 0.541766 0.492598 0.620350
Si Si8 0.340460 0.857286 0.450404
O O1 0.097490 0.321504 0.424039
O O2 0.000000 0.500000 0.500000
O O3 0.889434 0.373500 0.450549
O O4 0.325367 0.490751 0.962057
O O5 0.329150 0.093492 0.527798
O O6 0.303795 0.235283 0.689668
O O7 0.494898 0.112446 0.611962
O O8 0.066512 0.036692 0.066195
O O9 0.158146 0.126571 0.468000
O O10 0.101677 0.240732 0.691701
O O11 0.468743 0.303785 0.057521
O O12 0.701877 0.041396 0.590980
O O13 0.765512 0.593567 0.363280
O O14 0.103236 0.771363 0.814918
O O15 0.431335 0.614891 0.336891
O O16 0.415868 0.798605 0.255392
O O17 0.500000 0.500000 0.500000
#
# Coordination Sequence:
#
# PCOD9003444 Si02
#       8
#     2   2   2   2   2   2   2   2
#     4  11  24  42  64  87 117 160 202 242 292 354
#     4   9  19  37  60  90 120 150 197 252 295 340
#     4  10  23  41  59  85 121 156 194 247 296 345
#     4   9  20  38  61  88 119 155 199 244 290 351
#     4  10  21  37  60  88 116 154 202 245 292 352
#     4  11  25  40  57  90 125 154 198 245 294 356
#     4  11  23  40  61  88 122 154 191 247 302 348
#     4  11  22  37  61  90 120 156 199 246 294 349
#
# _framework density 21.295145000000002
#
# number of rings (size 3 to 8) (size 9 to 14) (size 15 to 20)
#    0.000    1.750    0.000    4.125    0.000   13.500 
#    0.000    1.250    0.000    0.000    0.000    0.000 
#    0.000    0.000    0.000    0.000    0.000    0.000 
#
# Total GULP energy -89289.255110 kJ/mol
# GULP energy per Si atom -5580.578444 kJ/mol
# Density = 2.124668 g / cm^3
# Si number density = 21.295145 Si / 1000 Ang^3
#
#
#
# Elastic Constant Matrix: (Units=GPa)
#
#
# Indices 1 2 3 4 5 6 
#
# 1 46.9438 32.0526 15.9985 14.9822 -1.0478 -6.4379
# 2 32.0526 139.0603 26.4275 14.2430 3.1570 -11.1575
# 3 15.9985 26.4275 45.9815 13.4154 8.1985 -7.5357
# 4 14.9822 14.2430 13.4154 26.8323 -2.7967 1.8243
# 5 -1.0478 3.1570 8.1985 -2.7967 23.6424 -3.3107
# 6 -6.4379 -11.1575 -7.5357 1.8243 -3.3107 33.3131
#
#
#
# Elastic Compliance Matrix: (Units=1/GPa)
#
#
# Indices 1 2 3 4 5 6 
#
# 1 0.030544 -0.004699 -0.003973 -0.012613 0.002478 0.004367
# 2 -0.004699 0.009058 -0.003063 -0.000777 -0.000244 0.001451
# 3 -0.003973 -0.003063 0.031754 -0.013588 -0.011690 0.004972
# 4 -0.012613 -0.000777 -0.013588 0.053028 0.009446 -0.007737
# 5 0.002478 -0.000244 -0.011690 0.009446 0.047890 0.001995
# 6 0.004367 0.001451 0.004972 -0.007737 0.001995 0.033095
#
#
# Mechanical properties :
#
#
# Convention : Reuss Voigt Hill
#
# Bulk Modulus (GPa) = 20.88282 42.32697 31.60490
# Shear Modulus (GPa) = 20.42479 27.25803 23.84141
#
# Velocity S-wave (km/s) = 3.10034 3.58161 3.34963
# Velocity P-wave (km/s) = 4.75855 6.08468 5.46201
#
# Compressibility (1/GPa) = 0.04788625
#
# Stress axis : x y z
#
# Youngs Moduli (GPa) = 32.73942 110.40071 31.49199
#
# Poissons Ratio (x) = 0.51881 0.12511
# Poissons Ratio (y) = 0.15385 0.09646
# Poissons Ratio (z) = 0.13007 0.33814
#
# Static dielectric constant tensor:
#      x y z
#    x 1.658610 -0.085410 0.029430 
#    y -0.085410 1.744950 0.023350 
#    z 0.029430 0.023350 1.738950 
# 
# From -- ./inp_files/49359.got.cif
#   From: 2010.05.17/outbox.cif.g08.bks.cpg/sg2_25_cif.got.tgz:49359.got - 2010.06.03 11:33:40.
