data_PCOD9003971
_publ_section_title
;
Structure prediction by ZEFSAII (Michael W. Deem and Ramdas Pophale) SiO2 
 PCOD9003971
Probable space group: P -1
;
_chemical_formula_sum "Si O2"
_cell_formula_units_Z 16
_cell_length_a 11.534194
_cell_length_b 11.403715
_cell_length_c 18.009292
_cell_angle_alpha 150.338724
_cell_angle_beta 106.045562
_cell_angle_gamma 93.296376
_cell_volume 878.608236
_symmetry_space_group_name_H-M "P -1"
_symmetry_group_IT_number 2
_symmetry_cell_setting 'triclinic'
loop_
_space_group_symop_operation_xyz
x,y,z
-x,-y,-z
loop_
_atom_site_type_symbol
_atom_site_label
_atom_site_fract_x
_atom_site_fract_y
_atom_site_fract_z
Si Si1 0.672797 0.683948 0.103359
Si Si2 0.813392 0.826512 0.369396
Si Si3 0.902448 0.557009 0.411692
Si Si4 0.106982 0.884659 0.314799
Si Si5 0.507757 0.785946 0.670444
Si Si6 0.226302 0.698730 0.105458
Si Si7 0.627071 0.162847 0.045722
Si Si8 0.212945 0.711648 0.594560
O O1 0.768733 0.821234 0.273627
O O2 0.704929 0.933282 0.189052
O O3 0.500000 0.500000 0.000000
O O4 0.715207 0.489913 0.965097
O O5 0.690565 0.477319 0.185858
O O6 0.808935 0.023505 0.540173
O O7 0.000000 0.000000 0.500000
O O8 0.785167 0.295683 0.189226
O O9 0.837607 0.452137 0.425684
O O10 0.059593 0.598737 0.460982
O O11 0.910165 0.852616 0.561618
O O12 0.198242 0.855054 0.250984
O O13 0.937961 0.555579 0.103544
O O14 0.500000 0.500000 0.500000
O O15 0.341906 0.700588 0.576602
O O16 0.643565 0.053522 0.790830
O O17 0.555629 0.910564 0.831161
O O18 0.500000 0.000000 0.000000
#
# Coordination Sequence:
#
# PCOD9003971 Si02
#       8
#     2   2   2   2   2   2   2   2
#     4  12  21  37  61  89 121 157 201 244 296 361
#     4  11  20  39  64  91 116 160 207 247 292 365
#     4  10  21  37  63  91 119 155 203 252 301 353
#     4  10  21  38  64  93 121 154 206 252 300 353
#     4  12  24  40  61  88 124 161 204 248 308 362
#     4  11  21  37  60  93 121 158 198 252 300 360
#     4  11  21  38  62  93 118 156 208 252 294 360
#     4  11  21  37  59  91 122 157 197 250 301 365
#
# _framework density 18.210619000000001
#
# number of rings (size 3 to 8) (size 9 to 14) (size 15 to 20)
#    0.000    1.000    6.250    1.500    1.750    0.000 
#    0.000    1.250    2.750    0.000    0.000    0.000 
#    0.000    0.000    0.000    0.000    0.000    0.000 
#
# Total GULP energy -89093.121292 kJ/mol
# GULP energy per Si atom -5568.320081 kJ/mol
# Density = 1.816917 g / cm^3
# Si number density = 18.210619 Si / 1000 Ang^3
#
#
#
# Elastic Constant Matrix: (Units=GPa)
#
#
# Indices 1 2 3 4 5 6 
#
# 1 136.9841 34.5694 53.5114 -2.3282 1.2033 8.3630
# 2 34.5694 74.2018 22.3629 15.9909 -3.9314 13.2599
# 3 53.5114 22.3629 89.8310 -5.2835 -6.1850 5.9743
# 4 -2.3282 15.9909 -5.2835 37.9829 2.9825 1.6387
# 5 1.2033 -3.9314 -6.1850 2.9825 36.9749 3.0706
# 6 8.3630 13.2599 5.9743 1.6387 3.0706 28.9228
#
#
#
# Elastic Compliance Matrix: (Units=1/GPa)
#
#
# Indices 1 2 3 4 5 6 
#
# 1 0.010321 -0.003626 -0.005262 0.001568 -0.001716 -0.000142
# 2 -0.003626 0.019171 -0.002437 -0.008565 0.003027 -0.007073
# 3 -0.005262 -0.002437 0.015251 0.002682 0.002323 -0.000910
# 4 0.001568 -0.008565 0.002682 0.030581 -0.003106 0.001516
# 5 -0.001716 0.003027 0.002323 -0.003106 0.028412 -0.004212
# 6 -0.000142 -0.007073 -0.000910 0.001516 -0.004212 0.038408
#
#
# Mechanical properties :
#
#
# Convention : Reuss Voigt Hill
#
# Bulk Modulus (GPa) = 45.26441 57.98936 51.62689
# Shear Modulus (GPa) = 29.04290 33.48099 31.26195
#
# Velocity S-wave (km/s) = 3.99787 4.29247 4.14779
# Velocity P-wave (km/s) = 6.79857 7.51531 7.16591
#
# Compressibility (1/GPa) = 0.02209241
#
# Stress axis : x y z
#
# Youngs Moduli (GPa) = 96.88856 52.16269 65.56748
#
# Poissons Ratio (x) = 0.18915 0.34502
# Poissons Ratio (y) = 0.35133 0.15981
# Poissons Ratio (z) = 0.50983 0.12714
#
# Static dielectric constant tensor:
#      x y z
#    x 1.627410 0.010660 0.031350 
#    y 0.010660 1.660050 0.026480 
#    z 0.031350 0.026480 1.649680 
# 
# From -- ./inp_files/568997.got.cif
#   From: 2010.05.17/outbox.cif.g08.bks.cpg/sg2_285_cif.got.tgz:568997.got - 2010.06.03 11:33:40.
