data_PCOD9003243
_publ_section_title
;
Structure prediction by ZEFSAII (Michael W. Deem and Ramdas Pophale) SiO2 
 PCOD9003243
Probable space group: P -1
;
_chemical_formula_sum "Si O2"
_cell_formula_units_Z 14
_cell_length_a 9.030785
_cell_length_b 12.899093
_cell_length_c 19.037610
_cell_angle_alpha 27.929307
_cell_angle_beta 93.535517
_cell_angle_gamma 111.917686
_cell_volume 758.302319
_symmetry_space_group_name_H-M "P -1"
_symmetry_group_IT_number 2
_symmetry_cell_setting 'triclinic'
loop_
_space_group_symop_operation_xyz
x,y,z
-x,-y,-z
loop_
_atom_site_type_symbol
_atom_site_label
_atom_site_fract_x
_atom_site_fract_y
_atom_site_fract_z
Si Si1 0.718788 0.833298 0.316668
Si Si2 0.652232 0.967934 0.497273
Si Si3 0.915394 0.234926 0.211296
Si Si4 0.084128 0.392862 0.518785
Si Si5 0.944332 0.075196 0.561262
Si Si6 0.589031 0.432678 0.769280
Si Si7 0.467370 0.050708 0.858820
O O1 0.500000 0.500000 0.500000
O O2 0.884352 0.812426 0.319029
O O3 0.706723 0.034479 0.146472
O O4 0.754103 0.937459 0.335712
O O5 0.537047 0.631295 0.667137
O O6 0.500000 0.000000 0.500000
O O7 0.798782 0.195454 0.301252
O O8 0.788926 0.017796 0.535887
O O9 0.076254 0.208805 0.254141
O O10 0.000000 0.500000 0.000000
O O11 0.310084 0.691322 0.322253
O O12 0.000000 0.500000 0.500000
O O13 0.951238 0.210152 0.554859
O O14 0.171226 0.325660 0.386237
O O15 0.470006 0.207373 0.834691
O O16 0.557740 0.227296 0.953661
#
# Coordination Sequence:
#
# PCOD9003243 Si02
#       7
#     2   2   2   2   2   2   2
#     4   9  18  32  54  81 106 144 190 228 277 331
#     4  11  23  38  56  82 119 150 185 235 291 337
#     4  10  21  37  59  84 109 151 198 230 275 347
#     4   9  18  34  52  82 115 143 174 230 292 328
#     4   9  20  37  58  76 111 156 183 221 284 344
#     4   9  18  36  56  78 108 145 193 224 274 335
#     4   9  18  32  57  82 102 143 193 231 262 335
#
# _framework density 18.462292999999999
#
# number of rings (size 3 to 8) (size 9 to 14) (size 15 to 20)
#    0.000    2.571    0.000    4.286    4.000    3.429 
#    5.143    0.714    0.000    5.143    0.000    0.000 
#    0.000    0.000    0.000    0.000    0.000    0.000 
#
# Total GULP energy -78024.475800 kJ/mol
# GULP energy per Si atom -5573.176843 kJ/mol
# Density = 1.842027 g / cm^3
# Si number density = 18.462293 Si / 1000 Ang^3
#
#
#
# Elastic Constant Matrix: (Units=GPa)
#
#
# Indices 1 2 3 4 5 6 
#
# 1 120.5051 79.4183 35.5294 20.2509 20.3265 -13.8313
# 2 79.4183 104.7477 22.3521 13.6051 7.0902 -4.4186
# 3 35.5294 22.3521 84.7935 19.8318 24.0888 -3.1854
# 4 20.2509 13.6051 19.8318 28.7193 8.3549 5.8048
# 5 20.3265 7.0902 24.0888 8.3549 16.3677 -0.9183
# 6 -13.8313 -4.4186 -3.1854 5.8048 -0.9183 40.3499
#
#
#
# Elastic Compliance Matrix: (Units=1/GPa)
#
#
# Indices 1 2 3 4 5 6 
#
# 1 0.023568 -0.015822 0.002231 -0.005488 -0.022515 0.006800
# 2 -0.015822 0.021143 -0.003347 -0.000456 0.015482 -0.002954
# 3 0.002231 -0.003347 0.021971 -0.006933 -0.029980 0.002448
# 4 -0.005488 -0.000456 -0.006933 0.047879 -0.007759 -0.009543
# 5 -0.022515 0.015482 -0.029980 -0.007759 0.130191 -0.004310
# 6 0.006800 -0.002954 0.002448 -0.009543 -0.004310 0.028259
#
#
# Mechanical properties :
#
#
# Convention : Reuss Voigt Hill
#
# Bulk Modulus (GPa) = 30.48079 64.96064 47.72072
# Shear Modulus (GPa) = 15.73204 28.60381 22.16792
#
# Velocity S-wave (km/s) = 2.92227 3.94040 3.46889
# Velocity P-wave (km/s) = 5.28506 7.48093 6.47673
#
# Compressibility (1/GPa) = 0.03280755
#
# Stress axis : x y z
#
# Youngs Moduli (GPa) = 42.42972 47.29656 45.51407
#
# Poissons Ratio (x) = 0.74830 -0.10152
# Poissons Ratio (y) = 0.67130 0.15232
# Poissons Ratio (z) = -0.09464 0.15828
#
# Static dielectric constant tensor:
#      x y z
#    x 1.618130 0.016990 0.047890 
#    y 0.016990 1.675620 -0.014410 
#    z 0.047890 -0.014410 1.716440 
# 
# From -- ./inp_files/172987.got.cif
#   From: 2010.05.17/outbox.cif.g08.bks.cpg/sg2_87_cif.got.tgz:172987.got - 2010.06.03 11:33:40.
