data_PCOD9003449
_publ_section_title
;
Structure prediction by ZEFSAII (Michael W. Deem and Ramdas Pophale) SiO2 
 PCOD9003449
Probable space group: P -1
;
_chemical_formula_sum "Si O2"
_cell_formula_units_Z 16
_cell_length_a 29.063831
_cell_length_b 7.940234
_cell_length_c 8.309829
_cell_angle_alpha 36.113004
_cell_angle_beta 42.020323
_cell_angle_gamma 42.905041
_cell_volume 712.759138
_symmetry_space_group_name_H-M "P -1"
_symmetry_group_IT_number 2
_symmetry_cell_setting 'triclinic'
loop_
_space_group_symop_operation_xyz
x,y,z
-x,-y,-z
loop_
_atom_site_type_symbol
_atom_site_label
_atom_site_fract_x
_atom_site_fract_y
_atom_site_fract_z
Si Si1 0.449898 0.361760 0.835973
Si Si2 0.549437 0.222034 0.185248
Si Si3 0.299668 0.539684 0.892438
Si Si4 0.698426 0.074721 0.724629
Si Si5 0.071067 0.599516 0.710723
Si Si6 0.834732 0.771457 0.800649
Si Si7 0.152673 0.987626 0.062003
Si Si8 0.918164 0.127137 0.177148
O O1 0.500000 0.500000 0.500000
O O2 0.431845 0.595757 0.853354
O O3 0.375496 0.424165 0.882172
O O4 0.500000 0.000000 0.000000
O O5 0.500000 0.000000 0.500000
O O6 0.500000 0.500000 0.000000
O O7 0.622659 0.086469 0.996015
O O8 0.309339 0.667686 0.589171
O O9 0.234251 0.786222 0.962803
O O10 0.274094 0.249997 0.179363
O O11 0.757713 0.014904 0.758124
O O12 0.091289 0.820741 0.359608
O O13 0.079431 0.746846 0.746397
O O14 0.000000 0.500000 0.000000
O O15 0.130440 0.270874 0.782311
O O16 0.846514 0.868762 0.875165
O O17 0.891244 0.842989 0.480133
O O18 0.857882 0.406121 0.025992
O O19 0.000000 0.000000 0.000000
#
# Coordination Sequence:
#
# PCOD9003449 Si02
#       8
#     2   2   2   2   2   2   2   2
#     4  12  25  44  69  97 132 172 214 264 320 382
#     4  12  25  44  69  97 132 172 214 264 320 382
#     4  12  25  42  65  96 129 166 212 263 315 377
#     4  12  25  42  65  96 129 166 212 263 315 377
#     4  10  21  37  60  88 121 159 205 257 312 373
#     4  10  22  41  61  87 123 165 207 254 314 376
#     4  10  22  41  61  87 123 165 207 254 314 376
#     4  10  21  37  60  88 121 159 205 257 312 373
#
# _framework density 22.447973999999999
#
# number of rings (size 3 to 8) (size 9 to 14) (size 15 to 20)
#    0.000    1.000    0.000    7.500    0.000    3.000 
#    0.000    7.500    0.000    0.000    0.000    0.000 
#    0.000    0.000    0.000    0.000    0.000    0.000 
#
# Total GULP energy -89143.922499 kJ/mol
# GULP energy per Si atom -5571.495156 kJ/mol
# Density = 2.239688 g / cm^3
# Si number density = 22.447974 Si / 1000 Ang^3
#
#
#
# Elastic Constant Matrix: (Units=GPa)
#
#
# Indices 1 2 3 4 5 6 
#
# 1 50.3940 -13.8076 11.7197 -9.9956 5.1435 1.5712
# 2 -13.8076 107.7801 25.0559 -0.6252 7.2687 -8.2332
# 3 11.7197 25.0559 118.7149 -12.7104 -3.6486 -1.7146
# 4 -9.9956 -0.6252 -12.7104 47.5650 -4.5285 -6.4284
# 5 5.1435 7.2687 -3.6486 -4.5285 22.5341 -0.7209
# 6 1.5712 -8.2332 -1.7146 -6.4284 -0.7209 28.0636
#
#
#
# Elastic Compliance Matrix: (Units=1/GPa)
#
#
# Indices 1 2 3 4 5 6 
#
# 1 0.022991 0.004107 -0.002945 0.003549 -0.006324 0.000388
# 2 0.004107 0.010994 -0.002817 0.000166 -0.004819 0.002738
# 3 -0.002945 -0.002817 0.009681 0.002353 0.003639 0.000563
# 4 0.003549 0.000166 0.002353 0.023567 0.004430 0.005506
# 5 -0.006324 -0.004819 0.003639 0.004430 0.048900 0.001434
# 6 0.000388 0.002738 0.000563 0.005506 0.001434 0.037747
#
#
# Mechanical properties :
#
#
# Convention : Reuss Voigt Hill
#
# Bulk Modulus (GPa) = 24.77969 35.86943 30.32456
# Shear Modulus (GPa) = 29.30113 36.56063 32.93088
#
# Velocity S-wave (km/s) = 3.61680 4.04007 3.83428
# Velocity P-wave (km/s) = 5.33895 6.14626 5.75677
#
# Compressibility (1/GPa) = 0.04035563
#
# Stress axis : x y z
#
# Youngs Moduli (GPa) = 43.49520 90.95782 103.29801
#
# Poissons Ratio (x) = -0.37354 0.30424
# Poissons Ratio (y) = -0.17862 0.29095
# Poissons Ratio (z) = 0.12810 0.25619
#
# Static dielectric constant tensor:
#      x y z
#    x 1.898410 -0.059880 -0.008710 
#    y -0.059880 1.900630 -0.029780 
#    z -0.008710 -0.029780 1.832240 
# 
# From -- ./inp_files/358446.got.cif
#   From: 2010.05.17/outbox.cif.g08.bks.cpg/sg2_180_cif.got.tgz:358446.got - 2010.06.03 11:33:40.
