data_PCOD9003913
_publ_section_title
;
Structure prediction by ZEFSAII (Michael W. Deem and Ramdas Pophale) SiO2 
 PCOD9003913
Probable space group: P -1
;
_chemical_formula_sum "Si O2"
_cell_formula_units_Z 16
_cell_length_a 11.309523
_cell_length_b 5.143549
_cell_length_c 12.395512
_cell_angle_alpha 104.325617
_cell_angle_beta 103.813446
_cell_angle_gamma 98.579594
_cell_volume 661.605037
_symmetry_space_group_name_H-M "P -1"
_symmetry_group_IT_number 2
_symmetry_cell_setting 'triclinic'
loop_
_space_group_symop_operation_xyz
x,y,z
-x,-y,-z
loop_
_atom_site_type_symbol
_atom_site_label
_atom_site_fract_x
_atom_site_fract_y
_atom_site_fract_z
Si Si1 0.213561 0.208696 0.143162
Si Si2 0.048523 0.242997 0.934802
Si Si3 0.137050 0.801557 0.789626
Si Si4 0.358904 0.627523 0.919474
Si Si5 0.543577 0.024294 0.835381
Si Si6 0.313341 0.109518 0.706679
Si Si7 0.874780 0.450299 0.663502
Si Si8 0.132954 0.128143 0.483518
O O1 0.082351 0.983571 0.097583
O O2 0.333721 0.086325 0.173831
O O3 0.207115 0.441641 0.253166
O O4 0.186520 0.305239 0.027923
O O5 0.085129 0.076336 0.822104
O O6 0.000000 0.500000 0.000000
O O7 0.233304 0.747318 0.895250
O O8 0.018506 0.550313 0.742874
O O9 0.215379 0.839568 0.700811
O O10 0.456930 0.809033 0.875408
O O11 0.328811 0.326500 0.830807
O O12 0.416049 0.697478 0.056809
O O13 0.452141 0.058373 0.720893
O O14 0.244812 0.208030 0.601622
O O15 0.840537 0.126972 0.606049
O O16 0.872689 0.619956 0.570076
O O17 0.000000 0.000000 0.500000
#
# Coordination Sequence:
#
# PCOD9003913 Si02
#       8
#     2   2   2   2   2   2   2   2
#     4  10  23  42  60  91 135 173 211 272 323 401
#     4  10  22  35  62  93 128 170 212 255 335 408
#     4  10  21  37  62  99 129 165 206 275 334 399
#     4  10  21  39  62  93 132 163 220 265 329 400
#     4  10  22  41  61  94 128 174 214 266 332 395
#     4  11  24  37  68  92 126 170 220 279 328 385
#     4  11  26  43  68 101 132 173 225 271 341 392
#     4  12  25  45  70  99 130 174 226 287 331 382
#
# _framework density 24.183612
#
# number of rings (size 3 to 8) (size 9 to 14) (size 15 to 20)
#    0.000    1.500    2.500    1.500    8.750    1.000 
#    0.000    1.250    0.000    0.000    0.000    0.000 
#    0.000    0.000    0.000    0.000    0.000    0.000 
#
# Total GULP energy -89341.947392 kJ/mol
# GULP energy per Si atom -5583.871712 kJ/mol
# Density = 2.412857 g / cm^3
# Si number density = 24.183612 Si / 1000 Ang^3
#
#
#
# Elastic Constant Matrix: (Units=GPa)
#
#
# Indices 1 2 3 4 5 6 
#
# 1 144.6482 22.4360 49.0484 -1.8872 30.9489 -32.0711
# 2 22.4360 62.4031 12.5722 15.3821 7.5007 -23.4094
# 3 49.0484 12.5722 85.4321 9.3886 11.1266 -28.8092
# 4 -1.8872 15.3821 9.3886 42.6178 -15.2924 8.1650
# 5 30.9489 7.5007 11.1266 -15.2924 32.7223 -4.2156
# 6 -32.0711 -23.4094 -28.8092 8.1650 -4.2156 39.6364
#
#
#
# Elastic Compliance Matrix: (Units=1/GPa)
#
#
# Indices 1 2 3 4 5 6 
#
# 1 0.012146 0.003860 -0.000884 -0.008023 -0.014328 0.011594
# 2 0.003860 0.038309 0.012540 -0.033717 -0.027443 0.038891
# 3 -0.000884 0.012540 0.023694 -0.020727 -0.016375 0.026441
# 4 -0.008023 -0.033717 -0.020727 0.066270 0.046876 -0.050136
# 5 -0.014328 -0.027443 -0.016375 0.046876 0.072512 -0.041648
# 6 0.011594 0.038891 0.026441 -0.050136 -0.041648 0.082696
#
#
# Mechanical properties :
#
#
# Convention : Reuss Voigt Hill
#
# Bulk Modulus (GPa) = 9.50728 51.17739 30.34234
# Shear Modulus (GPa) = 16.68592 36.89043 26.78817
#
# Velocity S-wave (km/s) = 2.62957 3.90991 3.33182
# Velocity P-wave (km/s) = 3.62758 6.44912 5.23214
#
# Compressibility (1/GPa) = 0.10518253
#
# Stress axis : x y z
#
# Youngs Moduli (GPa) = 82.33375 26.10335 42.20488
#
# Poissons Ratio (x) = -0.10077 0.03730
# Poissons Ratio (y) = -0.31784 -0.52926
# Poissons Ratio (z) = 0.07276 -0.32734
#
# Static dielectric constant tensor:
#      x y z
#    x 1.834280 -0.122390 0.047880 
#    y -0.122390 1.873470 0.012510 
#    z 0.047880 0.012510 1.930740 
# 
# From -- ./inp_files/510587.got.cif
#   From: 2010.05.17/outbox.cif.g08.bks.cpg/sg2_256_cif.got.tgz:510587.got - 2010.06.03 11:33:40.
