data_PCOD9003190
_publ_section_title
;
Structure prediction by ZEFSAII (Michael W. Deem and Ramdas Pophale) SiO2 
 PCOD9003190
Probable space group: P -1
;
_chemical_formula_sum "Si O2"
_cell_formula_units_Z 16
_cell_length_a 8.771330
_cell_length_b 9.203291
_cell_length_c 19.774015
_cell_angle_alpha 34.595393
_cell_angle_beta 86.643450
_cell_angle_gamma 104.274908
_cell_volume 772.787541
_symmetry_space_group_name_H-M "P -1"
_symmetry_group_IT_number 2
_symmetry_cell_setting 'triclinic'
loop_
_space_group_symop_operation_xyz
x,y,z
-x,-y,-z
loop_
_atom_site_type_symbol
_atom_site_label
_atom_site_fract_x
_atom_site_fract_y
_atom_site_fract_z
Si Si1 0.624344 0.161165 0.870457
Si Si2 0.412305 0.663306 0.847515
Si Si3 0.831689 0.907406 0.228208
Si Si4 0.898351 0.933420 0.958049
Si Si5 0.469647 0.657904 0.377460
Si Si6 0.746591 0.676242 0.761091
Si Si7 0.301965 0.700380 0.969480
Si Si8 0.928629 0.716875 0.440039
O O1 0.702941 0.506014 0.755816
O O2 0.773297 0.073097 0.901170
O O3 0.490106 0.995567 0.875162
O O4 0.500000 0.000000 0.000000
O O5 0.574215 0.664471 0.804262
O O6 0.354150 0.537649 0.974153
O O7 0.469131 0.007424 0.725495
O O8 0.232408 0.427063 0.904352
O O9 0.618448 0.669260 0.318560
O O10 0.893020 0.852698 0.320214
O O11 0.825805 0.207441 0.099117
O O12 0.959573 0.919902 0.162036
O O13 0.000000 0.000000 0.000000
O O14 0.500000 0.500000 0.500000
O O15 0.257701 0.472869 0.441543
O O16 0.784743 0.490214 0.888034
O O17 0.914800 0.008509 0.628117
O O18 0.000000 0.500000 0.500000
#
# Coordination Sequence:
#
# PCOD9003190 Si02
#       8
#     2   2   2   2   2   2   2   2
#     4  10  21  37  58  88 132 169 200 252 329 392
#     4  11  21  36  65  93 124 166 214 264 330 383
#     4  10  24  38  62  94 131 167 206 272 326 378
#     4  12  24  38  63  99 135 167 209 265 339 403
#     4   9  21  40  60  91 124 164 216 271 305 362
#     4  11  21  36  65  95 125 171 211 265 330 385
#     4  10  21  38  62  95 130 161 208 267 333 400
#     4  11  22  40  68  95 123 171 232 265 309 375
#
# _framework density 20.704266000000001
#
# number of rings (size 3 to 8) (size 9 to 14) (size 15 to 20)
#    0.000    1.500    3.750    2.625    1.750    8.500 
#    0.000    0.000    0.000   18.750    0.000    0.000 
#    0.000    0.000    0.000    0.000    0.000    0.000 
#
# Total GULP energy -89130.886710 kJ/mol
# GULP energy per Si atom -5570.680419 kJ/mol
# Density = 2.065714 g / cm^3
# Si number density = 20.704266 Si / 1000 Ang^3
#
#
#
# Elastic Constant Matrix: (Units=GPa)
#
#
# Indices 1 2 3 4 5 6 
#
# 1 129.0349 52.5349 32.3153 0.0443 -23.7290 -13.0145
# 2 52.5349 112.4761 32.3400 -29.0326 -21.7081 14.0964
# 3 32.3153 32.3400 71.4518 -19.1227 -29.5168 2.3598
# 4 0.0443 -29.0326 -19.1227 36.5234 3.2850 -11.2612
# 5 -23.7290 -21.7081 -29.5168 3.2850 55.9956 2.7170
# 6 -13.0145 14.0964 2.3598 -11.2612 2.7170 39.4333
#
#
#
# Elastic Compliance Matrix: (Units=1/GPa)
#
#
# Indices 1 2 3 4 5 6 
#
# 1 0.011946 -0.006415 -0.003952 -0.005761 0.000598 0.004786
# 2 -0.006415 0.015886 0.000050 0.010874 0.003067 -0.004905
# 3 -0.003952 0.000050 0.022710 0.011001 0.009680 -0.000207
# 4 -0.005761 0.010874 0.011001 0.043062 0.004779 0.005522
# 5 0.000598 0.003067 0.009680 0.004779 0.024210 -0.001782
# 6 0.004786 -0.004905 -0.000207 0.005522 -0.001782 0.030404
#
#
# Mechanical properties :
#
#
# Convention : Reuss Voigt Hill
#
# Bulk Modulus (GPa) = 33.43606 60.81592 47.12599
# Shear Modulus (GPa) = 27.96079 39.44195 33.70137
#
# Velocity S-wave (km/s) = 3.67888 4.36938 4.03892
# Velocity P-wave (km/s) = 5.85064 7.40896 6.67543
#
# Compressibility (1/GPa) = 0.02990783
#
# Stress axis : x y z
#
# Youngs Moduli (GPa) = 83.71037 62.94890 44.03308
#
# Poissons Ratio (x) = 0.40380 0.17403
# Poissons Ratio (y) = 0.53698 -0.00220
# Poissons Ratio (z) = 0.33085 -0.00314
#
# Static dielectric constant tensor:
#      x y z
#    x 1.790970 0.004500 -0.003590 
#    y 0.004500 1.765740 -0.010090 
#    z -0.003590 -0.010090 1.831210 
# 
# From -- ./inp_files/586503.got.cif
#   From: 2010.05.17/outbox.cif.g08.bks.cpg/sg2_294_cif.got.tgz:586503.got - 2010.06.03 11:33:40.
