data_PCOD9003763
_publ_section_title
;
Structure prediction by ZEFSAII (Michael W. Deem and Ramdas Pophale) SiO2 
 PCOD9003763
Probable space group: P -1
;
_chemical_formula_sum "Si O2"
_cell_formula_units_Z 16
_cell_length_a 10.752283
_cell_length_b 14.525236
_cell_length_c 11.421610
_cell_angle_alpha 116.300033
_cell_angle_beta 120.826340
_cell_angle_gamma 114.237472
_cell_volume 769.641011
_symmetry_space_group_name_H-M "P -1"
_symmetry_group_IT_number 2
_symmetry_cell_setting 'triclinic'
loop_
_space_group_symop_operation_xyz
x,y,z
-x,-y,-z
loop_
_atom_site_type_symbol
_atom_site_label
_atom_site_fract_x
_atom_site_fract_y
_atom_site_fract_z
Si Si1 0.904957 0.782536 0.104919
Si Si2 0.285470 0.739333 0.258870
Si Si3 0.126277 0.385381 0.666295
Si Si4 0.108206 0.949824 0.544244
Si Si5 0.273860 0.524842 0.066507
Si Si6 0.546467 0.107169 0.186934
Si Si7 0.472439 0.252966 0.072631
Si Si8 0.723464 0.096593 0.824313
O O1 0.091852 0.890773 0.372373
O O2 0.706162 0.572236 0.915833
O O3 0.049067 0.835789 0.086564
O O4 0.759113 0.804129 0.043538
O O5 0.241641 0.765969 0.125645
O O6 0.011770 0.596152 0.111601
O O7 0.473554 0.912922 0.529809
O O8 0.424327 0.710654 0.292400
O O9 0.074102 0.232113 0.567197
O O10 0.291013 0.513656 0.932073
O O11 0.283498 0.532066 0.721263
O O12 0.836356 0.259643 0.459763
O O13 0.000000 0.000000 0.500000
O O14 0.371894 0.123256 0.841363
O O15 0.523850 0.206964 0.178216
O O16 0.337483 0.959567 0.102815
O O17 0.500000 0.000000 0.000000
#
# Coordination Sequence:
#
# PCOD9003763 Si02
#       8
#     2   2   2   2   2   2   2   2
#     4   9  21  40  59  93 121 157 206 248 311 371
#     4   9  18  34  60  93 118 153 191 258 315 356
#     4  11  22  39  61  93 123 161 209 249 302 365
#     4   9  20  39  63  95 124 160 202 249 313 364
#     4   9  18  33  59  91 124 145 197 256 312 360
#     4  12  25  42  62  88 121 167 213 252 301 361
#     4  11  24  41  62  86 130 170 203 252 300 361
#     4  10  21  37  62  88 122 156 204 250 305 368
#
# _framework density 20.788912
#
# number of rings (size 3 to 8) (size 9 to 14) (size 15 to 20)
#    0.000    2.000    2.500    0.375    5.250    5.000 
#    2.250    0.000    0.000    1.500    0.000    0.000 
#    0.000    0.000    0.000    0.000    0.000    0.000 
#
# Total GULP energy -89176.638768 kJ/mol
# GULP energy per Si atom -5573.539923 kJ/mol
# Density = 2.074160 g / cm^3
# Si number density = 20.788912 Si / 1000 Ang^3
#
#
#
# Elastic Constant Matrix: (Units=GPa)
#
#
# Indices 1 2 3 4 5 6 
#
# 1 84.0416 53.0369 0.1089 -5.7849 -9.6357 -5.0976
# 2 53.0369 140.6222 4.3230 -1.9640 -7.1424 9.3116
# 3 0.1089 4.3230 19.2997 0.7394 -5.4416 2.5102
# 4 -5.7849 -1.9640 0.7394 23.9470 -5.9796 1.9361
# 5 -9.6357 -7.1424 -5.4416 -5.9796 25.5135 3.5364
# 6 -5.0976 9.3116 2.5102 1.9361 3.5364 41.0980
#
#
#
# Elastic Compliance Matrix: (Units=1/GPa)
#
#
# Indices 1 2 3 4 5 6 
#
# 1 0.017055 -0.006315 0.002468 0.004798 0.005956 0.002657
# 2 -0.006315 0.009747 -0.001671 -0.000364 0.000304 -0.002898
# 3 0.002468 -0.001671 0.056454 0.002450 0.013641 -0.004053
# 4 0.004798 -0.000364 0.002450 0.046412 0.013501 -0.002820
# 5 0.005956 0.000304 0.013641 0.013501 0.048290 -0.004954
# 6 0.002657 -0.002898 -0.004053 -0.002820 -0.004954 0.026125
#
#
# Mechanical properties :
#
#
# Convention : Reuss Voigt Hill
#
# Bulk Modulus (GPa) = 13.84646 39.87791 26.86218
# Shear Modulus (GPa) = 20.90381 30.54469 25.72425
#
# Velocity S-wave (km/s) = 3.17444 3.83727 3.52149
# Velocity P-wave (km/s) = 4.48454 6.23353 5.42991
#
# Compressibility (1/GPa) = 0.07222064
#
# Stress axis : x y z
#
# Youngs Moduli (GPa) = 58.63331 102.60047 17.71352
#
# Poissons Ratio (x) = 0.64790 -0.04372
# Poissons Ratio (y) = 0.37026 0.02960
# Poissons Ratio (z) = -0.14472 0.17145
#
# Static dielectric constant tensor:
#      x y z
#    x 1.764380 -0.024150 -0.031920 
#    y -0.024150 1.850690 0.099780 
#    z -0.031920 0.099780 1.838700 
# 
# From -- ./inp_files/431352.got.cif
#   From: 2010.05.17/outbox.cif.g08.bks.cpg/sg2_216_cif.got.tgz:431352.got - 2010.06.03 11:33:40.
