data_PCOD9003564
_publ_section_title
;
Structure prediction by ZEFSAII (Michael W. Deem and Ramdas Pophale) SiO2 
 PCOD9003564
Probable space group: P -1
;
_chemical_formula_sum "Si O2"
_cell_formula_units_Z 13
_cell_length_a 9.430072
_cell_length_b 11.109406
_cell_length_c 7.777075
_cell_angle_alpha 38.862857
_cell_angle_beta 87.619110
_cell_angle_gamma 84.534420
_cell_volume 508.200344
_symmetry_space_group_name_H-M "P -1"
_symmetry_group_IT_number 2
_symmetry_cell_setting 'triclinic'
loop_
_space_group_symop_operation_xyz
x,y,z
-x,-y,-z
loop_
_atom_site_type_symbol
_atom_site_label
_atom_site_fract_x
_atom_site_fract_y
_atom_site_fract_z
Si Si1 0.539132 0.921189 0.279828
Si Si2 0.814517 0.267797 0.674209
Si Si3 0.968809 0.547125 0.142626
Si Si4 0.291366 0.490942 0.296809
Si Si5 0.668377 0.171214 0.297311
Si Si6 0.000000 0.000000 0.500000
Si Si7 0.066813 0.070932 0.104392
O O1 0.636019 0.721818 0.460607
O O2 0.617992 0.057203 0.257901
O O3 0.415821 0.867536 0.481252
O O4 0.500000 0.000000 0.000000
O O5 0.847751 0.431624 0.357441
O O6 0.697468 0.372727 0.688072
O O7 0.799093 0.053033 0.843343
O O8 0.966374 0.198446 0.839182
O O9 0.119836 0.496581 0.284600
O O10 0.920324 0.779943 0.902058
O O11 0.000000 0.500000 0.000000
O O12 0.346856 0.605128 0.005913
O O13 0.835576 0.112962 0.380983
O O14 0.020774 0.072129 0.623656
#
# Coordination Sequence:
#
# PCOD9003564 Si02
#       7
#     2   2   2   2   2   1   2
#     4  11  29  55  79 106 156 214 265 315 388 474
#     4  10  22  38  61 102 149 198 240 304 377 455
#     4  11  23  38  62 110 159 195 237 307 392 457
#     4  11  24  46  74 106 149 199 260 318 381 459
#     4  11  27  51  77 118 154 204 258 325 392 466
#     4  12  22  44  78 112 150 190 246 322 392 448
#     4  10  21  37  61 100 153 189 233 304 377 448
#
# _framework density 25.580463000000002
#
# number of rings (size 3 to 8) (size 9 to 14) (size 15 to 20)
#    0.000    1.231    3.077    3.231    4.308    5.538 
#    2.769    0.000    0.000    0.000    0.000    0.000 
#    0.000    0.000    0.000    0.000    0.000    0.000 
#
# Total GULP energy -72406.191616 kJ/mol
# GULP energy per Si atom -5569.707047 kJ/mol
# Density = 2.552224 g / cm^3
# Si number density = 25.580463 Si / 1000 Ang^3
#
#
#
# Elastic Constant Matrix: (Units=GPa)
#
#
# Indices 1 2 3 4 5 6 
#
# 1 90.3959 31.4644 56.6109 -4.8572 -12.0970 -17.4467
# 2 31.4644 140.8740 66.9093 -1.7981 12.7251 -39.8383
# 3 56.6109 66.9093 180.7647 0.2943 2.7668 -12.3330
# 4 -4.8572 -1.7981 0.2943 53.6466 -15.6569 1.4018
# 5 -12.0970 12.7251 2.7668 -15.6569 41.3397 0.4282
# 6 -17.4467 -39.8383 -12.3330 1.4018 0.4282 34.3889
#
#
#
# Elastic Compliance Matrix: (Units=1/GPa)
#
#
# Indices 1 2 3 4 5 6 
#
# 1 0.016270 -0.000186 -0.004708 0.003161 0.006267 0.006143
# 2 -0.000186 0.013346 -0.003849 -0.001235 -0.004519 0.014093
# 3 -0.004708 -0.003849 0.008184 -0.000791 -0.001000 -0.003868
# 4 0.003161 -0.001235 -0.000791 0.021719 0.009596 -0.001116
# 5 0.006267 -0.004519 -0.001000 0.009596 0.031149 -0.003193
# 6 0.006143 0.014093 -0.003868 -0.001116 -0.003193 0.047220
#
#
# Mechanical properties :
#
#
# Convention : Reuss Voigt Hill
#
# Bulk Modulus (GPa) = 49.22949 80.22264 64.72606
# Shear Modulus (GPa) = 30.83635 43.01171 36.92403
#
# Velocity S-wave (km/s) = 3.47575 4.10497 3.80339
# Velocity P-wave (km/s) = 5.94933 7.34144 6.68174
#
# Compressibility (1/GPa) = 0.02031303
#
# Stress axis : x y z
#
# Youngs Moduli (GPa) = 61.46234 74.92916 122.18953
#
# Poissons Ratio (x) = 0.01394 0.57532
# Poissons Ratio (y) = 0.01144 0.47031
# Poissons Ratio (z) = 0.28939 0.28840
#
# Static dielectric constant tensor:
#      x y z
#    x 1.854600 0.145880 0.226950 
#    y 0.145880 2.314340 0.004160 
#    z 0.226950 0.004160 1.568070 
# 
# From -- ./inp_files/246550.got.cif
#   From: 2010.05.17/outbox.cif.g08.bks.cpg/sg2_124_cif.got.tgz:246550.got - 2010.06.03 11:33:40.
