data_PCOD9003759
_publ_section_title
;
Structure prediction by ZEFSAII (Michael W. Deem and Ramdas Pophale) SiO2 
 PCOD9003759
Probable space group: P -1
;
_chemical_formula_sum "Si O2"
_cell_formula_units_Z 16
_cell_length_a 24.765847
_cell_length_b 25.408215
_cell_length_c 16.594602
_cell_angle_alpha 20.950348
_cell_angle_beta 20.632903
_cell_angle_gamma 11.749011
_cell_volume 726.268110
_symmetry_space_group_name_H-M "P -1"
_symmetry_group_IT_number 2
_symmetry_cell_setting 'triclinic'
loop_
_space_group_symop_operation_xyz
x,y,z
-x,-y,-z
loop_
_atom_site_type_symbol
_atom_site_label
_atom_site_fract_x
_atom_site_fract_y
_atom_site_fract_z
Si Si1 0.445043 0.376498 0.279730
Si Si2 0.458766 0.211826 0.672867
Si Si3 0.551939 0.322126 0.844540
Si Si4 0.827898 0.089377 0.461506
Si Si5 0.718988 0.713244 0.639121
Si Si6 0.539136 0.294751 0.723529
Si Si7 0.185685 0.183465 0.484834
Si Si8 0.180060 0.338842 0.097495
O O1 0.486266 0.289194 0.440935
O O2 0.125085 0.621547 0.356286
O O3 0.612243 0.119017 0.364027
O O4 0.500000 0.500000 0.000000
O O5 0.627970 0.160180 0.579594
O O6 0.130614 0.442780 0.812141
O O7 0.603054 0.937142 0.857202
O O8 0.316015 0.635649 0.723127
O O9 0.569708 0.219085 0.881571
O O10 0.446745 0.305577 0.088337
O O11 0.860195 0.145644 0.671750
O O12 0.798262 0.056504 0.642487
O O13 0.782270 0.723969 0.623284
O O14 0.000000 0.500000 0.500000
O O15 0.500000 0.000000 0.500000
O O16 0.500000 0.500000 0.500000
O O17 0.287322 0.418637 0.849148
O O18 0.206118 0.248311 0.278954
#
# Coordination Sequence:
#
# PCOD9003759 Si02
#       8
#     2   2   2   2   2   2   2   2
#     4  10  21  37  62  87 120 169 218 259 316 384
#     4  10  23  39  61  95 127 172 216 263 330 372
#     4  11  24  44  64  93 135 171 211 276 322 388
#     4  11  24  41  66  97 133 168 217 270 327 386
#     4  12  25  41  64  96 126 169 221 263 337 388
#     4  10  23  43  69  98 127 175 221 262 333 395
#     4  10  21  40  59  88 124 165 208 267 318 380
#     4  10  21  41  66  88 130 172 209 266 317 393
#
# _framework density 22.030431
#
# number of rings (size 3 to 8) (size 9 to 14) (size 15 to 20)
#    0.000    1.500    1.250    3.000    0.000    8.000 
#    0.000    0.000    0.000    0.000    0.000    0.000 
#    0.000    0.000    0.000    0.000    0.000    0.000 
#
# Total GULP energy -89287.066853 kJ/mol
# GULP energy per Si atom -5580.441678 kJ/mol
# Density = 2.198029 g / cm^3
# Si number density = 22.030431 Si / 1000 Ang^3
#
#
#
# Elastic Constant Matrix: (Units=GPa)
#
#
# Indices 1 2 3 4 5 6 
#
# 1 4.3961 21.0682 12.2915 38.7848 -14.0622 -39.7913
# 2 21.0682 163.2812 38.8790 5.0502 3.5679 -7.8271
# 3 12.2915 38.8790 119.8737 22.3780 1.7586 5.6720
# 4 38.7848 5.0502 22.3780 24.6057 4.2473 12.3786
# 5 -14.0622 3.5679 1.7586 4.2473 30.2740 8.0457
# 6 -39.7913 -7.8271 5.6720 12.3786 8.0457 25.4893
#
#
#
# Elastic Compliance Matrix: (Units=1/GPa)
#
#
# Indices 1 2 3 4 5 6 
#
# 1 -0.003902 -0.000145 -0.001557 0.013912 -0.000352 -0.012435
# 2 -0.000145 0.006874 -0.002261 -0.000406 -0.001502 0.003060
# 3 -0.001557 -0.002261 0.010300 -0.004938 0.000480 -0.003170
# 4 0.013912 -0.000406 -0.004938 0.015695 0.000644 0.014867
# 5 -0.000352 -0.001502 0.000480 0.000644 0.036357 -0.012907
# 6 -0.012435 0.003060 -0.003170 0.014867 -0.012907 0.018319
#
#
# Mechanical properties :
#
#
# Convention : Reuss Voigt Hill
#
# Bulk Modulus (GPa) = 187.04696 48.00315 117.52505
# Shear Modulus (GPa) = 53.56191 30.42796 41.99494
#
# Velocity S-wave (km/s) = 4.93614 3.72045 4.37077
# Velocity P-wave (km/s) = 10.84322 6.34764 8.88448
#
# Compressibility (1/GPa) = 0.00534625
#
# Stress axis : x y z
#
# Youngs Moduli (GPa) = -256.27702 145.48476 97.08847
#
# Poissons Ratio (x) = 0.02103 0.15113
# Poissons Ratio (y) = -0.03704 0.21956
# Poissons Ratio (z) = -0.39893 0.32900
#
# Static dielectric constant tensor:
#      x y z
#    x 1.784980 -0.043110 -0.037680 
#    y -0.043110 1.666900 -0.120130 
#    z -0.037680 -0.120130 1.641050 
# 
# From -- ./inp_files/579945.got.cif
#   From: 2010.05.17/outbox.cif.g08.bks.cpg/sg2_290_cif.got.tgz:579945.got - 2010.06.03 11:33:40.
