data_PCOD9003122
_publ_section_title
;
Structure prediction by ZEFSAII (Michael W. Deem and Ramdas Pophale) SiO2 
 PCOD9003122
Probable space group: P -1
;
_chemical_formula_sum "Si O2"
_cell_formula_units_Z 16
_cell_length_a 8.722719
_cell_length_b 15.164613
_cell_length_c 6.407409
_cell_angle_alpha 113.839022
_cell_angle_beta 76.927282
_cell_angle_gamma 80.441325
_cell_volume 722.931791
_symmetry_space_group_name_H-M "P -1"
_symmetry_group_IT_number 2
_symmetry_cell_setting 'triclinic'
loop_
_space_group_symop_operation_xyz
x,y,z
-x,-y,-z
loop_
_atom_site_type_symbol
_atom_site_label
_atom_site_fract_x
_atom_site_fract_y
_atom_site_fract_z
Si Si1 0.383215 0.926901 0.469595
Si Si2 0.535273 0.725873 0.484876
Si Si3 0.892548 0.423347 0.497284
Si Si4 0.873572 0.914384 0.030114
Si Si5 0.624154 0.394737 0.282747
Si Si6 0.630025 0.589268 0.950095
Si Si7 0.130787 0.960435 0.239567
Si Si8 0.783792 0.731952 0.757913
O O1 0.459356 0.817718 0.440905
O O2 0.305453 0.918428 0.258073
O O3 0.500000 0.000000 0.500000
O O4 0.236877 0.987421 0.724657
O O5 0.410600 0.692889 0.646864
O O6 0.667274 0.756288 0.617669
O O7 0.620025 0.627376 0.224940
O O8 0.803004 0.402859 0.293986
O O9 0.747994 0.477646 0.755135
O O10 0.000000 0.500000 0.500000
O O11 0.029330 0.322124 0.422698
O O12 0.053871 0.888912 0.053414
O O13 0.790083 0.826254 0.983716
O O14 0.873492 0.946757 0.821521
O O15 0.500000 0.500000 0.500000
O O16 0.553752 0.389966 0.068182
O O17 0.712233 0.658977 0.851977
O O18 0.000000 0.000000 0.500000
#
# Coordination Sequence:
#
# PCOD9003122 Si02
#       8
#     2   2   2   2   2   2   2   2
#     4  11  23  38  59  90 122 156 203 246 290 356
#     4  11  23  37  59  88 116 155 200 237 291 355
#     4   9  19  37  59  83 112 147 188 238 294 347
#     4  10  21  39  61  82 119 161 191 245 304 340
#     4   9  20  39  61  85 117 150 194 245 292 351
#     4   9  20  39  59  83 117 150 188 243 295 344
#     4   9  21  39  58  83 118 155 198 243 293 355
#     4  10  21  37  58  84 113 150 196 239 289 355
#
# _framework density 22.132102
#
# number of rings (size 3 to 8) (size 9 to 14) (size 15 to 20)
#    0.000    2.250    0.000    2.250    0.000   11.500 
#    0.000    2.500    0.000    1.500    0.000    0.000 
#    0.000    0.000    0.000    0.000    0.000    0.000 
#
# Total GULP energy -89308.331536 kJ/mol
# GULP energy per Si atom -5581.770721 kJ/mol
# Density = 2.208173 g / cm^3
# Si number density = 22.132102 Si / 1000 Ang^3
#
#
#
# Elastic Constant Matrix: (Units=GPa)
#
#
# Indices 1 2 3 4 5 6 
#
# 1 132.3891 34.3064 21.3093 -8.2388 33.4551 -2.7407
# 2 34.3064 67.5373 14.5001 -4.4113 7.6314 -5.2736
# 3 21.3093 14.5001 54.9068 0.9898 4.6506 -5.3525
# 4 -8.2388 -4.4113 0.9898 31.7233 1.0758 0.7827
# 5 33.4551 7.6314 4.6506 1.0758 38.3402 -1.0279
# 6 -2.7407 -5.2736 -5.3525 0.7827 -1.0279 28.0996
#
#
#
# Elastic Compliance Matrix: (Units=1/GPa)
#
#
# Indices 1 2 3 4 5 6 
#
# 1 0.011483 -0.004096 -0.002722 0.002816 -0.008969 -0.000574
# 2 -0.004096 0.017745 -0.002929 0.001423 0.000420 0.002349
# 3 -0.002722 -0.002929 0.020328 -0.001847 0.000628 0.003131
# 4 0.002816 0.001423 -0.001847 0.032647 -0.003455 -0.000846
# 5 -0.008969 0.000420 0.000628 -0.003455 0.033863 0.000659
# 6 -0.000574 0.002349 0.003131 -0.000846 0.000659 0.036617
#
#
# Mechanical properties :
#
#
# Convention : Reuss Voigt Hill
#
# Bulk Modulus (GPa) = 33.26425 43.89609 38.58017
# Shear Modulus (GPa) = 27.44293 31.94712 29.69503
#
# Velocity S-wave (km/s) = 3.52513 3.80343 3.66692
# Velocity P-wave (km/s) = 5.62416 6.25818 5.94962
#
# Compressibility (1/GPa) = 0.03006230
#
# Stress axis : x y z
#
# Youngs Moduli (GPa) = 87.08727 56.35434 49.19362
#
# Poissons Ratio (x) = 0.23082 0.13390
# Poissons Ratio (y) = 0.35670 0.14408
# Poissons Ratio (z) = 0.23704 0.16505
#
# Static dielectric constant tensor:
#      x y z
#    x 1.864840 -0.011050 0.004210 
#    y -0.011050 1.812590 0.021950 
#    z 0.004210 0.021950 1.848020 
# 
# From -- ./inp_files/37946.got.cif
#   From: 2010.05.17/outbox.cif.g08.bks.cpg/sg2_19_cif.got.tgz:37946.got - 2010.06.03 11:33:40.
