data_PCOD9003606
_publ_section_title
;
Structure prediction by ZEFSAII (Michael W. Deem and Ramdas Pophale) SiO2 
 PCOD9003606
Probable space group: P -1
;
_chemical_formula_sum "Si O2"
_cell_formula_units_Z 12
_cell_length_a 8.808405
_cell_length_b 5.252384
_cell_length_c 15.942971
_cell_angle_alpha 124.700718
_cell_angle_beta 48.603841
_cell_angle_gamma 114.869903
_cell_volume 453.737570
_symmetry_space_group_name_H-M "P -1"
_symmetry_group_IT_number 2
_symmetry_cell_setting 'triclinic'
loop_
_space_group_symop_operation_xyz
x,y,z
-x,-y,-z
loop_
_atom_site_type_symbol
_atom_site_label
_atom_site_fract_x
_atom_site_fract_y
_atom_site_fract_z
Si Si1 0.446979 0.210213 0.295575
Si Si2 0.819559 0.648992 0.278008
Si Si3 0.207998 0.345239 0.064762
Si Si4 0.316182 0.486254 0.225814
Si Si5 0.135265 0.202455 0.887928
Si Si6 0.111324 0.312673 0.553868
O O1 0.673501 0.330933 0.262850
O O2 0.419438 0.291933 0.223214
O O3 0.290485 0.411963 0.442761
O O4 0.374180 0.856164 0.277491
O O5 0.763434 0.815494 0.243724
O O6 0.795584 0.754315 0.401436
O O7 0.064165 0.632459 0.176183
O O8 0.352463 0.366078 0.095612
O O9 0.272835 0.271228 0.933300
O O10 0.037120 0.069892 0.091255
O O11 0.069637 0.457029 0.325743
O O12 0.000000 0.500000 0.000000
O O13 0.000000 0.000000 0.500000
#
# Coordination Sequence:
#
# PCOD9003606 Si02
#       6
#     2   2   2   2   2   2
#     4  11  23  40  58  94 125 161 196 249 302 350
#     4  10  21  37  61  88 124 156 197 254 301 351
#     4   9  20  38  63  87 115 158 208 244 295 363
#     4  10  23  39  64  86 124 162 204 242 295 357
#     4   9  19  36  64  87 113 154 207 246 300 357
#     4   9  20  40  61  89 119 164 207 240 291 359
#
# _framework density 26.447004
#
# number of rings (size 3 to 8) (size 9 to 14) (size 15 to 20)
#    0.000    2.333    0.000    1.000   11.667    0.000 
#    3.000    5.833    0.000    0.000    0.000    0.000 
#    0.000    0.000    0.000    0.000    0.000    0.000 
#
# Total GULP energy -67058.223770 kJ/mol
# GULP energy per Si atom -5588.185314 kJ/mol
# Density = 2.638681 g / cm^3
# Si number density = 26.447004 Si / 1000 Ang^3
#
#
#
# Elastic Constant Matrix: (Units=GPa)
#
#
# Indices 1 2 3 4 5 6 
#
# 1 125.7123 42.8487 54.4550 -10.3676 46.2097 18.4659
# 2 42.8487 69.3458 11.1722 -8.8028 18.3175 -0.8934
# 3 54.4550 11.1722 121.6694 -13.5796 51.3391 8.3159
# 4 -10.3676 -8.8028 -13.5796 32.0745 -1.6521 9.3609
# 5 46.2097 18.3175 51.3391 -1.6521 75.6594 -0.5147
# 6 18.4659 -0.8934 8.3159 9.3609 -0.5147 35.5120
#
#
#
# Elastic Compliance Matrix: (Units=1/GPa)
#
#
# Indices 1 2 3 4 5 6 
#
# 1 0.015247 -0.007066 -0.002715 0.004061 -0.005729 -0.008624
# 2 -0.007066 0.019332 0.002328 0.003103 -0.001858 0.002770
# 3 -0.002715 0.002328 0.013479 0.006050 -0.007943 -0.003396
# 4 0.004061 0.003103 0.006050 0.039650 -0.006567 -0.013998
# 5 -0.005729 -0.001858 -0.007943 -0.006567 0.022459 0.006849
# 6 -0.008624 0.002770 -0.003396 -0.013998 0.006849 0.037298
#
#
# Mechanical properties :
#
#
# Convention : Reuss Voigt Hill
#
# Bulk Modulus (GPa) = 30.16314 59.29771 44.73043
# Shear Modulus (GPa) = 28.83167 42.53261 35.68214
#
# Velocity S-wave (km/s) = 3.30535 4.01461 3.67712
# Velocity P-wave (km/s) = 5.09873 6.63020 5.91424
#
# Compressibility (1/GPa) = 0.03315305
#
# Stress axis : x y z
#
# Youngs Moduli (GPa) = 65.58818 51.72852 74.18794
#
# Poissons Ratio (x) = 0.36550 0.20141
# Poissons Ratio (y) = 0.46343 -0.17273
# Poissons Ratio (z) = 0.17807 -0.12044
#
# Static dielectric constant tensor:
#      x y z
#    x 2.277710 -0.164260 -0.076320 
#    y -0.164260 2.150020 0.027320 
#    z -0.076320 0.027320 2.125930 
# 
# From -- ./inp_files/24281.got.cif
#   From: 2010.05.17/outbox.cif.g08.bks.cpg/sg2_13_cif.got.tgz:24281.got - 2010.06.03 11:33:40.
