data_PCOD9003440
_publ_section_title
;
Structure prediction by ZEFSAII (Michael W. Deem and Ramdas Pophale) SiO2 
 PCOD9003440
Probable space group: P -1
;
_chemical_formula_sum "Si O2"
_cell_formula_units_Z 16
_cell_length_a 8.600798
_cell_length_b 14.458725
_cell_length_c 13.953526
_cell_angle_alpha 150.728455
_cell_angle_beta 108.849827
_cell_angle_gamma 81.098849
_cell_volume 772.043213
_symmetry_space_group_name_H-M "P -1"
_symmetry_group_IT_number 2
_symmetry_cell_setting 'triclinic'
loop_
_space_group_symop_operation_xyz
x,y,z
-x,-y,-z
loop_
_atom_site_type_symbol
_atom_site_label
_atom_site_fract_x
_atom_site_fract_y
_atom_site_fract_z
Si Si1 0.961920 0.215189 0.376258
Si Si2 0.080717 0.903582 0.531647
Si Si3 0.521150 0.571439 0.960113
Si Si4 0.664814 0.092328 0.053355
Si Si5 0.764257 0.399589 0.198464
Si Si6 0.895229 0.661294 0.123723
Si Si7 0.566533 0.020801 0.422986
Si Si8 0.730136 0.974288 0.759501
O O1 0.875675 0.155900 0.408596
O O2 0.829638 0.143458 0.200037
O O3 0.058340 0.446146 0.601980
O O4 0.114477 0.112306 0.308582
O O5 0.912142 0.748115 0.314890
O O6 0.057077 0.124638 0.726930
O O7 0.233032 0.887296 0.474965
O O8 0.359039 0.501201 0.796004
O O9 0.500000 0.500000 0.000000
O O10 0.705717 0.550722 0.949625
O O11 0.545635 0.804463 0.180649
O O12 0.667048 0.292613 0.177193
O O13 0.680144 0.949607 0.839465
O O14 0.500000 0.000000 0.000000
O O15 0.791834 0.213179 0.976623
O O16 0.000000 0.500000 0.000000
O O17 0.435377 0.104434 0.411004
O O18 0.500000 0.000000 0.500000
#
# Coordination Sequence:
#
# PCOD9003440 Si02
#       8
#     2   2   2   2   2   2   2   2
#     4  12  22  40  72  90 130 165 216 274 319 386
#     4  10  24  38  59  96 123 168 222 256 324 389
#     4  10  21  37  60  87 126 162 211 253 313 383
#     4  10  22  45  69  91 132 170 207 274 332 375
#     4   9  23  41  64  97 126 164 219 263 321 386
#     4  10  23  39  58  87 132 164 212 261 316 375
#     4  10  22  39  60  87 130 170 208 259 318 381
#     4   9  23  39  65  96 124 166 218 258 330 377
#
# _framework density 20.724228
#
# number of rings (size 3 to 8) (size 9 to 14) (size 15 to 20)
#    0.750    1.250    0.000    2.250   10.500    2.000 
#    0.000    0.625    2.750    0.000    0.000    0.000 
#    0.000    0.000    0.000    0.000    0.000    0.000 
#
# Total GULP energy -89148.110366 kJ/mol
# GULP energy per Si atom -5571.756898 kJ/mol
# Density = 2.067706 g / cm^3
# Si number density = 20.724228 Si / 1000 Ang^3
#
#
#
# Elastic Constant Matrix: (Units=GPa)
#
#
# Indices 1 2 3 4 5 6 
#
# 1 98.3224 34.2384 21.4255 -1.8573 7.0434 -1.4768
# 2 34.2384 109.4711 20.3477 -18.2825 11.2086 3.0346
# 3 21.4255 20.3477 61.1898 0.6986 9.0521 -6.7292
# 4 -1.8573 -18.2825 0.6986 46.4024 -10.5814 -3.3026
# 5 7.0434 11.2086 9.0521 -10.5814 28.8871 -2.8572
# 6 -1.4768 3.0346 -6.7292 -3.3026 -2.8572 36.5138
#
#
#
# Elastic Compliance Matrix: (Units=1/GPa)
#
#
# Indices 1 2 3 4 5 6 
#
# 1 0.012009 -0.003266 -0.002940 -0.001012 -0.001107 0.000037
# 2 -0.003266 0.011510 -0.002654 0.004007 -0.001502 -0.001333
# 3 -0.002940 -0.002654 0.019339 -0.002346 -0.004869 0.003073
# 4 -0.001012 0.004007 -0.002346 0.025312 0.008915 0.002181
# 5 -0.001107 -0.001502 -0.004869 0.008915 0.040575 0.003164
# 6 0.000037 -0.001333 0.003073 0.002181 0.003164 0.028510
#
#
# Mechanical properties :
#
#
# Convention : Reuss Voigt Hill
#
# Bulk Modulus (GPa) = 39.77882 46.77851 43.27867
# Shear Modulus (GPa) = 30.60836 35.22543 32.91689
#
# Velocity S-wave (km/s) = 3.84726 4.12724 3.98971
# Velocity P-wave (km/s) = 6.24270 6.73298 6.49247
#
# Compressibility (1/GPa) = 0.02513900
#
# Stress axis : x y z
#
# Youngs Moduli (GPa) = 83.26858 86.88430 51.70810
#
# Poissons Ratio (x) = 0.28380 0.15200
# Poissons Ratio (y) = 0.27199 0.13722
# Poissons Ratio (z) = 0.24477 0.23057
#
# Static dielectric constant tensor:
#      x y z
#    x 1.773700 -0.002310 0.012400 
#    y -0.002310 1.779190 -0.001940 
#    z 0.012400 -0.001940 1.752670 
# 
# From -- ./inp_files/505950.got.cif
#   From: 2010.05.17/outbox.cif.g08.bks.cpg/sg2_253_cif.got.tgz:505950.got - 2010.06.03 11:33:40.
