data_PCOD9003748
_publ_section_title
;
Structure prediction by ZEFSAII (Michael W. Deem and Ramdas Pophale) SiO2 
 PCOD9003748
Probable space group: P -1
;
_chemical_formula_sum "Si O2"
_cell_formula_units_Z 12
_cell_length_a 9.423754
_cell_length_b 13.598536
_cell_length_c 8.784994
_cell_angle_alpha 127.700624
_cell_angle_beta 59.256421
_cell_angle_gamma 149.057584
_cell_volume 457.754591
_symmetry_space_group_name_H-M "P -1"
_symmetry_group_IT_number 2
_symmetry_cell_setting 'triclinic'
loop_
_space_group_symop_operation_xyz
x,y,z
-x,-y,-z
loop_
_atom_site_type_symbol
_atom_site_label
_atom_site_fract_x
_atom_site_fract_y
_atom_site_fract_z
Si Si1 0.936348 0.318560 0.339456
Si Si2 0.018918 0.262823 0.685097
Si Si3 0.821215 0.927945 0.279326
Si Si4 0.508036 0.471375 0.786608
Si Si5 0.444297 0.853338 0.200543
Si Si6 0.216624 0.946248 0.069765
O O1 0.194412 0.385822 0.303886
O O2 0.000000 0.500000 0.500000
O O3 0.647136 0.094869 0.354417
O O4 0.901168 0.254422 0.122781
O O5 0.322363 0.452074 0.770526
O O6 0.818058 0.089556 0.766840
O O7 0.993650 0.144355 0.458015
O O8 0.870568 0.299151 0.746768
O O9 0.662435 0.760418 0.342367
O O10 0.026559 0.946894 0.121231
O O11 0.587608 0.833233 0.201389
O O12 0.500000 0.500000 0.000000
O O13 0.504853 0.867279 0.001107
#
# Coordination Sequence:
#
# PCOD9003748 Si02
#       6
#     2   2   2   2   2   2
#     4  10  21  37  62  85 121 158 201 239 299 351
#     4  11  21  38  62  95 116 158 204 243 291 369
#     4  11  21  38  65  91 121 156 198 253 300 348
#     4  11  20  39  62  87 121 158 201 241 296 360
#     4  10  22  39  63  89 123 155 201 248 300 349
#     4   9  20  36  63  85 116 154 208 229 296 350
#
# _framework density 26.214918999999998
#
# number of rings (size 3 to 8) (size 9 to 14) (size 15 to 20)
#    1.000    0.667    3.333    4.500    0.000    0.000 
#    0.000    1.667    3.667    4.000    0.000    0.000 
#    0.000    0.000    0.000    0.000    0.000    0.000 
#
# Total GULP energy -67025.801721 kJ/mol
# GULP energy per Si atom -5585.483477 kJ/mol
# Density = 2.615525 g / cm^3
# Si number density = 26.214919 Si / 1000 Ang^3
#
#
#
# Elastic Constant Matrix: (Units=GPa)
#
#
# Indices 1 2 3 4 5 6 
#
# 1 197.9728 36.0093 45.9779 -8.1279 -10.0198 46.4311
# 2 36.0093 69.5493 27.1256 -4.8520 -3.9333 17.3669
# 3 45.9779 27.1256 137.4247 -6.4707 -14.6804 5.3073
# 4 -8.1279 -4.8520 -6.4707 19.3420 5.9010 -3.0068
# 5 -10.0198 -3.9333 -14.6804 5.9010 31.9570 -3.8764
# 6 46.4311 17.3669 5.3073 -3.0068 -3.8764 52.1509
#
#
#
# Elastic Compliance Matrix: (Units=1/GPa)
#
#
# Indices 1 2 3 4 5 6 
#
# 1 0.007101 -0.001504 -0.001777 0.001039 0.000359 -0.005554
# 2 -0.001504 0.017365 -0.002711 0.002339 -0.000505 -0.004071
# 3 -0.001777 -0.002711 0.008713 0.000807 0.003191 0.001882
# 4 0.001039 0.002339 0.000807 0.055934 -0.009253 0.000751
# 5 0.000359 -0.000505 0.003191 -0.009253 0.034707 0.001570
# 6 -0.005554 -0.004071 0.001882 0.000751 0.001570 0.025444
#
#
# Mechanical properties :
#
#
# Convention : Reuss Voigt Hill
#
# Bulk Modulus (GPa) = 47.18157 69.24139 58.21148
# Shear Modulus (GPa) = 29.70657 40.41224 35.05941
#
# Velocity S-wave (km/s) = 3.36995 3.93055 3.66099
# Velocity P-wave (km/s) = 5.76013 6.86070 6.33436
#
# Compressibility (1/GPa) = 0.02119471
#
# Stress axis : x y z
#
# Youngs Moduli (GPa) = 140.82867 57.58588 114.77646
#
# Poissons Ratio (x) = 0.08659 0.20397
# Poissons Ratio (y) = 0.21177 0.31118
# Poissons Ratio (z) = 0.25026 0.15613
#
# Static dielectric constant tensor:
#      x y z
#    x 2.127020 0.042440 0.022190 
#    y 0.042440 2.077680 0.008410 
#    z 0.022190 0.008410 2.063320 
# 
# From -- ./inp_files/394728.got.cif
#   From: 2010.05.17/outbox.cif.g08.bks.cpg/sg2_198_cif.got.tgz:394728.got - 2010.06.03 11:33:40.
