data_PCOD9003142
_publ_section_title
;
Structure prediction by ZEFSAII (Michael W. Deem and Ramdas Pophale) SiO2 
 PCOD9003142
Probable space group: P -1
;
_chemical_formula_sum "Si O2"
_cell_formula_units_Z 16
_cell_length_a 10.815869
_cell_length_b 5.106905
_cell_length_c 18.860370
_cell_angle_alpha 57.577937
_cell_angle_beta 119.630260
_cell_angle_gamma 108.010947
_cell_volume 762.999650
_symmetry_space_group_name_H-M "P -1"
_symmetry_group_IT_number 2
_symmetry_cell_setting 'triclinic'
loop_
_space_group_symop_operation_xyz
x,y,z
-x,-y,-z
loop_
_atom_site_type_symbol
_atom_site_label
_atom_site_fract_x
_atom_site_fract_y
_atom_site_fract_z
Si Si1 0.831538 0.269065 0.367744
Si Si2 0.120969 0.285686 0.806357
Si Si3 0.406734 0.282641 0.455365
Si Si4 0.932706 0.777788 0.758575
Si Si5 0.363435 0.513463 0.255461
Si Si6 0.432785 0.328739 0.937925
Si Si7 0.884407 0.039207 0.559144
Si Si8 0.525171 0.139982 0.243696
O O1 0.835350 0.590249 0.278359
O O2 0.684655 0.090628 0.325096
O O3 0.967542 0.090616 0.405329
O O4 0.851695 0.307300 0.453221
O O5 0.262137 0.269366 0.895286
O O6 0.024572 0.538915 0.776767
O O7 0.028896 0.968372 0.814573
O O8 0.500000 0.500000 0.500000
O O9 0.377900 0.465523 0.349860
O O10 0.255498 0.187290 0.461450
O O11 0.500000 0.000000 0.500000
O O12 0.804024 0.576254 0.788730
O O13 0.885539 0.028391 0.647740
O O14 0.440503 0.253421 0.271373
O O15 0.444386 0.852644 0.220802
O O16 0.466675 0.563215 0.848653
O O17 0.500000 0.500000 0.000000
O O18 0.500000 0.000000 0.000000
#
# Coordination Sequence:
#
# PCOD9003142 Si02
#       8
#     2   2   2   2   2   2   2   2
#     4   9  19  35  55  84 119 155 199 249 293 340
#     4  10  21  38  61  87 116 153 195 241 298 353
#     4  11  22  36  54  80 117 164 213 253 289 332
#     4  10  21  37  58  85 119 162 200 234 282 341
#     4  11  22  38  60  85 120 163 203 244 291 354
#     4  11  23  42  69  95 119 148 188 246 310 373
#     4   9  19  34  54  82 118 159 202 243 285 335
#     4  11  23  40  63  90 119 154 197 248 307 358
#
# _framework density 20.969867000000001
#
# number of rings (size 3 to 8) (size 9 to 14) (size 15 to 20)
#    0.000    1.750    0.000    4.500    0.000   10.500 
#    0.000    5.000    0.000   15.000    0.000    0.000 
#    0.000    0.000    0.000    0.000    0.000    0.000 
#
# Total GULP energy -89245.193136 kJ/mol
# GULP energy per Si atom -5577.824571 kJ/mol
# Density = 2.092214 g / cm^3
# Si number density = 20.969867 Si / 1000 Ang^3
#
#
#
# Elastic Constant Matrix: (Units=GPa)
#
#
# Indices 1 2 3 4 5 6 
#
# 1 102.4601 48.8921 17.2988 8.3332 12.5881 22.7472
# 2 48.8921 167.8507 49.0061 32.5830 33.3908 2.6937
# 3 17.2988 49.0061 120.0861 23.2663 43.1870 -3.9005
# 4 8.3332 32.5830 23.2663 38.0442 9.0774 1.9724
# 5 12.5881 33.3908 43.1870 9.0774 38.2088 -2.3970
# 6 22.7472 2.6937 -3.9005 1.9724 -2.3970 39.6582
#
#
#
# Elastic Compliance Matrix: (Units=1/GPa)
#
#
# Indices 1 2 3 4 5 6 
#
# 1 0.013301 -0.003543 -0.000343 0.001115 -0.001638 -0.007577
# 2 -0.003543 0.009180 -0.000218 -0.005796 -0.005147 0.001364
# 3 -0.000343 -0.000218 0.015070 -0.005334 -0.015399 0.001028
# 4 0.001115 -0.005796 -0.005334 0.033776 0.002559 -0.002295
# 5 -0.001638 -0.005147 -0.015399 0.002559 0.048167 0.002559
# 6 -0.007577 0.001364 0.001028 -0.002295 0.002559 0.029839
#
#
# Mechanical properties :
#
#
# Convention : Reuss Voigt Hill
#
# Bulk Modulus (GPa) = 34.07852 68.97680 51.52766
# Shear Modulus (GPa) = 29.88230 41.52889 35.70560
#
# Velocity S-wave (km/s) = 3.77903 4.45501 4.13087
# Velocity P-wave (km/s) = 5.94372 7.70892 6.88314
#
# Compressibility (1/GPa) = 0.02934400
#
# Stress axis : x y z
#
# Youngs Moduli (GPa) = 75.18054 108.92780 66.35505
#
# Poissons Ratio (x) = 0.38595 0.02276
# Poissons Ratio (y) = 0.26638 0.01446
# Poissons Ratio (z) = 0.02579 0.02373
#
# Static dielectric constant tensor:
#      x y z
#    x 1.664160 0.040720 -0.003840 
#    y 0.040720 1.768660 -0.018210 
#    z -0.003840 -0.018210 1.770730 
# 
# From -- ./inp_files/592420.got.cif
#   From: 2010.05.17/outbox.cif.g08.bks.cpg/sg2_297_cif.got.tgz:592420.got - 2010.06.03 11:33:40.
