data_PCOD9003479
_publ_section_title
;
Structure prediction by ZEFSAII (Michael W. Deem and Ramdas Pophale) SiO2 
 PCOD9003479
Probable space group: P -1
;
_chemical_formula_sum "Si O2"
_cell_formula_units_Z 14
_cell_length_a 12.034278
_cell_length_b 13.964007
_cell_length_c 14.027983
_cell_angle_alpha 48.567007
_cell_angle_beta 50.832097
_cell_angle_gamma 21.411638
_cell_volume 644.172055
_symmetry_space_group_name_H-M "P -1"
_symmetry_group_IT_number 2
_symmetry_cell_setting 'triclinic'
loop_
_space_group_symop_operation_xyz
x,y,z
-x,-y,-z
loop_
_atom_site_type_symbol
_atom_site_label
_atom_site_fract_x
_atom_site_fract_y
_atom_site_fract_z
Si Si1 0.468628 0.510993 0.702474
Si Si2 0.751671 0.813324 0.567111
Si Si3 0.234648 0.844133 0.059344
Si Si4 0.453405 0.266527 0.545500
Si Si5 0.554858 0.898349 0.154632
Si Si6 0.735384 0.650636 0.864191
Si Si7 0.176565 0.009637 0.177180
O O1 0.647905 0.369220 0.801309
O O2 0.470204 0.645291 0.563259
O O3 0.640390 0.264199 0.715158
O O4 0.127441 0.736684 0.764261
O O5 0.696728 0.746224 0.719151
O O6 0.100126 0.529902 0.530531
O O7 0.500000 0.000000 0.500000
O O8 0.685351 0.000139 0.532439
O O9 0.102700 0.038778 0.087062
O O10 0.524374 0.693441 0.961843
O O11 0.000000 0.000000 0.000000
O O12 0.460562 0.200627 0.690033
O O13 0.397649 0.953900 0.113869
O O14 0.908947 0.651845 0.114807
O O15 0.371379 0.160036 0.126313
#
# Coordination Sequence:
#
# PCOD9003479 Si02
#       7
#     2   2   2   2   2   2   2
#     4  10  23  40  60  94 120 164 202 241 315 356
#     4  10  21  37  60  90 117 164 208 248 302 355
#     4  10  26  44  61  91 126 163 208 248 306 367
#     4  10  21  38  60  90 126 156 199 256 302 362
#     4  10  22  42  64  93 123 156 209 254 307 361
#     4  10  23  40  64  90 123 163 201 258 304 354
#     4  10  23  41  62  95 119 166 204 248 312 355
#
# _framework density 21.733322999999999
#
# number of rings (size 3 to 8) (size 9 to 14) (size 15 to 20)
#    0.857    1.143    0.000    2.143    4.000    2.857 
#    0.000    0.000    0.000    0.000    0.000    0.000 
#    0.000    0.000    0.000    0.000    0.000    0.000 
#
# Total GULP energy -78224.422930 kJ/mol
# GULP energy per Si atom -5587.458781 kJ/mol
# Density = 2.168386 g / cm^3
# Si number density = 21.733323 Si / 1000 Ang^3
#
#
#
# Elastic Constant Matrix: (Units=GPa)
#
#
# Indices 1 2 3 4 5 6 
#
# 1 82.1659 13.5676 23.9667 -6.4532 2.9505 -13.9466
# 2 13.5676 79.6827 7.3431 -4.7654 5.8142 15.3132
# 3 23.9667 7.3431 66.8382 -7.5947 -11.8914 4.6519
# 4 -6.4532 -4.7654 -7.5947 26.8806 -3.4744 -13.6810
# 5 2.9505 5.8142 -11.8914 -3.4744 28.4477 -8.7361
# 6 -13.9466 15.3132 4.6519 -13.6810 -8.7361 9.5882
#
#
#
# Elastic Compliance Matrix: (Units=1/GPa)
#
#
# Indices 1 2 3 4 5 6 
#
# 1 0.007746 0.004627 -0.005592 -0.014694 -0.014296 -0.027402
# 2 0.004627 0.007193 -0.001025 0.016573 0.007775 0.026470
# 3 -0.005592 -0.001025 0.019292 0.004601 0.009112 -0.000990
# 4 -0.014694 0.016573 0.004601 0.000992 -0.020498 -0.067336
# 5 -0.014296 0.007775 0.009112 -0.020498 0.021957 -0.046873
# 6 -0.027402 0.026470 -0.000990 -0.067336 -0.046873 -0.116145
#
#
# Mechanical properties :
#
#
# Convention : Reuss Voigt Hill
#
# Bulk Modulus (GPa) = 33.05725 35.38238 34.21981
# Shear Modulus (GPa) = -111.35503 25.23725 -43.05889
#
# Velocity S-wave (km/s) = -7.16577 3.41137 -4.45594
# Velocity P-wave (km/s) = 7.29526 5.64200 3.27022
#
# Compressibility (1/GPa) = 0.03025055
#
# Stress axis : x y z
#
# Youngs Moduli (GPa) = 129.10312 139.01778 51.83517
#
# Poissons Ratio (x) = -0.64320 0.28985
# Poissons Ratio (y) = -0.59733 0.05314
# Poissons Ratio (z) = 0.72191 0.14253
#
# Static dielectric constant tensor:
#      x y z
#    x 1.764930 0.007700 0.011550 
#    y 0.007700 1.761280 -0.022340 
#    z 0.011550 -0.022340 1.840980 
# 
# From -- ./inp_files/119202.got.cif
#   From: 2010.05.17/outbox.cif.g08.bks.cpg/sg2_60_cif.got.tgz:119202.got - 2010.06.03 11:33:40.
