data_PCOD9003498
_publ_section_title
;
Structure prediction by ZEFSAII (Michael W. Deem and Ramdas Pophale) SiO2 
 PCOD9003498
Probable space group: P -1
;
_chemical_formula_sum "Si O2"
_cell_formula_units_Z 14
_cell_length_a 15.136756
_cell_length_b 4.919748
_cell_length_c 21.077998
_cell_angle_alpha 75.438369
_cell_angle_beta 19.434730
_cell_angle_gamma 72.736489
_cell_volume 496.746838
_symmetry_space_group_name_H-M "P -1"
_symmetry_group_IT_number 2
_symmetry_cell_setting 'triclinic'
loop_
_space_group_symop_operation_xyz
x,y,z
-x,-y,-z
loop_
_atom_site_type_symbol
_atom_site_label
_atom_site_fract_x
_atom_site_fract_y
_atom_site_fract_z
Si Si1 0.248788 0.705247 0.191318
Si Si2 0.565437 0.700853 0.091599
Si Si3 0.405288 0.724350 0.406563
Si Si4 0.892560 0.270863 0.513338
Si Si5 0.126464 0.276047 0.002423
Si Si6 0.771688 0.857123 0.250884
Si Si7 0.932564 0.727618 0.285075
O O1 0.390774 0.858598 0.142221
O O2 0.079646 0.491715 0.353469
O O3 0.063490 0.858443 0.250113
O O4 0.500000 0.500000 0.000000
O O5 0.360192 0.564604 0.283410
O O6 0.702916 0.864053 0.043415
O O7 0.805266 0.476139 0.911887
O O8 0.206488 0.856935 0.477125
O O9 0.504787 0.903898 0.385634
O O10 0.263990 0.481476 0.545679
O O11 0.673765 0.616052 0.188863
O O12 0.000000 0.000000 0.500000
O O13 0.904179 0.529715 0.165690
O O14 0.982908 0.052595 0.077372
O O15 0.779504 0.896155 0.319366
#
# Coordination Sequence:
#
# PCOD9003498 Si02
#       7
#     2   2   2   2   2   2   2
#     4   9  18  36  59  86 122 161 208 263 320 380
#     4   9  19  37  59  87 124 168 213 263 318 382
#     4  10  21  40  63  95 130 170 218 273 328 388
#     4  10  21  37  60  91 124 167 217 268 326 391
#     4  10  23  41  68  97 130 174 222 269 324 389
#     4  11  22  44  67  96 133 176 218 269 326 391
#     4   9  20  39  63  92 130 172 218 269 327 389
#
# _framework density 28.18337
#
# number of rings (size 3 to 8) (size 9 to 14) (size 15 to 20)
#    0.000    2.286    0.000    1.714    0.000    6.857 
#    0.000   27.857    0.000    0.000    0.000    0.000 
#    0.000    0.000    0.000    0.000    0.000    0.000 
#
# Total GULP energy -78401.637823 kJ/mol
# GULP energy per Si atom -5600.116987 kJ/mol
# Density = 2.811922 g / cm^3
# Si number density = 28.183370 Si / 1000 Ang^3
#
#
#
# Elastic Constant Matrix: (Units=GPa)
#
#
# Indices 1 2 3 4 5 6 
#
# 1 301.9031 39.6975 77.6428 -4.0669 -26.5357 21.3276
# 2 39.6975 81.7399 36.8204 -12.3691 -4.7934 0.8859
# 3 77.6428 36.8204 140.3819 -17.2797 -0.7075 -12.3783
# 4 -4.0669 -12.3691 -17.2797 27.6913 2.4020 1.8243
# 5 -26.5357 -4.7934 -0.7075 2.4020 69.7865 -0.8908
# 6 21.3276 0.8859 -12.3783 1.8243 -0.8908 43.5988
#
#
#
# Elastic Compliance Matrix: (Units=1/GPa)
#
#
# Indices 1 2 3 4 5 6 
#
# 1 0.004437 -0.001080 -0.002581 -0.001396 0.001599 -0.002790
# 2 -0.001080 0.014744 -0.002752 0.004724 0.000402 -0.000742
# 3 -0.002581 -0.002752 0.010183 0.004585 -0.001174 0.003994
# 4 -0.001396 0.004724 0.004585 0.041005 -0.001569 0.000141
# 5 0.001599 0.000402 -0.001174 -0.001569 0.014998 -0.000752
# 6 -0.002790 -0.000742 0.003994 0.000141 -0.000752 0.025429
#
#
# Mechanical properties :
#
#
# Convention : Reuss Voigt Hill
#
# Bulk Modulus (GPa) = 60.45979 92.48290 76.47134
# Shear Modulus (GPa) = 38.71948 52.87293 45.79621
#
# Velocity S-wave (km/s) = 3.71056 4.33602 4.03542
# Velocity P-wave (km/s) = 6.31320 7.61275 6.99323
#
# Compressibility (1/GPa) = 0.01653992
#
# Stress axis : x y z
#
# Youngs Moduli (GPa) = 225.38909 67.82213 98.20212
#
# Poissons Ratio (x) = 0.07322 0.25341
# Poissons Ratio (y) = 0.24331 0.27027
# Poissons Ratio (z) = 0.58162 0.18666
#
# Static dielectric constant tensor:
#      x y z
#    x 2.241380 -0.011310 -0.033140 
#    y -0.011310 2.085930 0.057490 
#    z -0.033140 0.057490 2.311020 
# 
# From -- ./inp_files/596710.got.cif
#   From: 2010.05.17/outbox.cif.g08.bks.cpg/sg2_299_cif.got.tgz:596710.got - 2010.06.03 11:33:40.
