data_PCOD9003041
_publ_section_title
;
Structure prediction by ZEFSAII (Michael W. Deem and Ramdas Pophale) SiO2 
 PCOD9003041
Probable space group: P -1
;
_chemical_formula_sum "Si O2"
_cell_formula_units_Z 16
_cell_length_a 9.789664
_cell_length_b 13.836494
_cell_length_c 13.975857
_cell_angle_alpha 98.997070
_cell_angle_beta 93.827582
_cell_angle_gamma 25.990525
_cell_volume 807.386394
_symmetry_space_group_name_H-M "P -1"
_symmetry_group_IT_number 2
_symmetry_cell_setting 'triclinic'
loop_
_space_group_symop_operation_xyz
x,y,z
-x,-y,-z
loop_
_atom_site_type_symbol
_atom_site_label
_atom_site_fract_x
_atom_site_fract_y
_atom_site_fract_z
Si Si1 0.930854 0.181292 0.221014
Si Si2 0.284731 0.157172 0.800786
Si Si3 0.922448 0.633556 0.442329
Si Si4 0.301790 0.062118 0.377904
Si Si5 0.597853 0.717059 0.090656
Si Si6 0.642043 0.594126 0.750617
Si Si7 0.561525 0.094238 0.083572
Si Si8 0.226247 0.619780 0.949492
O O1 0.653663 0.287271 0.255074
O O2 0.789692 0.342949 0.157453
O O3 0.072340 0.147025 0.313436
O O4 0.233167 0.937357 0.143073
O O5 0.277508 0.279617 0.831432
O O6 0.921491 0.364869 0.793693
O O7 0.505620 0.991693 0.694849
O O8 0.458463 0.995273 0.874122
O O9 0.868916 0.766412 0.521882
O O10 0.000000 0.500000 0.500000
O O11 0.182798 0.486900 0.350884
O O12 0.590991 0.819475 0.404356
O O13 0.750056 0.512612 0.061947
O O14 0.631161 0.748223 0.994179
O O15 0.505324 0.778089 0.824169
O O16 0.912265 0.861973 0.022347
O O17 0.500000 0.500000 0.000000
#
# Coordination Sequence:
#
# PCOD9003041 Si02
#       8
#     2   2   2   2   2   2   2   2
#     4  10  22  39  58  86 119 155 195 237 282 342
#     4  10  21  37  57  84 115 151 194 241 288 341
#     4  10  21  41  65  87 112 146 187 241 300 349
#     4   9  21  40  61  84 115 148 189 238 293 350
#     4  10  22  37  56  82 117 158 198 237 284 339
#     4  11  23  37  59  86 115 150 193 238 288 346
#     4  11  21  34  55  83 117 154 197 243 284 333
#     4  11  22  37  57  83 122 164 196 234 285 337
#
# _framework density 19.817029000000002
#
# number of rings (size 3 to 8) (size 9 to 14) (size 15 to 20)
#    0.000    1.750    0.000    4.125    0.000   10.500 
#    0.000    0.625    0.000    0.000    0.000    0.000 
#    0.000    0.000    0.000    0.000    0.000    0.000 
#
# Total GULP energy -89292.995292 kJ/mol
# GULP energy per Si atom -5580.812206 kJ/mol
# Density = 1.977192 g / cm^3
# Si number density = 19.817029 Si / 1000 Ang^3
#
#
#
# Elastic Constant Matrix: (Units=GPa)
#
#
# Indices 1 2 3 4 5 6 
#
# 1 92.1859 57.3079 46.8127 -6.8892 9.3011 -11.1992
# 2 57.3079 104.5283 57.2887 -14.2967 1.3422 -0.5532
# 3 46.8127 57.2887 133.0637 -9.7953 11.1327 2.8020
# 4 -6.8892 -14.2967 -9.7953 30.7487 5.6614 -3.5688
# 5 9.3011 1.3422 11.1327 5.6614 27.1329 -2.7482
# 6 -11.1992 -0.5532 2.8020 -3.5688 -2.7482 31.2002
#
#
#
# Elastic Compliance Matrix: (Units=1/GPa)
#
#
# Indices 1 2 3 4 5 6 
#
# 1 0.018914 -0.008729 -0.002586 0.000951 -0.004523 0.006577
# 2 -0.008729 0.017166 -0.004234 0.003944 0.002881 -0.001744
# 3 -0.002586 -0.004234 0.010706 0.001311 -0.003788 -0.002148
# 4 0.000951 0.003944 0.001311 0.036970 -0.008390 0.003784
# 5 -0.004523 0.002881 -0.003788 -0.008390 0.041719 0.001483
# 6 0.006577 -0.001744 -0.002148 0.003784 0.001483 0.035137
#
#
# Mechanical properties :
#
#
# Convention : Reuss Voigt Hill
#
# Bulk Modulus (GPa) = 63.73915 72.51074 68.12494
# Shear Modulus (GPa) = 25.38852 29.04094 27.21473
#
# Velocity S-wave (km/s) = 3.58319 3.83228 3.70983
# Velocity P-wave (km/s) = 7.02515 7.50009 7.26650
#
# Compressibility (1/GPa) = 0.01568895
#
# Stress axis : x y z
#
# Youngs Moduli (GPa) = 52.87141 58.25391 93.40342
#
# Poissons Ratio (x) = 0.50852 0.24152
# Poissons Ratio (y) = 0.46153 0.39543
# Poissons Ratio (z) = 0.13671 0.24662
#
# Static dielectric constant tensor:
#      x y z
#    x 1.696180 -0.009950 -0.013790 
#    y -0.009950 1.747750 -0.017600 
#    z -0.013790 -0.017600 1.704410 
# 
# From -- ./inp_files/37228.got.cif
#   From: 2010.05.17/outbox.cif.g08.bks.cpg/sg2_19_cif.got.tgz:37228.got - 2010.06.03 11:33:40.
