data_PCOD9003728
_publ_section_title
;
Structure prediction by ZEFSAII (Michael W. Deem and Ramdas Pophale) SiO2 
 PCOD9003728
Probable space group: P -1
;
_chemical_formula_sum "Si O2"
_cell_formula_units_Z 6
_cell_length_a 9.722994
_cell_length_b 12.534545
_cell_length_c 5.423202
_cell_angle_alpha 116.221797
_cell_angle_beta 106.612667
_cell_angle_gamma 22.983221
_cell_volume 217.294024
_symmetry_space_group_name_H-M "P -1"
_symmetry_group_IT_number 2
_symmetry_cell_setting 'triclinic'
loop_
_space_group_symop_operation_xyz
x,y,z
-x,-y,-z
loop_
_atom_site_type_symbol
_atom_site_label
_atom_site_fract_x
_atom_site_fract_y
_atom_site_fract_z
Si Si1 0.257734 0.687492 0.319000
Si Si2 0.871719 0.795519 0.948787
Si Si3 0.380081 0.222810 0.748692
O O1 0.500000 0.500000 0.500000
O O2 0.999199 0.768888 0.227973
O O3 0.500000 0.500000 0.000000
O O4 0.000000 0.000000 0.500000
O O5 0.221607 0.441685 0.698549
O O6 0.500000 0.000000 0.000000
O O7 0.725004 0.998502 0.870646
O O8 0.500000 0.000000 0.500000
O O9 0.000000 0.500000 0.000000
#
# Coordination Sequence:
#
# PCOD9003728 Si02
#       3
#     2   2   2
#     4  12  28  50  74 107 150 195 240 299 370 437
#     4  10  23  43  70 102 137 185 240 295 351 426
#     4  10  21  37  61  97 133 170 223 290 347 403
#
# _framework density 27.612352999999999
#
# number of rings (size 3 to 8) (size 9 to 14) (size 15 to 20)
#    0.000    1.333    0.000    4.000    0.000   16.000 
#    0.000    0.000    0.000    0.000    0.000    0.000 
#    0.000    0.000    0.000    0.000    0.000    0.000 
#
# Total GULP energy -33583.031830 kJ/mol
# GULP energy per Si atom -5597.171972 kJ/mol
# Density = 2.754951 g / cm^3
# Si number density = 27.612353 Si / 1000 Ang^3
#
#
#
# Elastic Constant Matrix: (Units=GPa)
#
#
# Indices 1 2 3 4 5 6 
#
# 1 115.0669 61.6245 52.1732 -0.4187 19.1974 -26.9899
# 2 61.6245 350.3370 118.7663 -6.0662 31.5203 36.9878
# 3 52.1732 118.7663 203.5101 12.2140 22.2453 0.7142
# 4 -0.4187 -6.0662 12.2140 81.5139 4.4884 19.1727
# 5 19.1974 31.5203 22.2453 4.4884 59.8285 -4.7712
# 6 -26.9899 36.9878 0.7142 19.1727 -4.7712 53.1299
#
#
#
# Elastic Compliance Matrix: (Units=1/GPa)
#
#
# Indices 1 2 3 4 5 6 
#
# 1 0.013215 -0.002663 -0.001598 -0.001975 -0.001363 0.009179
# 2 -0.002663 0.004763 -0.002036 0.002023 -0.001489 -0.005505
# 3 -0.001598 -0.002036 0.006668 -0.001339 -0.000718 0.000935
# 4 -0.001975 0.002023 -0.001339 0.014531 -0.001645 -0.007785
# 5 -0.001363 -0.001489 -0.000718 -0.001645 0.018535 0.002612
# 6 0.009179 -0.005505 0.000935 -0.007785 0.002612 0.030349
#
#
# Mechanical properties :
#
#
# Convention : Reuss Voigt Hill
#
# Bulk Modulus (GPa) = 82.98990 126.00467 104.49728
# Shear Modulus (GPa) = 47.76792 67.98444 57.87618
#
# Velocity S-wave (km/s) = 4.16378 4.96734 4.58320
# Velocity P-wave (km/s) = 7.29634 8.86746 8.11999
#
# Compressibility (1/GPa) = 0.01204966
#
# Stress axis : x y z
#
# Youngs Moduli (GPa) = 75.67260 209.93061 149.97925
#
# Poissons Ratio (x) = 0.55912 0.23971
# Poissons Ratio (y) = 0.20154 0.30543
# Poissons Ratio (z) = 0.12094 0.42752
#
# Static dielectric constant tensor:
#      x y z
#    x 2.632040 0.115150 -0.319940 
#    y 0.115150 2.371990 -0.131670 
#    z -0.319940 -0.131670 2.511800 
# 
# From -- ./inp_files/1235.got.cif
#   From: 2010.05.17/outbox.cif.g08.bks.cpg/sg2_1_cif.got.tgz:1235.got - 2010.06.03 11:33:40.
