data_PCOD9003565
_publ_section_title
;
Structure prediction by ZEFSAII (Michael W. Deem and Ramdas Pophale) SiO2 
 PCOD9003565
Probable space group: P -1
;
_chemical_formula_sum "Si O2"
_cell_formula_units_Z 14
_cell_length_a 13.462104
_cell_length_b 9.058613
_cell_length_c 9.066667
_cell_angle_alpha 135.235111
_cell_angle_beta 52.160565
_cell_angle_gamma 105.632083
_cell_volume 586.827543
_symmetry_space_group_name_H-M "P -1"
_symmetry_group_IT_number 2
_symmetry_cell_setting 'triclinic'
loop_
_space_group_symop_operation_xyz
x,y,z
-x,-y,-z
loop_
_atom_site_type_symbol
_atom_site_label
_atom_site_fract_x
_atom_site_fract_y
_atom_site_fract_z
Si Si1 0.000885 0.766366 0.394774
Si Si2 0.023383 0.203403 0.213342
Si Si3 0.429449 0.173290 0.469462
Si Si4 0.304972 0.971807 0.699625
Si Si5 0.228079 0.553394 0.522052
Si Si6 0.296834 0.115203 0.255586
Si Si7 0.258191 0.641832 0.900828
O O1 0.134287 0.617046 0.092368
O O2 0.007566 0.790198 0.581795
O O3 0.857134 0.754996 0.468484
O O4 0.000000 0.000000 0.500000
O O5 0.919843 0.410787 0.378696
O O6 0.177971 0.151447 0.009919
O O7 0.000000 0.000000 0.000000
O O8 0.346168 0.077419 0.592564
O O9 0.397311 0.099668 0.285858
O O10 0.576567 0.088264 0.334489
O O11 0.380639 0.437597 0.692452
O O12 0.277114 0.739191 0.525862
O O13 0.315577 0.300162 0.256243
O O14 0.227394 0.626139 0.745079
O O15 0.288900 0.873496 0.055034
#
# Coordination Sequence:
#
# PCOD9003565 Si02
#       7
#     2   2   2   2   2   2   2
#     4  10  21  37  61 101 132 161 217 266 322 388
#     4  10  21  38  66  94 131 170 204 275 325 373
#     4  10  24  43  67  91 131 182 209 266 323 387
#     4  10  22  43  64  95 131 172 223 257 322 394
#     4  10  23  41  67  97 130 172 211 270 331 375
#     4  10  22  39  65  94 126 174 213 259 330 379
#     4  10  23  43  65 101 131 166 219 269 319 394
#
# _framework density 23.857094
#
# number of rings (size 3 to 8) (size 9 to 14) (size 15 to 20)
#    0.000    2.000    0.000    3.429   12.000    4.000 
#    2.571    9.286    0.000    0.000    0.000    0.000 
#    0.000    0.000    0.000    0.000    0.000    0.000 
#
# Total GULP energy -78259.727151 kJ/mol
# GULP energy per Si atom -5589.980511 kJ/mol
# Density = 2.380279 g / cm^3
# Si number density = 23.857094 Si / 1000 Ang^3
#
#
#
# Elastic Constant Matrix: (Units=GPa)
#
#
# Indices 1 2 3 4 5 6 
#
# 1 122.9557 56.4645 42.1927 18.8205 -2.3811 -27.9485
# 2 56.4645 150.1725 63.4849 24.7492 -2.9554 -11.8524
# 3 42.1927 63.4849 100.2998 12.9629 -0.5142 -9.6153
# 4 18.8205 24.7492 12.9629 47.6122 3.1615 1.7848
# 5 -2.3811 -2.9554 -0.5142 3.1615 33.9382 16.5438
# 6 -27.9485 -11.8524 -9.6153 1.7848 16.5438 44.0574
#
#
#
# Elastic Compliance Matrix: (Units=1/GPa)
#
#
# Indices 1 2 3 4 5 6 
#
# 1 0.012319 -0.002545 -0.002452 -0.002977 -0.002926 0.007814
# 2 -0.002545 0.010246 -0.005042 -0.003007 0.001026 -0.000222
# 3 -0.002452 -0.005042 0.014266 -0.000272 -0.000579 0.000430
# 4 -0.002977 -0.003007 -0.000272 0.024014 -0.001094 -0.003319
# 5 -0.002926 0.001026 -0.000579 -0.001094 0.037031 -0.015568
# 6 0.007814 -0.000222 0.000430 -0.003319 -0.015568 0.033669
#
#
# Mechanical properties :
#
#
# Convention : Reuss Voigt Hill
#
# Bulk Modulus (GPa) = 59.69366 77.52358 68.60862
# Shear Modulus (GPa) = 31.80524 39.20729 35.50627
#
# Velocity S-wave (km/s) = 3.65520 4.05831 3.86202
# Velocity P-wave (km/s) = 6.54902 7.38413 6.97908
#
# Compressibility (1/GPa) = 0.01675220
#
# Stress axis : x y z
#
# Youngs Moduli (GPa) = 81.17848 97.60309 70.09610
#
# Poissons Ratio (x) = 0.24843 0.17188
# Poissons Ratio (y) = 0.20663 0.35340
# Poissons Ratio (z) = 0.19905 0.49208
#
# Static dielectric constant tensor:
#      x y z
#    x 1.921410 0.066090 -0.039250 
#    y 0.066090 1.961200 -0.023640 
#    z -0.039250 -0.023640 1.993580 
# 
# From -- ./inp_files/245756.got.cif
#   From: 2010.05.17/outbox.cif.g08.bks.cpg/sg2_123_cif.got.tgz:245756.got - 2010.06.03 11:33:40.
