data_PCOD9003512
_publ_section_title
;
Structure prediction by ZEFSAII (Michael W. Deem and Ramdas Pophale) SiO2 
 PCOD9003512
Probable space group: P -1
;
_chemical_formula_sum "Si O2"
_cell_formula_units_Z 14
_cell_length_a 9.811417
_cell_length_b 18.422739
_cell_length_c 8.142033
_cell_angle_alpha 143.292082
_cell_angle_beta 118.654283
_cell_angle_gamma 49.436818
_cell_volume 665.450549
_symmetry_space_group_name_H-M "P -1"
_symmetry_group_IT_number 2
_symmetry_cell_setting 'triclinic'
loop_
_space_group_symop_operation_xyz
x,y,z
-x,-y,-z
loop_
_atom_site_type_symbol
_atom_site_label
_atom_site_fract_x
_atom_site_fract_y
_atom_site_fract_z
Si Si1 0.639531 0.353360 0.528239
Si Si2 0.793929 0.873928 0.864230
Si Si3 0.479357 0.183475 0.260437
Si Si4 0.364375 0.153881 0.774092
Si Si5 0.942720 0.864405 0.574116
Si Si6 0.521626 0.328011 0.042458
Si Si7 0.904370 0.110831 0.790448
O O1 0.527152 0.304755 0.487856
O O2 0.848655 0.249897 0.499307
O O3 0.600529 0.332525 0.277280
O O4 0.578602 0.516002 0.804178
O O5 0.420249 0.160691 0.004117
O O6 0.083804 0.985889 0.223263
O O7 0.977691 0.817680 0.969624
O O8 0.845167 0.877977 0.714149
O O9 0.657480 0.034722 0.135764
O O10 0.316566 0.206051 0.322798
O O11 0.500000 0.000000 0.500000
O O12 0.393402 0.264408 0.886423
O O13 0.304341 0.778178 0.155534
O O14 0.833970 0.823647 0.309875
O O15 0.000000 0.000000 0.500000
#
# Coordination Sequence:
#
# PCOD9003512 Si02
#       7
#     2   2   2   2   2   2   2
#     4  10  21  42  64  89 123 168 207 244 307 379
#     4  11  21  35  64  91 121 159 213 255 300 362
#     4  10  21  37  60  92 123 160 202 258 310 358
#     4  11  20  35  61  92 124 157 204 262 305 352
#     4  12  21  38  66  91 121 162 209 255 300 369
#     4  10  22  39  65  89 126 165 203 251 312 365
#     4  12  23  37  64  97 124 156 210 261 307 357
#
# _framework density 21.038377000000001
#
# number of rings (size 3 to 8) (size 9 to 14) (size 15 to 20)
#    0.000    1.143    5.714    2.143    0.000    0.571 
#    0.000    1.429    3.143    0.000    0.000    0.000 
#    0.000    0.000    0.000    0.000    0.000    0.000 
#
# Total GULP energy -78319.815270 kJ/mol
# GULP energy per Si atom -5594.272519 kJ/mol
# Density = 2.099049 g / cm^3
# Si number density = 21.038377 Si / 1000 Ang^3
#
#
#
# Elastic Constant Matrix: (Units=GPa)
#
#
# Indices 1 2 3 4 5 6 
#
# 1 138.1957 38.0502 30.5279 17.2643 22.0031 10.8138
# 2 38.0502 76.7527 28.3206 26.1297 21.2337 -6.8516
# 3 30.5279 28.3206 52.1694 17.1712 16.2311 2.2921
# 4 17.2643 26.1297 17.1712 40.1684 4.7508 6.4351
# 5 22.0031 21.2337 16.2311 4.7508 41.7741 -5.6185
# 6 10.8138 -6.8516 2.2921 6.4351 -5.6185 33.4029
#
#
#
# Elastic Compliance Matrix: (Units=1/GPa)
#
#
# Indices 1 2 3 4 5 6 
#
# 1 0.009511 -0.003382 -0.002773 0.000287 -0.002798 -0.004109
# 2 -0.003382 0.022767 -0.005160 -0.011700 -0.005452 0.007456
# 3 -0.002773 -0.005160 0.027661 -0.006237 -0.006211 -0.001902
# 4 0.000287 -0.011700 -0.006237 0.036061 0.002973 -0.008512
# 5 -0.002798 -0.005452 -0.006211 0.002973 0.030910 0.004840
# 6 -0.004109 0.007456 -0.001902 -0.008512 0.004840 0.035381
#
#
# Mechanical properties :
#
#
# Convention : Reuss Voigt Hill
#
# Bulk Modulus (GPa) = 26.80386 51.21279 39.00833
# Shear Modulus (GPa) = 25.33485 34.41703 29.87594
#
# Velocity S-wave (km/s) = 3.47395 4.04903 3.77247
# Velocity P-wave (km/s) = 5.37208 6.80110 6.12839
#
# Compressibility (1/GPa) = 0.03730805
#
# Stress axis : x y z
#
# Youngs Moduli (GPa) = 105.14044 43.92370 36.15241
#
# Poissons Ratio (x) = 0.14856 0.10024
# Poissons Ratio (y) = 0.35561 0.18655
# Poissons Ratio (z) = 0.29153 0.22665
#
# Static dielectric constant tensor:
#      x y z
#    x 1.768860 0.024360 -0.003150 
#    y 0.024360 1.748550 -0.049950 
#    z -0.003150 -0.049950 1.776410 
# 
# From -- ./inp_files/282575.got.cif
#   From: 2010.05.17/outbox.cif.g08.bks.cpg/sg2_142_cif.got.tgz:282575.got - 2010.06.03 11:33:40.
