data_PCOD9003100
_publ_section_title
;
Structure prediction by ZEFSAII (Michael W. Deem and Ramdas Pophale) SiO2 
 PCOD9003100
Probable space group: P -1
;
_chemical_formula_sum "Si O2"
_cell_formula_units_Z 16
_cell_length_a 11.427796
_cell_length_b 20.574344
_cell_length_c 9.045531
_cell_angle_alpha 88.654233
_cell_angle_beta 93.886649
_cell_angle_gamma 157.230642
_cell_volume 817.015970
_symmetry_space_group_name_H-M "P -1"
_symmetry_group_IT_number 2
_symmetry_cell_setting 'triclinic'
loop_
_space_group_symop_operation_xyz
x,y,z
-x,-y,-z
loop_
_atom_site_type_symbol
_atom_site_label
_atom_site_fract_x
_atom_site_fract_y
_atom_site_fract_z
Si Si1 0.764286 0.093594 0.937462
Si Si2 0.168486 0.416510 0.877243
Si Si3 0.015748 0.605206 0.422031
Si Si4 0.994852 0.975755 0.247644
Si Si5 0.498208 0.862397 0.701572
Si Si6 0.034313 0.584022 0.910731
Si Si7 0.623253 0.338069 0.633265
Si Si8 0.159622 0.181521 0.058372
O O1 0.056162 0.287354 0.914112
O O2 0.634155 0.996242 0.779943
O O3 0.889184 0.096381 0.042336
O O4 0.500000 0.000000 0.000000
O O5 0.519489 0.616909 0.914849
O O6 0.068104 0.384618 0.705660
O O7 0.983914 0.367668 0.977780
O O8 0.248033 0.747083 0.561535
O O9 0.186554 0.631715 0.358367
O O10 0.717544 0.423692 0.487795
O O11 0.724265 0.849461 0.345698
O O12 0.872425 0.873367 0.097638
O O13 0.246306 0.056867 0.334847
O O14 0.124731 0.109419 0.186177
O O15 0.336538 0.742013 0.830525
O O16 0.765296 0.451069 0.775643
O O17 0.000000 0.500000 0.000000
#
# Coordination Sequence:
#
# PCOD9003100 Si02
#       8
#     2   2   2   2   2   2   2   2
#     4  11  24  41  65  90 121 165 214 255 298 359
#     4  12  22  40  64  88 124 168 205 254 301 360
#     4  10  24  38  60  92 130 165 201 240 317 380
#     4  10  21  37  66  91 131 154 198 265 315 354
#     4  10  23  42  58  95 128 158 205 252 307 373
#     4  11  19  33  64  89 120 155 202 253 306 360
#     4  10  21  37  57  93 126 162 195 246 315 373
#     4  10  23  38  62 101 120 155 209 261 310 357
#
# _framework density 19.583459999999999
#
# number of rings (size 3 to 8) (size 9 to 14) (size 15 to 20)
#    0.000    1.500    3.750    1.125    8.750    1.000 
#    0.000    0.000    0.000    3.750    0.000    0.000 
#    0.000    0.000    0.000    0.000    0.000    0.000 
#
# Total GULP energy -89367.250333 kJ/mol
# GULP energy per Si atom -5585.453146 kJ/mol
# Density = 1.953889 g / cm^3
# Si number density = 19.583460 Si / 1000 Ang^3
#
#
#
# Elastic Constant Matrix: (Units=GPa)
#
#
# Indices 1 2 3 4 5 6 
#
# 1 80.8389 32.2424 29.3701 -5.8689 -0.9909 -1.9082
# 2 32.2424 118.0697 26.3744 -2.6383 -6.1654 -2.5037
# 3 29.3701 26.3744 68.4447 7.5434 -2.0624 4.8147
# 4 -5.8689 -2.6383 7.5434 28.4926 6.1117 -11.8877
# 5 -0.9909 -6.1654 -2.0624 6.1117 21.2204 -1.7625
# 6 -1.9082 -2.5037 4.8147 -11.8877 -1.7625 36.8332
#
#
#
# Elastic Compliance Matrix: (Units=1/GPa)
#
#
# Indices 1 2 3 4 5 6 
#
# 1 0.016709 -0.002839 -0.007217 0.007225 -0.002509 0.003828
# 2 -0.002839 0.010049 -0.002813 0.001181 0.002289 0.001394
# 3 -0.007217 -0.002813 0.020521 -0.010618 0.003357 -0.006514
# 4 0.007225 0.001181 -0.010618 0.049505 -0.013182 0.017189
# 5 -0.002509 0.002289 0.003357 -0.013182 0.051613 -0.002198
# 6 0.003828 0.001394 -0.006514 0.017189 -0.002198 0.033736
#
#
# Mechanical properties :
#
#
# Convention : Reuss Voigt Hill
#
# Bulk Modulus (GPa) = 46.42561 49.25856 47.84209
# Shear Modulus (GPa) = 23.25036 29.26700 26.25868
#
# Velocity S-wave (km/s) = 3.44938 3.87004 3.66575
# Velocity P-wave (km/s) = 6.29463 6.72141 6.51152
#
# Compressibility (1/GPa) = 0.02153983
#
# Stress axis : x y z
#
# Youngs Moduli (GPa) = 59.84874 99.51441 48.73114
#
# Poissons Ratio (x) = 0.28253 0.35169
# Poissons Ratio (y) = 0.16992 0.13709
# Poissons Ratio (z) = 0.43192 0.27995
#
# Static dielectric constant tensor:
#      x y z
#    x 1.667180 0.001900 -0.009580 
#    y 0.001900 1.736320 0.024850 
#    z -0.009580 0.024850 1.693440 
# 
# From -- ./inp_files/208301.got.cif
#   From: 2010.05.17/outbox.cif.g08.bks.cpg/sg2_105_cif.got.tgz:208301.got - 2010.06.03 11:33:40.
