data_PCOD9003389
_publ_section_title
;
Structure prediction by ZEFSAII (Michael W. Deem and Ramdas Pophale) SiO2 
 PCOD9003389
Probable space group: P -1
;
_chemical_formula_sum "Si O2"
_cell_formula_units_Z 16
_cell_length_a 11.033056
_cell_length_b 7.954838
_cell_length_c 12.964346
_cell_angle_alpha 47.844562
_cell_angle_beta 126.503939
_cell_angle_gamma 127.791713
_cell_volume 632.990369
_symmetry_space_group_name_H-M "P -1"
_symmetry_group_IT_number 2
_symmetry_cell_setting 'triclinic'
loop_
_space_group_symop_operation_xyz
x,y,z
-x,-y,-z
loop_
_atom_site_type_symbol
_atom_site_label
_atom_site_fract_x
_atom_site_fract_y
_atom_site_fract_z
Si Si1 0.762949 0.740382 0.553726
Si Si2 0.139043 0.058241 0.892841
Si Si3 0.408607 0.846051 0.116559
Si Si4 0.762502 0.011357 0.257905
Si Si5 0.572848 0.279022 0.513078
Si Si6 0.519783 0.741219 0.756474
Si Si7 0.121407 0.363930 0.141946
Si Si8 0.726726 0.489552 0.092733
O O1 0.835595 0.952948 0.421949
O O2 0.695018 0.490390 0.557229
O O3 0.610767 0.767382 0.525997
O O4 0.888517 0.737171 0.706021
O O5 0.191506 0.084765 0.786958
O O6 0.152900 0.292511 0.868939
O O7 0.956023 0.866787 0.877272
O O8 0.281531 0.964406 0.045591
O O9 0.570293 0.862966 0.249115
O O10 0.297407 0.572032 0.151002
O O11 0.213206 0.704494 0.853001
O O12 0.500000 0.000000 0.000000
O O13 0.573877 0.346151 0.364230
O O14 0.601492 0.027812 0.654683
O O15 0.393248 0.676696 0.812837
O O16 0.635499 0.606525 0.917639
O O17 0.000000 0.500000 0.000000
#
# Coordination Sequence:
#
# PCOD9003389 Si02
#       8
#     2   2   2   2   2   2   2   2
#     4  11  22  37  65  93 129 176 223 281 338 403
#     4  10  23  40  65  94 138 181 219 271 328 404
#     4   9  18  36  65  95 124 163 220 277 324 385
#     4  11  22  40  67 103 129 173 232 281 340 394
#     4  10  21  37  63  96 135 165 220 293 351 388
#     4  10  21  37  59  98 137 170 217 288 347 396
#     4  10  23  39  63  93 132 178 224 271 336 409
#     4  11  22  38  65  97 137 178 223 277 337 406
#
# _framework density 25.276845000000002
#
# number of rings (size 3 to 8) (size 9 to 14) (size 15 to 20)
#    0.000    1.750    1.250    3.750    3.500    6.500 
#    0.000    0.625    5.500   15.750    0.000    0.000 
#    0.000    0.000    0.000    0.000    0.000    0.000 
#
# Total GULP energy -89390.049040 kJ/mol
# GULP energy per Si atom -5586.878065 kJ/mol
# Density = 2.521931 g / cm^3
# Si number density = 25.276845 Si / 1000 Ang^3
#
#
#
# Elastic Constant Matrix: (Units=GPa)
#
#
# Indices 1 2 3 4 5 6 
#
# 1 78.1678 24.8557 35.5257 6.6213 -11.5200 15.1216
# 2 24.8557 167.1260 31.5363 1.5539 4.4667 2.7033
# 3 35.5257 31.5363 192.6148 0.8370 -7.7433 -7.3763
# 4 6.6213 1.5539 0.8370 38.9976 5.1185 -1.8641
# 5 -11.5200 4.4667 -7.7433 5.1185 36.0490 11.9277
# 6 15.1216 2.7033 -7.3763 -1.8641 11.9277 37.6139
#
#
#
# Elastic Compliance Matrix: (Units=1/GPa)
#
#
# Indices 1 2 3 4 5 6 
#
# 1 0.019163 -0.002292 -0.003171 -0.005004 0.010300 -0.011675
# 2 -0.002292 0.006489 -0.000687 0.000467 -0.002082 0.001004
# 3 -0.003171 -0.000687 0.005965 0.000653 -0.000643 0.002730
# 4 -0.005004 0.000467 0.000653 0.027706 -0.007376 0.005818
# 5 0.010300 -0.002082 -0.000643 -0.007376 0.037630 -0.016416
# 6 -0.011675 0.001004 0.002730 0.005818 -0.016416 0.037237
#
#
# Mechanical properties :
#
#
# Convention : Reuss Voigt Hill
#
# Bulk Modulus (GPa) = 51.76365 69.08266 60.42315
# Shear Modulus (GPa) = 32.69506 45.59816 39.14661
#
# Velocity S-wave (km/s) = 3.60040 4.25190 3.93964
# Velocity P-wave (km/s) = 6.14874 7.17598 6.68212
#
# Compressibility (1/GPa) = 0.01931858
#
# Stress axis : x y z
#
# Youngs Moduli (GPa) = 52.18346 154.10544 167.64919
#
# Poissons Ratio (x) = 0.35316 0.53153
# Poissons Ratio (y) = 0.11959 0.11519
# Poissons Ratio (z) = 0.16545 0.10588
#
# Static dielectric constant tensor:
#      x y z
#    x 2.094480 0.030510 -0.007520 
#    y 0.030510 2.048140 -0.001400 
#    z -0.007520 -0.001400 2.083520 
# 
# From -- ./inp_files/446820.got.cif
#   From: 2010.05.17/outbox.cif.g08.bks.cpg/sg2_224_cif.got.tgz:446820.got - 2010.06.03 11:33:40.
