data_PCOD9003286
_publ_section_title
;
Structure prediction by ZEFSAII (Michael W. Deem and Ramdas Pophale) SiO2 
 PCOD9003286
Probable space group: P -1
;
_chemical_formula_sum "Si O2"
_cell_formula_units_Z 14
_cell_length_a 6.898979
_cell_length_b 8.698700
_cell_length_c 14.177724
_cell_angle_alpha 53.250057
_cell_angle_beta 93.026391
_cell_angle_gamma 74.275216
_cell_volume 630.221030
_symmetry_space_group_name_H-M "P -1"
_symmetry_group_IT_number 2
_symmetry_cell_setting 'triclinic'
loop_
_space_group_symop_operation_xyz
x,y,z
-x,-y,-z
loop_
_atom_site_type_symbol
_atom_site_label
_atom_site_fract_x
_atom_site_fract_y
_atom_site_fract_z
Si Si1 0.565940 0.132209 0.375230
Si Si2 0.053101 0.276560 0.964220
Si Si3 0.017185 0.041940 0.656089
Si Si4 0.783069 0.751114 0.822992
Si Si5 0.424596 0.554894 0.322042
Si Si6 0.963934 0.890054 0.159673
Si Si7 0.773649 0.494183 0.476031
O O1 0.808274 0.027191 0.393401
O O2 0.436492 0.143189 0.272388
O O3 0.504410 0.370280 0.317556
O O4 0.500000 0.000000 0.500000
O O5 0.894931 0.512525 0.882144
O O6 0.132436 0.215095 0.882356
O O7 0.218460 0.241533 0.066144
O O8 0.936929 0.119673 0.042856
O O9 0.928767 0.868398 0.745223
O O10 0.100836 0.097132 0.737783
O O11 0.829431 0.251261 0.544083
O O12 0.215499 0.748308 0.217340
O O13 0.613964 0.613550 0.346057
O O14 0.347525 0.458846 0.445640
O O15 0.000000 0.500000 0.500000
#
# Coordination Sequence:
#
# PCOD9003286 Si02
#       7
#     2   2   2   2   2   2   2
#     4  12  24  39  63  93 130 168 206 258 317 374
#     4   9  18  38  70  89 122 171 207 257 320 364
#     4  10  23  39  61  96 128 160 213 256 309 383
#     4  10  21  40  66  94 128 166 206 259 318 371
#     4  10  21  37  59  87 121 162 205 252 307 370
#     4   9  18  39  66  92 123 165 212 259 310 370
#     4  10  21  38  59  86 123 164 204 254 306 370
#
# _framework density 22.214428999999999
#
# number of rings (size 3 to 8) (size 9 to 14) (size 15 to 20)
#    0.000    2.000    1.429    1.714    0.000    8.000 
#    0.000    7.143    0.000    0.000    0.000    0.000 
#    0.000    0.000    0.000    0.000    0.000    0.000 
#
# Total GULP energy -78166.714415 kJ/mol
# GULP energy per Si atom -5583.336744 kJ/mol
# Density = 2.216387 g / cm^3
# Si number density = 22.214429 Si / 1000 Ang^3
#
#
#
# Elastic Constant Matrix: (Units=GPa)
#
#
# Indices 1 2 3 4 5 6 
#
# 1 83.4880 32.1398 26.2843 8.3604 12.4595 -3.0537
# 2 32.1398 119.7402 18.1252 -3.8748 -1.3999 -2.4807
# 3 26.2843 18.1252 75.5606 -7.8567 17.7132 4.9268
# 4 8.3604 -3.8748 -7.8567 34.9784 8.0377 -0.8932
# 5 12.4595 -1.3999 17.7132 8.0377 28.1504 6.5080
# 6 -3.0537 -2.4807 4.9268 -0.8932 6.5080 35.3263
#
#
#
# Elastic Compliance Matrix: (Units=1/GPa)
#
#
# Indices 1 2 3 4 5 6 
#
# 1 0.015852 -0.003735 -0.004316 -0.004238 -0.003809 0.002304
# 2 -0.003735 0.009661 -0.001591 0.000954 0.002844 0.000077
# 3 -0.004316 -0.001591 0.018810 0.007840 -0.012085 -0.000684
# 4 -0.004238 0.000954 0.007840 0.034582 -0.013332 0.001938
# 5 -0.003809 0.002844 -0.012085 -0.013332 0.050637 -0.008110
# 6 0.002304 0.000077 -0.000684 0.001938 -0.008110 0.030150
#
#
# Mechanical properties :
#
#
# Convention : Reuss Voigt Hill
#
# Bulk Modulus (GPa) = 39.93900 47.98750 43.96325
# Shear Modulus (GPa) = 26.69205 33.17364 29.93284
#
# Velocity S-wave (km/s) = 3.47012 3.86856 3.67475
# Velocity P-wave (km/s) = 5.83725 6.45006 6.15129
#
# Compressibility (1/GPa) = 0.02503818
#
# Stress axis : x y z
#
# Youngs Moduli (GPa) = 63.08483 103.51393 53.16263
#
# Poissons Ratio (x) = 0.38666 0.22946
# Poissons Ratio (y) = 0.23565 0.08456
# Poissons Ratio (z) = 0.27229 0.16464
#
# Static dielectric constant tensor:
#      x y z
#    x 1.829740 0.065070 0.015600 
#    y 0.065070 1.827320 0.029600 
#    z 0.015600 0.029600 1.853910 
# 
# From -- ./inp_files/186405.got.cif
#   From: 2010.05.17/outbox.cif.g08.bks.cpg/sg2_94_cif.got.tgz:186405.got - 2010.06.03 11:33:40.
