data_PCOD9003551
_publ_section_title
;
Structure prediction by ZEFSAII (Michael W. Deem and Ramdas Pophale) SiO2 
 PCOD9003551
Probable space group: P -1
;
_chemical_formula_sum "Si O2"
_cell_formula_units_Z 16
_cell_length_a 14.395389
_cell_length_b 5.466221
_cell_length_c 21.392732
_cell_angle_alpha 72.303486
_cell_angle_beta 152.734556
_cell_angle_gamma 98.328044
_cell_volume 703.717984
_symmetry_space_group_name_H-M "P -1"
_symmetry_group_IT_number 2
_symmetry_cell_setting 'triclinic'
loop_
_space_group_symop_operation_xyz
x,y,z
-x,-y,-z
loop_
_atom_site_type_symbol
_atom_site_label
_atom_site_fract_x
_atom_site_fract_y
_atom_site_fract_z
Si Si1 0.553752 0.606084 0.091166
Si Si2 0.792457 0.889895 0.627983
Si Si3 0.826471 0.261121 0.895498
Si Si4 0.843248 0.927872 0.187286
Si Si5 0.535529 0.246792 0.219256
Si Si6 0.938816 0.432396 0.072965
Si Si7 0.761994 0.437279 0.572756
Si Si8 0.374592 0.363260 0.649769
O O1 0.606723 0.365372 0.189998
O O2 0.727106 0.764881 0.173781
O O3 0.500000 0.500000 0.000000
O O4 0.343558 0.832433 0.971354
O O5 0.925037 0.739688 0.777502
O O6 0.674920 0.700089 0.540261
O O7 0.980739 0.936151 0.691835
O O8 0.656333 0.195874 0.534323
O O9 0.895873 0.481353 0.880053
O O10 0.584564 0.288977 0.737279
O O11 0.842128 0.266112 0.979315
O O12 0.000000 0.000000 0.000000
O O13 0.995909 0.715403 0.247853
O O14 0.605324 0.412490 0.305352
O O15 0.629765 0.925251 0.304832
O O16 0.275594 0.331957 0.056189
O O17 0.793837 0.508781 0.514331
#
# Coordination Sequence:
#
# PCOD9003551 Si02
#       8
#     2   2   2   2   2   2   2   2
#     4  11  22  37  63  96 124 149 199 260 306 344
#     4  10  21  38  66  85 117 160 203 245 292 359
#     4  10  21  37  61  90 127 152 193 258 304 349
#     4   9  22  36  62  87 126 153 198 251 301 349
#     4  11  23  38  64  91 120 158 202 247 300 363
#     4  10  21  37  60  96 118 154 201 250 309 350
#     4  10  22  42  61  85 119 172 199 240 294 356
#     4  11  24  42  62  86 124 165 203 238 298 366
#
# _framework density 22.736378999999999
#
# number of rings (size 3 to 8) (size 9 to 14) (size 15 to 20)
#    0.750    1.000    2.500    1.500    5.250    0.000 
#    0.000    2.500    0.000    0.000    0.000    0.000 
#    0.000    0.000    0.000    0.000    0.000    0.000 
#
# Total GULP energy -89097.779521 kJ/mol
# GULP energy per Si atom -5568.611220 kJ/mol
# Density = 2.268463 g / cm^3
# Si number density = 22.736379 Si / 1000 Ang^3
#
#
#
# Elastic Constant Matrix: (Units=GPa)
#
#
# Indices 1 2 3 4 5 6 
#
# 1 44.9219 21.9265 14.1177 0.2742 -22.4645 5.2886
# 2 21.9265 148.5661 35.9667 -12.7406 -28.5175 7.3115
# 3 14.1177 35.9667 62.1554 -6.5644 -29.0916 3.1123
# 4 0.2742 -12.7406 -6.5644 25.0375 4.8499 -7.0136
# 5 -22.4645 -28.5175 -29.0916 4.8499 37.3118 -10.9699
# 6 5.2886 7.3115 3.1123 -7.0136 -10.9699 18.0629
#
#
#
# Elastic Compliance Matrix: (Units=1/GPa)
#
#
# Indices 1 2 3 4 5 6 
#
# 1 0.033042 -0.001892 0.003576 -0.004024 0.022520 0.002590
# 2 -0.001892 0.008498 -0.002806 0.003217 0.002935 0.000629
# 3 0.003576 -0.002806 0.028642 0.004586 0.025374 0.012344
# 4 -0.004024 0.003217 0.004586 0.047679 0.003151 0.019512
# 5 0.022520 0.002935 0.025374 0.003151 0.071537 0.032515
# 6 0.002590 0.000629 0.012344 0.019512 0.032515 0.079546
#
#
# Mechanical properties :
#
#
# Convention : Reuss Voigt Hill
#
# Bulk Modulus (GPa) = 14.71928 44.40724 29.56326
# Shear Modulus (GPa) = 17.01645 28.32462 22.67054
#
# Velocity S-wave (km/s) = 2.73870 3.53340 3.16112
# Velocity P-wave (km/s) = 4.06062 6.01833 5.13366
#
# Compressibility (1/GPa) = 0.06793809
#
# Stress axis : x y z
#
# Youngs Moduli (GPa) = 30.26446 117.67805 34.91348
#
# Poissons Ratio (x) = 0.22265 -0.12483
# Poissons Ratio (y) = 0.05726 0.09795
# Poissons Ratio (z) = -0.10821 0.33015
#
# Static dielectric constant tensor:
#      x y z
#    x 1.868720 0.010840 0.029130 
#    y 0.010840 1.973380 0.024750 
#    z 0.029130 0.024750 1.929630 
# 
# From -- ./inp_files/596638.got.cif
#   From: 2010.05.17/outbox.cif.g08.bks.cpg/sg2_299_cif.got.tgz:596638.got - 2010.06.03 11:33:40.
