data_PCOD9003981
_publ_section_title
;
Structure prediction by ZEFSAII (Michael W. Deem and Ramdas Pophale) SiO2 
 PCOD9003981
Probable space group: P -1
;
_chemical_formula_sum "Si O2"
_cell_formula_units_Z 16
_cell_length_a 19.247051
_cell_length_b 8.558991
_cell_length_c 12.617256
_cell_angle_alpha 149.844126
_cell_angle_beta 46.729379
_cell_angle_gamma 120.364354
_cell_volume 738.358259
_symmetry_space_group_name_H-M "P -1"
_symmetry_group_IT_number 2
_symmetry_cell_setting 'triclinic'
loop_
_space_group_symop_operation_xyz
x,y,z
-x,-y,-z
loop_
_atom_site_type_symbol
_atom_site_label
_atom_site_fract_x
_atom_site_fract_y
_atom_site_fract_z
Si Si1 0.566791 0.256056 0.203194
Si Si2 0.868693 0.385635 0.173259
Si Si3 0.832939 0.242114 0.356786
Si Si4 0.060918 0.488592 0.132584
Si Si5 0.516753 0.374447 0.078609
Si Si6 0.361387 0.824325 0.370249
Si Si7 0.954773 0.722752 0.581582
Si Si8 0.745374 0.493170 0.178104
O O1 0.500000 0.500000 0.500000
O O2 0.681321 0.231487 0.096015
O O3 0.537693 0.917743 0.046809
O O4 0.546167 0.368558 0.167814
O O5 0.822243 0.265692 0.255512
O O6 0.782581 0.588280 0.309151
O O7 0.960939 0.531598 0.193683
O O8 0.913700 0.073422 0.873239
O O9 0.736316 0.265351 0.539010
O O10 0.874898 0.546392 0.517750
O O11 0.906384 0.896083 0.103032
O O12 0.032963 0.688052 0.385633
O O13 0.155492 0.577399 0.035475
O O14 0.603112 0.307054 0.860634
O O15 0.443462 0.691565 0.294890
O O16 0.330725 0.204889 0.614893
O O17 0.000000 0.500000 0.500000
#
# Coordination Sequence:
#
# PCOD9003981 Si02
#       8
#     2   2   2   2   2   2   2   2
#     4  11  24  46  69  97 130 165 213 271 332 386
#     4  11  22  39  63  92 130 175 207 266 322 376
#     4  10  21  37  63  91 129 165 219 258 318 383
#     4  10  21  42  59  89 133 168 212 265 314 375
#     4  10  24  47  70  91 134 167 212 273 328 382
#     4  10  23  45  65  97 127 173 211 267 324 381
#     4  11  19  36  62  90 122 171 215 260 313 374
#     4  11  25  42  64  98 131 169 217 261 328 384
#
# _framework density 21.669696999999999
#
# number of rings (size 3 to 8) (size 9 to 14) (size 15 to 20)
#    0.000    1.500    3.750    1.125    3.500    2.000 
#    2.250    0.000    0.000    0.000    0.000    0.000 
#    0.000    0.000    0.000    0.000    0.000    0.000 
#
# Total GULP energy -89374.492802 kJ/mol
# GULP energy per Si atom -5585.905800 kJ/mol
# Density = 2.162038 g / cm^3
# Si number density = 21.669697 Si / 1000 Ang^3
#
#
#
# Elastic Constant Matrix: (Units=GPa)
#
#
# Indices 1 2 3 4 5 6 
#
# 1 105.3082 54.5374 44.2131 -14.9442 2.5936 -9.2892
# 2 54.5374 112.5384 51.0066 -36.1238 -1.8763 1.3233
# 3 44.2131 51.0066 74.2948 -13.5247 9.7435 -5.6739
# 4 -14.9442 -36.1238 -13.5247 33.0501 -8.7745 -2.4769
# 5 2.5936 -1.8763 9.7435 -8.7745 27.6469 -0.9154
# 6 -9.2892 1.3233 -5.6739 -2.4769 -0.9154 37.0578
#
#
#
# Elastic Compliance Matrix: (Units=1/GPa)
#
#
# Indices 1 2 3 4 5 6 
#
# 1 0.014321 -0.004943 -0.005040 -0.000783 -0.000054 0.002941
# 2 -0.004943 0.023845 -0.011189 0.022586 0.013129 -0.001970
# 3 -0.005040 -0.011189 0.024434 -0.007312 -0.011148 0.002113
# 4 -0.000783 0.022586 -0.007312 0.057768 0.022593 0.002297
# 5 -0.000054 0.013129 -0.011148 0.022593 0.048183 0.000511
# 6 0.002941 -0.001970 0.002113 0.002297 0.000511 0.028282
#
#
# Mechanical properties :
#
#
# Convention : Reuss Voigt Hill
#
# Bulk Modulus (GPa) = 49.37069 65.73951 57.55510
# Shear Modulus (GPa) = 20.33101 29.04325 24.68713
#
# Velocity S-wave (km/s) = 3.06637 3.66494 3.37893
# Velocity P-wave (km/s) = 5.94723 6.95068 6.46844
#
# Compressibility (1/GPa) = 0.02025493
#
# Stress axis : x y z
#
# Youngs Moduli (GPa) = 69.82533 41.93798 40.92695
#
# Poissons Ratio (x) = 0.20729 0.20628
# Poissons Ratio (y) = 0.34514 0.45795
# Poissons Ratio (z) = 0.35193 0.46926
#
# Static dielectric constant tensor:
#      x y z
#    x 0.581740 -0.545940 -0.904240 
#    y -0.545940 1.594750 -0.373620 
#    z -0.904240 -0.373620 1.169580 
# 
# From -- ./inp_files/37785.got.cif
#   From: 2010.05.17/outbox.cif.g08.bks.cpg/sg2_19_cif.got.tgz:37785.got - 2010.06.03 11:33:40.
