data_PCOD9003711
_publ_section_title
;
Structure prediction by ZEFSAII (Michael W. Deem and Ramdas Pophale) SiO2 
 PCOD9003711
Probable space group: P -1
;
_chemical_formula_sum "Si O2"
_cell_formula_units_Z 15
_cell_length_a 26.171807
_cell_length_b 14.097008
_cell_length_c 17.377812
_cell_angle_alpha 160.950739
_cell_angle_beta 162.317307
_cell_angle_gamma 21.280977
_cell_volume 603.241026
_symmetry_space_group_name_H-M "P -1"
_symmetry_group_IT_number 2
_symmetry_cell_setting 'triclinic'
loop_
_space_group_symop_operation_xyz
x,y,z
-x,-y,-z
loop_
_atom_site_type_symbol
_atom_site_label
_atom_site_fract_x
_atom_site_fract_y
_atom_site_fract_z
Si Si1 0.204161 0.175546 0.867671
Si Si2 0.106443 0.230955 0.082205
Si Si3 0.500000 0.500000 0.500000
Si Si4 0.309503 0.066177 0.095193
Si Si5 0.258140 0.534717 0.940362
Si Si6 0.056950 0.611146 0.555425
Si Si7 0.316747 0.178298 0.486558
Si Si8 0.378495 0.704816 0.649714
O O1 0.343227 0.349529 0.177367
O O2 0.262340 0.965258 0.866625
O O3 0.025574 0.435815 0.834715
O O4 0.210294 0.966645 0.642062
O O5 0.159887 0.156154 0.013858
O O6 0.282759 0.183439 0.350635
O O7 0.021306 0.972656 0.790166
O O8 0.441420 0.705601 0.653797
O O9 0.344528 0.383694 0.369005
O O10 0.489321 0.849406 0.225496
O O11 0.184231 0.466893 0.700393
O O12 0.117155 0.490017 0.764984
O O13 0.452717 0.316450 0.070243
O O14 0.269545 0.878642 0.219864
O O15 0.172058 0.472438 0.540233
#
# Coordination Sequence:
#
# PCOD9003711 Si02
#       8
#     2   2   1   2   2   2   2   2
#     4  11  24  41  65  92 130 173 209 260 325 381
#     4  11  25  39  62  98 130 167 220 265 309 380
#     4  10  24  40  62  94 126 158 212 264 316 384
#     4  10  23  44  62  92 130 171 221 260 311 384
#     4   9  20  38  61  93 126 162 212 260 326 387
#     4  10  21  37  61  95 129 166 207 268 324 374
#     4  10  21  39  65  91 125 169 213 269 319 375
#     4  10  22  41  67  90 125 173 207 265 321 382
#
# _framework density 24.865683000000001
#
# number of rings (size 3 to 8) (size 9 to 14) (size 15 to 20)
#    0.000    1.867    0.000    2.400    3.733    4.267 
#    4.800    0.000    0.000    0.000    0.000    0.000 
#    0.000    0.000    0.000    0.000    0.000    0.000 
#
# Total GULP energy -83717.278916 kJ/mol
# GULP energy per Si atom -5581.151928 kJ/mol
# Density = 2.480909 g / cm^3
# Si number density = 24.865683 Si / 1000 Ang^3
#
#
#
# Elastic Constant Matrix: (Units=GPa)
#
#
# Indices 1 2 3 4 5 6 
#
# 1 152.9679 42.2040 20.4217 -12.0599 -13.8542 -23.1906
# 2 42.2040 95.2526 33.6025 -6.1808 -6.0765 -15.7675
# 3 20.4217 33.6025 48.3588 -15.5030 -1.1648 5.1005
# 4 -12.0599 -6.1808 -15.5030 23.5785 -0.3312 0.3776
# 5 -13.8542 -6.0765 -1.1648 -0.3312 37.2787 2.6769
# 6 -23.1906 -15.7675 5.1005 0.3776 2.6769 36.3623
#
#
#
# Elastic Compliance Matrix: (Units=1/GPa)
#
#
# Indices 1 2 3 4 5 6 
#
# 1 0.008450 -0.002064 -0.001714 0.002616 0.002448 0.004527
# 2 -0.002064 0.017333 -0.013843 -0.005730 0.000991 0.008128
# 3 -0.001714 -0.013843 0.039248 0.021497 -0.000558 -0.012783
# 4 0.002616 -0.005730 0.021497 0.056476 0.001537 -0.004531
# 5 0.002448 0.000991 -0.000558 0.001537 0.027893 0.000000
# 6 0.004527 0.008128 -0.012783 -0.004531 0.000000 0.035753
#
#
# Mechanical properties :
#
#
# Convention : Reuss Voigt Hill
#
# Bulk Modulus (GPa) = 33.56935 54.33729 43.95332
# Shear Modulus (GPa) = 21.70860 32.80066 27.25463
#
# Velocity S-wave (km/s) = 2.95792 3.63590 3.31429
# Velocity P-wave (km/s) = 5.01949 6.28698 5.68865
#
# Compressibility (1/GPa) = 0.02978908
#
# Stress axis : x y z
#
# Youngs Moduli (GPa) = 118.34443 57.69313 25.47914
#
# Poissons Ratio (x) = 0.11907 0.04368
# Poissons Ratio (y) = 0.24425 0.35270
# Poissons Ratio (z) = 0.20287 0.79863
#
# Static dielectric constant tensor:
#      x y z
#    x 1.932510 0.041720 -0.031550 
#    y 0.041720 1.972080 -0.021760 
#    z -0.031550 -0.021760 1.969610 
# 
# From -- ./inp_files/85074.got.cif
#   From: 2010.05.17/outbox.cif.g08.bks.cpg/sg2_43_cif.got.tgz:85074.got - 2010.06.03 11:33:40.
