data_PCOD9003620
_publ_section_title
;
Structure prediction by ZEFSAII (Michael W. Deem and Ramdas Pophale) SiO2 
 PCOD9003620
Probable space group: P -1
;
_chemical_formula_sum "Si O2"
_cell_formula_units_Z 16
_cell_length_a 9.850086
_cell_length_b 7.926538
_cell_length_c 14.375480
_cell_angle_alpha 133.325629
_cell_angle_beta 129.694139
_cell_angle_gamma 59.188028
_cell_volume 622.758795
_symmetry_space_group_name_H-M "P -1"
_symmetry_group_IT_number 2
_symmetry_cell_setting 'triclinic'
loop_
_space_group_symop_operation_xyz
x,y,z
-x,-y,-z
loop_
_atom_site_type_symbol
_atom_site_label
_atom_site_fract_x
_atom_site_fract_y
_atom_site_fract_z
Si Si1 0.470009 0.414553 0.260937
Si Si2 0.985749 0.775916 0.598148
Si Si3 0.838655 0.380838 0.703868
Si Si4 0.726128 0.111125 0.699669
Si Si5 0.792355 0.113562 0.937333
Si Si6 0.316270 0.774071 0.872700
Si Si7 0.759612 0.131007 0.400507
Si Si8 0.221574 0.399748 0.816127
O O1 0.297902 0.396727 0.242995
O O2 0.435191 0.690134 0.321891
O O3 0.509159 0.258670 0.126738
O O4 0.637720 0.331147 0.366237
O O5 0.137915 0.846572 0.762218
O O6 0.044639 0.864732 0.557398
O O7 0.000000 0.500000 0.500000
O O8 0.789047 0.876185 0.582617
O O9 0.879799 0.256656 0.775272
O O10 0.743258 0.213440 0.530693
O O11 0.008293 0.429193 0.740140
O O12 0.731960 0.042240 0.783242
O O13 0.693627 0.087942 0.982555
O O14 0.750071 0.402963 0.019884
O O15 0.000000 0.000000 0.000000
O O16 0.292535 0.512127 0.798123
O O17 0.711106 0.874259 0.257120
#
# Coordination Sequence:
#
# PCOD9003620 Si02
#       8
#     2   2   2   2   2   2   2   2
#     4   9  22  39  59  88 126 159 194 240 312 360
#     4  11  21  36  63  92 120 155 203 249 296 357
#     4  10  21  37  61  89 121 154 198 246 302 351
#     4  10  21  38  60  89 121 158 199 246 294 356
#     4  10  21  40  64  87 118 157 207 252 291 352
#     4   9  21  38  61  88 117 157 198 244 305 346
#     4  11  20  39  60  89 125 158 195 251 301 359
#     4  10  21  37  66  88 114 156 207 251 295 345
#
# _framework density 25.692131
#
# number of rings (size 3 to 8) (size 9 to 14) (size 15 to 20)
#    1.500    0.500    2.500    1.500    1.750    1.000 
#    0.000   10.000    0.000    0.000    0.000    0.000 
#    0.000    0.000    0.000    0.000    0.000    0.000 
#
# Total GULP energy -89115.930427 kJ/mol
# GULP energy per Si atom -5569.745652 kJ/mol
# Density = 2.563365 g / cm^3
# Si number density = 25.692131 Si / 1000 Ang^3
#
#
#
# Elastic Constant Matrix: (Units=GPa)
#
#
# Indices 1 2 3 4 5 6 
#
# 1 101.8740 49.1924 57.2215 2.8680 -43.9816 -8.7814
# 2 49.1924 154.0812 54.5420 18.7067 -23.1211 -22.4352
# 3 57.2215 54.5420 88.1384 12.1414 -41.0939 -7.1580
# 4 2.8680 18.7067 12.1414 39.9327 0.5147 -8.6761
# 5 -43.9816 -23.1211 -41.0939 0.5147 43.3883 4.6547
# 6 -8.7814 -22.4352 -7.1580 -8.6761 4.6547 40.6023
#
#
#
# Elastic Compliance Matrix: (Units=1/GPa)
#
#
# Indices 1 2 3 4 5 6 
#
# 1 0.019906 -0.002563 -0.004870 0.001216 0.014113 0.000672
# 2 -0.002563 0.009380 -0.004705 -0.001953 -0.002426 0.003660
# 3 -0.004870 -0.004705 0.026446 -0.006235 0.017933 -0.002379
# 4 0.001216 -0.001953 -0.006235 0.028942 -0.006596 0.005025
# 5 0.014113 -0.002426 0.017933 -0.006596 0.053409 -0.002659
# 6 0.000672 0.003660 -0.002379 0.005025 -0.002659 0.027756
#
#
# Mechanical properties :
#
#
# Convention : Reuss Voigt Hill
#
# Bulk Modulus (GPa) = 31.79123 74.00058 52.89591
# Shear Modulus (GPa) = 24.92516 36.99384 30.95950
#
# Velocity S-wave (km/s) = 3.11810 3.79870 3.47510
# Velocity P-wave (km/s) = 5.03628 6.93582 6.06093
#
# Compressibility (1/GPa) = 0.03145522
#
# Stress axis : x y z
#
# Youngs Moduli (GPa) = 50.23626 106.60993 37.81343
#
# Poissons Ratio (x) = 0.27328 0.18415
# Poissons Ratio (y) = 0.12877 0.17791
# Poissons Ratio (z) = 0.24464 0.50160
#
# Static dielectric constant tensor:
#      x y z
#    x 2.056400 -0.011170 0.033640 
#    y -0.011170 2.061280 0.023750 
#    z 0.033640 0.023750 2.064160 
# 
# From -- ./inp_files/514707.got.cif
#   From: 2010.05.17/outbox.cif.g08.bks.cpg/sg2_258_cif.got.tgz:514707.got - 2010.06.03 11:33:40.
