data_PCOD9003973
_publ_section_title
;
Structure prediction by ZEFSAII (Michael W. Deem and Ramdas Pophale) SiO2 
 PCOD9003973
Probable space group: P -1
;
_chemical_formula_sum "Si O2"
_cell_formula_units_Z 16
_cell_length_a 12.101731
_cell_length_b 13.955561
_cell_length_c 20.538847
_cell_angle_alpha 150.901615
_cell_angle_beta 29.766698
_cell_angle_gamma 150.908289
_cell_volume 735.724079
_symmetry_space_group_name_H-M "P -1"
_symmetry_group_IT_number 2
_symmetry_cell_setting 'triclinic'
loop_
_space_group_symop_operation_xyz
x,y,z
-x,-y,-z
loop_
_atom_site_type_symbol
_atom_site_label
_atom_site_fract_x
_atom_site_fract_y
_atom_site_fract_z
Si Si1 0.872456 0.687424 0.309794
Si Si2 0.062177 0.332649 0.285345
Si Si3 0.844951 0.084597 0.973398
Si Si4 0.039247 0.157412 0.776857
Si Si5 0.583723 0.808571 0.740135
Si Si6 0.588188 0.229956 0.553614
Si Si7 0.898169 0.174632 0.142426
Si Si8 0.314062 0.015177 0.349839
O O1 0.994492 0.714101 0.191626
O O2 0.629760 0.446414 0.295079
O O3 0.774885 0.869833 0.481769
O O4 0.096942 0.764854 0.294493
O O5 0.261949 0.561887 0.351539
O O6 0.786467 0.258003 0.412815
O O7 0.037893 0.357102 0.234962
O O8 0.135431 0.139037 0.152876
O O9 0.993145 0.196621 0.898120
O O10 0.561827 0.046934 0.085333
O O11 0.936904 0.231053 0.079645
O O12 0.328930 0.218965 0.657829
O O13 0.827119 0.899837 0.716572
O O14 0.666594 0.850569 0.647626
O O15 0.500000 0.000000 0.500000
O O16 0.595914 0.053935 0.238419
O O17 0.000000 0.000000 0.000000
#
# Coordination Sequence:
#
# PCOD9003973 Si02
#       8
#     2   2   2   2   2   2   2   2
#     4  10  21  37  63  91 120 162 202 257 309 356
#     4  10  22  42  66  88 123 165 200 256 312 348
#     4  10  21  42  61  88 128 159 204 252 301 371
#     4  11  23  38  59  92 121 158 204 251 301 368
#     4  10  22  39  62  88 125 164 200 251 311 363
#     4  11  23  41  64  92 123 156 206 257 300 365
#     4   9  19  39  65  84 121 168 199 249 308 360
#     4   9  19  39  60  90 121 153 213 254 299 369
#
# _framework density 21.747282999999999
#
# number of rings (size 3 to 8) (size 9 to 14) (size 15 to 20)
#    0.000    2.000    1.250    1.500    1.750    1.500 
#    9.000    5.625    0.000    0.000    0.000    0.000 
#    0.000    0.000    0.000    0.000    0.000    0.000 
#
# Total GULP energy -89254.969665 kJ/mol
# GULP energy per Si atom -5578.435604 kJ/mol
# Density = 2.169779 g / cm^3
# Si number density = 21.747283 Si / 1000 Ang^3
#
#
#
# Elastic Constant Matrix: (Units=GPa)
#
#
# Indices 1 2 3 4 5 6 
#
# 1 105.8973 42.6832 52.5449 -9.7737 28.5321 20.2675
# 2 42.6832 128.7856 44.3128 -2.9187 10.5713 16.0279
# 3 52.5449 44.3128 96.0136 -14.4269 9.8019 10.6567
# 4 -9.7737 -2.9187 -14.4269 24.4651 5.1660 -1.0363
# 5 28.5321 10.5713 9.8019 5.1660 40.9045 -12.8408
# 6 20.2675 16.0279 10.6567 -1.0363 -12.8408 28.6482
#
#
#
# Elastic Compliance Matrix: (Units=1/GPa)
#
#
# Indices 1 2 3 4 5 6 
#
# 1 0.026564 -0.000582 -0.006826 0.011005 -0.026776 -0.027532
# 2 -0.000582 0.010050 -0.003561 -0.000746 -0.002878 -0.005203
# 3 -0.006826 -0.003561 0.016413 0.006287 0.001455 0.001596
# 4 0.011005 -0.000746 0.006287 0.052603 -0.021045 -0.017237
# 5 -0.026776 -0.002878 0.001455 -0.021045 0.060771 0.046489
# 6 -0.027532 -0.005203 0.001596 -0.017237 0.046489 0.076915
#
#
# Mechanical properties :
#
#
# Convention : Reuss Voigt Hill
#
# Bulk Modulus (GPa) = 32.16480 67.75315 49.95897
# Shear Modulus (GPa) = 18.14117 31.54725 24.84421
#
# Velocity S-wave (km/s) = 2.89135 3.81284 3.38362
# Velocity P-wave (km/s) = 5.09597 7.11380 6.18769
#
# Compressibility (1/GPa) = 0.03108989
#
# Stress axis : x y z
#
# Youngs Moduli (GPa) = 37.64532 99.50617 60.92622
#
# Poissons Ratio (x) = 0.05786 0.41589
# Poissons Ratio (y) = 0.02189 0.21694
# Poissons Ratio (z) = 0.25697 0.35431
#
# Static dielectric constant tensor:
#      x y z
#    x 1.919190 0.032480 -0.007140 
#    y 0.032480 1.803220 -0.003890 
#    z -0.007140 -0.003890 1.821820 
# 
# From -- ./inp_files/595648.got.cif
#   From: 2010.05.17/outbox.cif.g08.bks.cpg/sg2_298_cif.got.tgz:595648.got - 2010.06.03 11:33:40.
