data_PCOD9003877
_publ_section_title
;
Structure prediction by ZEFSAII (Michael W. Deem and Ramdas Pophale) SiO2 
 PCOD9003877
Probable space group: P -1
;
_chemical_formula_sum "Si O2"
_cell_formula_units_Z 10
_cell_length_a 9.301449
_cell_length_b 8.375566
_cell_length_c 11.997411
_cell_angle_alpha 68.709863
_cell_angle_beta 143.513563
_cell_angle_gamma 132.954803
_cell_volume 368.288828
_symmetry_space_group_name_H-M "P -1"
_symmetry_group_IT_number 2
_symmetry_cell_setting 'triclinic'
loop_
_space_group_symop_operation_xyz
x,y,z
-x,-y,-z
loop_
_atom_site_type_symbol
_atom_site_label
_atom_site_fract_x
_atom_site_fract_y
_atom_site_fract_z
Si Si1 0.260602 0.901341 0.768185
Si Si2 0.217470 0.633665 0.445768
Si Si3 0.833090 0.747701 0.863436
Si Si4 0.533672 0.730903 0.376138
Si Si5 0.140100 0.242547 0.872362
O O1 0.116438 0.649747 0.697222
O O2 0.912962 0.837465 0.590569
O O3 0.450439 0.100548 0.739395
O O4 0.500000 0.000000 0.000000
O O5 0.487423 0.687647 0.684252
O O6 0.397776 0.696017 0.422973
O O7 0.118508 0.781217 0.361217
O O8 0.716396 0.532666 0.770075
O O9 0.939023 0.743524 0.053081
O O10 0.084496 0.011584 0.898299
O O11 0.500000 0.500000 0.000000
#
# Coordination Sequence:
#
# PCOD9003877 Si02
#       5
#     2   2   2   2   2
#     4  10  21  37  62  95 127 160 200 251 310 371
#     4  11  24  41  66  95 127 165 205 261 316 367
#     4  10  23  44  64  91 127 164 208 259 314 372
#     4  10  23  41  65  97 128 160 205 260 317 370
#     4  11  26  43  64  91 125 171 215 254 305 373
#
# _framework density 27.152605000000001
#
# number of rings (size 3 to 8) (size 9 to 14) (size 15 to 20)
#    0.000    1.600    0.000    4.200    0.000   18.400 
#    0.000    0.000    0.000    0.000    0.000    0.000 
#    0.000    0.000    0.000    0.000    0.000    0.000 
#
# Total GULP energy -56144.791716 kJ/mol
# GULP energy per Si atom -5614.479172 kJ/mol
# Density = 2.709080 g / cm^3
# Si number density = 27.152605 Si / 1000 Ang^3
#
#
#
# Elastic Constant Matrix: (Units=GPa)
#
#
# Indices 1 2 3 4 5 6 
#
# 1 82.6660 47.8216 2.5029 11.4323 4.1137 12.6052
# 2 47.8216 226.2990 45.0453 26.0159 4.2701 26.9482
# 3 2.5029 45.0453 118.5815 6.4229 -1.4053 2.9547
# 4 11.4323 26.0159 6.4229 66.3024 0.0192 1.5290
# 5 4.1137 4.2701 -1.4053 0.0192 38.3942 0.6258
# 6 12.6052 26.9482 2.9547 1.5290 0.6258 31.6382
#
#
#
# Elastic Compliance Matrix: (Units=1/GPa)
#
#
# Indices 1 2 3 4 5 6 
#
# 1 0.014366 -0.002596 0.000835 -0.001458 -0.001162 -0.003497
# 2 -0.002596 0.006027 -0.002056 -0.001630 -0.000404 -0.003820
# 3 0.000835 -0.002056 0.009201 -0.000242 0.000467 0.000561
# 4 -0.001458 -0.001630 -0.000242 0.015969 0.000301 0.001214
# 5 -0.001162 -0.000404 0.000467 0.000301 0.026228 0.000230
# 6 -0.003497 -0.003820 0.000561 0.001214 0.000230 0.036139
#
#
# Mechanical properties :
#
#
# Convention : Reuss Voigt Hill
#
# Bulk Modulus (GPa) = 45.53637 68.69845 57.11741
# Shear Modulus (GPa) = 40.68904 49.41206 45.05055
#
# Velocity S-wave (km/s) = 3.87529 4.27053 4.07770
# Velocity P-wave (km/s) = 6.06883 7.04786 6.57659
#
# Compressibility (1/GPa) = 0.02196047
#
# Stress axis : x y z
#
# Youngs Moduli (GPa) = 69.60797 165.92896 108.68399
#
# Poissons Ratio (x) = 0.43077 -0.09078
# Poissons Ratio (y) = 0.18071 0.22344
# Poissons Ratio (z) = -0.05814 0.34113
#
# Static dielectric constant tensor:
#      x y z
#    x 2.080510 -0.030040 0.105050 
#    y -0.030040 2.060190 -0.022690 
#    z 0.105050 -0.022690 2.150410 
# 
# From -- ./inp_files/138348.got.cif
#   From: 2010.05.17/outbox.cif.g08.bks.cpg/sg2_70_cif.got.tgz:138348.got - 2010.06.03 11:33:40.
