data_PCOD9003136
_publ_section_title
;
Structure prediction by ZEFSAII (Michael W. Deem and Ramdas Pophale) SiO2 
 PCOD9003136
Probable space group: P -1
;
_chemical_formula_sum "Si O2"
_cell_formula_units_Z 14
_cell_length_a 5.564003
_cell_length_b 17.435263
_cell_length_c 5.793086
_cell_angle_alpha 98.258250
_cell_angle_beta 97.230989
_cell_angle_gamma 95.020028
_cell_volume 548.535835
_symmetry_space_group_name_H-M "P -1"
_symmetry_group_IT_number 2
_symmetry_cell_setting 'triclinic'
loop_
_space_group_symop_operation_xyz
x,y,z
-x,-y,-z
loop_
_atom_site_type_symbol
_atom_site_label
_atom_site_fract_x
_atom_site_fract_y
_atom_site_fract_z
Si Si1 0.791905 0.098467 0.945185
Si Si2 0.274531 0.472298 0.796896
Si Si3 0.113140 0.189326 0.634984
Si Si4 0.165066 0.045231 0.344966
Si Si5 0.719174 0.237515 0.248920
Si Si6 0.451652 0.332230 0.603772
Si Si7 0.112712 0.622263 0.964873
O O1 0.979148 0.148683 0.819711
O O2 0.676428 0.018899 0.773002
O O3 0.624264 0.160364 0.057978
O O4 0.969348 0.069272 0.147112
O O5 0.340895 0.413625 0.580384
O O6 0.169669 0.553272 0.764746
O O7 0.500000 0.500000 0.000000
O O8 0.102883 0.418197 0.924911
O O9 0.272790 0.126482 0.505666
O O10 0.276560 0.270634 0.705064
O O11 0.889837 0.207458 0.452638
O O12 0.000000 0.000000 0.500000
O O13 0.523722 0.286933 0.365622
O O14 0.892286 0.298733 0.142665
O O15 0.679751 0.355430 0.807702
#
# Coordination Sequence:
#
# PCOD9003136 Si02
#       7
#     2   2   2   2   2   2   2
#     4   9  17  34  58  82 116 155 190 236 286 334
#     4   9  20  40  62  82 112 152 192 235 288 344
#     4  10  21  37  58  85 116 153 194 236 286 342
#     4   8  16  32  58  86 112 151 196 234 281 336
#     4  11  22  35  58  87 116 151 193 237 286 341
#     4  11  22  37  57  86 118 149 191 239 287 344
#     4  10  22  41  60  82 115 152 190 239 289 339
#
# _framework density 25.522493000000001
#
# number of rings (size 3 to 8) (size 9 to 14) (size 15 to 20)
#    0.000    2.286    0.000    2.571    0.000    5.143 
#    0.000   10.714    0.000   35.143    0.000    0.000 
#    0.000    0.000    0.000    0.000    0.000    0.000 
#
# Total GULP energy -78282.545195 kJ/mol
# GULP energy per Si atom -5591.610371 kJ/mol
# Density = 2.546440 g / cm^3
# Si number density = 25.522493 Si / 1000 Ang^3
#
#
#
# Elastic Constant Matrix: (Units=GPa)
#
#
# Indices 1 2 3 4 5 6 
#
# 1 38.4838 17.4596 13.7967 21.5158 -3.7715 -4.2639
# 2 17.4596 163.7331 53.8248 40.7670 -14.3393 -32.1117
# 3 13.7967 53.8248 75.7500 14.9447 -16.3842 -23.9420
# 4 21.5158 40.7670 14.9447 76.6985 -20.8658 -18.9229
# 5 -3.7715 -14.3393 -16.3842 -20.8658 30.1388 20.3680
# 6 -4.2639 -32.1117 -23.9420 -18.9229 20.3680 43.6048
#
#
#
# Elastic Compliance Matrix: (Units=1/GPa)
#
#
# Indices 1 2 3 4 5 6 
#
# 1 0.032837 0.000004 -0.005656 -0.009812 -0.004314 -0.002134
# 2 0.000004 0.009326 -0.005434 -0.003996 -0.003998 0.004019
# 3 -0.005656 -0.005434 0.020465 0.003613 0.006953 0.005002
# 4 -0.009812 -0.003996 0.003613 0.020920 0.012391 0.001372
# 5 -0.004314 -0.003998 0.006953 0.012391 0.057220 -0.020899
# 6 -0.002134 0.004019 0.005002 0.001372 -0.020899 0.038788
#
#
# Mechanical properties :
#
#
# Convention : Reuss Voigt Hill
#
# Bulk Modulus (GPa) = 24.71744 49.79212 37.25478
# Shear Modulus (GPa) = 23.23289 42.94748 33.09019
#
# Velocity S-wave (km/s) = 3.02038 4.10656 3.60462
# Velocity P-wave (km/s) = 4.67645 6.48356 5.65269
#
# Compressibility (1/GPa) = 0.04045726
#
# Stress axis : x y z
#
# Youngs Moduli (GPa) = 30.45323 107.22440 48.86486
#
# Poissons Ratio (x) = -0.00047 0.27637
# Poissons Ratio (y) = -0.00013 0.26553
# Poissons Ratio (z) = 0.17224 0.58266
#
# Static dielectric constant tensor:
#      x y z
#    x 2.030160 -0.089050 -0.070350 
#    y -0.089050 1.989690 0.081490 
#    z -0.070350 0.081490 2.046740 
# 
# From -- ./inp_files/7747.got.cif
#   From: 2010.05.17/outbox.cif.g08.bks.cpg/sg2_4_cif.got.tgz:7747.got - 2010.06.03 11:33:40.
