data_PCOD9003951
_publ_section_title
;
Structure prediction by ZEFSAII (Michael W. Deem and Ramdas Pophale) SiO2 
 PCOD9003951
Probable space group: P -1
;
_chemical_formula_sum "Si O2"
_cell_formula_units_Z 16
_cell_length_a 10.340796
_cell_length_b 12.912765
_cell_length_c 15.100121
_cell_angle_alpha 30.142413
_cell_angle_beta 67.594836
_cell_angle_gamma 49.198992
_cell_volume 670.743001
_symmetry_space_group_name_H-M "P -1"
_symmetry_group_IT_number 2
_symmetry_cell_setting 'triclinic'
loop_
_space_group_symop_operation_xyz
x,y,z
-x,-y,-z
loop_
_atom_site_type_symbol
_atom_site_label
_atom_site_fract_x
_atom_site_fract_y
_atom_site_fract_z
Si Si1 0.700418 0.914945 0.024652
Si Si2 0.029973 0.624496 0.020530
Si Si3 0.930643 0.893280 0.663283
Si Si4 0.222252 0.011923 0.759832
Si Si5 0.813312 0.549745 0.424285
Si Si6 0.443289 0.186109 0.289890
Si Si7 0.235497 0.768768 0.105036
Si Si8 0.503542 0.229934 0.543169
O O1 0.679451 0.140593 0.921399
O O2 0.829491 0.632019 0.262941
O O3 0.823639 0.856935 0.951192
O O4 0.500000 0.000000 0.000000
O O5 0.037971 0.368816 0.190627
O O6 0.218495 0.486935 0.131691
O O7 0.030807 0.761744 0.830250
O O8 0.698782 0.161106 0.540391
O O9 0.000000 0.000000 0.500000
O O10 0.200154 0.247360 0.650417
O O11 0.997699 0.214863 0.640165
O O12 0.370722 0.867498 0.746113
O O13 0.294872 0.774235 0.987921
O O14 0.607023 0.654410 0.420284
O O15 0.500000 0.000000 0.500000
O O16 0.431751 0.059677 0.295710
O O17 0.339568 0.462207 0.342436
O O18 0.000000 0.000000 0.000000
#
# Coordination Sequence:
#
# PCOD9003951 Si02
#       8
#     2   2   2   2   2   2   2   2
#     4  11  24  40  65  93 125 167 212 264 326 386
#     4  10  23  43  63  92 128 169 220 268 323 389
#     4  10  23  42  67  87 124 175 218 263 322 393
#     4   9  18  33  59  86 114 169 206 242 319 385
#     4   9  17  35  59  83 121 158 210 252 307 389
#     4  10  21  37  63  88 123 166 211 265 313 385
#     4  11  23  39  64  94 129 164 202 273 325 383
#     4  10  21  38  61  91 120 162 215 261 318 379
#
# _framework density 23.854144999999999
#
# number of rings (size 3 to 8) (size 9 to 14) (size 15 to 20)
#    0.000    2.000    1.250    1.500    7.000    2.000 
#    2.250    3.125    0.000    0.000    0.000    0.000 
#    0.000    0.000    0.000    0.000    0.000    0.000 
#
# Total GULP energy -89336.969989 kJ/mol
# GULP energy per Si atom -5583.560624 kJ/mol
# Density = 2.379985 g / cm^3
# Si number density = 23.854145 Si / 1000 Ang^3
#
#
#
# Elastic Constant Matrix: (Units=GPa)
#
#
# Indices 1 2 3 4 5 6 
#
# 1 94.3928 42.3846 13.5496 -8.8523 2.1973 -13.3141
# 2 42.3846 103.9840 27.4560 24.1654 0.2932 -29.8410
# 3 13.5496 27.4560 101.0293 20.8310 2.3608 -6.6849
# 4 -8.8523 24.1654 20.8310 42.4358 -12.9327 -2.0701
# 5 2.1973 0.2932 2.3608 -12.9327 26.4463 -3.9107
# 6 -13.3141 -29.8410 -6.6849 -2.0701 -3.9107 35.8570
#
#
#
# Elastic Compliance Matrix: (Units=1/GPa)
#
#
# Indices 1 2 3 4 5 6 
#
# 1 0.015343 -0.008203 -0.002012 0.009995 0.003808 -0.000513
# 2 -0.008203 0.019664 -0.000608 -0.013313 -0.004221 0.011976
# 3 -0.002012 -0.000608 0.011944 -0.007289 -0.004447 0.000068
# 4 0.009995 -0.013313 -0.007289 0.042798 0.020299 -0.004042
# 5 0.003808 -0.004221 -0.004447 0.020299 0.048387 0.003521
# 6 -0.000513 0.011976 0.000068 -0.004042 0.003521 0.037829
#
#
# Mechanical properties :
#
#
# Convention : Reuss Voigt Hill
#
# Bulk Modulus (GPa) = 39.51815 51.79849 45.65832
# Shear Modulus (GPa) = 24.26649 35.34888 29.80769
#
# Velocity S-wave (km/s) = 3.19295 3.85369 3.53878
# Velocity P-wave (km/s) = 5.49507 6.44694 5.98994
#
# Compressibility (1/GPa) = 0.02530483
#
# Stress axis : x y z
#
# Youngs Moduli (GPa) = 65.17764 50.85511 83.72121
#
# Poissons Ratio (x) = 0.41718 0.16846
# Poissons Ratio (y) = 0.53467 0.05087
# Poissons Ratio (z) = 0.13115 0.03090
#
# Static dielectric constant tensor:
#      x y z
#    x 1.938310 -0.011790 -0.060620 
#    y -0.011790 1.941180 -0.028520 
#    z -0.060620 -0.028520 1.908210 
# 
# From -- ./inp_files/522147.got.cif
#   From: 2010.05.17/outbox.cif.g08.bks.cpg/sg2_262_cif.got.tgz:522147.got - 2010.06.03 11:33:40.
