data_PCOD9003165
_publ_section_title
;
Structure prediction by ZEFSAII (Michael W. Deem and Ramdas Pophale) SiO2 
 PCOD9003165
Probable space group: P -1
;
_chemical_formula_sum "Si O2"
_cell_formula_units_Z 16
_cell_length_a 12.788230
_cell_length_b 15.043582
_cell_length_c 12.550808
_cell_angle_alpha 53.239406
_cell_angle_beta 133.216633
_cell_angle_gamma 158.288550
_cell_volume 644.548977
_symmetry_space_group_name_H-M "P -1"
_symmetry_group_IT_number 2
_symmetry_cell_setting 'triclinic'
loop_
_space_group_symop_operation_xyz
x,y,z
-x,-y,-z
loop_
_atom_site_type_symbol
_atom_site_label
_atom_site_fract_x
_atom_site_fract_y
_atom_site_fract_z
Si Si1 0.912245 0.715981 0.146750
Si Si2 0.615691 0.157392 0.875257
Si Si3 0.498520 0.419132 0.740045
Si Si4 0.697767 0.721175 0.829146
Si Si5 0.545359 0.062226 0.305434
Si Si6 0.213616 0.007327 0.426863
Si Si7 0.730829 0.408147 0.067111
Si Si8 0.358125 0.205174 0.601354
O O1 0.650612 0.543525 0.178042
O O2 0.786783 0.543321 0.094781
O O3 0.246579 0.898190 0.281048
O O4 0.930738 0.839523 0.999310
O O5 0.563516 0.062942 0.793477
O O6 0.411521 0.126997 0.755487
O O7 0.988357 0.429230 0.934952
O O8 0.500000 0.000000 0.000000
O O9 0.722237 0.661707 0.782000
O O10 0.569082 0.433712 0.656188
O O11 0.488439 0.302388 0.892727
O O12 0.151737 0.231704 0.628443
O O13 0.730901 0.873490 0.719392
O O14 0.709994 0.070106 0.468205
O O15 0.706076 0.284256 0.215224
O O16 0.418661 0.209815 0.518331
O O17 0.000000 0.000000 0.500000
#
# Coordination Sequence:
#
# PCOD9003165 Si02
#       8
#     2   2   2   2   2   2   2   2
#     4   9  21  40  61  85 114 150 195 249 292 334
#     4  10  21  37  58  87 118 149 192 240 283 337
#     4  10  21  37  59  85 113 153 197 234 285 347
#     4  10  21  39  61  85 114 151 198 245 291 340
#     4  10  21  38  58  83 119 155 189 236 293 347
#     4  10  22  38  57  86 122 154 190 239 289 347
#     4  10  21  38  62  88 114 151 196 239 287 342
#     4   9  20  37  55  82 119 154 184 229 288 343
#
# _framework density 24.823560000000001
#
# number of rings (size 3 to 8) (size 9 to 14) (size 15 to 20)
#    0.000    2.250    0.000    1.500    0.000   12.000 
#    0.000    8.750    0.000    0.000    0.000    0.000 
#    0.000    0.000    0.000    0.000    0.000    0.000 
#
# Total GULP energy -89327.313559 kJ/mol
# GULP energy per Si atom -5582.957097 kJ/mol
# Density = 2.476706 g / cm^3
# Si number density = 24.823560 Si / 1000 Ang^3
#
#
#
# Elastic Constant Matrix: (Units=GPa)
#
#
# Indices 1 2 3 4 5 6 
#
# 1 111.1329 17.2106 51.5375 8.5955 5.7868 -10.9726
# 2 17.2106 19.3183 23.8667 2.0227 17.6449 6.9796
# 3 51.5375 23.8667 192.6169 -10.1095 51.4275 6.7891
# 4 8.5955 2.0227 -10.1095 31.3482 -6.8356 2.8853
# 5 5.7868 17.6449 51.4275 -6.8356 44.5158 9.5359
# 6 -10.9726 6.9796 6.7891 2.8853 9.5359 33.1234
#
#
#
# Elastic Compliance Matrix: (Units=1/GPa)
#
#
# Indices 1 2 3 4 5 6 
#
# 1 0.014001 -0.016416 -0.004113 -0.003134 0.007443 0.007070
# 2 -0.016416 0.108164 0.002037 -0.009308 -0.041094 -0.016006
# 3 -0.004113 0.002037 0.008840 0.001739 -0.010033 -0.000867
# 4 -0.003134 -0.009308 0.001739 0.036301 0.008758 -0.005117
# 5 0.007443 -0.041094 -0.010033 0.008758 0.051219 -0.002327
# 6 0.007070 -0.016006 -0.000867 -0.005117 -0.002327 0.037198
#
#
# Mechanical properties :
#
#
# Convention : Reuss Voigt Hill
#
# Bulk Modulus (GPa) = 10.63587 56.47755 33.55671
# Shear Modulus (GPa) = 15.42984 37.16103 26.29544
#
# Velocity S-wave (km/s) = 2.49586 3.87331 3.25821
# Velocity P-wave (km/s) = 3.54959 6.54251 5.26327
#
# Compressibility (1/GPa) = 0.09402148
#
# Stress axis : x y z
#
# Youngs Moduli (GPa) = 71.42449 9.24524 113.11927
#
# Poissons Ratio (x) = 0.15177 0.46524
# Poissons Ratio (y) = 1.17252 -0.23047
# Poissons Ratio (z) = 0.29376 -0.01884
#
# Static dielectric constant tensor:
#      x y z
#    x 2.002330 -0.051410 -0.012710 
#    y -0.051410 2.068830 -0.021400 
#    z -0.012710 -0.021400 2.007250 
# 
# From -- ./inp_files/535080.got.cif
#   From: 2010.05.17/outbox.cif.g08.bks.cpg/sg2_268_cif.got.tgz:535080.got - 2010.06.03 11:33:40.
