data_PCOD9003262
_publ_section_title
;
Structure prediction by ZEFSAII (Michael W. Deem and Ramdas Pophale) SiO2 
 PCOD9003262
Probable space group: P -1
;
_chemical_formula_sum "Si O2"
_cell_formula_units_Z 16
_cell_length_a 6.053602
_cell_length_b 28.030017
_cell_length_c 6.109757
_cell_angle_alpha 128.735650
_cell_angle_beta 110.380589
_cell_angle_gamma 54.009820
_cell_volume 654.009504
_symmetry_space_group_name_H-M "P -1"
_symmetry_group_IT_number 2
_symmetry_cell_setting 'triclinic'
loop_
_space_group_symop_operation_xyz
x,y,z
-x,-y,-z
loop_
_atom_site_type_symbol
_atom_site_label
_atom_site_fract_x
_atom_site_fract_y
_atom_site_fract_z
Si Si1 0.435582 0.200602 0.045850
Si Si2 0.028445 0.712704 0.583704
Si Si3 0.760359 0.948512 0.791363
Si Si4 0.134019 0.786494 0.456615
Si Si5 0.533053 0.689375 0.928669
Si Si6 0.403229 0.489503 0.184755
Si Si7 0.827391 0.604821 0.154968
Si Si8 0.202195 0.956774 0.256883
O O1 0.161327 0.219912 0.136825
O O2 0.658161 0.204165 0.288050
O O3 0.380847 0.260491 0.022149
O O4 0.578550 0.119269 0.793338
O O5 0.864374 0.670958 0.420804
O O6 0.036905 0.740747 0.429244
O O7 0.338272 0.671863 0.663011
O O8 0.875445 0.864865 0.555086
O O9 0.706531 0.993440 0.683838
O O10 0.023922 0.944346 0.982159
O O11 0.500000 0.000000 0.000000
O O12 0.324494 0.739620 0.189427
O O13 0.791309 0.619629 0.920986
O O14 0.500000 0.500000 0.500000
O O15 0.082540 0.546601 0.215056
O O16 0.500000 0.500000 0.000000
O O17 0.412831 0.413953 0.953516
O O18 0.000000 0.000000 0.500000
#
# Coordination Sequence:
#
# PCOD9003262 Si02
#       8
#     2   2   2   2   2   2   2   2
#     4  10  22  40  61  93 137 177 237 301 359 424
#     4  11  24  40  66  99 136 182 234 291 363 423
#     4  10  21  37  59  85 125 174 229 288 353 423
#     4  10  22  40  57  94 135 174 232 297 353 427
#     4  11  24  40  66  99 136 182 230 292 359 422
#     4  11  28  53  80 115 155 197 243 292 355 438
#     4  11  26  46  76 108 144 188 236 293 350 435
#     4  10  21  37  59  89 124 175 233 293 357 429
#
# _framework density 24.464476000000001
#
# number of rings (size 3 to 8) (size 9 to 14) (size 15 to 20)
#    0.000    1.500    1.250    2.250    3.500    5.500 
#    0.000    0.000    0.000    0.000    0.000    0.000 
#    0.000    0.000    0.000    0.000    0.000    0.000 
#
# Total GULP energy -89105.045348 kJ/mol
# GULP energy per Si atom -5569.065334 kJ/mol
# Density = 2.440879 g / cm^3
# Si number density = 24.464476 Si / 1000 Ang^3
#
#
#
# Elastic Constant Matrix: (Units=GPa)
#
#
# Indices 1 2 3 4 5 6 
#
# 1 -62.0497 220.0367 39.9964 -62.4532 -73.5570 -64.6803
# 2 220.0367 -112.6964 46.0832 23.0712 126.7603 98.3315
# 3 39.9964 46.0832 103.9910 -22.2708 9.3879 0.2279
# 4 -62.4532 23.0712 -22.2708 30.1429 -26.2788 -12.8610
# 5 -73.5570 126.7603 9.3879 -26.2788 8.7159 -66.0049
# 6 -64.6803 98.3315 0.2279 -12.8610 -66.0049 14.3063
#
#
#
# Elastic Compliance Matrix: (Units=1/GPa)
#
#
# Indices 1 2 3 4 5 6 
#
# 1 0.013412 0.004528 -0.004675 0.007200 -0.010230 -0.011134
# 2 0.004528 0.005301 -0.002934 0.006564 0.002705 0.002462
# 3 -0.004675 -0.002934 0.013248 0.002444 -0.000119 0.000470
# 4 0.007200 0.006564 0.002444 0.035182 -0.006270 -0.009905
# 5 -0.010230 0.002705 -0.000119 -0.006270 0.016602 0.006117
# 6 -0.011134 0.002462 0.000470 -0.009905 0.006117 0.021953
#
#
# Mechanical properties :
#
#
# Convention : Reuss Voigt Hill
#
# Bulk Modulus (GPa) = 38.76385 60.16417 49.46401
# Shear Modulus (GPa) = 41.50724 -14.49174 13.50775
#
# Velocity S-wave (km/s) = 4.12349 -2.43648 2.35231
# Velocity P-wave (km/s) = 6.20888 4.09030 5.25742
#
# Compressibility (1/GPa) = 0.02579723
#
# Stress axis : x y z
#
# Youngs Moduli (GPa) = 74.56111 188.63694 75.48369
#
# Poissons Ratio (x) = -0.85406 0.35288
# Poissons Ratio (y) = -0.33758 0.22150
# Poissons Ratio (z) = 0.34857 0.55355
#
# Static dielectric constant tensor:
#      x y z
#    x 1.979240 -0.019260 0.064090 
#    y -0.019260 2.013700 0.009080 
#    z 0.064090 0.009080 2.025090 
# 
# From -- ./inp_files/14728.got.cif
#   From: 2010.05.17/outbox.cif.g08.bks.cpg/sg2_8_cif.got.tgz:14728.got - 2010.06.03 11:33:40.
