data_PCOD9003336
_publ_section_title
;
Structure prediction by ZEFSAII (Michael W. Deem and Ramdas Pophale) SiO2 
 PCOD9003336
Probable space group: P -1
;
_chemical_formula_sum "Si O2"
_cell_formula_units_Z 16
_cell_length_a 19.429385
_cell_length_b 12.534332
_cell_length_c 8.150379
_cell_angle_alpha 81.320788
_cell_angle_beta 52.179996
_cell_angle_gamma 36.809894
_cell_volume 653.496893
_symmetry_space_group_name_H-M "P -1"
_symmetry_group_IT_number 2
_symmetry_cell_setting 'triclinic'
loop_
_space_group_symop_operation_xyz
x,y,z
-x,-y,-z
loop_
_atom_site_type_symbol
_atom_site_label
_atom_site_fract_x
_atom_site_fract_y
_atom_site_fract_z
Si Si1 0.952183 0.205901 0.486689
Si Si2 0.636765 0.901219 0.608892
Si Si3 0.552899 0.317335 0.117400
Si Si4 0.572237 0.075238 0.014475
Si Si5 0.979286 0.646264 0.735274
Si Si6 0.355913 0.906750 0.641015
Si Si7 0.091631 0.880099 0.121854
Si Si8 0.711984 0.220881 0.424590
O O1 0.890962 0.399245 0.518148
O O2 0.851864 0.253357 0.771145
O O3 0.950020 0.136874 0.340770
O O4 0.205049 0.927176 0.209650
O O5 0.546956 0.882900 0.719088
O O6 0.573779 0.055080 0.525491
O O7 0.880574 0.608434 0.350963
O O8 0.569906 0.031783 0.845850
O O9 0.496422 0.284601 0.083401
O O10 0.427858 0.566115 0.281101
O O11 0.528643 0.278959 0.334034
O O12 0.801478 0.818792 0.822848
O O13 0.869284 0.821401 0.013771
O O14 0.345505 0.835478 0.523518
O O15 0.270305 0.733000 0.785622
O O16 0.947112 0.966997 0.202911
#
# Coordination Sequence:
#
# PCOD9003336 Si02
#       8
#     2   2   2   2   2   2   2   2
#     4   9  20  40  57  90 123 159 201 253 303 374
#     4  11  22  41  66  89 122 163 210 260 303 364
#     4  10  22  41  63  82 130 163 196 256 315 362
#     4   9  23  42  59  93 122 156 212 261 295 374
#     4  10  21  41  66  86 127 165 198 258 318 359
#     4  10  22  39  61  91 124 158 206 252 302 374
#     4  10  21  37  59  89 127 154 209 247 299 375
#     4  11  22  38  61  93 124 161 200 253 304 372
#
# _framework density 24.483668000000002
#
# number of rings (size 3 to 8) (size 9 to 14) (size 15 to 20)
#    0.000    2.250    2.500    1.125    5.250    2.500 
#    4.500    1.250    0.000    0.000    0.000    0.000 
#    0.000    0.000    0.000    0.000    0.000    0.000 
#
# Total GULP energy -89405.244349 kJ/mol
# GULP energy per Si atom -5587.827772 kJ/mol
# Density = 2.442794 g / cm^3
# Si number density = 24.483668 Si / 1000 Ang^3
#
#
#
# Elastic Constant Matrix: (Units=GPa)
#
#
# Indices 1 2 3 4 5 6 
#
# 1 91.6258 11.1569 15.8634 -5.8740 4.2072 12.1750
# 2 11.1569 75.3701 22.0492 -11.0550 1.1377 13.6494
# 3 15.8634 22.0492 69.8688 3.0290 12.6686 8.6422
# 4 -5.8740 -11.0550 3.0290 36.7578 10.9937 1.6066
# 5 4.2072 1.1377 12.6686 10.9937 34.3281 1.1144
# 6 12.1750 13.6494 8.6422 1.6066 1.1144 30.1268
#
#
#
# Elastic Compliance Matrix: (Units=1/GPa)
#
#
# Indices 1 2 3 4 5 6 
#
# 1 0.012095 0.000036 -0.002068 0.002742 -0.001456 -0.004404
# 2 0.000036 0.016660 -0.004619 0.005834 -0.000509 -0.006530
# 3 -0.002068 -0.004619 0.017532 -0.001425 -0.005548 -0.001820
# 4 0.002742 0.005834 -0.001425 0.032820 -0.010361 -0.004710
# 5 -0.001456 -0.000509 -0.005548 -0.010361 0.034637 0.001682
# 6 -0.004404 -0.006530 -0.001820 -0.004710 0.001682 0.038642
#
#
# Mechanical properties :
#
#
# Convention : Reuss Voigt Hill
#
# Bulk Modulus (GPa) = 30.31525 37.22262 33.76893
# Shear Modulus (GPa) = 28.29923 32.76222 30.53072
#
# Velocity S-wave (km/s) = 3.40345 3.66201 3.53510
# Velocity P-wave (km/s) = 5.27763 5.75469 5.52131
#
# Compressibility (1/GPa) = 0.03298670
#
# Stress axis : x y z
#
# Youngs Moduli (GPa) = 82.67652 60.02516 57.03697
#
# Poissons Ratio (x) = -0.00217 0.11794
# Poissons Ratio (y) = -0.00299 0.26344
# Poissons Ratio (z) = 0.17096 0.27724
#
# Static dielectric constant tensor:
#      x y z
#    x 1.959450 -0.036460 -0.025780 
#    y -0.036460 2.018820 0.012940 
#    z -0.025780 0.012940 1.990140 
# 
# From -- ./inp_files/213621.got.cif
#   From: 2010.05.17/outbox.cif.g08.bks.cpg/sg2_107_cif.got.tgz:213621.got - 2010.06.03 11:33:40.
