data_PCOD9003522
_publ_section_title
;
Structure prediction by ZEFSAII (Michael W. Deem and Ramdas Pophale) SiO2 
 PCOD9003522
Probable space group: P -1
;
_chemical_formula_sum "Si O2"
_cell_formula_units_Z 16
_cell_length_a 9.929889
_cell_length_b 17.527549
_cell_length_c 13.491991
_cell_angle_alpha 155.205755
_cell_angle_beta 48.134903
_cell_angle_gamma 142.655023
_cell_volume 583.581401
_symmetry_space_group_name_H-M "P -1"
_symmetry_group_IT_number 2
_symmetry_cell_setting 'triclinic'
loop_
_space_group_symop_operation_xyz
x,y,z
-x,-y,-z
loop_
_atom_site_type_symbol
_atom_site_label
_atom_site_fract_x
_atom_site_fract_y
_atom_site_fract_z
Si Si1 0.689310 0.603060 0.409608
Si Si2 0.593791 0.707113 0.321647
Si Si3 0.410761 0.146053 0.878907
Si Si4 0.830278 0.349564 0.545168
Si Si5 0.787324 0.417325 0.876066
Si Si6 0.818314 0.139582 0.858325
Si Si7 0.867389 0.934116 0.269827
Si Si8 0.330871 0.648756 0.688980
O O1 0.557736 0.716266 0.606196
O O2 0.714915 0.542968 0.436891
O O3 0.524625 0.367943 0.153914
O O4 0.947463 0.796957 0.478542
O O5 0.334614 0.590150 0.338165
O O6 0.669558 0.545492 0.098581
O O7 0.654732 0.803370 0.293740
O O8 0.739007 0.927145 0.579049
O O9 0.221616 0.100342 0.838804
O O10 0.291973 0.916319 0.731154
O O11 0.624472 0.204369 0.776601
O O12 0.096405 0.523158 0.594935
O O13 0.802530 0.343755 0.672033
O O14 0.050810 0.637678 0.016366
O O15 0.999033 0.167396 0.881636
O O16 0.646486 0.157612 0.026903
#
# Coordination Sequence:
#
# PCOD9003522 Si02
#       8
#     2   2   2   2   2   2   2   2
#     4  11  24  46  64  87 123 166 213 257 311 354
#     4  11  21  38  65  95 127 165 198 248 316 377
#     4  12  23  38  65  94 123 168 199 255 316 362
#     4  11  22  38  61  93 125 161 206 252 308 365
#     4  10  21  37  60  92 130 159 193 252 310 367
#     4  10  22  40  64  93 123 167 206 247 311 369
#     4  11  23  41  64  95 130 156 205 258 304 372
#     4  10  24  45  63  86 124 164 213 267 293 363
#
# _framework density 27.416913000000001
#
# number of rings (size 3 to 8) (size 9 to 14) (size 15 to 20)
#    0.000    1.250    2.500    4.500    3.500    1.000 
#    2.250    3.750    0.000    0.000    0.000    0.000 
#    0.000    0.000    0.000    0.000    0.000    0.000 
#
# Total GULP energy -89569.422235 kJ/mol
# GULP energy per Si atom -5598.088890 kJ/mol
# Density = 2.735451 g / cm^3
# Si number density = 27.416913 Si / 1000 Ang^3
#
#
#
# Elastic Constant Matrix: (Units=GPa)
#
#
# Indices 1 2 3 4 5 6 
#
# 1 91.9265 4.9464 8.6979 -2.4500 4.5934 32.4798
# 2 4.9464 91.0851 13.5738 -3.2398 7.8708 25.2371
# 3 8.6979 13.5738 149.8047 14.8977 9.7432 24.6049
# 4 -2.4500 -3.2398 14.8977 39.4577 12.1018 -9.4252
# 5 4.5934 7.8708 9.7432 12.1018 48.0470 6.6183
# 6 32.4798 25.2371 24.6049 -9.4252 6.6183 43.0963
#
#
#
# Elastic Compliance Matrix: (Units=1/GPa)
#
#
# Indices 1 2 3 4 5 6 
#
# 1 0.015925 0.003021 0.001636 -0.003275 0.000613 -0.015515
# 2 0.003021 0.013749 0.000518 -0.001180 -0.000868 -0.010748
# 3 0.001636 0.000518 0.008190 -0.004789 0.000311 -0.007307
# 4 -0.003275 -0.001180 -0.004789 0.033017 -0.008832 0.014470
# 5 0.000613 -0.000868 0.000311 -0.008832 0.023847 -0.005725
# 6 -0.015515 -0.010748 -0.007307 0.014470 -0.005725 0.049407
#
#
# Mechanical properties :
#
#
# Convention : Reuss Voigt Hill
#
# Bulk Modulus (GPa) = 20.74157 43.02805 31.88481
# Shear Modulus (GPa) = 33.36568 46.49341 39.92955
#
# Velocity S-wave (km/s) = 3.49230 4.12247 3.82040
# Velocity P-wave (km/s) = 4.88295 6.19578 5.57812
#
# Compressibility (1/GPa) = 0.04821235
#
# Stress axis : x y z
#
# Youngs Moduli (GPa) = 62.79480 72.73467 122.10641
#
# Poissons Ratio (x) = -0.21972 -0.19974
# Poissons Ratio (y) = -0.18969 -0.06326
# Poissons Ratio (z) = -0.10272 -0.03768
#
# Static dielectric constant tensor:
#      x y z
#    x 2.261760 -0.042680 -0.053450 
#    y -0.042680 2.141050 0.045760 
#    z -0.053450 0.045760 2.159580 
# 
# From -- ./inp_files/570972.got.cif
#   From: 2010.05.17/outbox.cif.g08.bks.cpg/sg2_286_cif.got.tgz:570972.got - 2010.06.03 11:33:40.
