data_PCOD9003244
_publ_section_title
;
Structure prediction by ZEFSAII (Michael W. Deem and Ramdas Pophale) SiO2 
 PCOD9003244
Probable space group: P -1
;
_chemical_formula_sum "Si O2"
_cell_formula_units_Z 16
_cell_length_a 9.638919
_cell_length_b 17.951286
_cell_length_c 7.142697
_cell_angle_alpha 91.839636
_cell_angle_beta 70.385035
_cell_angle_gamma 44.282311
_cell_volume 739.814208
_symmetry_space_group_name_H-M "P -1"
_symmetry_group_IT_number 2
_symmetry_cell_setting 'triclinic'
loop_
_space_group_symop_operation_xyz
x,y,z
-x,-y,-z
loop_
_atom_site_type_symbol
_atom_site_label
_atom_site_fract_x
_atom_site_fract_y
_atom_site_fract_z
Si Si1 0.567749 0.158164 0.890381
Si Si2 0.269821 0.066326 0.218043
Si Si3 0.353732 0.488689 0.827445
Si Si4 0.667590 0.234417 0.555740
Si Si5 0.971668 0.830794 0.321929
Si Si6 0.851185 0.132324 0.054269
Si Si7 0.205540 0.587831 0.280926
Si Si8 0.942252 0.699549 0.770378
O O1 0.599487 0.182184 0.673980
O O2 0.733960 0.020841 0.820484
O O3 0.646367 0.188335 0.009515
O O4 0.305972 0.235178 0.052584
O O5 0.086847 0.199979 0.240598
O O6 0.267142 0.078413 0.446276
O O7 0.500000 0.000000 0.000000
O O8 0.457290 0.374280 0.680434
O O9 0.561080 0.468536 0.739265
O O10 0.137371 0.604247 0.822935
O O11 0.281310 0.502664 0.077019
O O12 0.866554 0.189127 0.600290
O O13 0.751274 0.195725 0.303122
O O14 0.079042 0.707025 0.245975
O O15 0.993805 0.866594 0.122869
O O16 0.000000 0.000000 0.000000
O O17 0.034262 0.630653 0.525894
#
# Coordination Sequence:
#
# PCOD9003244 Si02
#       8
#     2   2   2   2   2   2   2   2
#     4  10  22  39  56  83 117 149 191 235 280 337
#     4   9  18  36  59  82 113 148 183 231 285 333
#     4  10  21  37  59  84 114 150 190 231 282 338
#     4  10  22  38  57  83 115 150 189 234 280 333
#     4   9  19  36  57  85 114 143 187 236 282 334
#     4  11  22  36  60  85 111 152 195 234 279 333
#     4   9  20  37  58  86 115 144 187 236 280 337
#     4  10  21  37  60  84 114 152 185 232 289 336
#
# _framework density 21.627051999999999
#
# number of rings (size 3 to 8) (size 9 to 14) (size 15 to 20)
#    0.000    2.250    0.000    1.875    0.000   11.500 
#    0.000    1.250    0.000   10.500    0.000    0.000 
#    0.000    0.000    0.000    0.000    0.000    0.000 
#
# Total GULP energy -89355.871212 kJ/mol
# GULP energy per Si atom -5584.741951 kJ/mol
# Density = 2.157783 g / cm^3
# Si number density = 21.627052 Si / 1000 Ang^3
#
#
#
# Elastic Constant Matrix: (Units=GPa)
#
#
# Indices 1 2 3 4 5 6 
#
# 1 26.2158 29.1291 49.9023 -3.3952 -8.0175 13.6273
# 2 29.1291 84.6552 47.8597 2.8853 0.2046 -6.4774
# 3 49.9023 47.8597 183.1325 5.0869 -1.4063 4.6770
# 4 -3.3952 2.8853 5.0869 38.9342 7.9364 -2.7514
# 5 -8.0175 0.2046 -1.4063 7.9364 35.4510 3.5784
# 6 13.6273 -6.4774 4.6770 -2.7514 3.5784 13.1256
#
#
#
# Elastic Compliance Matrix: (Units=1/GPa)
#
#
# Indices 1 2 3 4 5 6 
#
# 1 -0.087353 0.031502 0.012426 0.002624 -0.031223 0.110873
# 2 0.031502 0.003486 -0.008616 -0.000599 0.010002 -0.030768
# 3 0.012426 -0.008616 0.004939 -0.001506 0.005485 -0.020724
# 4 0.002624 -0.000599 -0.001506 0.027771 -0.006187 0.005025
# 5 -0.031223 0.010002 0.005485 -0.006187 0.019794 0.028705
# 6 0.110873 -0.030768 -0.020724 0.005025 0.028705 -0.053495
#
#
# Mechanical properties :
#
#
# Convention : Reuss Voigt Hill
#
# Bulk Modulus (GPa) = -120.43164 60.86508 -29.78328
# Shear Modulus (GPa) = -31.59545 28.64299 -1.47623
#
# Velocity S-wave (km/s) = -3.82635 3.64319 -0.82708
# Velocity P-wave (km/s) = 8.67916 6.77504 3.83579
#
# Compressibility (1/GPa) = -0.00830347
#
# Stress axis : x y z
#
# Youngs Moduli (GPa) = -11.44778 286.84935 202.45630
#
# Poissons Ratio (x) = -9.03625 -2.51577
# Poissons Ratio (y) = 0.36062 1.74433
# Poissons Ratio (z) = 0.14225 2.47145
#
# Static dielectric constant tensor:
#      x y z
#    x 1.824250 -0.010330 -0.015830 
#    y -0.010330 1.777710 -0.004790 
#    z -0.015830 -0.004790 1.836210 
# 
# From -- ./inp_files/82630.got.cif
#   From: 2010.05.17/outbox.cif.g08.bks.cpg/sg2_42_cif.got.tgz:82630.got - 2010.06.03 11:33:40.
