data_PCOD9003207
_publ_section_title
;
Structure prediction by ZEFSAII (Michael W. Deem and Ramdas Pophale) SiO2 
 PCOD9003207
Probable space group: P -1
;
_chemical_formula_sum "Si O2"
_cell_formula_units_Z 12
_cell_length_a 9.507465
_cell_length_b 5.186086
_cell_length_c 12.194821
_cell_angle_alpha 100.342401
_cell_angle_beta 54.316621
_cell_angle_gamma 98.033165
_cell_volume 479.997847
_symmetry_space_group_name_H-M "P -1"
_symmetry_group_IT_number 2
_symmetry_cell_setting 'triclinic'
loop_
_space_group_symop_operation_xyz
x,y,z
-x,-y,-z
loop_
_atom_site_type_symbol
_atom_site_label
_atom_site_fract_x
_atom_site_fract_y
_atom_site_fract_z
Si Si1 0.915761 0.848450 0.629241
Si Si2 0.830369 0.343712 0.328827
Si Si3 0.699327 0.009629 0.946087
Si Si4 0.566610 0.953011 0.341693
Si Si5 0.122473 0.467851 0.047559
Si Si6 0.379090 0.418211 0.380909
O O1 0.784704 0.614436 0.627820
O O2 0.082510 0.769226 0.613284
O O3 0.805491 0.991905 0.782380
O O4 0.000000 0.000000 0.500000
O O5 0.755375 0.099476 0.271742
O O6 0.688228 0.524613 0.460104
O O7 0.979687 0.501947 0.209987
O O8 0.740505 0.291935 0.000426
O O9 0.775512 0.789582 0.977789
O O10 0.500000 0.000000 0.000000
O O11 0.458836 0.135237 0.325594
O O12 0.500000 0.000000 0.500000
O O13 0.520791 0.652375 0.310061
O O14 0.000000 0.500000 0.000000
#
# Coordination Sequence:
#
# PCOD9003207 Si02
#       6
#     2   2   2   2   2   2
#     4  11  23  42  70 103 137 177 224 280 345 412
#     4  10  22  41  65  97 136 175 223 286 342 404
#     4  11  26  49  72 102 142 184 232 289 346 413
#     4  10  21  37  58  90 133 171 209 262 330 401
#     4  11  25  47  73  99 132 184 241 289 341 409
#     4  11  22  38  61  97 134 171 212 266 340 409
#
# _framework density 25.000112999999999
#
# number of rings (size 3 to 8) (size 9 to 14) (size 15 to 20)
#    0.000    1.333    0.000    6.500    0.000   10.667 
#    0.000    8.333    0.000    0.000    0.000    0.000 
#    0.000    0.000    0.000    0.000    0.000    0.000 
#
# Total GULP energy -67106.639377 kJ/mol
# GULP energy per Si atom -5592.219948 kJ/mol
# Density = 2.494321 g / cm^3
# Si number density = 25.000113 Si / 1000 Ang^3
#
#
#
# Elastic Constant Matrix: (Units=GPa)
#
#
# Indices 1 2 3 4 5 6 
#
# 1 173.7242 68.2279 28.6952 -18.7211 -3.0772 -0.4734
# 2 68.2279 152.7985 24.8107 -12.5048 5.5429 12.9910
# 3 28.6952 24.8107 72.8470 -10.2176 11.2490 -26.2611
# 4 -18.7211 -12.5048 -10.2176 22.8980 -4.6890 -1.2747
# 5 -3.0772 5.5429 11.2490 -4.6890 23.3962 -7.9645
# 6 -0.4734 12.9910 -26.2611 -1.2747 -7.9645 52.7962
#
#
#
# Elastic Compliance Matrix: (Units=1/GPa)
#
#
# Indices 1 2 3 4 5 6 
#
# 1 0.007803 -0.003001 -0.001735 0.004767 0.003740 0.000625
# 2 -0.003001 0.008794 -0.002810 0.000386 -0.002391 -0.003940
# 3 -0.001735 -0.002810 0.020672 0.005867 -0.004793 0.010377
# 4 0.004767 0.000386 0.005867 0.052810 0.010234 0.005685
# 5 0.003740 -0.002391 -0.004793 0.010234 0.050219 0.006060
# 6 0.000625 -0.003940 0.010377 0.005685 0.006060 0.026129
#
#
# Mechanical properties :
#
#
# Convention : Reuss Voigt Hill
#
# Bulk Modulus (GPa) = 45.09292 71.42637 58.25965
# Shear Modulus (GPa) = 26.46726 38.32712 32.39719
#
# Velocity S-wave (km/s) = 3.25727 3.91970 3.60374
# Velocity P-wave (km/s) = 5.67650 7.00841 6.37733
#
# Compressibility (1/GPa) = 0.02217643
#
# Stress axis : x y z
#
# Youngs Moduli (GPa) = 128.15249 113.71111 48.37496
#
# Poissons Ratio (x) = 0.34126 0.08395
# Poissons Ratio (y) = 0.38461 0.13593
# Poissons Ratio (z) = 0.22239 0.31952
#
# Static dielectric constant tensor:
#      x y z
#    x 1.888310 0.080390 -0.121460 
#    y 0.080390 2.062220 0.293940 
#    z -0.121460 0.293940 2.239160 
# 
# From -- ./inp_files/373121.got.cif
#   From: 2010.05.17/outbox.cif.g08.bks.cpg/sg2_187_cif.got.tgz:373121.got - 2010.06.03 11:33:40.
