data_PCOD9003731
_publ_section_title
;
Structure prediction by ZEFSAII (Michael W. Deem and Ramdas Pophale) SiO2 
 PCOD9003731
Probable space group: P -1
;
_chemical_formula_sum "Si O2"
_cell_formula_units_Z 14
_cell_length_a 5.263658
_cell_length_b 5.007052
_cell_length_c 19.660227
_cell_angle_alpha 110.069057
_cell_angle_beta 93.364362
_cell_angle_gamma 86.341156
_cell_volume 485.324719
_symmetry_space_group_name_H-M "P -1"
_symmetry_group_IT_number 2
_symmetry_cell_setting 'triclinic'
loop_
_space_group_symop_operation_xyz
x,y,z
-x,-y,-z
loop_
_atom_site_type_symbol
_atom_site_label
_atom_site_fract_x
_atom_site_fract_y
_atom_site_fract_z
Si Si1 0.122092 0.504656 0.089579
Si Si2 0.583276 0.701399 0.350435
Si Si3 0.209781 0.940464 0.820098
Si Si4 0.632829 0.282363 0.050511
Si Si5 0.717100 0.704766 0.777328
Si Si6 0.906816 0.213414 0.391210
Si Si7 0.290957 0.634937 0.458645
O O1 0.404253 0.527959 0.063794
O O2 0.204726 0.349460 0.147816
O O3 0.917467 0.320374 0.029726
O O4 0.943869 0.777438 0.131659
O O5 0.405469 0.573103 0.279234
O O6 0.711436 0.437186 0.370581
O O7 0.399876 0.832991 0.418801
O O8 0.800566 0.904983 0.346465
O O9 0.293023 0.762227 0.872829
O O10 0.485793 0.945771 0.789165
O O11 0.990289 0.792237 0.760564
O O12 0.500000 0.000000 0.000000
O O13 0.892721 0.221477 0.474800
O O14 0.167035 0.369438 0.395636
O O15 0.500000 0.500000 0.500000
#
# Coordination Sequence:
#
# PCOD9003731 Si02
#       7
#     2   2   2   2   2   2   2
#     4  10  21  40  63  88 130 176 213 276 338 399
#     4  11  24  41  63  97 128 177 229 288 348 423
#     4  10  22  42  62  89 129 176 222 274 344 400
#     4  10  21  37  61  98 129 165 220 273 330 409
#     4  10  24  41  61  92 129 173 227 284 336 415
#     4  10  23  41  65  94 130 168 226 283 356 421
#     4   9  21  42  65  93 129 172 216 287 354 423
#
# _framework density 28.846665000000002
#
# number of rings (size 3 to 8) (size 9 to 14) (size 15 to 20)
#    0.000    2.000    0.000    1.714    4.000    8.571 
#    0.000    0.000    0.000    0.000    0.000    0.000 
#    0.000    0.000    0.000    0.000    0.000    0.000 
#
# Total GULP energy -78293.315019 kJ/mol
# GULP energy per Si atom -5592.379644 kJ/mol
# Density = 2.878101 g / cm^3
# Si number density = 28.846665 Si / 1000 Ang^3
#
#
#
# Elastic Constant Matrix: (Units=GPa)
#
#
# Indices 1 2 3 4 5 6 
#
# 1 213.5407 55.2754 60.3581 -4.7362 45.8021 -15.8082
# 2 55.2754 118.2781 22.8722 3.3934 22.9619 -12.5522
# 3 60.3581 22.8722 149.3628 16.4021 59.0875 -2.8215
# 4 -4.7362 3.3934 16.4021 38.6243 3.5214 5.7732
# 5 45.8021 22.9619 59.0875 3.5214 67.0882 1.6454
# 6 -15.8082 -12.5522 -2.8215 5.7732 1.6454 54.3283
#
#
#
# Elastic Compliance Matrix: (Units=1/GPa)
#
#
# Indices 1 2 3 4 5 6 
#
# 1 0.006269 -0.002107 -0.001399 0.001596 -0.002439 0.001169
# 2 -0.002107 0.010062 0.000437 -0.001405 -0.002364 0.001955
# 3 -0.001399 0.000437 0.011183 -0.004302 -0.008843 0.001000
# 4 0.001596 -0.001405 -0.004302 0.028346 0.001770 -0.003150
# 5 -0.002439 -0.002364 -0.008843 0.001770 0.025141 -0.002665
# 6 0.001169 0.001955 0.001000 -0.003150 -0.002665 0.019666
#
#
# Mechanical properties :
#
#
# Convention : Reuss Voigt Hill
#
# Bulk Modulus (GPa) = 46.78198 84.24369 65.51284
# Shear Modulus (GPa) = 43.88713 54.85322 49.37017
#
# Velocity S-wave (km/s) = 3.90474 4.36540 4.14148
# Velocity P-wave (km/s) = 6.04830 7.39434 6.75493
#
# Compressibility (1/GPa) = 0.02137575
#
# Stress axis : x y z
#
# Youngs Moduli (GPa) = 159.51777 99.38629 89.42285
#
# Poissons Ratio (x) = 0.20945 0.12509
# Poissons Ratio (y) = 0.33617 -0.03912
# Poissons Ratio (z) = 0.22314 -0.04347
#
# Static dielectric constant tensor:
#      x y z
#    x 2.432820 0.067070 -0.149480 
#    y 0.067070 2.232330 0.054550 
#    z -0.149480 0.054550 2.296890 
# 
# From -- ./inp_files/114034.got.cif
#   From: 2010.05.17/outbox.cif.g08.bks.cpg/sg2_58_cif.got.tgz:114034.got - 2010.06.03 11:33:40.
