data_PCOD9003561
_publ_section_title
;
Structure prediction by ZEFSAII (Michael W. Deem and Ramdas Pophale) SiO2 
 PCOD9003561
Probable space group: P -1
;
_chemical_formula_sum "Si O2"
_cell_formula_units_Z 15
_cell_length_a 4.937670
_cell_length_b 21.965715
_cell_length_c 5.471484
_cell_angle_alpha 86.708192
_cell_angle_beta 95.992532
_cell_angle_gamma 103.030690
_cell_volume 574.641916
_symmetry_space_group_name_H-M "P -1"
_symmetry_group_IT_number 2
_symmetry_cell_setting 'triclinic'
loop_
_space_group_symop_operation_xyz
x,y,z
-x,-y,-z
loop_
_atom_site_type_symbol
_atom_site_label
_atom_site_fract_x
_atom_site_fract_y
_atom_site_fract_z
Si Si1 0.887608 0.352338 0.864540
Si Si2 0.253611 0.457730 0.151569
Si Si3 0.569519 0.176326 0.641037
Si Si4 0.000000 0.500000 0.500000
Si Si5 0.345864 0.624487 0.671905
Si Si6 0.071362 0.132454 0.225971
Si Si7 0.497582 0.929590 0.949421
Si Si8 0.138296 0.238449 0.817643
O O1 0.709115 0.349010 0.600779
O O2 0.098662 0.306995 0.855446
O O3 0.713682 0.337675 0.104117
O O4 0.059243 0.424430 0.903229
O O5 0.272430 0.510979 0.358889
O O6 0.368680 0.397798 0.275672
O O7 0.500000 0.500000 0.000000
O O8 0.322381 0.154953 0.431718
O O9 0.435342 0.225398 0.774107
O O10 0.887973 0.210471 0.605592
O O11 0.581502 0.115544 0.814756
O O12 0.095604 0.561068 0.682089
O O13 0.203040 0.082340 0.096908
O O14 0.753894 0.097120 0.261331
O O15 0.057544 0.193638 0.054154
O O16 0.500000 0.000000 0.000000
#
# Coordination Sequence:
#
# PCOD9003561 Si02
#       8
#     2   2   2   1   2   2   2   2
#     4  11  27  43  66 104 133 176 235 292 347 434
#     4  11  24  45  74  99 140 182 229 291 369 437
#     4  10  22  41  65  90 129 178 226 278 341 411
#     4  10  22  44  66 100 134 176 222 282 352 446
#     4  11  24  43  68  98 134 173 224 280 358 415
#     4  10  21  39  64  92 129 181 221 274 341 403
#     4  10  21  37  60  98 136 168 223 278 332 407
#     4  10  24  42  63  93 130 172 232 282 345 410
#
# _framework density 26.103214999999999
#
# number of rings (size 3 to 8) (size 9 to 14) (size 15 to 20)
#    0.000    1.600    0.000    3.200    3.733    7.467 
#    0.000    2.000    0.000    0.000    0.000    0.000 
#    0.000    0.000    0.000    0.000    0.000    0.000 
#
# Total GULP energy -83592.902786 kJ/mol
# GULP energy per Si atom -5572.860186 kJ/mol
# Density = 2.604380 g / cm^3
# Si number density = 26.103215 Si / 1000 Ang^3
#
#
#
# Elastic Constant Matrix: (Units=GPa)
#
#
# Indices 1 2 3 4 5 6 
#
# 1 106.5338 23.3170 20.4165 -13.2744 8.4278 -13.7593
# 2 23.3170 140.6090 33.5545 1.8194 9.4024 -24.8843
# 3 20.4165 33.5545 124.5685 -0.0314 13.0602 -7.5435
# 4 -13.2744 1.8194 -0.0314 20.7188 -8.0546 10.7025
# 5 8.4278 9.4024 13.0602 -8.0546 56.3066 9.4752
# 6 -13.7593 -24.8843 -7.5435 10.7025 9.4752 41.7276
#
#
#
# Elastic Compliance Matrix: (Units=1/GPa)
#
#
# Indices 1 2 3 4 5 6 
#
# 1 0.010899 -0.001390 -0.001320 0.006496 -0.000321 0.000933
# 2 -0.001390 0.009280 -0.001504 -0.006675 -0.003165 0.007235
# 3 -0.001320 -0.001504 0.008959 -0.002250 -0.002180 0.001360
# 4 0.006496 -0.006675 -0.002250 0.071106 0.014850 -0.023855
# 5 -0.000321 -0.003165 -0.002180 0.014850 0.022884 -0.011392
# 6 0.000933 0.007235 0.001360 -0.023855 -0.011392 0.037538
#
#
# Mechanical properties :
#
#
# Convention : Reuss Voigt Hill
#
# Bulk Modulus (GPa) = 48.28344 58.47637 53.37990
# Shear Modulus (GPa) = 28.40959 43.37882 35.89421
#
# Velocity S-wave (km/s) = 3.30260 4.08096 3.71224
# Velocity P-wave (km/s) = 5.75154 6.68254 6.23444
#
# Compressibility (1/GPa) = 0.02071104
#
# Stress axis : x y z
#
# Youngs Moduli (GPa) = 91.74947 107.76388 111.61390
#
# Poissons Ratio (x) = 0.14978 0.14735
# Poissons Ratio (y) = 0.12752 0.16782
# Poissons Ratio (z) = 0.12113 0.16203
#
# Static dielectric constant tensor:
#      x y z
#    x 2.204770 -0.246390 0.302060 
#    y -0.246390 2.646090 -0.719880 
#    z 0.302060 -0.719880 3.045670 
# 
# From -- ./inp_files/11439.got.cif
#   From: 2010.05.17/outbox.cif.g08.bks.cpg/sg2_6_cif.got.tgz:11439.got - 2010.06.03 11:33:40.
