data_PCOD9003093
_publ_section_title
;
Structure prediction by ZEFSAII (Michael W. Deem and Ramdas Pophale) SiO2 
 PCOD9003093
Probable space group: P -1
;
_chemical_formula_sum "Si O2"
_cell_formula_units_Z 12
_cell_length_a 9.264532
_cell_length_b 9.304699
_cell_length_c 12.225818
_cell_angle_alpha 112.143779
_cell_angle_beta 66.501646
_cell_angle_gamma 148.726962
_cell_volume 500.284431
_symmetry_space_group_name_H-M "P -1"
_symmetry_group_IT_number 2
_symmetry_cell_setting 'triclinic'
loop_
_space_group_symop_operation_xyz
x,y,z
-x,-y,-z
loop_
_atom_site_type_symbol
_atom_site_label
_atom_site_fract_x
_atom_site_fract_y
_atom_site_fract_z
Si Si1 0.481627 0.491893 0.300098
Si Si2 0.747458 0.164607 0.336582
Si Si3 0.105987 0.398618 0.686929
Si Si4 0.879317 0.060820 0.450230
Si Si5 0.650798 0.405092 0.813300
Si Si6 0.262471 0.728525 0.065588
O O1 0.154866 0.217249 0.351500
O O2 0.494036 0.566511 0.193519
O O3 0.660166 0.487179 0.273319
O O4 0.482986 0.849397 0.285772
O O5 0.194504 0.834919 0.555732
O O6 0.750415 0.345540 0.353384
O O7 0.017556 0.316919 0.233054
O O8 0.859211 0.265238 0.798131
O O9 0.970064 0.167722 0.576370
O O10 0.622421 0.737619 0.407184
O O11 0.627615 0.338204 0.927392
O O12 0.000000 0.500000 0.000000
O O13 0.500000 0.000000 0.000000
#
# Coordination Sequence:
#
# PCOD9003093 Si02
#       6
#     2   2   2   2   2   2
#     4  10  22  37  59  90 123 150 180 228 293 356
#     4   9  19  34  58  86 116 152 188 224 279 348
#     4  11  22  38  61  88 116 155 195 235 281 340
#     4  10  21  37  57  89 126 154 180 224 287 355
#     4   9  19  39  58  81 116 149 184 239 290 334
#     4  11  24  41  60  82 109 150 202 248 281 323
#
# _framework density 23.986353999999999
#
# number of rings (size 3 to 8) (size 9 to 14) (size 15 to 20)
#    0.000    2.000    0.000    3.500    0.000    8.000 
#    0.000   11.667    0.000    0.000    0.000    0.000 
#    0.000    0.000    0.000    0.000    0.000    0.000 
#
# Total GULP energy -67150.914232 kJ/mol
# GULP energy per Si atom -5595.909519 kJ/mol
# Density = 2.393176 g / cm^3
# Si number density = 23.986354 Si / 1000 Ang^3
#
#
#
# Elastic Constant Matrix: (Units=GPa)
#
#
# Indices 1 2 3 4 5 6 
#
# 1 200.2994 18.0382 33.8171 -12.8200 45.6731 -12.0264
# 2 18.0382 66.1583 13.6372 -13.7675 5.3573 4.4237
# 3 33.8171 13.6372 61.9588 -17.3052 25.9910 -1.7984
# 4 -12.8200 -13.7675 -17.3052 23.8522 2.8443 7.0947
# 5 45.6731 5.3573 25.9910 2.8443 50.4597 -3.6735
# 6 -12.0264 4.4237 -1.7984 7.0947 -3.6735 40.8552
#
#
#
# Elastic Compliance Matrix: (Units=1/GPa)
#
#
# Indices 1 2 3 4 5 6 
#
# 1 0.006754 -0.000605 0.000236 0.003969 -0.006336 0.000805
# 2 -0.000605 0.018248 0.000906 0.012566 -0.002896 -0.004557
# 3 0.000236 0.000906 0.030544 0.026394 -0.017886 -0.004876
# 4 0.003969 0.012566 0.026394 0.077683 -0.023968 -0.014676
# 5 -0.006336 -0.002896 -0.017886 -0.023968 0.036798 0.005132
# 6 0.000805 -0.004557 -0.004876 -0.014676 0.005132 0.028002
#
#
# Mechanical properties :
#
#
# Convention : Reuss Voigt Hill
#
# Bulk Modulus (GPa) = 17.66116 51.04461 34.35289
# Shear Modulus (GPa) = 23.16656 40.56168 31.86412
#
# Velocity S-wave (km/s) = 3.11114 4.11668 3.64871
# Velocity P-wave (km/s) = 4.50384 6.62744 5.66602
#
# Compressibility (1/GPa) = 0.05662142
#
# Stress axis : x y z
#
# Youngs Moduli (GPa) = 148.05470 54.80189 32.73922
#
# Poissons Ratio (x) = 0.03317 -0.00774
# Poissons Ratio (y) = 0.08960 -0.02967
# Poissons Ratio (z) = -0.03501 -0.04967
#
# Static dielectric constant tensor:
#      x y z
#    x 1.989390 -0.057410 0.004710 
#    y -0.057410 1.874160 -0.014390 
#    z 0.004710 -0.014390 1.895280 
# 
# From -- ./inp_files/379498.got.cif
#   From: 2010.05.17/outbox.cif.g08.bks.cpg/sg2_190_cif.got.tgz:379498.got - 2010.06.03 11:33:40.
