data_PCOD9003054
_publ_section_title
;
Structure prediction by ZEFSAII (Michael W. Deem and Ramdas Pophale) SiO2 
 PCOD9003054
Probable space group: P -1
;
_chemical_formula_sum "Si O2"
_cell_formula_units_Z 14
_cell_length_a 7.621867
_cell_length_b 10.787172
_cell_length_c 17.017867
_cell_angle_alpha 39.406495
_cell_angle_beta 135.036583
_cell_angle_gamma 136.124239
_cell_volume 578.446936
_symmetry_space_group_name_H-M "P -1"
_symmetry_group_IT_number 2
_symmetry_cell_setting 'triclinic'
loop_
_space_group_symop_operation_xyz
x,y,z
-x,-y,-z
loop_
_atom_site_type_symbol
_atom_site_label
_atom_site_fract_x
_atom_site_fract_y
_atom_site_fract_z
Si Si1 0.428944 0.477348 0.651293
Si Si2 0.814671 0.214082 0.603719
Si Si3 0.864380 0.077239 0.349263
Si Si4 0.678599 0.287548 0.698016
Si Si5 0.543013 0.760291 0.799154
Si Si6 0.823061 0.671312 0.069536
Si Si7 0.899607 0.527867 0.869094
O O1 0.386265 0.696259 0.547903
O O2 0.612853 0.466132 0.639595
O O3 0.584970 0.416059 0.801496
O O4 0.122040 0.312072 0.625763
O O5 0.799403 0.317931 0.633633
O O6 0.717083 0.960874 0.703523
O O7 0.731455 0.207709 0.293996
O O8 0.033251 0.234325 0.257808
O O9 0.616471 0.892312 0.320081
O O10 0.000000 0.000000 0.500000
O O11 0.903082 0.229014 0.843853
O O12 0.419471 0.506507 0.871467
O O13 0.690035 0.798080 0.912403
O O14 0.929452 0.562930 0.087095
O O15 0.000000 0.500000 0.000000
#
# Coordination Sequence:
#
# PCOD9003054 Si02
#       7
#     2   2   2   2   2   2   2
#     4  10  22  39  58  90 120 153 206 249 298 366
#     4  10  21  37  61  86 118 157 198 253 305 355
#     4  10  21  38  62  88 118 162 206 247 307 370
#     4  10  21  39  63  85 117 160 201 252 303 356
#     4   9  19  36  57  82 116 152 196 247 295 354
#     4   9  20  37  59  87 115 155 205 246 299 364
#     4  10  21  37  57  84 124 162 196 251 311 359
#
# _framework density 24.202739999999999
#
# number of rings (size 3 to 8) (size 9 to 14) (size 15 to 20)
#    0.000    2.286    0.000    2.143    0.000   10.286 
#    0.000    4.286    0.000    8.571    0.000    0.000 
#    0.000    0.000    0.000    0.000    0.000    0.000 
#
# Total GULP energy -77942.765690 kJ/mol
# GULP energy per Si atom -5567.340406 kJ/mol
# Density = 2.414765 g / cm^3
# Si number density = 24.202740 Si / 1000 Ang^3
#
#
#
# Elastic Constant Matrix: (Units=GPa)
#
#
# Indices 1 2 3 4 5 6 
#
# 1 99.5987 12.4208 22.2974 6.9444 6.6477 -0.3462
# 2 12.4208 81.3432 32.1257 8.4294 -6.4255 19.1371
# 3 22.2974 32.1257 155.4234 23.9354 20.1281 16.3192
# 4 6.9444 8.4294 23.9354 41.6557 11.7242 0.9509
# 5 6.6477 -6.4255 20.1281 11.7242 35.5807 7.0335
# 6 -0.3462 19.1371 16.3192 0.9509 7.0335 32.5164
#
#
#
# Elastic Compliance Matrix: (Units=1/GPa)
#
#
# Indices 1 2 3 4 5 6 
#
# 1 0.010676 -0.001865 -0.001070 -0.000253 -0.002079 0.002205
# 2 -0.001865 0.017120 -0.002673 -0.003696 0.008231 -0.010427
# 3 -0.001070 -0.002673 0.008245 -0.002956 -0.003636 -0.001703
# 4 -0.000253 -0.003696 -0.002956 0.029053 -0.009481 0.004858
# 5 -0.002079 0.008231 -0.003636 -0.009481 0.037303 -0.010833
# 6 0.002205 -0.010427 -0.001703 0.004858 -0.010833 0.039970
#
#
# Mechanical properties :
#
#
# Convention : Reuss Voigt Hill
#
# Bulk Modulus (GPa) = 40.27870 52.22811 46.25341
# Shear Modulus (GPa) = 30.89142 39.91865 35.40504
#
# Velocity S-wave (km/s) = 3.57649 4.06562 3.82887
# Velocity P-wave (km/s) = 5.80805 6.60797 6.22088
#
# Compressibility (1/GPa) = 0.02482702
#
# Stress axis : x y z
#
# Youngs Moduli (GPa) = 93.66516 58.41007 121.28551
#
# Poissons Ratio (x) = 0.10891 0.12972
# Poissons Ratio (y) = 0.17464 0.32423
# Poissons Ratio (z) = 0.10018 0.15614
#
# Static dielectric constant tensor:
#      x y z
#    x 1.970220 -0.019200 -0.044700 
#    y -0.019200 2.053170 -0.060330 
#    z -0.044700 -0.060330 2.179250 
# 
# From -- ./inp_files/218860.got.cif
#   From: 2010.05.17/outbox.cif.g08.bks.cpg/sg2_110_cif.got.tgz:218860.got - 2010.06.03 11:33:40.
