data_PCOD9003745
_publ_section_title
;
Structure prediction by ZEFSAII (Michael W. Deem and Ramdas Pophale) SiO2 
 PCOD9003745
Probable space group: P -1
;
_chemical_formula_sum "Si O2"
_cell_formula_units_Z 14
_cell_length_a 9.803042
_cell_length_b 6.734692
_cell_length_c 16.471885
_cell_angle_alpha 117.754811
_cell_angle_beta 114.766761
_cell_angle_gamma 46.281733
_cell_volume 687.487316
_symmetry_space_group_name_H-M "P -1"
_symmetry_group_IT_number 2
_symmetry_cell_setting 'triclinic'
loop_
_space_group_symop_operation_xyz
x,y,z
-x,-y,-z
loop_
_atom_site_type_symbol
_atom_site_label
_atom_site_fract_x
_atom_site_fract_y
_atom_site_fract_z
Si Si1 0.190417 0.878596 0.477823
Si Si2 0.383462 0.926769 0.406559
Si Si3 0.513052 0.208343 0.164350
Si Si4 0.066628 0.148200 0.866429
Si Si5 0.801782 0.826354 0.925572
Si Si6 0.515114 0.653062 0.637155
Si Si7 0.261734 0.878448 0.204688
O O1 0.339912 0.854814 0.572582
O O2 0.292626 0.557434 0.407902
O O3 0.191248 0.040617 0.430826
O O4 0.000000 0.000000 0.500000
O O5 0.500000 0.000000 0.500000
O O6 0.505995 0.584449 0.380968
O O7 0.337595 0.985221 0.311225
O O8 0.397001 0.103065 0.081193
O O9 0.481613 0.212369 0.254463
O O10 0.408496 0.533239 0.171693
O O11 0.734505 0.021665 0.163327
O O12 0.943285 0.485081 0.881612
O O13 0.933035 0.057962 0.799056
O O14 0.113654 0.109637 0.966945
O O15 0.772507 0.988498 0.866678
#
# Coordination Sequence:
#
# PCOD9003745 Si02
#       7
#     2   2   2   2   2   2   2
#     4   9  18  33  58  75 104 150 190 226 288 337
#     4   9  19  36  54  80 116 145 187 243 286 334
#     4  10  21  37  62  83 121 156 192 240 297 353
#     4  10  22  40  60  88 119 154 198 242 295 354
#     4  10  22  38  61  90 118 152 198 247 289 350
#     4   8  19  34  54  78 111 146 189 233 286 337
#     4  10  22  38  60  86 121 154 194 248 293 344
#
# _framework density 20.364011999999999
#
# number of rings (size 3 to 8) (size 9 to 14) (size 15 to 20)
#    0.857    1.714    0.000    0.857    4.000    1.714 
#    0.000    0.714    6.286    0.000    0.000    0.000 
#    0.000    0.000    0.000    0.000    0.000    0.000 
#
# Total GULP energy -77993.904875 kJ/mol
# GULP energy per Si atom -5570.993205 kJ/mol
# Density = 2.031766 g / cm^3
# Si number density = 20.364012 Si / 1000 Ang^3
#
#
#
# Elastic Constant Matrix: (Units=GPa)
#
#
# Indices 1 2 3 4 5 6 
#
# 1 118.9685 37.4155 20.8228 -2.3207 -10.7857 -28.5021
# 2 37.4155 39.3209 18.8062 -17.5604 -17.4240 -3.8543
# 3 20.8228 18.8062 92.9004 -16.1292 -3.4730 6.5164
# 4 -2.3207 -17.5604 -16.1292 20.3467 16.4874 -5.8434
# 5 -10.7857 -17.4240 -3.4730 16.4874 32.9843 -6.6992
# 6 -28.5021 -3.8543 6.5164 -5.8434 -6.6992 34.7364
#
#
#
# Elastic Compliance Matrix: (Units=1/GPa)
#
#
# Indices 1 2 3 4 5 6 
#
# 1 0.019170 -0.021684 -0.004525 -0.023656 0.008568 0.011846
# 2 -0.021684 0.073639 0.000385 0.059961 0.002037 0.000786
# 3 -0.004525 0.000385 0.014827 0.017962 -0.009773 -0.005315
# 4 -0.023656 0.059961 0.017962 0.153785 -0.051061 -0.000105
# 5 0.008568 0.002037 -0.009773 -0.051061 0.061188 0.012301
# 6 0.011846 0.000786 -0.005315 -0.000105 0.012301 0.041947
#
#
# Mechanical properties :
#
#
# Convention : Reuss Voigt Hill
#
# Bulk Modulus (GPa) = 17.86119 45.03097 31.44608
# Shear Modulus (GPa) = 11.49775 29.22317 20.36046
#
# Velocity S-wave (km/s) = 2.37873 3.79230 3.16543
# Velocity P-wave (km/s) = 4.04160 6.42934 5.36987
#
# Compressibility (1/GPa) = 0.05598731
#
# Stress axis : x y z
#
# Youngs Moduli (GPa) = 52.16350 13.57972 67.44613
#
# Poissons Ratio (x) = 0.29446 0.30519
# Poissons Ratio (y) = 1.13112 -0.02594
# Poissons Ratio (z) = 0.23604 -0.00522
#
# Static dielectric constant tensor:
#      x y z
#    x 1.749540 0.024910 0.011010 
#    y 0.024910 1.724740 -0.005290 
#    z 0.011010 -0.005290 1.775370 
# 
# From -- ./inp_files/553868.got.cif
#   From: 2010.05.17/outbox.cif.g08.bks.cpg/sg2_277_cif.got.tgz:553868.got - 2010.06.03 11:33:40.
