data_PCOD9003171
_publ_section_title
;
Structure prediction by ZEFSAII (Michael W. Deem and Ramdas Pophale) SiO2 
 PCOD9003171
Probable space group: P -1
;
_chemical_formula_sum "Si O2"
_cell_formula_units_Z 12
_cell_length_a 12.482631
_cell_length_b 19.499528
_cell_length_c 22.582361
_cell_angle_alpha 160.981574
_cell_angle_beta 16.651017
_cell_angle_gamma 152.878958
_cell_volume 505.926059
_symmetry_space_group_name_H-M "P -1"
_symmetry_group_IT_number 2
_symmetry_cell_setting 'triclinic'
loop_
_space_group_symop_operation_xyz
x,y,z
-x,-y,-z
loop_
_atom_site_type_symbol
_atom_site_label
_atom_site_fract_x
_atom_site_fract_y
_atom_site_fract_z
Si Si1 0.549352 0.482392 0.155859
Si Si2 0.537080 0.585671 0.377758
Si Si3 0.757130 0.174435 0.492849
Si Si4 0.917013 0.528207 0.360578
Si Si5 0.455156 0.969885 0.229154
Si Si6 0.665634 0.138978 0.129662
O O1 0.451091 0.483302 0.277900
O O2 0.375540 0.699012 0.393205
O O3 0.412949 0.279185 0.031519
O O4 0.006995 0.458775 0.890684
O O5 0.345601 0.499770 0.465865
O O6 0.419968 0.843313 0.645494
O O7 0.757551 0.355663 0.690250
O O8 0.500000 0.000000 0.500000
O O9 0.168608 0.035461 0.148711
O O10 0.967946 0.294247 0.113477
O O11 0.689701 0.696766 0.572761
O O12 0.557270 0.025860 0.153980
O O13 0.000000 0.000000 0.500000
#
# Coordination Sequence:
#
# PCOD9003171 Si02
#       6
#     2   2   2   2   2   2
#     4  10  21  37  58  87 121 152 195 244 294 351
#     4   9  19  38  62  85 113 158 200 239 289 350
#     4  12  26  39  58  90 124 158 196 246 301 350
#     4  10  22  41  63  85 118 158 203 246 289 351
#     4   9  19  36  62  88 111 149 197 242 288 344
#     4  10  22  41  64  89 117 158 202 241 294 354
#
# _framework density 23.718882000000001
#
# number of rings (size 3 to 8) (size 9 to 14) (size 15 to 20)
#    0.000    2.000    0.000    2.500    0.000   10.000 
#    0.000    3.333    0.000    0.000    0.000    0.000 
#    0.000    0.000    0.000    0.000    0.000    0.000 
#
# Total GULP energy -67128.507573 kJ/mol
# GULP energy per Si atom -5594.042298 kJ/mol
# Density = 2.366490 g / cm^3
# Si number density = 23.718882 Si / 1000 Ang^3
#
#
#
# Elastic Constant Matrix: (Units=GPa)
#
#
# Indices 1 2 3 4 5 6 
#
# 1 58.7813 23.7968 3.2372 9.0060 2.4344 7.8877
# 2 23.7968 123.1460 26.9417 20.7328 -0.4124 2.2348
# 3 3.2372 26.9417 62.7236 18.5349 1.5256 -5.8989
# 4 9.0060 20.7328 18.5349 41.4285 -0.2620 1.2044
# 5 2.4344 -0.4124 1.5256 -0.2620 26.1232 14.6903
# 6 7.8877 2.2348 -5.8989 1.2044 14.6903 36.8405
#
#
#
# Elastic Compliance Matrix: (Units=1/GPa)
#
#
# Indices 1 2 3 4 5 6 
#
# 1 0.019256 -0.003385 0.000930 -0.002798 0.000177 -0.003748
# 2 -0.003385 0.009996 -0.003417 -0.002708 0.001079 -0.000770
# 3 0.000930 -0.003417 0.020245 -0.007729 -0.004344 0.005235
# 4 -0.002798 -0.002708 -0.007729 0.029643 0.002292 -0.002357
# 5 0.000177 0.001079 -0.004344 0.002292 0.050336 -0.020946
# 6 -0.003748 -0.000770 0.005235 -0.002357 -0.020946 0.037261
#
#
# Mechanical properties :
#
#
# Convention : Reuss Voigt Hill
#
# Bulk Modulus (GPa) = 26.48839 39.17805 32.83322
# Shear Modulus (GPa) = 26.16940 33.59012 29.87976
#
# Velocity S-wave (km/s) = 3.32522 3.76729 3.55314
# Velocity P-wave (km/s) = 5.09261 5.95625 5.54128
#
# Compressibility (1/GPa) = 0.03775238
#
# Stress axis : x y z
#
# Youngs Moduli (GPa) = 51.93317 100.04305 49.39575
#
# Poissons Ratio (x) = 0.33862 -0.04594
# Poissons Ratio (y) = 0.17578 0.16879
# Poissons Ratio (z) = -0.04830 0.34186
#
# Static dielectric constant tensor:
#      x y z
#    x 1.844150 0.067620 0.015630 
#    y 0.067620 1.883300 -0.022300 
#    z 0.015630 -0.022300 1.907580 
# 
# From -- ./inp_files/150811.got.cif
#   From: 2010.05.17/outbox.cif.g08.bks.cpg/sg2_76_cif.got.tgz:150811.got - 2010.06.03 11:33:40.
