data_PCOD9003346
_publ_section_title
;
Structure prediction by ZEFSAII (Michael W. Deem and Ramdas Pophale) SiO2 
 PCOD9003346
Probable space group: P -1
;
_chemical_formula_sum "Si O2"
_cell_formula_units_Z 16
_cell_length_a 8.695915
_cell_length_b 15.051631
_cell_length_c 8.021316
_cell_angle_alpha 81.615640
_cell_angle_beta 128.913217
_cell_angle_gamma 116.992532
_cell_volume 713.088590
_symmetry_space_group_name_H-M "P -1"
_symmetry_group_IT_number 2
_symmetry_cell_setting 'triclinic'
loop_
_space_group_symop_operation_xyz
x,y,z
-x,-y,-z
loop_
_atom_site_type_symbol
_atom_site_label
_atom_site_fract_x
_atom_site_fract_y
_atom_site_fract_z
Si Si1 0.763759 0.834450 0.440663
Si Si2 0.193505 0.939736 0.210478
Si Si3 0.796558 0.630403 0.446946
Si Si4 0.714042 0.322082 0.334192
Si Si5 0.182490 0.543326 0.316234
Si Si6 0.536006 0.154804 0.500050
Si Si7 0.158065 0.028302 0.843122
Si Si8 0.671125 0.429151 0.959264
O O1 0.806828 0.739010 0.461243
O O2 0.562000 0.800833 0.441880
O O3 0.716207 0.884967 0.231064
O O4 0.978826 0.928626 0.646895
O O5 0.233471 0.844145 0.295368
O O6 0.956484 0.924208 0.119906
O O7 0.357081 0.036527 0.405463
O O8 0.258146 0.978627 0.055096
O O9 0.798748 0.561131 0.622901
O O10 0.561474 0.565917 0.207075
O O11 0.027562 0.653278 0.509035
O O12 0.707274 0.392574 0.460528
O O13 0.565418 0.208450 0.329132
O O14 0.641280 0.346829 0.101980
O O15 0.289817 0.591890 0.200205
O O16 0.921397 0.518542 0.146890
#
# Coordination Sequence:
#
# PCOD9003346 Si02
#       8
#     2   2   2   2   2   2   2   2
#     4  10  21  37  59  90 125 156 205 256 303 366
#     4   9  19  38  62  83 123 161 200 249 311 365
#     4  11  22  40  65  91 125 165 205 260 308 369
#     4  11  24  42  63  93 130 161 212 261 303 373
#     4  10  23  44  64  92 129 160 210 263 305 373
#     4  10  21  38  57  90 123 161 201 256 304 364
#     4   9  19  38  61  87 119 160 204 248 307 373
#     4  10  22  41  66  90 118 171 200 257 318 364
#
# _framework density 22.437604
#
# number of rings (size 3 to 8) (size 9 to 14) (size 15 to 20)
#    0.000    2.000    0.000    3.375    1.750    3.500 
#   13.500    0.000    0.000    0.000    0.000    0.000 
#    0.000    0.000    0.000    0.000    0.000    0.000 
#
# Total GULP energy -89180.004949 kJ/mol
# GULP energy per Si atom -5573.750309 kJ/mol
# Density = 2.238653 g / cm^3
# Si number density = 22.437604 Si / 1000 Ang^3
#
#
#
# Elastic Constant Matrix: (Units=GPa)
#
#
# Indices 1 2 3 4 5 6 
#
# 1 78.9333 28.3938 36.5228 -28.7371 -17.9894 14.2409
# 2 28.3938 62.8282 37.5258 -8.1330 -20.2674 -3.8684
# 3 36.5228 37.5258 89.2366 -27.7152 -5.4728 0.1138
# 4 -28.7371 -8.1330 -27.7152 32.4230 11.5911 -4.0589
# 5 -17.9894 -20.2674 -5.4728 11.5911 38.1772 -1.9872
# 6 14.2409 -3.8684 0.1138 -4.0589 -1.9872 27.4168
#
#
#
# Elastic Compliance Matrix: (Units=1/GPa)
#
#
# Indices 1 2 3 4 5 6 
#
# 1 0.024867 -0.008670 -0.001163 0.017003 0.001186 -0.011532
# 2 -0.008670 0.031693 -0.013895 -0.016407 0.016134 0.007773
# 3 -0.001163 -0.013895 0.022676 0.018618 -0.010298 0.000560
# 4 0.017003 -0.016407 0.018618 0.063580 -0.017493 -0.003079
# 5 0.001186 0.016134 -0.010298 -0.017493 0.039254 0.001959
# 6 -0.011532 0.007773 0.000560 -0.003079 0.001959 0.043244
#
#
# Mechanical properties :
#
#
# Convention : Reuss Voigt Hill
#
# Bulk Modulus (GPa) = 31.46727 48.43142 39.94935
# Shear Modulus (GPa) = 17.64515 28.17379 22.90947
#
# Velocity S-wave (km/s) = 2.80734 3.54736 3.19882
# Velocity P-wave (km/s) = 4.95611 6.19759 5.61129
#
# Compressibility (1/GPa) = 0.03177905
#
# Stress axis : x y z
#
# Youngs Moduli (GPa) = 40.21388 31.55257 44.10016
#
# Poissons Ratio (x) = 0.27355 0.05131
# Poissons Ratio (y) = 0.34864 0.61278
# Poissons Ratio (z) = 0.04679 0.43843
#
# Static dielectric constant tensor:
#      x y z
#    x 1.846900 0.000490 0.034040 
#    y 0.000490 1.856290 0.004350 
#    z 0.034040 0.004350 1.870210 
# 
# From -- ./inp_files/207215.got.cif
#   From: 2010.05.17/outbox.cif.g08.bks.cpg/sg2_104_cif.got.tgz:207215.got - 2010.06.03 11:33:40.
