data_PCOD9003559
_publ_section_title
;
Structure prediction by ZEFSAII (Michael W. Deem and Ramdas Pophale) SiO2 
 PCOD9003559
Probable space group: P -1
;
_chemical_formula_sum "Si O2"
_cell_formula_units_Z 16
_cell_length_a 20.680783
_cell_length_b 10.376082
_cell_length_c 7.333999
_cell_angle_alpha 48.308540
_cell_angle_beta 62.319544
_cell_angle_gamma 36.327403
_cell_volume 687.077503
_symmetry_space_group_name_H-M "P -1"
_symmetry_group_IT_number 2
_symmetry_cell_setting 'triclinic'
loop_
_space_group_symop_operation_xyz
x,y,z
-x,-y,-z
loop_
_atom_site_type_symbol
_atom_site_label
_atom_site_fract_x
_atom_site_fract_y
_atom_site_fract_z
Si Si1 0.930966 0.839874 0.412723
Si Si2 0.244497 0.570632 0.928289
Si Si3 0.650994 0.083224 0.127657
Si Si4 0.235154 0.592405 0.486132
Si Si5 0.941759 0.815334 0.856536
Si Si6 0.596289 0.574561 0.842394
Si Si7 0.171286 0.337992 0.400748
Si Si8 0.161439 0.360511 0.888091
O O1 0.943869 0.838574 0.613921
O O2 0.855883 0.801715 0.520988
O O3 0.049110 0.609631 0.378313
O O4 0.864024 0.125003 0.164295
O O5 0.257693 0.571665 0.692084
O O6 0.344799 0.476010 0.999279
O O7 0.226799 0.402603 0.163815
O O8 0.535183 0.190894 0.190401
O O9 0.737237 0.871200 0.368607
O O10 0.713175 0.934701 0.992280
O O11 0.628050 0.325026 0.967823
O O12 0.346837 0.406907 0.401385
O O13 0.178689 0.508191 0.623010
O O14 0.145809 0.888043 0.246890
O O15 0.071623 0.577783 0.955358
O O16 0.896643 0.705556 0.059135
#
# Coordination Sequence:
#
# PCOD9003559 Si02
#       8
#     2   2   2   2   2   2   2   2
#     4  10  21  37  60  97 137 174 218 272 333 403
#     4  11  24  43  67 101 135 176 220 281 334 398
#     4  11  23  45  71  98 129 191 222 285 338 394
#     4  11  24  43  67 101 135 176 220 281 334 398
#     4  10  21  37  60  97 137 174 218 272 333 403
#     4  11  25  47  71  98 137 175 239 277 336 396
#     4  11  21  39  64  95 134 177 223 272 335 398
#     4  11  21  39  64  95 134 177 223 272 335 398
#
# _framework density 23.287039
#
# number of rings (size 3 to 8) (size 9 to 14) (size 15 to 20)
#    0.000    1.250    3.750    2.250    0.000    2.000 
#    2.250    6.250    0.000    0.000    0.000    0.000 
#    0.000    0.000    0.000    0.000    0.000    0.000 
#
# Total GULP energy -89345.410243 kJ/mol
# GULP energy per Si atom -5584.088140 kJ/mol
# Density = 2.323404 g / cm^3
# Si number density = 23.287039 Si / 1000 Ang^3
#
#
#
# Elastic Constant Matrix: (Units=GPa)
#
#
# Indices 1 2 3 4 5 6 
#
# 1 104.1573 40.8560 26.9024 7.4116 0.8890 -21.9906
# 2 40.8560 142.7600 25.5232 13.3361 -0.1257 -37.2232
# 3 26.9024 25.5232 80.8077 10.2720 -7.9364 -12.9809
# 4 7.4116 13.3361 10.2720 32.5107 -0.9000 -4.4328
# 5 0.8890 -0.1257 -7.9364 -0.9000 42.9534 8.7461
# 6 -21.9906 -37.2232 -12.9809 -4.4328 8.7461 41.7501
#
#
#
# Elastic Compliance Matrix: (Units=1/GPa)
#
#
# Indices 1 2 3 4 5 6 
#
# 1 0.011958 -0.001794 -0.002843 -0.000579 -0.001624 0.004094
# 2 -0.001794 0.009946 -0.001192 -0.002296 -0.001766 0.007678
# 3 -0.002843 -0.001192 0.014526 -0.003235 0.002448 0.001100
# 4 -0.000579 -0.002296 -0.003235 0.032873 0.000072 0.000117
# 5 -0.001624 -0.001766 0.002448 0.000072 0.025175 -0.006935
# 6 0.004094 0.007678 0.001100 0.000117 -0.006935 0.034761
#
#
# Mechanical properties :
#
#
# Convention : Reuss Voigt Hill
#
# Bulk Modulus (GPa) = 40.36689 57.14314 48.75502
# Shear Modulus (GPa) = 33.52190 39.07241 36.29715
#
# Velocity S-wave (km/s) = 3.79820 4.10061 3.95230
# Velocity P-wave (km/s) = 6.05039 6.85652 6.46603
#
# Compressibility (1/GPa) = 0.02477278
#
# Stress axis : x y z
#
# Youngs Moduli (GPa) = 83.62464 100.53945 68.84042
#
# Poissons Ratio (x) = 0.18036 0.19569
# Poissons Ratio (y) = 0.15002 0.08209
# Poissons Ratio (z) = 0.23772 0.11988
#
# Static dielectric constant tensor:
#      x y z
#    x 1.947480 0.070320 0.072430 
#    y 0.070320 1.930030 0.016170 
#    z 0.072430 0.016170 1.913340 
# 
# From -- ./inp_files/272980.got.cif
#   From: 2010.05.17/outbox.cif.g08.bks.cpg/sg2_137_cif.got.tgz:272980.got - 2010.06.03 11:33:40.
