data_PCOD9003739
_publ_section_title
;
Structure prediction by ZEFSAII (Michael W. Deem and Ramdas Pophale) SiO2 
 PCOD9003739
Probable space group: P -1
;
_chemical_formula_sum "Si O2"
_cell_formula_units_Z 16
_cell_length_a 14.332298
_cell_length_b 8.797946
_cell_length_c 11.203895
_cell_angle_alpha 39.772787
_cell_angle_beta 43.088863
_cell_angle_gamma 62.115879
_cell_volume 603.085312
_symmetry_space_group_name_H-M "P -1"
_symmetry_group_IT_number 2
_symmetry_cell_setting 'triclinic'
loop_
_space_group_symop_operation_xyz
x,y,z
-x,-y,-z
loop_
_atom_site_type_symbol
_atom_site_label
_atom_site_fract_x
_atom_site_fract_y
_atom_site_fract_z
Si Si1 0.630779 0.711438 0.715810
Si Si2 0.176799 0.902893 0.578573
Si Si3 0.206627 0.485772 0.642110
Si Si4 0.779159 0.170095 0.956708
Si Si5 0.864637 0.899646 0.843847
Si Si6 0.769765 0.441815 0.053767
Si Si7 0.447583 0.252445 0.486975
Si Si8 0.061486 0.328785 0.638608
O O1 0.581524 0.827852 0.574105
O O2 0.783837 0.668190 0.557841
O O3 0.681616 0.896236 0.661629
O O4 0.500000 0.500000 0.000000
O O5 0.197504 0.743580 0.543810
O O6 0.163709 0.735900 0.813087
O O7 0.032032 0.986271 0.644501
O O8 0.355758 0.456413 0.470783
O O9 0.090264 0.416694 0.691857
O O10 0.179453 0.308137 0.888295
O O11 0.772573 0.366817 0.954700
O O12 0.634492 0.978004 0.224735
O O13 0.926527 0.106515 0.900772
O O14 0.798357 0.123904 0.821447
O O15 0.825650 0.725545 0.868037
O O16 0.607084 0.369340 0.287527
O O17 0.000000 0.500000 0.500000
#
# Coordination Sequence:
#
# PCOD9003739 Si02
#       8
#     2   2   2   2   2   2   2   2
#     4  11  25  43  61  90 132 169 213 263 320 387
#     4  11  20  39  64  92 126 164 213 262 327 377
#     4   9  21  38  63  91 128 163 208 267 321 374
#     4  11  21  38  67  93 125 169 212 267 318 374
#     4  10  21  37  62 102 127 161 211 270 324 378
#     4  11  22  37  63 101 135 162 210 267 324 386
#     4  10  23  40  61  96 130 167 210 259 328 382
#     4  11  24  42  64  91 126 171 223 262 315 388
#
# _framework density 26.530242999999999
#
# number of rings (size 3 to 8) (size 9 to 14) (size 15 to 20)
#    0.000    1.500    2.500    3.375    1.750    6.500 
#    0.000    4.375    0.000    0.000    0.000    0.000 
#    0.000    0.000    0.000    0.000    0.000    0.000 
#
# Total GULP energy -89267.562123 kJ/mol
# GULP energy per Si atom -5579.222633 kJ/mol
# Density = 2.646986 g / cm^3
# Si number density = 26.530243 Si / 1000 Ang^3
#
#
#
# Elastic Constant Matrix: (Units=GPa)
#
#
# Indices 1 2 3 4 5 6 
#
# 1 86.4248 16.7979 39.8614 11.2828 -15.5498 3.7911
# 2 16.7979 164.6220 45.1568 8.9304 -14.7456 28.4427
# 3 39.8614 45.1568 147.9634 13.2827 -32.2113 10.9735
# 4 11.2828 8.9304 13.2827 38.3210 -4.5355 -10.7292
# 5 -15.5498 -14.7456 -32.2113 -4.5355 45.4630 2.8471
# 6 3.7911 28.4427 10.9735 -10.7292 2.8471 40.1190
#
#
#
# Elastic Compliance Matrix: (Units=1/GPa)
#
#
# Indices 1 2 3 4 5 6 
#
# 1 0.013793 0.000036 -0.002757 -0.003268 0.002552 -0.001630
# 2 0.000036 0.007783 -0.001309 -0.002863 0.001703 -0.006050
# 3 -0.002757 -0.001309 0.009408 -0.002180 0.005227 -0.002339
# 4 -0.003268 -0.002863 -0.002180 0.031550 -0.001161 0.011455
# 5 0.002552 0.001703 0.005227 -0.001161 0.027330 -0.005128
# 6 -0.001630 -0.006050 -0.002339 0.011455 -0.005128 0.033436
#
#
# Mechanical properties :
#
#
# Convention : Reuss Voigt Hill
#
# Bulk Modulus (GPa) = 43.62118 66.96027 55.29072
# Shear Modulus (GPa) = 35.97134 44.59353 40.28243
#
# Velocity S-wave (km/s) = 3.68620 4.10427 3.90084
# Velocity P-wave (km/s) = 5.88176 6.91043 6.41675
#
# Compressibility (1/GPa) = 0.02292464
#
# Stress axis : x y z
#
# Youngs Moduli (GPa) = 72.50259 128.48719 106.29634
#
# Poissons Ratio (x) = -0.00468 0.29306
# Poissons Ratio (y) = -0.00264 0.13911
# Poissons Ratio (z) = 0.19989 0.16815
#
# Static dielectric constant tensor:
#      x y z
#    x 2.071270 -0.095720 0.067380 
#    y -0.095720 2.369910 -0.089720 
#    z 0.067380 -0.089720 2.247560 
# 
# From -- ./inp_files/392313.got.cif
#   From: 2010.05.17/outbox.cif.g08.bks.cpg/sg2_197_cif.got.tgz:392313.got - 2010.06.03 11:33:40.
