data_PCOD9003347
_publ_section_title
;
Structure prediction by ZEFSAII (Michael W. Deem and Ramdas Pophale) SiO2 
 PCOD9003347
Probable space group: P -1
;
_chemical_formula_sum "Si O2"
_cell_formula_units_Z 15
_cell_length_a 16.424721
_cell_length_b 5.957977
_cell_length_c 7.145348
_cell_angle_alpha 78.687848
_cell_angle_beta 79.592110
_cell_angle_gamma 87.997836
_cell_volume 674.365056
_symmetry_space_group_name_H-M "P -1"
_symmetry_group_IT_number 2
_symmetry_cell_setting 'triclinic'
loop_
_space_group_symop_operation_xyz
x,y,z
-x,-y,-z
loop_
_atom_site_type_symbol
_atom_site_label
_atom_site_fract_x
_atom_site_fract_y
_atom_site_fract_z
Si Si1 0.371237 0.702410 0.304002
Si Si2 0.591173 0.905700 0.028928
Si Si3 0.897133 0.509661 0.739206
Si Si4 0.231386 0.332859 0.498207
Si Si5 0.182050 0.625099 0.814896
Si Si6 0.500000 0.500000 0.000000
Si Si7 0.943336 0.210446 0.433461
Si Si8 0.339274 0.913528 0.651670
O O1 0.291870 0.540337 0.378621
O O2 0.446510 0.569315 0.197527
O O3 0.353099 0.930489 0.151116
O O4 0.391886 0.787679 0.490917
O O5 0.582815 0.641809 0.024712
O O6 0.609656 0.973289 0.221534
O O7 0.500000 0.000000 0.000000
O O8 0.838713 0.691189 0.625839
O O9 0.899828 0.300700 0.625131
O O10 0.990796 0.599431 0.696902
O O11 0.859470 0.447494 0.963554
O O12 0.192061 0.415040 0.698760
O O13 0.286946 0.112685 0.542572
O O14 0.124394 0.807476 0.698271
O O15 0.272114 0.735052 0.788536
O O16 0.000000 0.000000 0.500000
#
# Coordination Sequence:
#
# PCOD9003347 Si02
#       8
#     2   2   2   2   2   1   2   2
#     4  10  22  42  63  89 123 157 202 254 308 370
#     4  10  23  41  61  88 118 155 201 251 310 374
#     4  10  21  38  59  87 126 163 202 251 301 358
#     4  10  22  38  60  90 122 161 206 254 305 360
#     4  10  22  38  60  90 122 163 208 250 303 363
#     4  10  22  40  64  88 118 156 198 250 314 372
#     4  10  21  37  59  90 125 161 204 251 299 355
#     4  11  23  40  64  90 121 162 209 256 310 371
#
# _framework density 22.243144999999998
#
# number of rings (size 3 to 8) (size 9 to 14) (size 15 to 20)
#    0.000    1.867    0.000    2.800    0.000   10.133 
#    0.000    6.000    0.000    0.000    0.000    0.000 
#    0.000    0.000    0.000    0.000    0.000    0.000 
#
# Total GULP energy -83546.990283 kJ/mol
# GULP energy per Si atom -5569.799352 kJ/mol
# Density = 2.219252 g / cm^3
# Si number density = 22.243145 Si / 1000 Ang^3
#
#
#
# Elastic Constant Matrix: (Units=GPa)
#
#
# Indices 1 2 3 4 5 6 
#
# 1 77.6533 24.7501 61.0144 8.0451 5.5199 -1.2560
# 2 24.7501 37.2296 47.4014 13.0011 -4.8888 7.1304
# 3 61.0144 47.4014 185.0796 27.3923 -24.4194 -0.1982
# 4 8.0451 13.0011 27.3923 19.1689 3.4120 3.4635
# 5 5.5199 -4.8888 -24.4194 3.4120 43.7726 0.7659
# 6 -1.2560 7.1304 -0.1982 3.4635 0.7659 39.8116
#
#
#
# Elastic Compliance Matrix: (Units=1/GPa)
#
#
# Indices 1 2 3 4 5 6 
#
# 1 0.021065 -0.009792 -0.006808 0.008675 -0.008255 0.001789
# 2 -0.009792 0.050397 -0.005811 -0.021356 0.005419 -0.007610
# 3 -0.006808 -0.005811 0.011932 -0.011955 0.007767 0.001776
# 4 0.008675 -0.021356 -0.011955 0.083578 -0.016612 -0.002912
# 5 -0.008255 0.005419 0.007767 -0.016612 0.030125 -0.000327
# 6 0.001789 -0.007610 0.001776 -0.002912 -0.000327 0.026806
#
#
# Mechanical properties :
#
#
# Convention : Reuss Voigt Hill
#
# Bulk Modulus (GPa) = 25.92660 62.92161 44.42411
# Shear Modulus (GPa) = 17.75681 31.67038 24.71359
#
# Velocity S-wave (km/s) = 2.82849 3.77746 3.33688
# Velocity P-wave (km/s) = 4.72742 6.88295 5.90439
#
# Compressibility (1/GPa) = 0.03857042
#
# Stress axis : x y z
#
# Youngs Moduli (GPa) = 47.47270 19.84263 83.81029
#
# Poissons Ratio (x) = 0.19430 0.57055
# Poissons Ratio (y) = 0.46487 0.48706
# Poissons Ratio (z) = 0.32318 0.11531
#
# Static dielectric constant tensor:
#      x y z
#    x 1.829390 -0.003440 -0.000190 
#    y -0.003440 1.924510 -0.034870 
#    z -0.000190 -0.034870 1.785740 
# 
# From -- ./inp_files/7979.got.cif
#   From: 2010.05.17/outbox.cif.g08.bks.cpg/sg2_4_cif.got.tgz:7979.got - 2010.06.03 11:33:40.
