data_PCOD9003267
_publ_section_title
;
Structure prediction by ZEFSAII (Michael W. Deem and Ramdas Pophale) SiO2 
 PCOD9003267
Probable space group: P -1
;
_chemical_formula_sum "Si O2"
_cell_formula_units_Z 16
_cell_length_a 5.033379
_cell_length_b 21.376852
_cell_length_c 17.593466
_cell_angle_alpha 30.643566
_cell_angle_beta 126.160904
_cell_angle_gamma 117.013310
_cell_volume 772.393749
_symmetry_space_group_name_H-M "P -1"
_symmetry_group_IT_number 2
_symmetry_cell_setting 'triclinic'
loop_
_space_group_symop_operation_xyz
x,y,z
-x,-y,-z
loop_
_atom_site_type_symbol
_atom_site_label
_atom_site_fract_x
_atom_site_fract_y
_atom_site_fract_z
Si Si1 0.162702 0.508635 0.388227
Si Si2 0.168936 0.145136 0.348878
Si Si3 0.475298 0.641885 0.870193
Si Si4 0.072584 0.229118 0.459688
Si Si5 0.450504 0.593965 0.192829
Si Si6 0.225241 0.013762 0.331427
Si Si7 0.701854 0.346521 0.420693
Si Si8 0.516544 0.767390 0.894280
O O1 0.500000 0.500000 0.500000
O O2 0.231899 0.567864 0.255485
O O3 0.025818 0.376521 0.491153
O O4 0.840482 0.587450 0.289232
O O5 0.272070 0.281068 0.212013
O O6 0.426253 0.076497 0.522856
O O7 0.780628 0.153932 0.285255
O O8 0.210083 0.072993 0.350909
O O9 0.113932 0.712072 0.709346
O O10 0.589381 0.656841 0.961374
O O11 0.500000 0.500000 0.000000
O O12 0.033565 0.084668 0.614456
O O13 0.854253 0.306160 0.407626
O O14 0.454307 0.251491 0.503562
O O15 0.469405 0.478049 0.258239
O O16 0.381847 0.716019 0.002704
O O17 0.224409 0.135157 0.152092
#
# Coordination Sequence:
#
# PCOD9003267 Si02
#       8
#     2   2   2   2   2   2   2   2
#     4  10  21  41  64  90 118 145 177 229 309 378
#     4   9  20  35  51  73 107 158 223 243 276 320
#     4  10  23  33  50  76 115 166 198 238 292 329
#     4  11  22  36  55  82 118 159 199 239 280 334
#     4  10  22  36  61  91 120 144 185 243 292 349
#     4   9  21  36  51  77 109 165 209 248 274 321
#     4  10  21  37  59  86 119 139 187 245 290 348
#     4  11  22  35  57  78 119 159 206 249 275 329
#
# _framework density 20.714822999999999
#
# number of rings (size 3 to 8) (size 9 to 14) (size 15 to 20)
#    0.750    1.250    1.250    2.250   10.500    0.500 
#    0.000    0.000    0.000    0.000    0.000    5.250 
#    0.000    0.000    0.000    0.000    0.000    0.000 
#
# Total GULP energy -89096.862727 kJ/mol
# GULP energy per Si atom -5568.553920 kJ/mol
# Density = 2.066768 g / cm^3
# Si number density = 20.714823 Si / 1000 Ang^3
#
#
#
# Elastic Constant Matrix: (Units=GPa)
#
#
# Indices 1 2 3 4 5 6 
#
# 1 98.8108 37.8589 21.5942 -6.3727 -18.3178 24.9724
# 2 37.8589 83.7108 44.6499 -13.3384 -17.9538 33.7736
# 3 21.5942 44.6499 61.4924 -22.0694 -20.4857 18.3719
# 4 -6.3727 -13.3384 -22.0694 28.2182 13.1556 -6.3900
# 5 -18.3178 -17.9538 -20.4857 13.1556 33.0522 -6.7074
# 6 24.9724 33.7736 18.3719 -6.3900 -6.7074 43.9920
#
#
#
# Elastic Compliance Matrix: (Units=1/GPa)
#
#
# Indices 1 2 3 4 5 6 
#
# 1 0.013460 -0.003597 0.000377 -0.002002 0.005629 -0.004469
# 2 -0.003597 0.026202 -0.014770 -0.003702 0.002098 -0.012124
# 3 0.000377 -0.014770 0.035588 0.017540 0.007245 -0.000085
# 4 -0.002002 -0.003702 0.017540 0.053611 -0.013091 0.002445
# 5 0.005629 0.002098 0.007245 -0.013091 0.043589 -0.003088
# 6 -0.004469 -0.012124 -0.000085 0.002445 -0.003088 0.034496
#
#
# Mechanical properties :
#
#
# Convention : Reuss Voigt Hill
#
# Bulk Modulus (GPa) = 25.46395 50.24666 37.85531
# Shear Modulus (GPa) = 19.53000 30.37990 24.95495
#
# Velocity S-wave (km/s) = 3.07384 3.83375 3.47463
# Velocity P-wave (km/s) = 4.99172 6.62615 5.86614
#
# Compressibility (1/GPa) = 0.03927120
#
# Stress axis : x y z
#
# Youngs Moduli (GPa) = 74.29353 38.16481 28.09922
#
# Poissons Ratio (x) = 0.13729 -0.01060
# Poissons Ratio (y) = 0.26725 0.41502
# Poissons Ratio (z) = -0.02803 0.56368
#
# Static dielectric constant tensor:
#      x y z
#    x 1.839290 -0.007570 0.041210 
#    y -0.007570 1.797440 -0.042250 
#    z 0.041210 -0.042250 1.796620 
# 
# From -- ./inp_files/550753.got.cif
#   From: 2010.05.17/outbox.cif.g08.bks.cpg/sg2_276_cif.got.tgz:550753.got - 2010.06.03 11:33:40.
