data_PCOD9003636
_publ_section_title
;
Structure prediction by ZEFSAII (Michael W. Deem and Ramdas Pophale) SiO2 
 PCOD9003636
Probable space group: P -1
;
_chemical_formula_sum "Si O2"
_cell_formula_units_Z 14
_cell_length_a 16.768014
_cell_length_b 15.125171
_cell_length_c 19.438724
_cell_angle_alpha 159.016329
_cell_angle_beta 158.755376
_cell_angle_gamma 19.916332
_cell_volume 538.770691
_symmetry_space_group_name_H-M "P -1"
_symmetry_group_IT_number 2
_symmetry_cell_setting 'triclinic'
loop_
_space_group_symop_operation_xyz
x,y,z
-x,-y,-z
loop_
_atom_site_type_symbol
_atom_site_label
_atom_site_fract_x
_atom_site_fract_y
_atom_site_fract_z
Si Si1 0.666812 0.249366 0.706594
Si Si2 0.911997 0.902978 0.163304
Si Si3 0.018046 0.170408 0.572821
Si Si4 0.400432 0.295226 0.296158
Si Si5 0.328155 0.596672 0.022965
Si Si6 0.172113 0.698929 0.739850
Si Si7 0.797640 0.772922 0.665252
O O1 0.799926 0.305951 0.790369
O O2 0.865505 0.919518 0.654335
O O3 0.674375 0.398340 0.892088
O O4 0.416754 0.248358 0.479448
O O5 0.779696 0.149193 0.176158
O O6 0.916111 0.066848 0.352462
O O7 0.750346 0.750426 0.920598
O O8 0.825794 0.513577 0.689311
O O9 0.330242 0.015502 0.696255
O O10 0.000000 0.000000 0.500000
O O11 0.500000 0.500000 0.500000
O O12 0.634856 0.344283 0.074608
O O13 0.276585 0.904170 0.177410
O O14 0.088332 0.583738 0.792560
O O15 0.218726 0.389678 0.533123
#
# Coordination Sequence:
#
# PCOD9003636 Si02
#       7
#     2   2   2   2   2   2   2
#     4   9  21  38  55  87 126 167 216 272 333 401
#     4  10  24  42  65 100 132 182 224 290 351 412
#     4  10  24  44  70 103 137 178 229 286 349 428
#     4  10  24  44  70 103 137 178 229 286 349 428
#     4  10  21  37  61  90 125 172 227 282 334 401
#     4   9  21  38  55  87 126 167 216 272 333 401
#     4  10  21  37  61  90 125 172 227 282 334 401
#
# _framework density 25.98508
#
# number of rings (size 3 to 8) (size 9 to 14) (size 15 to 20)
#    0.857    1.429    0.000    1.714    0.000   17.143 
#    0.000    2.857    0.000    0.000    0.000    0.000 
#    0.000    0.000    0.000    0.000    0.000    0.000 
#
# Total GULP energy -78057.604847 kJ/mol
# GULP energy per Si atom -5575.543203 kJ/mol
# Density = 2.592594 g / cm^3
# Si number density = 25.985080 Si / 1000 Ang^3
#
#
#
# Elastic Constant Matrix: (Units=GPa)
#
#
# Indices 1 2 3 4 5 6 
#
# 1 57.8008 13.9748 24.9840 4.7643 -7.4309 -7.7036
# 2 13.9748 114.5845 49.2154 -23.5897 -14.4191 -16.3400
# 3 24.9840 49.2154 162.1372 -46.1537 3.8369 -14.8671
# 4 4.7643 -23.5897 -46.1537 42.8534 0.1033 -4.7037
# 5 -7.4309 -14.4191 3.8369 0.1033 36.1816 6.1396
# 6 -7.7036 -16.3400 -14.8671 -4.7037 6.1396 31.5245
#
#
#
# Elastic Compliance Matrix: (Units=1/GPa)
#
#
# Indices 1 2 3 4 5 6 
#
# 1 0.021416 -0.001650 -0.005643 -0.009439 0.004461 -0.000560
# 2 -0.001650 0.011918 -0.001257 0.005970 0.003616 0.005368
# 3 -0.005643 -0.001257 0.011952 0.013521 -0.004054 0.006413
# 4 -0.009439 0.005970 0.013521 0.043822 -0.003561 0.014397
# 5 0.004461 0.003616 -0.004054 -0.003561 0.031385 -0.005591
# 6 -0.000560 0.005368 0.006413 0.014397 -0.005591 0.040628
#
#
# Mechanical properties :
#
#
# Convention : Reuss Voigt Hill
#
# Bulk Modulus (GPa) = 35.47968 56.76343 46.12155
# Shear Modulus (GPa) = 26.65020 38.53512 32.59266
#
# Velocity S-wave (km/s) = 3.20597 3.85511 3.54543
# Velocity P-wave (km/s) = 5.23334 6.45817 5.87774
#
# Compressibility (1/GPa) = 0.02818515
#
# Stress axis : x y z
#
# Youngs Moduli (GPa) = 46.69458 83.90616 83.67082
#
# Poissons Ratio (x) = 0.13843 0.47216
# Poissons Ratio (y) = 0.07704 0.10519
# Poissons Ratio (z) = 0.26350 0.10549
#
# Static dielectric constant tensor:
#      x y z
#    x 2.149900 -0.282130 0.012700 
#    y -0.282130 2.450920 -0.037960 
#    z 0.012700 -0.037960 1.923270 
# 
# From -- ./inp_files/600486.got.cif
#   From: 2010.05.17/outbox.cif.g08.bks.cpg/sg2_301_cif.got.tgz:600486.got - 2010.06.03 11:33:40.
