data_PCOD9003655
_publ_section_title
;
Structure prediction by ZEFSAII (Michael W. Deem and Ramdas Pophale) SiO2 
 PCOD9003655
Probable space group: P -1
;
_chemical_formula_sum "Si O2"
_cell_formula_units_Z 13
_cell_length_a 15.878971
_cell_length_b 10.362371
_cell_length_c 5.231572
_cell_angle_alpha 79.673901
_cell_angle_beta 98.510446
_cell_angle_gamma 145.821303
_cell_volume 475.756837
_symmetry_space_group_name_H-M "P -1"
_symmetry_group_IT_number 2
_symmetry_cell_setting 'triclinic'
loop_
_space_group_symop_operation_xyz
x,y,z
-x,-y,-z
loop_
_atom_site_type_symbol
_atom_site_label
_atom_site_fract_x
_atom_site_fract_y
_atom_site_fract_z
Si Si1 0.351553 0.552590 0.331566
Si Si2 0.059255 0.364024 0.656552
Si Si3 0.329173 0.254946 0.436700
Si Si4 0.330242 0.797897 0.396000
Si Si5 0.908514 0.150092 0.179810
Si Si6 0.558587 0.797196 0.846140
Si Si7 0.000000 0.000000 0.500000
O O1 0.241359 0.284771 0.381905
O O2 0.293172 0.625325 0.263596
O O3 0.443785 0.664076 0.599194
O O4 0.456369 0.662795 0.095735
O O5 0.221448 0.636318 0.643059
O O6 0.992395 0.337415 0.373089
O O7 0.057637 0.205285 0.647990
O O8 0.957448 0.261627 0.889098
O O9 0.500000 0.500000 0.500000
O O10 0.344338 0.207057 0.186952
O O11 0.254484 0.068218 0.678822
O O12 0.500000 0.000000 0.500000
O O13 0.334543 0.941369 0.205548
O O14 0.960961 0.064342 0.245072
#
# Coordination Sequence:
#
# PCOD9003655 Si02
#       7
#     2   2   2   2   2   2   1
#     4  10  21  37  61  91 123 162 205 264 314 367
#     4  10  22  38  60  91 126 164 211 262 318 377
#     4  10  22  42  64  95 126 171 214 266 316 378
#     4  10  22  42  64  95 126 171 214 266 316 378
#     4  10  22  38  60  91 126 164 211 262 318 377
#     4  10  22  38  59  89 127 158 211 258 317 370
#     4   8  20  38  62  86 130 156 218 244 332 362
#
# _framework density 27.324883
#
# number of rings (size 3 to 8) (size 9 to 14) (size 15 to 20)
#    0.923    1.231    0.000    2.308    0.000    9.846 
#    0.000    1.538    0.000    0.000    0.000    0.000 
#    0.000    0.000    0.000    0.000    0.000    0.000 
#
# Total GULP energy -72435.866138 kJ/mol
# GULP energy per Si atom -5571.989703 kJ/mol
# Density = 2.726269 g / cm^3
# Si number density = 27.324883 Si / 1000 Ang^3
#
#
#
# Elastic Constant Matrix: (Units=GPa)
#
#
# Indices 1 2 3 4 5 6 
#
# 1 56.7922 5.1708 9.5637 -0.8624 -7.1798 -22.6946
# 2 5.1708 132.7018 30.1701 -41.2981 0.3096 2.5202
# 3 9.5637 30.1701 188.7461 -16.8786 -30.5169 7.7933
# 4 -0.8624 -41.2981 -16.8786 33.4056 1.0707 -2.3889
# 5 -7.1798 0.3096 -30.5169 1.0707 24.3213 -8.8004
# 6 -22.6946 2.5202 7.7933 -2.3889 -8.8004 60.1684
#
#
#
# Elastic Compliance Matrix: (Units=1/GPa)
#
#
# Indices 1 2 3 4 5 6 
#
# 1 0.023210 -0.001375 0.000363 -0.000532 0.011099 0.010367
# 2 -0.001375 0.012483 -0.001005 0.014925 -0.002743 -0.000720
# 3 0.000363 -0.001005 0.007081 0.002100 0.009160 0.000685
# 4 -0.000532 0.014925 0.002100 0.049486 0.000447 0.000932
# 5 0.011099 -0.002743 0.009160 0.000447 0.060222 0.011941
# 6 0.010367 -0.000720 0.000685 0.000932 0.011941 0.022255
#
#
# Mechanical properties :
#
#
# Convention : Reuss Voigt Hill
#
# Bulk Modulus (GPa) = 25.81366 52.00550 38.90958
# Shear Modulus (GPa) = 26.08447 45.80141 35.94294
#
# Velocity S-wave (km/s) = 3.09302 4.09856 3.63077
# Velocity P-wave (km/s) = 4.71414 6.43981 5.64333
#
# Compressibility (1/GPa) = 0.03873918
#
# Stress axis : x y z
#
# Youngs Moduli (GPa) = 43.08450 80.11152 141.22557
#
# Poissons Ratio (x) = 0.11017 -0.05122
# Poissons Ratio (y) = 0.05925 0.14189
# Poissons Ratio (z) = -0.01562 0.08049
#
# Static dielectric constant tensor:
#      x y z
#    x 2.282980 -0.026110 0.111110 
#    y -0.026110 2.199280 0.113920 
#    z 0.111110 0.113920 2.032930 
# 
# From -- ./inp_files/118218.got.cif
#   From: 2010.05.17/outbox.cif.g08.bks.cpg/sg2_60_cif.got.tgz:118218.got - 2010.06.03 11:33:40.
