data_PCOD9003287
_publ_section_title
;
Structure prediction by ZEFSAII (Michael W. Deem and Ramdas Pophale) SiO2 
 PCOD9003287
Probable space group: P -1
;
_chemical_formula_sum "Si O2"
_cell_formula_units_Z 14
_cell_length_a 7.620078
_cell_length_b 22.058004
_cell_length_c 8.563533
_cell_angle_alpha 48.558034
_cell_angle_beta 36.403650
_cell_angle_gamma 61.622579
_cell_volume 635.000245
_symmetry_space_group_name_H-M "P -1"
_symmetry_group_IT_number 2
_symmetry_cell_setting 'triclinic'
loop_
_space_group_symop_operation_xyz
x,y,z
-x,-y,-z
loop_
_atom_site_type_symbol
_atom_site_label
_atom_site_fract_x
_atom_site_fract_y
_atom_site_fract_z
Si Si1 0.947776 0.681939 0.753419
Si Si2 0.605242 0.411571 0.562170
Si Si3 0.049562 0.594208 0.350011
Si Si4 0.392170 0.309231 0.351330
Si Si5 0.152831 0.003236 0.717921
Si Si6 0.775897 0.856693 0.057260
Si Si7 0.891840 0.148975 0.493064
O O1 0.779931 0.691113 0.691890
O O2 0.172987 0.614468 0.683851
O O3 0.104084 0.768810 0.549184
O O4 0.694220 0.651175 0.111702
O O5 0.500000 0.500000 0.500000
O O6 0.779736 0.401848 0.614154
O O7 0.000000 0.500000 0.500000
O O8 0.741756 0.627878 0.545322
O O9 0.264842 0.654960 0.982839
O O10 0.316555 0.220923 0.632327
O O11 0.083615 0.085618 0.544294
O O12 0.500000 0.000000 0.500000
O O13 0.000000 0.000000 0.000000
O O14 0.999733 0.926555 0.860046
O O15 0.456279 0.887844 0.202086
O O16 0.949463 0.833312 0.818239
#
# Coordination Sequence:
#
# PCOD9003287 Si02
#       7
#     2   2   2   2   2   2   2
#     4  10  22  40  61  88 124 168 213 259 321 392
#     4  10  21  37  59  87 121 162 211 265 318 382
#     4  10  21  37  59  87 121 162 211 265 318 382
#     4  10  22  40  61  88 124 168 213 259 321 392
#     4  12  26  46  72  98 132 182 220 262 328 404
#     4  12  25  43  67 100 134 168 218 281 329 381
#     4  12  25  43  67 100 134 168 218 281 329 381
#
# _framework density 22.047235000000001
#
# number of rings (size 3 to 8) (size 9 to 14) (size 15 to 20)
#    0.000    1.143    0.000    6.000    0.000    6.857 
#    0.000    0.000    0.000    0.000    0.000    0.000 
#    0.000    0.000    0.000    0.000    0.000    0.000 
#
# Total GULP energy -78331.928044 kJ/mol
# GULP energy per Si atom -5595.137717 kJ/mol
# Density = 2.199705 g / cm^3
# Si number density = 22.047235 Si / 1000 Ang^3
#
#
#
# Elastic Constant Matrix: (Units=GPa)
#
#
# Indices 1 2 3 4 5 6 
#
# 1 69.2889 28.9917 28.2460 7.6740 -25.3767 -1.0598
# 2 28.9917 94.7980 10.6148 0.9783 -7.8144 6.3769
# 3 28.2460 10.6148 83.9990 21.0174 -17.9767 13.2614
# 4 7.6740 0.9783 21.0174 48.6533 -0.9372 -4.5536
# 5 -25.3767 -7.8144 -17.9767 -0.9372 36.0718 -1.0814
# 6 -1.0598 6.3769 13.2614 -4.5536 -1.0814 36.8882
#
#
#
# Elastic Compliance Matrix: (Units=1/GPa)
#
#
# Indices 1 2 3 4 5 6 
#
# 1 0.023857 -0.005910 -0.004790 -0.000975 0.013202 0.003696
# 2 -0.005910 0.012360 0.000485 0.000216 -0.001308 -0.002493
# 3 -0.004790 0.000485 0.017548 -0.007420 0.005069 -0.007297
# 4 -0.000975 0.000216 -0.007420 0.024355 -0.003539 0.005505
# 5 0.013202 -0.001308 0.005069 -0.003539 0.039146 -0.000506
# 6 0.003696 -0.002493 -0.007297 0.005505 -0.000506 0.030934
#
#
# Mechanical properties :
#
#
# Convention : Reuss Voigt Hill
#
# Bulk Modulus (GPa) = 29.99828 42.64344 36.32086
# Shear Modulus (GPa) = 27.81778 36.33822 32.07800
#
# Velocity S-wave (km/s) = 3.55595 4.06421 3.81854
# Velocity P-wave (km/s) = 5.52228 6.43487 5.99596
#
# Compressibility (1/GPa) = 0.03333524
#
# Stress axis : x y z
#
# Youngs Moduli (GPa) = 41.91559 80.90905 56.98777
#
# Poissons Ratio (x) = 0.47819 0.27296
# Poissons Ratio (y) = 0.24773 -0.02765
# Poissons Ratio (z) = 0.20077 -0.03926
#
# Static dielectric constant tensor:
#      x y z
#    x 1.824980 -0.023450 0.011200 
#    y -0.023450 1.796430 -0.000570 
#    z 0.011200 -0.000570 1.790460 
# 
# From -- ./inp_files/223129.got.cif
#   From: 2010.05.17/outbox.cif.g08.bks.cpg/sg2_112_cif.got.tgz:223129.got - 2010.06.03 11:33:40.
