data_PCOD9003668
_publ_section_title
;
Structure prediction by ZEFSAII (Michael W. Deem and Ramdas Pophale) SiO2 
 PCOD9003668
Probable space group: P -1
;
_chemical_formula_sum "Si O2"
_cell_formula_units_Z 16
_cell_length_a 7.798548
_cell_length_b 22.591755
_cell_length_c 13.926860
_cell_angle_alpha 16.741252
_cell_angle_beta 61.716064
_cell_angle_gamma 65.413191
_cell_volume 615.491174
_symmetry_space_group_name_H-M "P -1"
_symmetry_group_IT_number 2
_symmetry_cell_setting 'triclinic'
loop_
_space_group_symop_operation_xyz
x,y,z
-x,-y,-z
loop_
_atom_site_type_symbol
_atom_site_label
_atom_site_fract_x
_atom_site_fract_y
_atom_site_fract_z
Si Si1 0.337931 0.381410 0.121711
Si Si2 0.113539 0.067261 0.165253
Si Si3 0.007119 0.124489 0.680423
Si Si4 0.188105 0.671625 0.199895
Si Si5 0.271438 0.699433 0.807168
Si Si6 0.910048 0.755069 0.918971
Si Si7 0.441075 0.510547 0.691368
Si Si8 0.250204 0.812428 0.181387
O O1 0.118229 0.262081 0.352755
O O2 0.508957 0.235417 0.310964
O O3 0.303911 0.504715 0.036154
O O4 0.408307 0.526783 0.788124
O O5 0.190790 0.237983 0.961198
O O6 0.197139 0.867988 0.495328
O O7 0.134965 0.052831 0.065799
O O8 0.884501 0.118288 0.148162
O O9 0.894385 0.242616 0.603492
O O10 0.183525 0.034174 0.829934
O O11 0.372468 0.598863 0.212882
O O12 0.220854 0.702693 0.256808
O O13 0.000000 0.500000 0.500000
O O14 0.106130 0.651999 0.006798
O O15 0.745136 0.644801 0.062081
O O16 0.000000 0.000000 0.500000
O O17 0.444691 0.736560 0.289810
#
# Coordination Sequence:
#
# PCOD9003668 Si02
#       8
#     2   2   2   2   2   2   2   2
#     4  11  23  39  66  97 130 167 219 271 327 393
#     4  10  21  39  61  87 124 166 213 263 318 378
#     4  10  22  42  66  96 129 173 218 268 327 389
#     4  11  25  43  66  94 130 176 222 269 324 393
#     4  10  22  38  58  93 131 168 206 264 331 386
#     4  10  21  37  61  91 131 170 207 262 324 385
#     4  12  24  41  68  99 129 172 221 270 328 389
#     4  10  23  42  66  95 133 172 219 268 322 393
#
# _framework density 25.995497
#
# number of rings (size 3 to 8) (size 9 to 14) (size 15 to 20)
#    0.000    1.500    0.000    4.875    0.000    8.500 
#    0.000    8.125    0.000   12.000    0.000    0.000 
#    0.000    0.000    0.000    0.000    0.000    0.000 
#
# Total GULP energy -89170.964056 kJ/mol
# GULP energy per Si atom -5573.185254 kJ/mol
# Density = 2.593633 g / cm^3
# Si number density = 25.995497 Si / 1000 Ang^3
#
#
#
# Elastic Constant Matrix: (Units=GPa)
#
#
# Indices 1 2 3 4 5 6 
#
# 1 85.2809 29.4909 14.6805 6.6073 19.5562 -12.4283
# 2 29.4909 180.0358 20.0522 5.1179 -5.3450 -14.1247
# 3 14.6805 20.0522 51.9868 -6.5724 21.7403 -11.1750
# 4 6.6073 5.1179 -6.5724 42.3349 -1.3458 5.2853
# 5 19.5562 -5.3450 21.7403 -1.3458 50.7622 -3.1577
# 6 -12.4283 -14.1247 -11.1750 5.2853 -3.1577 42.1876
#
#
#
# Elastic Compliance Matrix: (Units=1/GPa)
#
#
# Indices 1 2 3 4 5 6 
#
# 1 0.014504 -0.002127 -0.000643 -0.002693 -0.005401 0.003323
# 2 -0.002127 0.006424 -0.002934 -0.000945 0.002794 0.001074
# 3 -0.000643 -0.002934 0.026636 0.003664 -0.011086 0.004595
# 4 -0.002693 -0.000945 0.003664 0.025131 -0.000170 -0.003300
# 5 -0.005401 0.002794 -0.011086 -0.000170 0.026720 -0.001571
# 6 0.003323 0.001074 0.004595 -0.003300 -0.001571 0.026555
#
#
# Mechanical properties :
#
#
# Convention : Reuss Voigt Hill
#
# Bulk Modulus (GPa) = 27.65842 49.52786 38.59314
# Shear Modulus (GPa) = 33.46042 43.92894 38.69468
#
# Velocity S-wave (km/s) = 3.59160 4.11526 3.86231
# Velocity P-wave (km/s) = 5.27847 6.45556 5.89646
#
# Compressibility (1/GPa) = 0.03615535
#
# Stress axis : x y z
#
# Youngs Moduli (GPa) = 68.94788 155.66995 37.54335
#
# Poissons Ratio (x) = 0.33115 0.02412
# Poissons Ratio (y) = 0.14667 0.11016
# Poissons Ratio (z) = 0.04430 0.45677
#
# Static dielectric constant tensor:
#      x y z
#    x 2.173340 0.032040 -0.057300 
#    y 0.032040 1.986680 0.040370 
#    z -0.057300 0.040370 2.261810 
# 
# From -- ./inp_files/508546.got.cif
#   From: 2010.05.17/outbox.cif.g08.bks.cpg/sg2_255_cif.got.tgz:508546.got - 2010.06.03 11:33:40.
