data_PCOD9003654
_publ_section_title
;
Structure prediction by ZEFSAII (Michael W. Deem and Ramdas Pophale) SiO2 
 PCOD9003654
Probable space group: P -1
;
_chemical_formula_sum "Si O2"
_cell_formula_units_Z 14
_cell_length_a 14.295870
_cell_length_b 7.677110
_cell_length_c 9.427059
_cell_angle_alpha 129.374411
_cell_angle_beta 47.729908
_cell_angle_gamma 126.348767
_cell_volume 566.360191
_symmetry_space_group_name_H-M "P -1"
_symmetry_group_IT_number 2
_symmetry_cell_setting 'triclinic'
loop_
_space_group_symop_operation_xyz
x,y,z
-x,-y,-z
loop_
_atom_site_type_symbol
_atom_site_label
_atom_site_fract_x
_atom_site_fract_y
_atom_site_fract_z
Si Si1 0.164692 0.984755 0.015979
Si Si2 0.523685 0.775457 0.137543
Si Si3 0.440095 0.787847 0.832467
Si Si4 0.199174 0.116860 0.735932
Si Si5 0.858294 0.393944 0.943724
Si Si6 0.970972 0.251167 0.479204
Si Si7 0.488760 0.654044 0.410485
O O1 0.086820 0.137612 0.260439
O O2 0.319658 0.112802 0.947058
O O3 0.144540 0.983763 0.868411
O O4 0.127330 0.726499 0.985526
O O5 0.455369 0.767269 0.358135
O O6 0.489215 0.937409 0.133012
O O7 0.500000 0.500000 0.000000
O O8 0.413062 0.692588 0.646636
O O9 0.522610 0.623506 0.728842
O O10 0.293977 0.730209 0.014800
O O11 0.356389 0.225733 0.649585
O O12 0.156178 0.940475 0.557784
O O13 0.137955 0.335737 0.905663
O O14 0.949279 0.314073 0.695478
O O15 0.000000 0.500000 0.500000
#
# Coordination Sequence:
#
# PCOD9003654 Si02
#       7
#     2   2   2   2   2   2   2
#     4  10  22  43  63  89 126 165 205 253 309 363
#     4  10  21  37  61  91 123 156 198 251 301 362
#     4   9  19  39  59  85 120 158 199 247 296 361
#     4  10  22  43  64  90 125 165 203 253 309 366
#     4  10  22  43  63  90 126 159 212 258 296 369
#     4  12  24  41  66  91 126 161 209 256 309 364
#     4   9  19  39  63  85 120 161 201 242 307 361
#
# _framework density 24.719252000000001
#
# number of rings (size 3 to 8) (size 9 to 14) (size 15 to 20)
#    0.000    2.000    1.429    1.286    0.000    2.286 
#   18.000    0.000    0.000    0.000    0.000    0.000 
#    0.000    0.000    0.000    0.000    0.000    0.000 
#
# Total GULP energy -78301.146926 kJ/mol
# GULP energy per Si atom -5592.939066 kJ/mol
# Density = 2.466299 g / cm^3
# Si number density = 24.719252 Si / 1000 Ang^3
#
#
#
# Elastic Constant Matrix: (Units=GPa)
#
#
# Indices 1 2 3 4 5 6 
#
# 1 45.7474 33.2922 -13.0995 6.8651 -16.3747 0.1984
# 2 33.2922 124.3848 13.4562 24.6282 9.2251 -36.9915
# 3 -13.0995 13.4562 107.3567 11.9120 -3.6646 -4.7679
# 4 6.8651 24.6282 11.9120 56.2773 2.0060 -4.0596
# 5 -16.3747 9.2251 -3.6646 2.0060 29.3201 9.4762
# 6 0.1984 -36.9915 -4.7679 -4.0596 9.4762 31.5444
#
#
#
# Elastic Compliance Matrix: (Units=1/GPa)
#
#
# Indices 1 2 3 4 5 6 
#
# 1 -0.732278 0.544346 -0.145946 -0.022853 -0.882292 0.882995
# 2 0.544346 -0.387861 0.107531 0.011916 0.643503 -0.633786
# 3 -0.145946 0.107531 -0.019420 -0.006274 -0.174083 0.175570
# 4 -0.022853 0.011916 -0.006274 0.019302 -0.026222 0.023531
# 5 -0.882292 0.643503 -0.174083 -0.026222 -1.015783 1.035634
# 6 0.882995 -0.633786 0.175570 0.023531 1.035634 -0.998626
#
#
# Mechanical properties :
#
#
# Convention : Reuss Voigt Hill
#
# Bulk Modulus (GPa) = -7.83108 38.30961 15.23926
# Shear Modulus (GPa) = -1.19358 39.68435 19.24539
#
# Velocity S-wave (km/s) = -0.69563 4.01109 2.79329
# Velocity P-wave (km/s) = 1.95450 6.08140 4.07206
#
# Compressibility (1/GPa) = -0.12769623
#
# Stress axis : x y z
#
# Youngs Moduli (GPa) = -1.36560 -2.57825 -51.49308
#
# Poissons Ratio (x) = 1.40346 -7.51520
# Poissons Ratio (y) = 0.74336 5.53710
# Poissons Ratio (z) = -0.19930 0.27724
#
# Static dielectric constant tensor:
#      x y z
#    x 1.990060 0.019660 0.057640 
#    y 0.019660 2.016660 0.060090 
#    z 0.057640 0.060090 2.031610 
# 
# From -- ./inp_files/461665.got.cif
#   From: 2010.05.17/outbox.cif.g08.bks.cpg/sg2_231_cif.got.tgz:461665.got - 2010.06.03 11:33:40.
