data_PCOD9003699
_publ_section_title
;
Structure prediction by ZEFSAII (Michael W. Deem and Ramdas Pophale) SiO2 
 PCOD9003699
Probable space group: P -1
;
_chemical_formula_sum "Si O2"
_cell_formula_units_Z 14
_cell_length_a 17.565575
_cell_length_b 17.409673
_cell_length_c 8.084585
_cell_angle_alpha 149.398473
_cell_angle_beta 32.210861
_cell_angle_gamma 147.325127
_cell_volume 609.375732
_symmetry_space_group_name_H-M "P -1"
_symmetry_group_IT_number 2
_symmetry_cell_setting 'triclinic'
loop_
_space_group_symop_operation_xyz
x,y,z
-x,-y,-z
loop_
_atom_site_type_symbol
_atom_site_label
_atom_site_fract_x
_atom_site_fract_y
_atom_site_fract_z
Si Si1 0.165489 0.635508 0.880331
Si Si2 0.683677 0.100501 0.386518
Si Si3 0.215895 0.143550 0.140500
Si Si4 0.176813 0.547175 0.314557
Si Si5 0.149963 0.944902 0.335869
Si Si6 0.609792 0.501235 0.648878
Si Si7 0.331950 0.298643 0.559609
O O1 0.193973 0.589602 0.555778
O O2 0.300118 0.614575 0.699173
O O3 0.164495 0.816155 0.201908
O O4 0.000000 0.500000 0.000000
O O5 0.718944 0.293257 0.691373
O O6 0.500000 0.000000 0.500000
O O7 0.792483 0.101386 0.030227
O O8 0.738525 0.010391 0.263487
O O9 0.269229 0.306155 0.231661
O O10 0.319465 0.219461 0.255906
O O11 0.030025 0.079820 0.392013
O O12 0.000000 0.500000 0.500000
O O13 0.220169 0.393582 0.927239
O O14 0.260113 0.139312 0.518227
O O15 0.497189 0.428672 0.564197
O O16 0.500000 0.500000 0.000000
#
# Coordination Sequence:
#
# PCOD9003699 Si02
#       7
#     2   2   2   2   2   2   2
#     4  11  23  45  65  90 129 172 209 251 325 383
#     4  10  21  37  61  94 126 158 204 266 313 358
#     4  11  22  43  69  90 127 171 214 257 315 378
#     4  11  22  40  68  94 125 161 217 262 305 379
#     4  10  22  42  66  92 125 168 214 261 310 378
#     4  12  25  42  65  93 134 169 204 267 320 376
#     4  11  22  41  67  97 123 165 218 262 312 372
#
# _framework density 22.974332
#
# number of rings (size 3 to 8) (size 9 to 14) (size 15 to 20)
#    0.000    1.143    2.857    5.571    2.000    1.714 
#    0.000    4.286    0.000    0.000    0.000    0.000 
#    0.000    0.000    0.000    0.000    0.000    0.000 
#
# Total GULP energy -78272.753509 kJ/mol
# GULP energy per Si atom -5590.910965 kJ/mol
# Density = 2.292204 g / cm^3
# Si number density = 22.974332 Si / 1000 Ang^3
#
#
#
# Elastic Constant Matrix: (Units=GPa)
#
#
# Indices 1 2 3 4 5 6 
#
# 1 65.8939 0.0972 20.5724 0.1339 -24.7919 -3.4306
# 2 0.0972 135.5168 22.6282 16.3356 -24.0205 -21.4841
# 3 20.5724 22.6282 91.2896 11.4368 -38.0379 -12.4093
# 4 0.1339 16.3356 11.4368 46.0472 -4.4785 -22.0655
# 5 -24.7919 -24.0205 -38.0379 -4.4785 53.0791 7.3428
# 6 -3.4306 -21.4841 -12.4093 -22.0655 7.3428 31.9105
#
#
#
# Elastic Compliance Matrix: (Units=1/GPa)
#
#
# Indices 1 2 3 4 5 6 
#
# 1 0.018879 0.001835 -0.000948 0.001200 0.008836 0.001693
# 2 0.001835 0.008961 -0.000238 -0.000353 0.004024 0.004967
# 3 -0.000948 -0.000238 0.016171 -0.001763 0.010561 0.002377
# 4 0.001200 -0.000353 -0.001763 0.032769 -0.001159 0.022131
# 5 0.008836 0.004024 0.010561 -0.001159 0.032324 -0.000473
# 6 0.001693 0.004967 0.002377 0.022131 -0.000473 0.051201
#
#
# Mechanical properties :
#
#
# Convention : Reuss Voigt Hill
#
# Bulk Modulus (GPa) = 22.07074 42.14397 32.10735
# Shear Modulus (GPa) = 28.71735 42.83418 35.77576
#
# Velocity S-wave (km/s) = 3.53933 4.32260 3.95043
# Velocity P-wave (km/s) = 5.13128 6.58004 5.90029
#
# Compressibility (1/GPa) = 0.04530887
#
# Stress axis : x y z
#
# Youngs Moduli (GPa) = 52.96796 111.59389 61.83887
#
# Poissons Ratio (x) = -0.20474 0.05860
# Poissons Ratio (y) = -0.09718 0.01473
# Poissons Ratio (z) = 0.05020 0.02659
#
# Static dielectric constant tensor:
#      x y z
#    x 2.093190 -0.143310 -0.117410 
#    y -0.143310 1.919160 0.110480 
#    z -0.117410 0.110480 1.978370 
# 
# From -- ./inp_files/156583.got.cif
#   From: 2010.05.17/outbox.cif.g08.bks.cpg/sg2_79_cif.got.tgz:156583.got - 2010.06.03 11:33:40.
