data_PCOD9003435
_publ_section_title
;
Structure prediction by ZEFSAII (Michael W. Deem and Ramdas Pophale) SiO2 
 PCOD9003435
Probable space group: P -1
;
_chemical_formula_sum "Si O2"
_cell_formula_units_Z 16
_cell_length_a 9.037141
_cell_length_b 7.921415
_cell_length_c 12.734815
_cell_angle_alpha 48.247556
_cell_angle_beta 77.133011
_cell_angle_gamma 66.249560
_cell_volume 621.130534
_symmetry_space_group_name_H-M "P -1"
_symmetry_group_IT_number 2
_symmetry_cell_setting 'triclinic'
loop_
_space_group_symop_operation_xyz
x,y,z
-x,-y,-z
loop_
_atom_site_type_symbol
_atom_site_label
_atom_site_fract_x
_atom_site_fract_y
_atom_site_fract_z
Si Si1 0.068094 0.284925 0.962951
Si Si2 0.974378 0.509943 0.666582
Si Si3 0.728910 0.592847 0.969093
Si Si4 0.307778 0.357519 0.623715
Si Si5 0.284268 0.884167 0.725701
Si Si6 0.393512 0.646538 0.313248
Si Si7 0.372717 0.321386 0.281277
Si Si8 0.941410 0.091566 0.717461
O O1 0.046807 0.321645 0.828247
O O2 0.911798 0.516196 0.925704
O O3 0.241139 0.277601 0.983703
O O4 0.032418 0.067152 0.114349
O O5 0.135356 0.567098 0.589895
O O6 0.797274 0.700849 0.644311
O O7 0.940000 0.354123 0.642433
O O8 0.625717 0.694899 0.839111
O O9 0.692508 0.360076 0.112335
O O10 0.389878 0.426015 0.479521
O O11 0.436156 0.324287 0.709531
O O12 0.278225 0.111810 0.703382
O O13 0.443625 0.834607 0.650333
O O14 0.100531 0.959902 0.678024
O O15 0.357790 0.582268 0.227042
O O16 0.245031 0.868130 0.294250
#
# Coordination Sequence:
#
# PCOD9003435 Si02
#       8
#     2   2   2   2   2   2   2   2
#     4   9  17  32  58  87 121 151 185 229 285 341
#     4   9  19  36  60  86 117 155 189 232 285 343
#     4   9  19  34  54  88 125 152 178 233 287 343
#     4  10  23  42  60  82 113 150 197 247 288 332
#     4  10  21  37  60  87 120 150 191 230 285 346
#     4  10  23  42  60  82 113 150 197 247 288 332
#     4  10  21  37  60  87 120 150 191 230 285 346
#     4   9  19  36  60  86 117 155 189 232 285 343
#
# _framework density 25.75948
#
# number of rings (size 3 to 8) (size 9 to 14) (size 15 to 20)
#    0.000    2.500    0.000    0.750    3.500    8.000 
#    0.000    1.250    0.000    3.000    0.000    0.000 
#    0.000    0.000    0.000    0.000    0.000    0.000 
#
# Total GULP energy -89110.372308 kJ/mol
# GULP energy per Si atom -5569.398269 kJ/mol
# Density = 2.570085 g / cm^3
# Si number density = 25.759480 Si / 1000 Ang^3
#
#
#
# Elastic Constant Matrix: (Units=GPa)
#
#
# Indices 1 2 3 4 5 6 
#
# 1 191.0678 50.0559 16.0393 10.5776 5.5715 -32.6075
# 2 50.0559 58.2013 7.0685 4.8131 -4.1656 -27.2530
# 3 16.0393 7.0685 71.2265 9.4767 -5.3208 7.7485
# 4 10.5776 4.8131 9.4767 14.8282 0.4366 -2.3320
# 5 5.5715 -4.1656 -5.3208 0.4366 32.6864 0.0251
# 6 -32.6075 -27.2530 7.7485 -2.3320 0.0251 61.4304
#
#
#
# Elastic Compliance Matrix: (Units=1/GPa)
#
#
# Indices 1 2 3 4 5 6 
#
# 1 0.007153 -0.005260 -0.001085 -0.002404 -0.002035 0.001510
# 2 -0.005260 0.026728 -0.001847 -0.002414 0.004027 0.009206
# 3 -0.001085 -0.001847 0.016392 -0.009787 0.002752 -0.003836
# 4 -0.002404 -0.002414 -0.009787 0.076549 -0.002515 0.001794
# 5 -0.002035 0.004027 0.002752 -0.002515 0.031935 0.000251
# 6 0.001510 0.009206 -0.003836 0.001794 0.000251 0.021716
#
#
# Mechanical properties :
#
#
# Convention : Reuss Voigt Hill
#
# Bulk Modulus (GPa) = 29.50853 51.86921 40.68887
# Shear Modulus (GPa) = 24.02060 38.27780 31.14920
#
# Velocity S-wave (km/s) = 3.05699 3.85901 3.48117
# Velocity P-wave (km/s) = 4.89291 6.32737 5.65580
#
# Compressibility (1/GPa) = 0.03388850
#
# Stress axis : x y z
#
# Youngs Moduli (GPa) = 139.80246 37.41343 61.00374
#
# Poissons Ratio (x) = 0.19680 0.06620
# Poissons Ratio (y) = 0.73536 0.11270
# Poissons Ratio (z) = 0.15170 0.06912
#
# Static dielectric constant tensor:
#      x y z
#    x 2.141930 -0.023070 0.042230 
#    y -0.023070 2.144880 0.026880 
#    z 0.042230 0.026880 2.100880 
# 
# From -- ./inp_files/494367.got.cif
#   From: 2010.05.17/outbox.cif.g08.bks.cpg/sg2_248_cif.got.tgz:494367.got - 2010.06.03 11:33:40.
