data_PCOD9003162
_publ_section_title
;
Structure prediction by ZEFSAII (Michael W. Deem and Ramdas Pophale) SiO2 
 PCOD9003162
Probable space group: P -1
;
_chemical_formula_sum "Si O2"
_cell_formula_units_Z 16
_cell_length_a 20.241953
_cell_length_b 5.860534
_cell_length_c 7.198588
_cell_angle_alpha 118.177715
_cell_angle_beta 64.712826
_cell_angle_gamma 78.434754
_cell_volume 587.612105
_symmetry_space_group_name_H-M "P -1"
_symmetry_group_IT_number 2
_symmetry_cell_setting 'triclinic'
loop_
_space_group_symop_operation_xyz
x,y,z
-x,-y,-z
loop_
_atom_site_type_symbol
_atom_site_label
_atom_site_fract_x
_atom_site_fract_y
_atom_site_fract_z
Si Si1 0.575507 0.080017 0.648893
Si Si2 0.192025 0.699810 0.372059
Si Si3 0.848416 0.687175 0.307314
Si Si4 0.030477 0.709327 0.720189
Si Si5 0.682583 0.755848 0.711157
Si Si6 0.858925 0.090312 0.896871
Si Si7 0.696962 0.176244 0.267601
Si Si8 0.436453 0.476398 0.709761
O O1 0.598313 0.026611 0.821167
O O2 0.572505 0.799960 0.458079
O O3 0.651037 0.082017 0.440804
O O4 0.485171 0.361051 0.802860
O O5 0.115306 0.647160 0.491074
O O6 0.284504 0.414922 0.195452
O O7 0.179239 0.811511 0.222699
O O8 0.171497 0.995940 0.630100
O O9 0.933342 0.564446 0.282705
O O10 0.762237 0.779836 0.557596
O O11 0.859428 0.393371 0.076291
O O12 0.952383 0.814940 0.716232
O O13 0.000000 0.000000 0.000000
O O14 0.684736 0.485404 0.483930
O O15 0.795513 0.000749 0.036598
O O16 0.650330 0.231712 0.142597
O O17 0.500000 0.500000 0.500000
#
# Coordination Sequence:
#
# PCOD9003162 Si02
#       8
#     2   2   2   2   2   2   2   2
#     4   9  15  28  52  80 112 149 189 235 286 340
#     4  11  21  37  58  81 116 156 194 236 290 346
#     4   9  20  38  56  78 112 151 191 239 289 335
#     4   9  20  38  56  82 115 149 197 244 287 344
#     4   9  18  32  51  79 112 147 191 234 279 342
#     4  10  21  37  58  87 115 147 195 244 287 346
#     4   9  17  32  53  79 113 148 190 239 289 342
#     4   8  15  27  49  83 112 143 190 236 282 341
#
# _framework density 27.228843000000001
#
# number of rings (size 3 to 8) (size 9 to 14) (size 15 to 20)
#    0.000    2.750    0.000    1.875    0.000    2.500 
#    0.000   21.250    0.000    0.750    0.000   35.875 
#    0.000   27.000    0.000    0.375    0.000    0.000 
#
# Total GULP energy -89333.636600 kJ/mol
# GULP energy per Si atom -5583.352288 kJ/mol
# Density = 2.716687 g / cm^3
# Si number density = 27.228843 Si / 1000 Ang^3
#
#
#
# Elastic Constant Matrix: (Units=GPa)
#
#
# Indices 1 2 3 4 5 6 
#
# 1 189.9421 84.2864 31.3544 -8.3059 7.1547 -37.8214
# 2 84.2864 136.8825 25.9600 34.8155 -10.2345 -34.2915
# 3 31.3544 25.9600 43.0462 16.1440 0.6468 -12.8198
# 4 -8.3059 34.8155 16.1440 45.3285 -13.5379 -4.0135
# 5 7.1547 -10.2345 0.6468 -13.5379 35.0593 -15.2333
# 6 -37.8214 -34.2915 -12.8198 -4.0135 -15.2333 79.8578
#
#
#
# Elastic Compliance Matrix: (Units=1/GPa)
#
#
# Indices 1 2 3 4 5 6 
#
# 1 0.010225 -0.007274 -0.006425 0.009945 0.000288 0.001242
# 2 -0.007274 0.015843 0.001611 -0.013006 0.002557 0.003451
# 3 -0.006425 0.001611 0.033176 -0.015342 -0.004140 0.001414
# 4 0.009945 -0.013006 -0.015342 0.042839 0.011432 0.000996
# 5 0.000288 0.002557 -0.004140 0.011432 0.037289 0.008257
# 6 0.001242 0.003451 0.001414 0.000996 0.008257 0.016445
#
#
# Mechanical properties :
#
#
# Convention : Reuss Voigt Hill
#
# Bulk Modulus (GPa) = 28.51628 72.56361 50.53994
# Shear Modulus (GPa) = 26.08505 47.26713 36.67609
#
# Velocity S-wave (km/s) = 3.09850 4.17096 3.67407
# Velocity P-wave (km/s) = 4.82665 7.06422 6.04978
#
# Compressibility (1/GPa) = 0.03506769
#
# Stress axis : x y z
#
# Youngs Moduli (GPa) = 97.80424 63.12125 30.14213
#
# Poissons Ratio (x) = 0.45914 0.19365
# Poissons Ratio (y) = 0.71142 -0.04856
# Poissons Ratio (z) = 0.62836 -0.10168
#
# Static dielectric constant tensor:
#      x y z
#    x 2.187540 -0.016820 0.053460 
#    y -0.016820 2.239540 -0.050450 
#    z 0.053460 -0.050450 2.259720 
# 
# From -- ./inp_files/339466.got.cif
#   From: 2010.05.17/outbox.cif.g08.bks.cpg/sg2_170_cif.got.tgz:339466.got - 2010.06.03 11:33:40.
