data_PCOD9003259
_publ_section_title
;
Structure prediction by ZEFSAII (Michael W. Deem and Ramdas Pophale) SiO2 
 PCOD9003259
Probable space group: P -1
;
_chemical_formula_sum "Si O2"
_cell_formula_units_Z 15
_cell_length_a 15.543693
_cell_length_b 8.457650
_cell_length_c 7.624379
_cell_angle_alpha 128.119886
_cell_angle_beta 117.566038
_cell_angle_gamma 48.634717
_cell_volume 589.259576
_symmetry_space_group_name_H-M "P -1"
_symmetry_group_IT_number 2
_symmetry_cell_setting 'triclinic'
loop_
_space_group_symop_operation_xyz
x,y,z
-x,-y,-z
loop_
_atom_site_type_symbol
_atom_site_label
_atom_site_fract_x
_atom_site_fract_y
_atom_site_fract_z
Si Si1 0.786058 0.226772 0.356863
Si Si2 0.914078 0.143400 0.759359
Si Si3 0.559249 0.646642 0.618149
Si Si4 0.690681 0.538705 0.984636
Si Si5 0.949217 0.761354 0.821261
Si Si6 0.377827 0.759418 0.073870
Si Si7 0.500000 0.000000 0.500000
Si Si8 0.830904 0.555244 0.405567
O O1 0.875829 0.082760 0.500245
O O2 0.679566 0.461282 0.509386
O O3 0.846916 0.326897 0.362343
O O4 0.712825 0.157937 0.116978
O O5 0.807141 0.404546 0.891026
O O6 0.923665 0.965433 0.797575
O O7 0.022939 0.170796 0.917887
O O8 0.500000 0.500000 0.500000
O O9 0.587944 0.708901 0.876876
O O10 0.492230 0.850556 0.555269
O O11 0.678788 0.320459 0.886257
O O12 0.711576 0.651735 0.254458
O O13 0.848929 0.711351 0.668280
O O14 0.067667 0.531173 0.700660
O O15 0.414629 0.944327 0.267810
O O16 0.500000 0.500000 0.000000
#
# Coordination Sequence:
#
# PCOD9003259 Si02
#       8
#     2   2   2   2   2   2   1   2
#     4  10  21  37  59  85 122 152 200 262 295 343
#     4   9  19  34  57  83 112 158 191 249 298 359
#     4  11  21  41  60  87 124 160 205 259 298 369
#     4   9  19  37  58  79 124 154 193 262 298 341
#     4   9  18  36  55  81 117 153 201 231 316 364
#     4  11  21  41  59  86 124 157 205 259 296 368
#     4  12  24  36  68  86 112 176 202 240 326 348
#     4   9  19  34  57  83 115 159 189 253 294 361
#
# _framework density 25.455676
#
# number of rings (size 3 to 8) (size 9 to 14) (size 15 to 20)
#    0.000    2.133    2.667    0.000    0.000    3.200 
#    0.000    2.667    0.000    0.000    0.000    0.000 
#    0.000    0.000    0.000    0.000    0.000    0.000 
#
# Total GULP energy -83502.548815 kJ/mol
# GULP energy per Si atom -5566.836588 kJ/mol
# Density = 2.539774 g / cm^3
# Si number density = 25.455676 Si / 1000 Ang^3
#
#
#
# Elastic Constant Matrix: (Units=GPa)
#
#
# Indices 1 2 3 4 5 6 
#
# 1 70.5971 11.9652 35.8759 7.6296 19.6288 2.1625
# 2 11.9652 75.0560 56.7830 -20.5630 7.4065 9.0104
# 3 35.8759 56.7830 267.3099 -30.7222 42.4566 23.3337
# 4 7.6296 -20.5630 -30.7222 48.0072 8.5306 -2.9620
# 5 19.6288 7.4065 42.4566 8.5306 43.2895 1.3521
# 6 2.1625 9.0104 23.3337 -2.9620 1.3521 31.4667
#
#
#
# Elastic Compliance Matrix: (Units=1/GPa)
#
#
# Indices 1 2 3 4 5 6 
#
# 1 0.017109 -0.002144 -0.001454 -0.003607 -0.005267 0.000403
# 2 -0.002144 0.017580 -0.002352 0.006373 -0.000907 -0.002504
# 3 -0.001454 -0.002352 0.006026 0.003869 -0.005515 -0.003094
# 4 -0.003607 0.006373 0.003869 0.028074 -0.008737 -0.001428
# 5 -0.005267 -0.000907 -0.005515 -0.008737 0.032696 0.002483
# 6 0.000403 -0.002504 -0.003094 -0.001428 0.002483 0.034522
#
#
# Mechanical properties :
#
#
# Convention : Reuss Voigt Hill
#
# Bulk Modulus (GPa) = 34.70354 69.13456 51.91905
# Shear Modulus (GPa) = 31.74332 45.10861 38.42596
#
# Velocity S-wave (km/s) = 3.53512 4.21413 3.88947
# Velocity P-wave (km/s) = 5.50684 7.13417 6.37266
#
# Compressibility (1/GPa) = 0.02881551
#
# Stress axis : x y z
#
# Youngs Moduli (GPa) = 58.44852 56.88150 165.93768
#
# Poissons Ratio (x) = 0.12198 0.24127
# Poissons Ratio (y) = 0.12534 0.39023
# Poissons Ratio (z) = 0.08498 0.13377
#
# Static dielectric constant tensor:
#      x y z
#    x 1.926720 -0.078730 0.046670 
#    y -0.078730 1.987440 -0.005390 
#    z 0.046670 -0.005390 2.077880 
# 
# From -- ./inp_files/192289.got.cif
#   From: 2010.05.17/outbox.cif.g08.bks.cpg/sg2_97_cif.got.tgz:192289.got - 2010.06.03 11:33:40.
