data_PCOD9003530
_publ_section_title
;
Structure prediction by ZEFSAII (Michael W. Deem and Ramdas Pophale) SiO2 
 PCOD9003530
Probable space group: P -1
;
_chemical_formula_sum "Si O2"
_cell_formula_units_Z 16
_cell_length_a 8.757709
_cell_length_b 12.718477
_cell_length_c 18.158627
_cell_angle_alpha 37.651121
_cell_angle_beta 42.073564
_cell_angle_gamma 39.703987
_cell_volume 741.898309
_symmetry_space_group_name_H-M "P -1"
_symmetry_group_IT_number 2
_symmetry_cell_setting 'triclinic'
loop_
_space_group_symop_operation_xyz
x,y,z
-x,-y,-z
loop_
_atom_site_type_symbol
_atom_site_label
_atom_site_fract_x
_atom_site_fract_y
_atom_site_fract_z
Si Si1 0.612815 0.366097 0.873154
Si Si2 0.065717 0.917016 0.344846
Si Si3 0.681731 0.287041 0.315305
Si Si4 0.776117 0.518247 0.518250
Si Si5 0.439182 0.316761 0.635177
Si Si6 0.128294 0.393137 0.089764
Si Si7 0.993684 0.677501 0.115442
Si Si8 0.754005 0.028923 0.904862
O O1 0.453428 0.583882 0.779617
O O2 0.703301 0.236326 0.839383
O O3 0.818739 0.354216 0.865773
O O4 0.423974 0.289462 0.021051
O O5 0.124724 0.699357 0.425087
O O6 0.297430 0.871650 0.344224
O O7 0.112276 0.004434 0.203679
O O8 0.785062 0.058830 0.394319
O O9 0.487958 0.388503 0.394222
O O10 0.949697 0.293932 0.228815
O O11 0.727057 0.665314 0.387111
O O12 0.000000 0.500000 0.500000
O O13 0.500000 0.500000 0.500000
O O14 0.260317 0.334268 0.758497
O O15 0.108601 0.528987 0.089910
O O16 0.000000 0.500000 0.000000
O O17 0.914754 0.881359 0.992113
O O18 0.500000 0.000000 0.000000
#
# Coordination Sequence:
#
# PCOD9003530 Si02
#       8
#     2   2   2   2   2   2   2   2
#     4  11  23  39  62 102 141 178 219 284 354 402
#     4  11  23  42  68 100 129 175 231 277 334 411
#     4  11  22  43  69  96 133 180 227 275 340 409
#     4  11  24  46  70  94 137 178 225 282 340 396
#     4  10  23  41  66  94 127 178 232 274 326 395
#     4  10  21  37  60  93 131 175 218 266 334 417
#     4  12  23  40  66  96 139 178 225 288 343 401
#     4  12  21  39  67  96 135 179 226 275 344 419
#
# _framework density 21.566299000000001
#
# number of rings (size 3 to 8) (size 9 to 14) (size 15 to 20)
#    0.000    1.000    2.500    6.750    0.000    1.000 
#    0.000    1.250    0.000    0.000    0.000    0.000 
#    0.000    0.000    0.000    0.000    0.000    0.000 
#
# Total GULP energy -89286.675537 kJ/mol
# GULP energy per Si atom -5580.417221 kJ/mol
# Density = 2.151721 g / cm^3
# Si number density = 21.566299 Si / 1000 Ang^3
#
#
#
# Elastic Constant Matrix: (Units=GPa)
#
#
# Indices 1 2 3 4 5 6 
#
# 1 125.3770 37.0185 2.3565 -16.5422 14.3065 -8.0298
# 2 37.0185 124.8455 15.0168 -10.5339 10.8754 -4.9755
# 3 2.3565 15.0168 49.8592 -3.8032 13.2430 -5.7462
# 4 -16.5422 -10.5339 -3.8032 17.4297 -5.5632 8.8139
# 5 14.3065 10.8754 13.2430 -5.5632 32.1001 -2.5634
# 6 -8.0298 -4.9755 -5.7462 8.8139 -2.5634 28.1472
#
#
#
# Elastic Compliance Matrix: (Units=1/GPa)
#
#
# Indices 1 2 3 4 5 6 
#
# 1 0.009939 -0.002246 0.001596 0.007362 -0.003036 0.000182
# 2 -0.002246 0.009247 -0.002322 0.002967 -0.000698 -0.000473
# 3 0.001596 -0.002322 0.023628 0.000313 -0.009305 0.003923
# 4 0.007362 0.002967 0.000313 0.079549 0.007652 -0.021524
# 5 -0.003036 -0.000698 -0.009305 0.007652 0.037760 -0.001846
# 6 0.000182 -0.000473 0.003923 -0.021524 -0.001846 0.042868
#
#
# Mechanical properties :
#
#
# Convention : Reuss Voigt Hill
#
# Bulk Modulus (GPa) = 27.12251 45.42949 36.27600
# Shear Modulus (GPa) = 22.60144 31.91472 27.25808
#
# Velocity S-wave (km/s) = 3.24079 3.85104 3.55902
# Velocity P-wave (km/s) = 5.15823 6.39412 5.80914
#
# Compressibility (1/GPa) = 0.03686974
#
# Stress axis : x y z
#
# Youngs Moduli (GPa) = 100.61792 108.13844 42.32299
#
# Poissons Ratio (x) = 0.24287 -0.06754
# Poissons Ratio (y) = 0.22598 0.09827
# Poissons Ratio (z) = -0.16056 0.25109
#
# Static dielectric constant tensor:
#      x y z
#    x 1.586230 -0.035400 -0.034680 
#    y -0.035400 1.849910 -0.035350 
#    z -0.034680 -0.035350 1.817860 
# 
# From -- ./inp_files/306240.got.cif
#   From: 2010.05.17/outbox.cif.g08.bks.cpg/sg2_154_cif.got.tgz:306240.got - 2010.06.03 11:33:40.
