data_PCOD9003403
_publ_section_title
;
Structure prediction by ZEFSAII (Michael W. Deem and Ramdas Pophale) SiO2 
 PCOD9003403
Probable space group: P -1
;
_chemical_formula_sum "Si O2"
_cell_formula_units_Z 16
_cell_length_a 21.395043
_cell_length_b 16.611481
_cell_length_c 11.617102
_cell_angle_alpha 143.384335
_cell_angle_beta 21.010390
_cell_angle_gamma 152.412602
_cell_volume 677.891130
_symmetry_space_group_name_H-M "P -1"
_symmetry_group_IT_number 2
_symmetry_cell_setting 'triclinic'
loop_
_space_group_symop_operation_xyz
x,y,z
-x,-y,-z
loop_
_atom_site_type_symbol
_atom_site_label
_atom_site_fract_x
_atom_site_fract_y
_atom_site_fract_z
Si Si1 0.735549 0.353323 0.268185
Si Si2 0.918429 0.638153 0.701661
Si Si3 0.496685 0.493921 0.148643
Si Si4 0.653710 0.463246 0.315313
Si Si5 0.537137 0.973059 0.239417
Si Si6 0.973278 0.179256 0.044642
Si Si7 0.633879 0.291981 0.949596
Si Si8 0.174619 0.085673 0.189752
O O1 0.588338 0.403189 0.632467
O O2 0.696620 0.358012 0.204845
O O3 0.661214 0.174327 0.237860
O O4 0.000000 0.500000 0.000000
O O5 0.777976 0.447456 0.785983
O O6 0.942147 0.767935 0.907420
O O7 0.171501 0.705805 0.324266
O O8 0.766036 0.600560 0.809729
O O9 0.454890 0.487889 0.351907
O O10 0.320113 0.294897 0.180502
O O11 0.528060 0.342058 0.281477
O O12 0.871701 0.645243 0.097368
O O13 0.272705 0.873176 0.589608
O O14 0.551440 0.887270 0.002637
O O15 0.644095 0.941320 0.121397
O O16 0.943038 0.022540 0.850281
O O17 0.000000 0.000000 0.500000
#
# Coordination Sequence:
#
# PCOD9003403 Si02
#       8
#     2   2   2   2   2   2   2   2
#     4  10  22  42  57  80 125 162 185 237 307 351
#     4   9  18  36  58  90 121 147 194 247 295 338
#     4  10  21  37  60  85 117 158 190 243 292 345
#     4   9  20  36  61  83 122 152 194 230 304 342
#     4  11  22  38  64  84 118 154 201 239 291 349
#     4  10  21  37  60  92 115 153 195 246 288 349
#     4   9  18  34  60  90 114 152 196 243 288 351
#     4  12  21  36  58  93 113 149 203 251 279 341
#
# _framework density 23.602609000000001
#
# number of rings (size 3 to 8) (size 9 to 14) (size 15 to 20)
#    0.750    1.250    2.500    2.625    0.000    3.500 
#    0.000    3.125    2.750    0.000    0.000    0.000 
#    0.000    0.000    0.000    0.000    0.000    0.000 
#
# Total GULP energy -89342.382292 kJ/mol
# GULP energy per Si atom -5583.898893 kJ/mol
# Density = 2.354889 g / cm^3
# Si number density = 23.602609 Si / 1000 Ang^3
#
#
#
# Elastic Constant Matrix: (Units=GPa)
#
#
# Indices 1 2 3 4 5 6 
#
# 1 57.0203 34.2366 13.0258 10.3054 7.1155 19.2257
# 2 34.2366 150.1007 18.2992 28.3961 -0.2378 32.7050
# 3 13.0258 18.2992 59.2878 -2.4169 1.9734 12.4304
# 4 10.3054 28.3961 -2.4169 30.1517 6.5964 2.3372
# 5 7.1155 -0.2378 1.9734 6.5964 31.7896 4.0174
# 6 19.2257 32.7050 12.4304 2.3372 4.0174 24.6177
#
#
#
# Elastic Compliance Matrix: (Units=1/GPa)
#
#
# Indices 1 2 3 4 5 6 
#
# 1 0.025613 -0.000608 -0.002030 -0.006556 -0.002076 -0.017209
# 2 -0.000608 0.012381 -0.001146 -0.011375 0.004563 -0.015060
# 3 -0.002030 -0.001146 0.019301 0.004011 -0.000712 -0.006903
# 4 -0.006556 -0.011375 0.004011 0.047583 -0.010691 0.015434
# 5 -0.002076 0.004563 -0.000712 -0.010691 0.035334 -0.008832
# 6 -0.017209 -0.015060 -0.006903 0.015434 -0.008832 0.077530
#
#
# Mechanical properties :
#
#
# Convention : Reuss Voigt Hill
#
# Bulk Modulus (GPa) = 20.10957 44.17021 32.13989
# Shear Modulus (GPa) = 20.67095 30.70162 25.68629
#
# Velocity S-wave (km/s) = 2.96259 3.61053 3.30249
# Velocity P-wave (km/s) = 4.49901 6.01133 5.30929
#
# Compressibility (1/GPa) = 0.04972756
#
# Stress axis : x y z
#
# Youngs Moduli (GPa) = 39.04306 80.76818 51.81086
#
# Poissons Ratio (x) = 0.04911 0.10516
# Poissons Ratio (y) = 0.02374 0.05937
# Poissons Ratio (z) = 0.07924 0.09256
#
# Static dielectric constant tensor:
#      x y z
#    x 2.214450 0.102020 -0.075330 
#    y 0.102020 1.884910 0.046040 
#    z -0.075330 0.046040 2.002840 
# 
# From -- ./inp_files/544440.got.cif
#   From: 2010.05.17/outbox.cif.g08.bks.cpg/sg2_273_cif.got.tgz:544440.got - 2010.06.03 11:33:40.
