data_PCOD9003632
_publ_section_title
;
Structure prediction by ZEFSAII (Michael W. Deem and Ramdas Pophale) SiO2 
 PCOD9003632
Probable space group: P -1
;
_chemical_formula_sum "Si O2"
_cell_formula_units_Z 12
_cell_length_a 8.501977
_cell_length_b 8.331352
_cell_length_c 9.317562
_cell_angle_alpha 104.918897
_cell_angle_beta 61.625097
_cell_angle_gamma 68.778362
_cell_volume 461.173917
_symmetry_space_group_name_H-M "P -1"
_symmetry_group_IT_number 2
_symmetry_cell_setting 'triclinic'
loop_
_space_group_symop_operation_xyz
x,y,z
-x,-y,-z
loop_
_atom_site_type_symbol
_atom_site_label
_atom_site_fract_x
_atom_site_fract_y
_atom_site_fract_z
Si Si1 0.902384 0.742535 0.018519
Si Si2 0.209785 0.798909 0.091742
Si Si3 0.434012 0.268350 0.659158
Si Si4 0.664123 0.460406 0.741316
Si Si5 0.940539 0.751139 0.685014
Si Si6 0.561117 0.883139 0.665916
O O1 0.955037 0.663029 0.815540
O O2 0.082274 0.763078 0.017807
O O3 0.794193 0.660302 0.150107
O O4 0.687752 0.973334 0.144582
O O5 0.467307 0.688338 0.920371
O O6 0.223484 0.672566 0.195979
O O7 0.084305 0.035932 0.234521
O O8 0.531033 0.382306 0.706119
O O9 0.420463 0.270698 0.494846
O O10 0.592122 0.035127 0.590604
O O11 0.854995 0.402329 0.536716
O O12 0.727726 0.810180 0.704377
#
# Coordination Sequence:
#
# PCOD9003632 Si02
#       6
#     2   2   2   2   2   2
#     4  10  21  37  61  90 121 160 195 248 304 354
#     4  11  23  40  61  92 122 157 205 241 301 358
#     4   9  19  38  60  90 114 158 208 236 295 352
#     4  11  24  39  65  90 119 160 202 253 288 358
#     4  12  22  39  66  89 125 155 196 253 304 355
#     4   9  19  36  63  90 114 158 208 237 295 357
#
# _framework density 26.020554000000001
#
# number of rings (size 3 to 8) (size 9 to 14) (size 15 to 20)
#    1.000    0.667    1.667    3.500    0.000    1.333 
#    0.000    1.667    0.000   11.000    0.000    0.000 
#    0.000    0.000    0.000    0.000    0.000    0.000 
#
# Total GULP energy -67259.108410 kJ/mol
# GULP energy per Si atom -5604.925701 kJ/mol
# Density = 2.596133 g / cm^3
# Si number density = 26.020554 Si / 1000 Ang^3
#
#
#
# Elastic Constant Matrix: (Units=GPa)
#
#
# Indices 1 2 3 4 5 6 
#
# 1 121.7688 40.9119 37.0871 -23.2383 2.4625 -40.0600
# 2 40.9119 81.3152 16.3028 -2.1645 4.9842 -13.5008
# 3 37.0871 16.3028 155.2376 -23.2997 -12.1294 -32.4170
# 4 -23.2383 -2.1645 -23.2997 40.1908 -3.8639 10.8398
# 5 2.4625 4.9842 -12.1294 -3.8639 45.7529 -2.5861
# 6 -40.0600 -13.5008 -32.4170 10.8398 -2.5861 39.0781
#
#
#
# Elastic Compliance Matrix: (Units=1/GPa)
#
#
# Indices 1 2 3 4 5 6 
#
# 1 0.015033 -0.005512 0.000492 0.005418 0.001085 0.012484
# 2 -0.005512 0.015221 -0.000984 -0.002984 -0.001903 -0.000506
# 3 0.000492 -0.000984 0.008572 0.003757 0.003034 0.006434
# 4 0.005418 -0.002984 0.003757 0.030535 0.003575 -0.000593
# 5 0.001085 -0.001903 0.003034 0.003575 0.023311 0.003523
# 6 0.012484 -0.000506 0.006434 -0.000593 0.003523 0.043948
#
#
# Mechanical properties :
#
#
# Convention : Reuss Voigt Hill
#
# Bulk Modulus (GPa) = 37.28617 60.76946 49.02782
# Shear Modulus (GPa) = 31.73230 42.60569 37.16900
#
# Velocity S-wave (km/s) = 3.49594 4.05085 3.78358
# Velocity P-wave (km/s) = 5.53679 6.72936 6.16199
#
# Compressibility (1/GPa) = 0.02681960
#
# Stress axis : x y z
#
# Youngs Moduli (GPa) = 66.51869 65.69656 116.65759
#
# Poissons Ratio (x) = 0.36212 -0.05742
# Poissons Ratio (y) = 0.36665 0.11479
# Poissons Ratio (z) = -0.03274 0.06464
#
# Static dielectric constant tensor:
#      x y z
#    x 1.914820 0.044310 -0.028070 
#    y 0.044310 2.201430 0.007040 
#    z -0.028070 0.007040 2.050800 
# 
# From -- ./inp_files/165399.got.cif
#   From: 2010.05.17/outbox.cif.g08.bks.cpg/sg2_83_cif.got.tgz:165399.got - 2010.06.03 11:33:40.
