data_PCOD9003571
_publ_section_title
;
Structure prediction by ZEFSAII (Michael W. Deem and Ramdas Pophale) SiO2 
 PCOD9003571
Probable space group: P -1
;
_chemical_formula_sum "Si O2"
_cell_formula_units_Z 16
_cell_length_a 22.018928
_cell_length_b 20.779298
_cell_length_c 12.995614
_cell_angle_alpha 27.772501
_cell_angle_beta 18.510770
_cell_angle_gamma 21.645925
_cell_volume 696.037833
_symmetry_space_group_name_H-M "P -1"
_symmetry_group_IT_number 2
_symmetry_cell_setting 'triclinic'
loop_
_space_group_symop_operation_xyz
x,y,z
-x,-y,-z
loop_
_atom_site_type_symbol
_atom_site_label
_atom_site_fract_x
_atom_site_fract_y
_atom_site_fract_z
Si Si1 0.260184 0.749298 0.211981
Si Si2 0.843327 0.711616 0.382398
Si Si3 0.227661 0.577140 0.101997
Si Si4 0.640952 0.034450 0.116878
Si Si5 0.454217 0.890574 0.303574
Si Si6 0.861118 0.808762 0.905937
Si Si7 0.048292 0.775027 0.317122
Si Si8 0.130412 0.433108 0.997662
O O1 0.256478 0.738224 0.111159
O O2 0.007719 0.800809 0.584338
O O3 0.484569 0.564140 0.158107
O O4 0.280965 0.889502 0.031156
O O5 0.859296 0.543862 0.567047
O O6 0.712867 0.853648 0.301553
O O7 0.093301 0.665438 0.085520
O O8 0.645725 0.816647 0.643824
O O9 0.138982 0.712601 0.144647
O O10 0.785498 0.969846 0.870465
O O11 0.616139 0.845208 0.208972
O O12 0.586373 0.710248 0.282897
O O13 0.176543 0.021455 0.596068
O O14 0.500000 0.000000 0.000000
O O15 0.039979 0.613384 0.941588
O O16 0.962816 0.660856 0.658458
O O17 0.000000 0.500000 0.000000
#
# Coordination Sequence:
#
# PCOD9003571 Si02
#       8
#     2   2   2   2   2   2   2   2
#     4  11  22  36  52  83 124 142 174 233 272 336
#     4   9  20  42  58  81 108 136 200 237 254 330
#     4  10  21  37  61  80 107 150 183 229 280 318
#     4  10  21  37  61  80 107 150 183 229 280 318
#     4   9  17  32  54  80 108 140 177 229 263 309
#     4  11  19  36  58  84 111 148 185 220 280 329
#     4  11  19  36  58  84 111 148 185 220 280 329
#     4   9  17  32  54  80 108 140 177 229 263 309
#
# _framework density 22.987258000000001
#
# number of rings (size 3 to 8) (size 9 to 14) (size 15 to 20)
#    0.000    2.000    3.750    2.250    0.000    0.000 
#    2.250    1.250    0.000    0.000    0.000    0.000 
#    0.000    0.000    0.000    0.000    0.000    0.000 
#
# Total GULP energy -89271.797474 kJ/mol
# GULP energy per Si atom -5579.487342 kJ/mol
# Density = 2.293494 g / cm^3
# Si number density = 22.987258 Si / 1000 Ang^3
#
#
#
# Elastic Constant Matrix: (Units=GPa)
#
#
# Indices 1 2 3 4 5 6 
#
# 1 54.5325 23.9155 10.9235 12.6762 -13.3754 15.0117
# 2 23.9155 122.2032 14.6685 19.2507 -4.6652 11.5044
# 3 10.9235 14.6685 29.7684 11.6020 -8.7223 2.0496
# 4 12.6762 19.2507 11.6020 37.3660 -4.5408 -0.1892
# 5 -13.3754 -4.6652 -8.7223 -4.5408 29.1571 7.3453
# 6 15.0117 11.5044 2.0496 -0.1892 7.3453 40.0174
#
#
#
# Elastic Compliance Matrix: (Units=1/GPa)
#
#
# Indices 1 2 3 4 5 6 
#
# 1 0.028080 -0.002654 -0.001679 -0.005984 0.014123 -0.012305
# 2 -0.002654 0.009663 -0.002531 -0.003368 -0.000558 -0.001566
# 3 -0.001679 -0.002531 0.042743 -0.010105 0.010757 -0.002854
# 4 -0.005984 -0.003368 -0.010105 0.033422 -0.002182 0.004289
# 5 0.014123 -0.000558 0.010757 -0.002182 0.047181 -0.014359
# 6 -0.012305 -0.001566 -0.002854 0.004289 -0.014359 0.032858
#
#
# Mechanical properties :
#
#
# Convention : Reuss Voigt Hill
#
# Bulk Modulus (GPa) = 14.97934 33.94656 24.46295
# Shear Modulus (GPa) = 21.74616 31.77453 26.76035
#
# Velocity S-wave (km/s) = 3.07906 3.72192 3.41565
# Velocity P-wave (km/s) = 4.37851 5.76800 5.12061
#
# Compressibility (1/GPa) = 0.06675863
#
# Stress axis : x y z
#
# Youngs Moduli (GPa) = 35.61257 103.48865 23.39590
#
# Poissons Ratio (x) = 0.27462 0.03928
# Poissons Ratio (y) = 0.09450 0.05921
# Poissons Ratio (z) = 0.05979 0.26191
#
# Static dielectric constant tensor:
#      x y z
#    x 1.871540 -0.000220 0.021640 
#    y -0.000220 1.895420 -0.012600 
#    z 0.021640 -0.012600 1.901000 
# 
# From -- ./inp_files/308399.got.cif
#   From: 2010.05.17/outbox.cif.g08.bks.cpg/sg2_155_cif.got.tgz:308399.got - 2010.06.03 11:33:40.
