data_PCOD9003340
_publ_section_title
;
Structure prediction by ZEFSAII (Michael W. Deem and Ramdas Pophale) SiO2 
 PCOD9003340
Probable space group: P -1
;
_chemical_formula_sum "Si O2"
_cell_formula_units_Z 14
_cell_length_a 16.112617
_cell_length_b 8.299944
_cell_length_c 5.425848
_cell_angle_alpha 86.668159
_cell_angle_beta 86.841002
_cell_angle_gamma 48.996189
_cell_volume 546.535826
_symmetry_space_group_name_H-M "P -1"
_symmetry_group_IT_number 2
_symmetry_cell_setting 'triclinic'
loop_
_space_group_symop_operation_xyz
x,y,z
-x,-y,-z
loop_
_atom_site_type_symbol
_atom_site_label
_atom_site_fract_x
_atom_site_fract_y
_atom_site_fract_z
Si Si1 0.967086 0.806783 0.831333
Si Si2 0.161820 0.725844 0.666688
Si Si3 0.718299 0.860209 0.508000
Si Si4 0.572235 0.154801 0.881344
Si Si5 0.648281 0.723773 0.153763
Si Si6 0.246143 0.925768 0.878183
Si Si7 0.916211 0.416483 0.663836
O O1 0.036767 0.882828 0.769060
O O2 0.016237 0.674122 0.089127
O O3 0.838750 0.988282 0.889455
O O4 0.005879 0.665956 0.587100
O O5 0.232035 0.509875 0.840804
O O6 0.217207 0.824835 0.696485
O O7 0.150944 0.660906 0.404521
O O8 0.646171 0.803501 0.420948
O O9 0.818825 0.670201 0.669883
O O10 0.633091 0.093263 0.616994
O O11 0.774142 0.876558 0.265278
O O12 0.443073 0.295592 0.875667
O O13 0.628572 0.215816 0.038295
O O14 0.617714 0.916954 0.974680
#
# Coordination Sequence:
#
# PCOD9003340 Si02
#       7
#     2   2   2   2   2   2   2
#     4  10  22  41  63  92 122 169 205 252 299 371
#     4   9  21  40  60  88 123 166 206 250 303 373
#     4  10  21  37  59  90 121 155 206 257 310 363
#     4  10  21  37  63  88 118 159 200 268 301 368
#     4   9  19  41  62  85 115 159 213 249 311 362
#     4  11  24  36  56  93 126 159 201 253 314 363
#     4   9  22  39  65  86 122 165 210 245 304 357
#
# _framework density 25.615887000000001
#
# number of rings (size 3 to 8) (size 9 to 14) (size 15 to 20)
#    0.857    1.429    0.000    1.714    4.000    3.429 
#    0.000    0.714    0.000    0.000    0.000    0.000 
#    0.000    0.000    0.000    0.000    0.000    0.000 
#
# Total GULP energy -78128.900503 kJ/mol
# GULP energy per Si atom -5580.635750 kJ/mol
# Density = 2.555758 g / cm^3
# Si number density = 25.615887 Si / 1000 Ang^3
#
#
#
# Elastic Constant Matrix: (Units=GPa)
#
#
# Indices 1 2 3 4 5 6 
#
# 1 160.0003 9.1788 14.9357 0.6648 22.1012 2.6870
# 2 9.1788 45.4134 4.7595 -6.5199 3.4504 -1.5996
# 3 14.9357 4.7595 106.1510 0.2376 8.9731 -1.6046
# 4 0.6648 -6.5199 0.2376 30.0668 2.3646 11.2506
# 5 22.1012 3.4504 8.9731 2.3646 29.1287 6.7768
# 6 2.6870 -1.5996 -1.6046 11.2506 6.7768 30.6817
#
#
#
# Elastic Compliance Matrix: (Units=1/GPa)
#
#
# Indices 1 2 3 4 5 6 
#
# 1 0.007063 -0.000983 -0.000503 -0.000146 -0.005193 0.000504
# 2 -0.000983 0.023215 -0.000735 0.005311 -0.002159 -0.000213
# 3 -0.000503 -0.000735 0.009783 -0.000499 -0.002812 0.001321
# 4 -0.000146 0.005311 -0.000499 0.039776 -0.000276 -0.014261
# 5 -0.005193 -0.002159 -0.002812 -0.000276 0.041477 -0.008865
# 6 0.000504 -0.000213 0.001321 -0.014261 -0.008865 0.039794
#
#
# Mechanical properties :
#
#
# Convention : Reuss Voigt Hill
#
# Bulk Modulus (GPa) = 28.07566 41.03474 34.55520
# Shear Modulus (GPa) = 28.18123 36.82150 32.50137
#
# Velocity S-wave (km/s) = 3.32044 3.79548 3.56588
# Velocity P-wave (km/s) = 5.06799 5.93815 5.52024
#
# Compressibility (1/GPa) = 0.03561804
#
# Stress axis : x y z
#
# Youngs Moduli (GPa) = 141.58711 43.07606 102.21777
#
# Poissons Ratio (x) = 0.04236 0.05139
# Poissons Ratio (y) = 0.13924 0.07514
# Poissons Ratio (z) = 0.07118 0.03167
#
# Static dielectric constant tensor:
#      x y z
#    x 2.069880 0.061550 -0.020310 
#    y 0.061550 1.999240 -0.015480 
#    z -0.020310 -0.015480 2.081140 
# 
# From -- ./inp_files/88934.got.cif
#   From: 2010.05.17/outbox.cif.g08.bks.cpg/sg2_45_cif.got.tgz:88934.got - 2010.06.03 11:33:40.
