data_PCOD9003233
_publ_section_title
;
Structure prediction by ZEFSAII (Michael W. Deem and Ramdas Pophale) SiO2 
 PCOD9003233
Probable space group: P -1
;
_chemical_formula_sum "Si O2"
_cell_formula_units_Z 14
_cell_length_a 10.802511
_cell_length_b 4.961037
_cell_length_c 18.811052
_cell_angle_alpha 93.437608
_cell_angle_beta 49.005269
_cell_angle_gamma 85.060739
_cell_volume 748.925807
_symmetry_space_group_name_H-M "P -1"
_symmetry_group_IT_number 2
_symmetry_cell_setting 'triclinic'
loop_
_space_group_symop_operation_xyz
x,y,z
-x,-y,-z
loop_
_atom_site_type_symbol
_atom_site_label
_atom_site_fract_x
_atom_site_fract_y
_atom_site_fract_z
Si Si1 0.673047 0.992388 0.395872
Si Si2 0.102276 0.056331 0.057197
Si Si3 0.753506 0.505755 0.073436
Si Si4 0.222800 0.068972 0.171951
Si Si5 0.189843 0.254720 0.795351
Si Si6 0.113325 0.547192 0.689534
Si Si7 0.569529 0.483327 0.893331
O O1 0.668741 0.896520 0.313502
O O2 0.183553 0.244435 0.628869
O O3 0.500000 0.000000 0.500000
O O4 0.740176 0.277135 0.373624
O O5 0.201017 0.053551 0.094405
O O6 0.928139 0.960705 0.140763
O O7 0.189399 0.813646 0.968839
O O8 0.118033 0.332162 0.013752
O O9 0.748687 0.600109 0.157800
O O10 0.574439 0.578653 0.105033
O O11 0.271299 0.758103 0.174010
O O12 0.371715 0.229020 0.137865
O O13 0.054305 0.254986 0.266304
O O14 0.090376 0.473715 0.780519
O O15 0.500000 0.500000 0.000000
#
# Coordination Sequence:
#
# PCOD9003233 Si02
#       7
#     2   2   2   2   2   2   2
#     4  10  21  37  61  88 110 133 175 231 297 343
#     4  12  21  35  54  77 116 153 193 221 270 318
#     4  12  25  34  52  81 117 159 186 228 262 324
#     4  12  20  38  54  77 108 153 192 233 258 315
#     4  10  24  36  57  82 119 142 187 218 294 336
#     4  10  21  37  59  82 111 137 179 232 282 335
#     4  12  22  35  52  76 109 154 203 229 257 302
#
# _framework density 18.693441
#
# number of rings (size 3 to 8) (size 9 to 14) (size 15 to 20)
#    0.857    0.000    4.286    5.143    2.000    0.000 
#    0.000    0.000    0.000    0.000    0.000    6.000 
#    0.000    0.000    0.000    0.000    0.000    0.000 
#
# Total GULP energy -78148.939489 kJ/mol
# GULP energy per Si atom -5582.067106 kJ/mol
# Density = 1.865089 g / cm^3
# Si number density = 18.693441 Si / 1000 Ang^3
#
#
#
# Elastic Constant Matrix: (Units=GPa)
#
#
# Indices 1 2 3 4 5 6 
#
# 1 74.0955 8.7215 25.1062 4.1089 -4.9249 7.0698
# 2 8.7215 91.6012 5.1398 -6.5326 -2.5111 2.6399
# 3 25.1062 5.1398 85.8751 0.0762 -7.8136 2.3086
# 4 4.1089 -6.5326 0.0762 24.6349 1.3862 -6.4441
# 5 -4.9249 -2.5111 -7.8136 1.3862 14.2036 0.8312
# 6 7.0698 2.6399 2.3086 -6.4441 0.8312 24.4172
#
#
#
# Elastic Compliance Matrix: (Units=1/GPa)
#
#
# Indices 1 2 3 4 5 6 
#
# 1 0.016094 -0.001372 -0.004121 -0.004688 0.003849 -0.005490
# 2 -0.001372 0.011314 -0.000177 0.003163 0.001119 -0.000013
# 3 -0.004121 -0.000177 0.013403 0.000215 0.005903 -0.000199
# 4 -0.004688 0.003163 0.000215 0.046059 -0.006225 0.013362
# 5 0.003849 0.001119 0.005903 -0.006225 0.076145 -0.006029
# 6 -0.005490 -0.000013 -0.000199 0.013362 -0.006029 0.046296
#
#
# Mechanical properties :
#
#
# Convention : Reuss Voigt Hill
#
# Bulk Modulus (GPa) = 33.93126 36.61188 35.27157
# Shear Modulus (GPa) = 21.69456 26.82477 24.25966
#
# Velocity S-wave (km/s) = 3.41037 3.79223 3.60636
# Velocity P-wave (km/s) = 5.80503 6.22917 6.02084
#
# Compressibility (1/GPa) = 0.02947135
#
# Stress axis : x y z
#
# Youngs Moduli (GPa) = 62.13671 88.38565 74.61293
#
# Poissons Ratio (x) = 0.12123 0.30748
# Poissons Ratio (y) = 0.08523 0.01319
# Poissons Ratio (z) = 0.25606 0.01562
#
# Static dielectric constant tensor:
#      x y z
#    x 1.667650 -0.026780 -0.020700 
#    y -0.026780 1.694550 0.029090 
#    z -0.020700 0.029090 1.638240 
# 
# From -- ./inp_files/592197.got.cif
#   From: 2010.05.17/outbox.cif.g08.bks.cpg/sg2_297_cif.got.tgz:592197.got - 2010.06.03 11:33:40.
