data_PCOD9003337
_publ_section_title
;
Structure prediction by ZEFSAII (Michael W. Deem and Ramdas Pophale) SiO2 
 PCOD9003337
Probable space group: P -1
;
_chemical_formula_sum "Si O2"
_cell_formula_units_Z 16
_cell_length_a 13.394104
_cell_length_b 11.977360
_cell_length_c 12.083294
_cell_angle_alpha 89.351811
_cell_angle_beta 49.370281
_cell_angle_gamma 129.736899
_cell_volume 769.983459
_symmetry_space_group_name_H-M "P -1"
_symmetry_group_IT_number 2
_symmetry_cell_setting 'triclinic'
loop_
_space_group_symop_operation_xyz
x,y,z
-x,-y,-z
loop_
_atom_site_type_symbol
_atom_site_label
_atom_site_fract_x
_atom_site_fract_y
_atom_site_fract_z
Si Si1 0.793227 0.233968 0.762919
Si Si2 0.356700 0.201721 0.818236
Si Si3 0.580932 0.440077 0.992917
Si Si4 0.144033 0.866539 0.570835
Si Si5 0.840210 0.908395 0.286534
Si Si6 0.243233 0.706187 0.462324
Si Si7 0.847629 0.033110 0.673806
Si Si8 0.614643 0.624212 0.651380
O O1 0.793879 0.277996 0.636376
O O2 0.899837 0.186545 0.696236
O O3 0.985120 0.454871 0.685555
O O4 0.500000 0.000000 0.000000
O O5 0.267179 0.146537 0.756478
O O6 0.526240 0.214009 0.706779
O O7 0.524246 0.431901 0.719214
O O8 0.104945 0.034807 0.076327
O O9 0.574038 0.447118 0.130848
O O10 0.379549 0.201364 0.108736
O O11 0.500000 0.500000 0.000000
O O12 0.861006 0.621021 0.751025
O O13 0.286619 0.854264 0.494430
O O14 0.230640 0.988690 0.393753
O O15 0.128822 0.951456 0.673087
O O16 0.654879 0.701747 0.499671
O O17 0.114595 0.165379 0.487000
#
# Coordination Sequence:
#
# PCOD9003337 Si02
#       8
#     2   2   2   2   2   2   2   2
#     4  10  21  37  59  89 128 166 194 246 312 389
#     4  11  25  44  64  90 120 170 214 263 303 362
#     4  12  22  34  60  95 129 160 199 253 315 374
#     4  11  22  41  61  93 128 161 205 258 309 377
#     4  11  25  43  65  88 122 167 220 256 309 361
#     4  10  23  40  62  92 126 160 209 253 310 368
#     4  11  22  35  59  94 125 160 202 249 322 369
#     4  12  22  38  63  89 124 161 205 262 308 370
#
# _framework density 20.779667
#
# number of rings (size 3 to 8) (size 9 to 14) (size 15 to 20)
#    0.000    1.000    5.000    2.250    1.750    0.500 
#    0.000    0.000    0.000    0.750    0.000    0.000 
#    0.000    0.000    0.000    0.000    0.000    0.000 
#
# Total GULP energy -89333.402784 kJ/mol
# GULP energy per Si atom -5583.337674 kJ/mol
# Density = 2.073237 g / cm^3
# Si number density = 20.779667 Si / 1000 Ang^3
#
#
#
# Elastic Constant Matrix: (Units=GPa)
#
#
# Indices 1 2 3 4 5 6 
#
# 1 56.5506 28.9321 15.9494 4.6038 -2.8521 -23.4571
# 2 28.9321 67.6143 7.3546 0.2162 -1.9040 -20.1256
# 3 15.9494 7.3546 81.1484 -8.2509 5.5501 -17.5973
# 4 4.6038 0.2162 -8.2509 34.3230 -5.8469 1.9622
# 5 -2.8521 -1.9040 5.5501 -5.8469 35.7910 3.9297
# 6 -23.4571 -20.1256 -17.5973 1.9622 3.9297 34.8753
#
#
#
# Elastic Compliance Matrix: (Units=1/GPa)
#
#
# Indices 1 2 3 4 5 6 
#
# 1 0.028474 -0.007825 -0.002430 -0.005158 -0.000119 0.013714
# 2 -0.007825 0.020059 0.001343 0.000777 -0.000405 0.006992
# 3 -0.002430 0.001343 0.014603 0.003001 -0.002625 0.006636
# 4 -0.005158 0.000777 0.003001 0.031569 0.004741 -0.003817
# 5 -0.000119 -0.000405 -0.002625 0.004741 0.029667 -0.005248
# 6 0.013714 0.006992 0.006636 -0.003817 -0.005248 0.046087
#
#
# Mechanical properties :
#
#
# Convention : Reuss Voigt Hill
#
# Bulk Modulus (GPa) = 22.06862 34.42061 28.24462
# Shear Modulus (GPa) = 24.58372 31.20299 27.89335
#
# Velocity S-wave (km/s) = 3.44330 3.87927 3.66777
# Velocity P-wave (km/s) = 5.14313 6.05520 5.61771
#
# Compressibility (1/GPa) = 0.04531321
#
# Stress axis : x y z
#
# Youngs Moduli (GPa) = 35.11941 49.85234 68.48089
#
# Poissons Ratio (x) = 0.39008 0.16639
# Poissons Ratio (y) = 0.27480 -0.09197
# Poissons Ratio (z) = 0.08533 -0.06695
#
# Static dielectric constant tensor:
#      x y z
#    x 1.739590 -0.033280 -0.018120 
#    y -0.033280 1.803300 0.050790 
#    z -0.018120 0.050790 1.813170 
# 
# From -- ./inp_files/428100.got.cif
#   From: 2010.05.17/outbox.cif.g08.bks.cpg/sg2_215_cif.got.tgz:428100.got - 2010.06.03 11:33:40.
