data_PCOD9003292
_publ_section_title
;
Structure prediction by ZEFSAII (Michael W. Deem and Ramdas Pophale) SiO2 
 PCOD9003292
Probable space group: P -1
;
_chemical_formula_sum "Si O2"
_cell_formula_units_Z 14
_cell_length_a 9.877035
_cell_length_b 12.432461
_cell_length_c 11.998286
_cell_angle_alpha 58.882002
_cell_angle_beta 145.635059
_cell_angle_gamma 126.213354
_cell_volume 669.615826
_symmetry_space_group_name_H-M "P -1"
_symmetry_group_IT_number 2
_symmetry_cell_setting 'triclinic'
loop_
_space_group_symop_operation_xyz
x,y,z
-x,-y,-z
loop_
_atom_site_type_symbol
_atom_site_label
_atom_site_fract_x
_atom_site_fract_y
_atom_site_fract_z
Si Si1 0.845028 0.176410 0.594028
Si Si2 0.781262 0.606746 0.019174
Si Si3 0.633953 0.321529 0.691147
Si Si4 0.555459 0.054880 0.687149
Si Si5 0.658270 0.812930 0.977755
Si Si6 0.445399 0.483144 0.646822
Si Si7 0.154578 0.621821 0.682045
O O1 0.722072 0.137156 0.653022
O O2 0.807339 0.310060 0.450149
O O3 0.693581 0.053540 0.477619
O O4 0.141214 0.194420 0.790401
O O5 0.724230 0.734394 0.959465
O O6 0.574478 0.530817 0.827642
O O7 0.784998 0.511631 0.177909
O O8 0.062479 0.643724 0.137791
O O9 0.510722 0.162613 0.680758
O O10 0.576969 0.387953 0.728220
O O11 0.524197 0.389577 0.480539
O O12 0.696065 0.964089 0.890809
O O13 0.359987 0.732400 0.839082
O O14 0.141462 0.408446 0.480126
#
# Coordination Sequence:
#
# PCOD9003292 Si02
#       7
#     2   2   2   2   2   2   2
#     4  10  21  37  59  87 123 151 188 238 296 347
#     4  11  22  36  62  90 120 150 193 243 294 343
#     4  10  22  41  60  88 114 155 203 239 286 341
#     4  10  22  37  61  90 117 151 195 241 294 346
#     4  11  22  36  58  93 122 149 190 238 299 353
#     4  10  23  40  61  83 120 157 197 242 283 342
#     4  10  23  38  57  89 122 157 190 234 295 353
#
# _framework density 20.907513000000002
#
# number of rings (size 3 to 8) (size 9 to 14) (size 15 to 20)
#    0.000    1.714    1.429    2.143    6.000    1.143 
#    0.000    2.857    0.000    5.143    0.000    0.000 
#    0.000    0.000    0.000    0.000    0.000    0.000 
#
# Total GULP energy -78206.252034 kJ/mol
# GULP energy per Si atom -5586.160860 kJ/mol
# Density = 2.085993 g / cm^3
# Si number density = 20.907513 Si / 1000 Ang^3
#
#
#
# Elastic Constant Matrix: (Units=GPa)
#
#
# Indices 1 2 3 4 5 6 
#
# 1 44.7642 51.5139 33.0979 -6.4915 7.7704 -13.0306
# 2 51.5139 92.5747 45.1968 -12.0484 9.2909 -29.9502
# 3 33.0979 45.1968 131.1239 10.6359 3.8240 -12.4857
# 4 -6.4915 -12.0484 10.6359 48.5197 3.9507 6.3723
# 5 7.7704 9.2909 3.8240 3.9507 29.0805 -3.5751
# 6 -13.0306 -29.9502 -12.4857 6.3723 -3.5751 23.4487
#
#
#
# Elastic Compliance Matrix: (Units=1/GPa)
#
#
# Indices 1 2 3 4 5 6 
#
# 1 0.070125 -0.041256 -0.005305 0.003366 -0.007606 -0.018625
# 2 -0.041256 0.046299 -0.002436 0.001942 0.000525 0.034465
# 3 -0.005305 -0.002436 0.010118 -0.003723 0.001440 0.000560
# 4 0.003366 0.001942 -0.003723 0.023367 -0.004784 -0.004711
# 5 -0.007606 0.000525 0.001440 -0.004784 0.037227 0.004187
# 6 -0.018625 0.034465 0.000560 -0.004711 0.004187 0.078534
#
#
# Mechanical properties :
#
#
# Convention : Reuss Voigt Hill
#
# Bulk Modulus (GPa) = 35.02795 58.67555 46.85175
# Shear Modulus (GPa) = 13.39830 29.45337 21.42584
#
# Velocity S-wave (km/s) = 2.53422 3.75740 3.20471
# Velocity P-wave (km/s) = 5.03519 6.85196 6.01259
#
# Compressibility (1/GPa) = 0.02854863
#
# Stress axis : x y z
#
# Youngs Moduli (GPa) = 14.26019 21.59875 98.82938
#
# Poissons Ratio (x) = 0.89108 0.52430
# Poissons Ratio (y) = 0.58832 0.24075
# Poissons Ratio (z) = 0.07565 0.05261
#
# Static dielectric constant tensor:
#      x y z
#    x 1.766450 0.033060 0.006200 
#    y 0.033060 1.775240 0.017360 
#    z 0.006200 0.017360 1.755630 
# 
# From -- ./inp_files/517742.got.cif
#   From: 2010.05.17/outbox.cif.g08.bks.cpg/sg2_259_cif.got.tgz:517742.got - 2010.06.03 11:33:40.
