data_PCOD9003044
_publ_section_title
;
Structure prediction by ZEFSAII (Michael W. Deem and Ramdas Pophale) SiO2 
 PCOD9003044
Probable space group: P -1
;
_chemical_formula_sum "Si O2"
_cell_formula_units_Z 16
_cell_length_a 8.143984
_cell_length_b 15.530239
_cell_length_c 21.677039
_cell_angle_alpha 17.370856
_cell_angle_beta 115.661898
_cell_angle_gamma 115.491701
_cell_volume 736.317399
_symmetry_space_group_name_H-M "P -1"
_symmetry_group_IT_number 2
_symmetry_cell_setting 'triclinic'
loop_
_space_group_symop_operation_xyz
x,y,z
-x,-y,-z
loop_
_atom_site_type_symbol
_atom_site_label
_atom_site_fract_x
_atom_site_fract_y
_atom_site_fract_z
Si Si1 0.606033 0.729390 0.222540
Si Si2 0.228221 0.783057 0.572323
Si Si3 0.092410 0.270896 0.629103
Si Si4 0.813501 0.815090 0.079565
Si Si5 0.696159 0.346931 0.078446
Si Si6 0.563754 0.138928 0.327013
Si Si7 0.991596 0.849907 0.807410
Si Si8 0.650680 0.407338 0.634772
O O1 0.741041 0.816292 0.241580
O O2 0.731008 0.655569 0.236415
O O3 0.440409 0.520104 0.364524
O O4 0.500000 0.000000 0.000000
O O5 0.173376 0.442786 0.789835
O O6 0.271993 0.860514 0.597508
O O7 0.417453 0.881611 0.499518
O O8 0.082434 0.966159 0.387616
O O9 0.166140 0.427121 0.471764
O O10 0.000000 0.500000 0.500000
O O11 0.970621 0.006935 0.762172
O O12 0.682755 0.067394 0.866925
O O13 0.000000 0.000000 0.000000
O O14 0.622325 0.146937 0.259559
O O15 0.796226 0.198952 0.139119
O O16 0.541669 0.562307 0.886240
O O17 0.863651 0.556993 0.988462
O O18 0.500000 0.500000 0.500000
#
# Coordination Sequence:
#
# PCOD9003044 Si02
#       8
#     2   2   2   2   2   2   2   2
#     4   9  20  36  52  76 111 148 192 236 277 339
#     4  10  21  37  57  84 116 150 190 241 292 347
#     4  11  21  36  57  83 116 156 195 236 293 353
#     4  11  21  36  56  82 116 154 193 237 293 352
#     4   9  20  39  61  86 114 149 195 242 294 349
#     4   9  20  39  61  85 113 150 196 241 294 348
#     4  10  21  37  57  86 119 148 190 246 294 347
#     4   9  20  36  53  76 109 148 193 238 279 339
#
# _framework density 21.729759999999999
#
# number of rings (size 3 to 8) (size 9 to 14) (size 15 to 20)
#    0.000    2.250    0.000    2.250    0.000    6.500 
#    0.000    8.750    0.000    0.000    0.000    0.000 
#    0.000    0.000    0.000    0.000    0.000    0.000 
#
# Total GULP energy -89172.835069 kJ/mol
# GULP energy per Si atom -5573.302192 kJ/mol
# Density = 2.168030 g / cm^3
# Si number density = 21.729760 Si / 1000 Ang^3
#
#
#
# Elastic Constant Matrix: (Units=GPa)
#
#
# Indices 1 2 3 4 5 6 
#
# 1 70.6360 5.1230 7.5235 3.0811 0.8805 -5.6301
# 2 5.1230 65.5901 25.9855 -1.5803 8.8458 0.9998
# 3 7.5235 25.9855 70.0503 3.1863 3.6074 5.5724
# 4 3.0811 -1.5803 3.1863 35.8906 2.3803 4.5816
# 5 0.8805 8.8458 3.6074 2.3803 34.3546 8.6459
# 6 -5.6301 0.9998 5.5724 4.5816 8.6459 20.5717
#
#
#
# Elastic Compliance Matrix: (Units=1/GPa)
#
#
# Indices 1 2 3 4 5 6 
#
# 1 0.014907 -0.000420 -0.001735 -0.001760 -0.001363 0.005535
# 2 -0.000420 0.018657 -0.006897 0.001464 -0.004810 0.002542
# 3 -0.001735 -0.006897 0.017413 -0.001130 0.001374 -0.005182
# 4 -0.001760 0.001464 -0.001130 0.029043 -0.000599 -0.006463
# 5 -0.001363 -0.004810 0.001374 -0.000599 0.033967 -0.014653
# 6 0.005535 0.002542 -0.005182 -0.006463 -0.014653 0.059004
#
#
# Mechanical properties :
#
#
# Convention : Reuss Voigt Hill
#
# Bulk Modulus (GPa) = 30.42005 31.50450 30.96227
# Shear Modulus (GPa) = 24.74610 29.33968 27.04289
#
# Velocity S-wave (km/s) = 3.37829 3.67850 3.53159
# Velocity P-wave (km/s) = 5.40803 5.70716 5.55960
#
# Compressibility (1/GPa) = 0.03287306
#
# Stress axis : x y z
#
# Youngs Moduli (GPa) = 67.08108 53.60035 57.42792
#
# Poissons Ratio (x) = 0.02250 0.09966
# Poissons Ratio (y) = 0.02816 0.39607
# Poissons Ratio (z) = 0.11641 0.36967
#
# Static dielectric constant tensor:
#      x y z
#    x 2.069470 -0.038240 -0.109190 
#    y -0.038240 1.801490 -0.010990 
#    z -0.109190 -0.010990 1.869690 
# 
# From -- ./inp_files/590202.got.cif
#   From: 2010.05.17/outbox.cif.g08.bks.cpg/sg2_296_cif.got.tgz:590202.got - 2010.06.03 11:33:40.
