data_PCOD9003324
_publ_section_title
;
Structure prediction by ZEFSAII (Michael W. Deem and Ramdas Pophale) SiO2 
 PCOD9003324
Probable space group: P -1
;
_chemical_formula_sum "Si O2"
_cell_formula_units_Z 16
_cell_length_a 18.298820
_cell_length_b 7.121568
_cell_length_c 14.715809
_cell_angle_alpha 61.851332
_cell_angle_beta 36.191429
_cell_angle_gamma 43.663598
_cell_volume 751.704183
_symmetry_space_group_name_H-M "P -1"
_symmetry_group_IT_number 2
_symmetry_cell_setting 'triclinic'
loop_
_space_group_symop_operation_xyz
x,y,z
-x,-y,-z
loop_
_atom_site_type_symbol
_atom_site_label
_atom_site_fract_x
_atom_site_fract_y
_atom_site_fract_z
Si Si1 0.325548 0.707410 0.504022
Si Si2 0.708488 0.313715 0.240527
Si Si3 0.643198 0.856950 0.212081
Si Si4 0.870505 0.724511 0.154532
Si Si5 0.904620 0.356435 0.356363
Si Si6 0.538504 0.758996 0.953420
Si Si7 0.296142 0.223673 0.391773
Si Si8 0.272324 0.860246 0.070698
O O1 0.524268 0.466982 0.355074
O O2 0.286176 0.733363 0.645345
O O3 0.229593 0.641451 0.557418
O O4 0.269344 0.003113 0.457271
O O5 0.723654 0.550764 0.160181
O O6 0.839791 0.010392 0.130835
O O7 0.699808 0.819485 0.266677
O O8 0.449376 0.057343 0.346912
O O9 0.704441 0.993825 0.065307
O O10 0.912324 0.566465 0.242919
O O11 0.000000 0.500000 0.000000
O O12 0.851058 0.482492 0.481766
O O13 0.082597 0.049786 0.240842
O O14 0.640979 0.731511 0.771353
O O15 0.641554 0.458636 0.967829
O O16 0.374340 0.838270 0.058782
O O17 0.500000 0.000000 0.000000
#
# Coordination Sequence:
#
# PCOD9003324 Si02
#       8
#     2   2   2   2   2   2   2   2
#     4  10  21  37  61  91 129 173 211 257 302 362
#     4  10  21  37  59  88 132 179 222 244 290 373
#     4  10  21  40  62  95 127 178 213 252 307 369
#     4  12  23  37  57  93 138 179 208 248 312 372
#     4  12  23  40  62  97 137 165 207 263 317 375
#     4  10  24  49  74  91 118 163 216 270 330 386
#     4  10  23  41  66  95 124 166 216 265 314 375
#     4  10  24  44  67  99 125 160 215 268 323 378
#
# _framework density 21.284967999999999
#
# number of rings (size 3 to 8) (size 9 to 14) (size 15 to 20)
#    0.000    1.500    3.750    0.750    0.000    9.000 
#    2.250    1.250    0.000    0.000    0.000    0.000 
#    0.000    0.000    0.000    0.000    0.000    0.000 
#
# Total GULP energy -89457.151219 kJ/mol
# GULP energy per Si atom -5591.071951 kJ/mol
# Density = 2.123652 g / cm^3
# Si number density = 21.284968 Si / 1000 Ang^3
#
#
#
# Elastic Constant Matrix: (Units=GPa)
#
#
# Indices 1 2 3 4 5 6 
#
# 1 36.7018 43.6342 20.5450 6.4639 -1.4355 6.2061
# 2 43.6342 160.8942 39.5819 7.2152 -7.6021 18.5334
# 3 20.5450 39.5819 63.5366 3.5424 5.6937 7.0442
# 4 6.4639 7.2152 3.5424 32.3399 6.0409 4.6584
# 5 -1.4355 -7.6021 5.6937 6.0409 14.7289 0.6161
# 6 6.2061 18.5334 7.0442 4.6584 0.6161 28.3435
#
#
#
# Elastic Compliance Matrix: (Units=1/GPa)
#
#
# Indices 1 2 3 4 5 6 
#
# 1 0.044786 -0.009358 -0.008727 -0.006911 0.005764 -0.000508
# 2 -0.009358 0.010400 -0.003545 -0.000670 0.006264 -0.003896
# 3 -0.008727 -0.003545 0.021864 0.002606 -0.012144 -0.001369
# 4 -0.006911 -0.000670 0.002606 0.035870 -0.016562 -0.004231
# 5 0.005764 0.006264 -0.012144 -0.016562 0.083235 -0.001427
# 6 -0.000508 -0.003896 -0.001369 -0.004231 -0.001427 0.039007
#
#
# Mechanical properties :
#
#
# Convention : Reuss Voigt Hill
#
# Bulk Modulus (GPa) = 29.59447 52.07276 40.83361
# Shear Modulus (GPa) = 17.26007 25.57391 21.41699
#
# Velocity S-wave (km/s) = 2.85073 3.47003 3.17551
# Velocity P-wave (km/s) = 4.97691 6.36965 5.71586
#
# Compressibility (1/GPa) = 0.03379010
#
# Stress axis : x y z
#
# Youngs Moduli (GPa) = 22.32840 96.15237 45.73716
#
# Poissons Ratio (x) = 0.89981 0.39914
# Poissons Ratio (y) = 0.20895 0.16214
# Poissons Ratio (z) = 0.19486 0.34086
#
# Static dielectric constant tensor:
#      x y z
#    x 1.763950 -0.003980 -0.021330 
#    y -0.003980 1.775600 0.005050 
#    z -0.021330 0.005050 1.760010 
# 
# From -- ./inp_files/99500.got.cif
#   From: 2010.05.17/outbox.cif.g08.bks.cpg/sg2_50_cif.got.tgz:99500.got - 2010.06.03 11:33:40.
