data_PCOD9003992
_publ_section_title
;
Structure prediction by ZEFSAII (Michael W. Deem and Ramdas Pophale) SiO2 
 PCOD9003992
Probable space group: P -1
;
_chemical_formula_sum "Si O2"
_cell_formula_units_Z 16
_cell_length_a 8.343429
_cell_length_b 16.671567
_cell_length_c 9.330385
_cell_angle_alpha 131.841326
_cell_angle_beta 122.211697
_cell_angle_gamma 60.284011
_cell_volume 797.595872
_symmetry_space_group_name_H-M "P -1"
_symmetry_group_IT_number 2
_symmetry_cell_setting 'triclinic'
loop_
_space_group_symop_operation_xyz
x,y,z
-x,-y,-z
loop_
_atom_site_type_symbol
_atom_site_label
_atom_site_fract_x
_atom_site_fract_y
_atom_site_fract_z
Si Si1 0.640232 0.636897 0.822042
Si Si2 0.879914 0.806756 0.084136
Si Si3 0.625228 0.490795 0.905573
Si Si4 0.965384 0.503783 0.275346
Si Si5 0.241730 0.751118 0.388504
Si Si6 0.681149 0.043069 0.195044
Si Si7 0.994948 0.685198 0.715398
Si Si8 0.769278 0.223937 0.287517
O O1 0.572924 0.579442 0.860530
O O2 0.446692 0.697417 0.718779
O O3 0.804695 0.544037 0.707137
O O4 0.749687 0.736361 0.023226
O O5 0.094544 0.773205 0.212513
O O6 0.814342 0.937950 0.208985
O O7 0.866142 0.766367 0.864812
O O8 0.625841 0.368962 0.706003
O O9 0.500000 0.500000 0.000000
O O10 0.841321 0.498890 0.069038
O O11 0.908829 0.416871 0.257456
O O12 0.916479 0.621013 0.471748
O O13 0.348179 0.851656 0.586402
O O14 0.129163 0.749052 0.484562
O O15 0.762969 0.096890 0.159611
O O16 0.500000 0.000000 0.000000
O O17 0.133093 0.751302 0.781097
#
# Coordination Sequence:
#
# PCOD9003992 Si02
#       8
#     2   2   2   2   2   2   2   2
#     4  11  22  37  67  88 130 165 205 247 314 376
#     4  11  21  42  67  91 121 167 208 259 305 366
#     4  12  24  37  61  96 132 160 202 258 311 368
#     4  10  22  38  59  93 131 168 197 248 308 384
#     4  10  23  40  63  92 121 162 211 249 310 371
#     4  10  22  42  65  88 120 165 215 257 306 362
#     4  10  21  37  63  92 129 156 207 250 310 363
#     4  10  23  39  63  93 123 161 212 256 303 372
#
# _framework density 20.060285
#
# number of rings (size 3 to 8) (size 9 to 14) (size 15 to 20)
#    0.750    0.750    3.750    2.250    1.750    6.500 
#    0.000    0.000    0.000    1.500    0.000    0.000 
#    0.000    0.000    0.000    0.000    0.000    0.000 
#
# Total GULP energy -89078.216079 kJ/mol
# GULP energy per Si atom -5567.388505 kJ/mol
# Density = 2.001463 g / cm^3
# Si number density = 20.060285 Si / 1000 Ang^3
#
#
#
# Elastic Constant Matrix: (Units=GPa)
#
#
# Indices 1 2 3 4 5 6 
#
# 1 59.1197 30.4643 10.9149 8.4303 -4.3977 28.7625
# 2 30.4643 108.6074 35.4291 24.1697 -2.0521 22.4014
# 3 10.9149 35.4291 95.0463 23.2444 4.5472 10.9247
# 4 8.4303 24.1697 23.2444 28.5839 3.4768 6.1736
# 5 -4.3977 -2.0521 4.5472 3.4768 19.3558 -5.1693
# 6 28.7625 22.4014 10.9247 6.1736 -5.1693 29.1480
#
#
#
# Elastic Compliance Matrix: (Units=1/GPa)
#
#
# Indices 1 2 3 4 5 6 
#
# 1 0.033510 -0.003112 0.001288 -0.001470 -0.001042 -0.031031
# 2 -0.003112 0.013551 -0.002322 -0.007848 0.001469 -0.004551
# 3 0.001288 -0.002322 0.013858 -0.008667 -0.002532 -0.003294
# 4 -0.001470 -0.007848 -0.008667 0.050467 -0.008591 -0.001482
# 5 -0.001042 0.001469 -0.002532 -0.008591 0.057140 0.012801
# 6 -0.031031 -0.004551 -0.003294 -0.001482 0.012801 0.072245
#
#
# Mechanical properties :
#
#
# Convention : Reuss Voigt Hill
#
# Bulk Modulus (GPa) = 19.00147 46.26556 32.63352
# Shear Modulus (GPa) = 18.75447 27.81522 23.28485
#
# Velocity S-wave (km/s) = 3.06094 3.72772 3.41066
# Velocity P-wave (km/s) = 4.68884 6.45300 5.64032
#
# Compressibility (1/GPa) = 0.05262752
#
# Stress axis : x y z
#
# Youngs Moduli (GPa) = 29.84211 73.79775 72.16095
#
# Poissons Ratio (x) = 0.22962 -0.09293
# Poissons Ratio (y) = 0.09285 0.16753
# Poissons Ratio (z) = -0.03843 0.17133
#
# Static dielectric constant tensor:
#      x y z
#    x 1.745260 -0.008220 0.000360 
#    y -0.008220 1.735900 0.008310 
#    z 0.000360 0.008310 1.768840 
# 
# From -- ./inp_files/209084.got.cif
#   From: 2010.05.17/outbox.cif.g08.bks.cpg/sg2_105_cif.got.tgz:209084.got - 2010.06.03 11:33:40.
