data_PCOD9003280
_publ_section_title
;
Structure prediction by ZEFSAII (Michael W. Deem and Ramdas Pophale) SiO2 
 PCOD9003280
Probable space group: P -1
;
_chemical_formula_sum "Si O2"
_cell_formula_units_Z 16
_cell_length_a 11.978944
_cell_length_b 11.700046
_cell_length_c 13.877709
_cell_angle_alpha 28.986708
_cell_angle_beta 60.603097
_cell_angle_gamma 79.241551
_cell_volume 671.968130
_symmetry_space_group_name_H-M "P -1"
_symmetry_group_IT_number 2
_symmetry_cell_setting 'triclinic'
loop_
_space_group_symop_operation_xyz
x,y,z
-x,-y,-z
loop_
_atom_site_type_symbol
_atom_site_label
_atom_site_fract_x
_atom_site_fract_y
_atom_site_fract_z
Si Si1 0.768231 0.548272 0.190772
Si Si2 0.708878 0.989751 0.529607
Si Si3 0.779527 0.385378 0.846403
Si Si4 0.529590 0.654473 0.229625
Si Si5 0.498116 0.564331 0.082003
Si Si6 0.002810 0.989547 0.621292
Si Si7 0.001138 0.759546 0.115962
Si Si8 0.250160 0.666988 0.329342
O O1 0.615809 0.508214 0.333086
O O2 0.904160 0.670148 0.123879
O O3 0.715610 0.253825 0.377690
O O4 0.845288 0.786427 0.897619
O O5 0.587455 0.772028 0.660175
O O6 0.881034 0.105799 0.334575
O O7 0.654711 0.762547 0.808252
O O8 0.614405 0.335541 0.977003
O O9 0.789721 0.412005 0.706839
O O10 0.826000 0.171068 0.017612
O O11 0.907683 0.686708 0.618575
O O12 0.519889 0.617934 0.145532
O O13 0.357976 0.564017 0.397150
O O14 0.646327 0.989646 0.960064
O O15 0.000000 0.000000 0.500000
O O16 0.901555 0.480411 0.432498
O O17 0.000000 0.000000 0.000000
#
# Coordination Sequence:
#
# PCOD9003280 Si02
#       8
#     2   2   2   2   2   2   2   2
#     4  12  24  37  59  92 122 151 194 249 300 345
#     4  10  21  37  59  87 119 150 196 246 293 346
#     4  10  21  39  63  85 115 160 201 235 286 355
#     4  10  21  38  61  84 115 156 199 239 288 349
#     4   9  20  40  61  85 116 160 199 235 289 352
#     4  11  22  40  62  83 117 161 200 239 292 358
#     4  12  24  37  58  89 124 152 189 248 298 344
#     4  10  21  40  62  84 115 159 202 237 285 351
#
# _framework density 23.810654
#
# number of rings (size 3 to 8) (size 9 to 14) (size 15 to 20)
#    0.000    1.500    0.000    5.250    0.000    2.000 
#    0.000    0.000    0.000    0.000    0.000    0.000 
#    0.000    0.000    0.000    0.000    0.000    0.000 
#
# Total GULP energy -89429.726546 kJ/mol
# GULP energy per Si atom -5589.357909 kJ/mol
# Density = 2.375646 g / cm^3
# Si number density = 23.810654 Si / 1000 Ang^3
#
#
#
# Elastic Constant Matrix: (Units=GPa)
#
#
# Indices 1 2 3 4 5 6 
#
# 1 112.6447 49.0302 7.1769 -7.3277 -15.8203 -19.3668
# 2 49.0302 139.7344 19.9178 -24.6822 -5.6767 12.0514
# 3 7.1769 19.9178 43.6024 -16.5697 -15.4368 7.9627
# 4 -7.3277 -24.6822 -16.5697 42.0147 -2.6065 2.3368
# 5 -15.8203 -5.6767 -15.4368 -2.6065 18.4339 2.1257
# 6 -19.3668 12.0514 7.9627 2.3368 2.1257 61.4183
#
#
#
# Elastic Compliance Matrix: (Units=1/GPa)
#
#
# Indices 1 2 3 4 5 6 
#
# 1 0.013479 -0.004836 0.005150 0.002205 0.014247 0.003954
# 2 -0.004836 0.010141 -0.002314 0.004263 -0.001981 -0.003309
# 3 0.005150 -0.002314 0.051320 0.023333 0.050815 -0.007222
# 4 0.002205 0.004263 0.023333 0.037988 0.028762 -0.005607
# 5 0.014247 -0.001981 0.050815 0.028762 0.113260 -0.006721
# 6 0.003954 -0.003309 -0.007222 -0.005607 -0.006721 0.019560
#
#
# Mechanical properties :
#
#
# Convention : Reuss Voigt Hill
#
# Bulk Modulus (GPa) = 14.09646 49.80349 31.94998
# Shear Modulus (GPa) = 18.28866 39.03050 28.65958
#
# Velocity S-wave (km/s) = 2.77445 4.05310 3.47312
# Velocity P-wave (km/s) = 4.02448 6.54717 5.43424
#
# Compressibility (1/GPa) = 0.07093980
#
# Stress axis : x y z
#
# Youngs Moduli (GPa) = 74.19181 98.60942 19.48564
#
# Poissons Ratio (x) = 0.47691 -0.10035
# Poissons Ratio (y) = 0.35882 0.04508
# Poissons Ratio (z) = -0.38210 0.22814
#
# Static dielectric constant tensor:
#      x y z
#    x 1.995540 -0.036670 0.017450 
#    y -0.036670 1.894710 -0.041970 
#    z 0.017450 -0.041970 1.847910 
# 
# From -- ./inp_files/442289.got.cif
#   From: 2010.05.17/outbox.cif.g08.bks.cpg/sg2_222_cif.got.tgz:442289.got - 2010.06.03 11:33:40.
