data_PCOD9003904
_publ_section_title
;
Structure prediction by ZEFSAII (Michael W. Deem and Ramdas Pophale) SiO2 
 PCOD9003904
Probable space group: P -1
;
_chemical_formula_sum "Si O2"
_cell_formula_units_Z 16
_cell_length_a 9.856097
_cell_length_b 9.282868
_cell_length_c 9.621169
_cell_angle_alpha 44.632098
_cell_angle_beta 83.735474
_cell_angle_gamma 82.090941
_cell_volume 612.471972
_symmetry_space_group_name_H-M "P -1"
_symmetry_group_IT_number 2
_symmetry_cell_setting 'triclinic'
loop_
_space_group_symop_operation_xyz
x,y,z
-x,-y,-z
loop_
_atom_site_type_symbol
_atom_site_label
_atom_site_fract_x
_atom_site_fract_y
_atom_site_fract_z
Si Si1 0.258341 0.840843 0.380266
Si Si2 0.761769 0.354365 0.762354
Si Si3 0.949780 0.776562 0.127196
Si Si4 0.418909 0.791933 0.902207
Si Si5 0.161747 0.298387 0.103147
Si Si6 0.384151 0.562159 0.789295
Si Si7 0.725307 0.790798 0.367806
Si Si8 0.964773 0.807090 0.543958
O O1 0.279096 0.807387 0.237524
O O2 0.107236 0.760433 0.480571
O O3 0.256636 0.080188 0.260275
O O4 0.356709 0.691910 0.565643
O O5 0.924474 0.375744 0.727206
O O6 0.723189 0.273450 0.972030
O O7 0.688098 0.574227 0.580152
O O8 0.808501 0.755263 0.239039
O O9 0.928813 0.756521 0.979954
O O10 0.000000 0.000000 0.000000
O O11 0.442243 0.706242 0.803044
O O12 0.524961 0.654686 0.080623
O O13 0.400135 0.036370 0.745158
O O14 0.243593 0.487338 0.917757
O O15 0.084718 0.338881 0.228855
O O16 0.839555 0.859934 0.416749
O O17 0.000000 0.000000 0.500000
#
# Coordination Sequence:
#
# PCOD9003904 Si02
#       8
#     2   2   2   2   2   2   2   2
#     4  11  23  42  64 100 138 162 214 276 328 387
#     4  12  25  41  68 102 131 177 214 266 335 394
#     4  12  21  41  69  99 142 167 209 271 334 395
#     4  11  26  48  67  92 131 179 226 272 317 382
#     4  11  23  41  67 100 132 174 213 271 331 388
#     4  11  27  46  68  94 129 178 229 269 318 386
#     4  12  23  42  66  96 133 174 216 267 333 393
#     4  10  21  37  62  97 131 168 205 269 337 381
#
# _framework density 26.123645
#
# number of rings (size 3 to 8) (size 9 to 14) (size 15 to 20)
#    0.000    0.750    3.750    4.125    3.500    2.000 
#    0.000    7.500    0.000    0.000    0.000    0.000 
#    0.000    0.000    0.000    0.000    0.000    0.000 
#
# Total GULP energy -89681.840757 kJ/mol
# GULP energy per Si atom -5605.115047 kJ/mol
# Density = 2.606419 g / cm^3
# Si number density = 26.123645 Si / 1000 Ang^3
#
#
#
# Elastic Constant Matrix: (Units=GPa)
#
#
# Indices 1 2 3 4 5 6 
#
# 1 42.7637 4.3716 21.9863 -0.2573 6.1563 -9.1826
# 2 4.3716 103.5223 36.8459 -4.2516 18.8236 -11.8650
# 3 21.9863 36.8459 125.9794 -6.1344 22.0067 -7.0416
# 4 -0.2573 -4.2516 -6.1344 53.9720 -0.0241 5.7955
# 5 6.1563 18.8236 22.0067 -0.0241 48.4337 -11.3984
# 6 -9.1826 -11.8650 -7.0416 5.7955 -11.3984 30.2105
#
#
#
# Elastic Compliance Matrix: (Units=1/GPa)
#
#
# Indices 1 2 3 4 5 6 
#
# 1 0.027423 0.001420 -0.004816 -0.001165 0.000035 0.008007
# 2 0.001420 0.011502 -0.002977 0.000224 -0.002532 0.003257
# 3 -0.004816 -0.002977 0.010175 0.001080 -0.003253 -0.001696
# 4 -0.001165 0.000224 0.001080 0.019115 -0.001412 -0.004214
# 5 0.000035 -0.002532 -0.003253 -0.001412 0.024975 0.007952
# 6 0.008007 0.003257 -0.001696 -0.004214 0.007952 0.040227
#
#
# Mechanical properties :
#
#
# Convention : Reuss Voigt Hill
#
# Bulk Modulus (GPa) = 27.50792 44.29700 35.90246
# Shear Modulus (GPa) = 31.58938 40.46069 36.02504
#
# Velocity S-wave (km/s) = 3.48116 3.93977 3.71754
# Velocity P-wave (km/s) = 5.16825 6.13915 5.67450
#
# Compressibility (1/GPa) = 0.03635316
#
# Stress axis : x y z
#
# Youngs Moduli (GPa) = 36.46611 86.94085 98.28040
#
# Poissons Ratio (x) = -0.12344 0.47336
# Poissons Ratio (y) = -0.05177 0.29255
# Poissons Ratio (z) = 0.17564 0.25880
#
# Static dielectric constant tensor:
#      x y z
#    x 2.134510 -0.069920 -0.007830 
#    y -0.069920 2.047450 -0.054500 
#    z -0.007830 -0.054500 2.018770 
# 
# From -- ./inp_files/242058.got.cif
#   From: 2010.05.17/outbox.cif.g08.bks.cpg/sg2_122_cif.got.tgz:242058.got - 2010.06.03 11:33:40.
