data_PCOD9003220
_publ_section_title
;
Structure prediction by ZEFSAII (Michael W. Deem and Ramdas Pophale) SiO2 
 PCOD9003220
Probable space group: P -1
;
_chemical_formula_sum "Si O2"
_cell_formula_units_Z 14
_cell_length_a 11.878096
_cell_length_b 15.259786
_cell_length_c 19.450189
_cell_angle_alpha 151.558875
_cell_angle_beta 157.156569
_cell_angle_gamma 28.803062
_cell_volume 608.961720
_symmetry_space_group_name_H-M "P -1"
_symmetry_group_IT_number 2
_symmetry_cell_setting 'triclinic'
loop_
_space_group_symop_operation_xyz
x,y,z
-x,-y,-z
loop_
_atom_site_type_symbol
_atom_site_label
_atom_site_fract_x
_atom_site_fract_y
_atom_site_fract_z
Si Si1 0.084479 0.590349 0.678751
Si Si2 0.616850 0.789402 0.116429
Si Si3 0.501534 0.199295 0.674722
Si Si4 0.702003 0.003686 0.792849
Si Si5 0.196454 0.729066 0.241973
Si Si6 0.646881 0.057789 0.191498
Si Si7 0.251680 0.464009 0.205705
O O1 0.204139 0.395017 0.658567
O O2 0.000000 0.500000 0.500000
O O3 0.788217 0.778600 0.663527
O O4 0.358803 0.684157 0.890569
O O5 0.963811 0.628477 0.195086
O O6 0.569261 0.897974 0.237847
O O7 0.566857 0.950620 0.138774
O O8 0.658197 0.276146 0.754060
O O9 0.500000 0.000000 0.500000
O O10 0.672065 0.129629 0.794071
O O11 0.000000 0.000000 0.000000
O O12 0.377303 0.581945 0.302334
O O13 0.020605 0.955130 0.322357
O O14 0.914819 0.653621 0.015323
O O15 0.501976 0.295284 0.274850
O O16 0.500000 0.000000 0.000000
#
# Coordination Sequence:
#
# PCOD9003220 Si02
#       7
#     2   2   2   2   2   2   2
#     4  11  23  39  60  88 127 168 210 249 305 378
#     4  10  21  37  58  93 128 152 206 262 312 367
#     4  12  24  40  63  90 128 172 205 247 312 382
#     4  10  25  39  59  92 129 166 203 261 313 365
#     4   9  19  33  53  90 120 148 208 255 301 361
#     4   9  19  30  59  87 119 156 199 260 316 351
#     4   9  17  33  57  85 118 157 193 268 308 349
#
# _framework density 22.989951000000001
#
# number of rings (size 3 to 8) (size 9 to 14) (size 15 to 20)
#    0.000    2.000    2.857    0.857    8.000    3.429 
#    0.000    0.000    0.000    3.429    0.000    9.000 
#    0.000    0.000    0.000    0.000    0.000    0.000 
#
# Total GULP energy -78023.430145 kJ/mol
# GULP energy per Si atom -5573.102153 kJ/mol
# Density = 2.293763 g / cm^3
# Si number density = 22.989951 Si / 1000 Ang^3
#
#
#
# Elastic Constant Matrix: (Units=GPa)
#
#
# Indices 1 2 3 4 5 6 
#
# 1 133.7442 82.8907 38.0173 18.1334 -17.5404 4.0338
# 2 82.8907 238.1292 29.4250 31.6418 -16.6390 17.0793
# 3 38.0173 29.4250 62.4100 14.1482 -15.6566 5.3062
# 4 18.1334 31.6418 14.1482 25.1986 -1.7666 -9.7015
# 5 -17.5404 -16.6390 -15.6566 -1.7666 29.9929 7.8818
# 6 4.0338 17.0793 5.3062 -9.7015 7.8818 33.5347
#
#
#
# Elastic Compliance Matrix: (Units=1/GPa)
#
#
# Indices 1 2 3 4 5 6 
#
# 1 0.011086 -0.002856 -0.004257 -0.001968 0.002666 -0.000401
# 2 -0.002856 0.007421 0.003118 -0.011976 0.005662 -0.008725
# 3 -0.004257 0.003118 0.027252 -0.020884 0.016243 -0.015247
# 4 -0.001968 -0.011976 -0.020884 0.081101 -0.024108 0.038769
# 5 0.002666 0.005662 0.016243 -0.024108 0.051640 -0.024886
# 6 -0.000401 -0.008725 -0.015247 0.038769 -0.024886 0.053789
#
#
# Mechanical properties :
#
#
# Convention : Reuss Voigt Hill
#
# Bulk Modulus (GPa) = 26.47761 81.66104 54.06932
# Shear Modulus (GPa) = 19.77307 36.67526 28.22416
#
# Velocity S-wave (km/s) = 2.93588 3.99842 3.50762
# Velocity P-wave (km/s) = 4.79944 7.54413 6.32252
#
# Compressibility (1/GPa) = 0.03776777
#
# Stress axis : x y z
#
# Youngs Moduli (GPa) = 90.20447 134.75239 36.69472
#
# Poissons Ratio (x) = 0.38489 0.15622
# Poissons Ratio (y) = 0.25765 -0.11442
# Poissons Ratio (z) = 0.38403 -0.42016
#
# Static dielectric constant tensor:
#      x y z
#    x 1.908420 -0.053730 0.039460 
#    y -0.053730 1.944330 -0.030380 
#    z 0.039460 -0.030380 1.876940 
# 
# From -- ./inp_files/569825.got.cif
#   From: 2010.05.17/outbox.cif.g08.bks.cpg/sg2_285_cif.got.tgz:569825.got - 2010.06.03 11:33:40.
