data_PCOD9003645
_publ_section_title
;
Structure prediction by ZEFSAII (Michael W. Deem and Ramdas Pophale) SiO2 
 PCOD9003645
Probable space group: P -1
;
_chemical_formula_sum "Si O2"
_cell_formula_units_Z 16
_cell_length_a 9.061676
_cell_length_b 13.620238
_cell_length_c 17.007099
_cell_angle_alpha 31.562655
_cell_angle_beta 133.149886
_cell_angle_gamma 114.671783
_cell_volume 722.576546
_symmetry_space_group_name_H-M "P -1"
_symmetry_group_IT_number 2
_symmetry_cell_setting 'triclinic'
loop_
_space_group_symop_operation_xyz
x,y,z
-x,-y,-z
loop_
_atom_site_type_symbol
_atom_site_label
_atom_site_fract_x
_atom_site_fract_y
_atom_site_fract_z
Si Si1 0.678689 0.760638 0.707241
Si Si2 0.788339 0.230268 0.868033
Si Si3 0.824095 0.181498 0.743295
Si Si4 0.804714 0.932788 0.494730
Si Si5 0.085292 0.408448 0.357661
Si Si6 0.501749 0.481203 0.728356
Si Si7 0.368441 0.356481 0.059410
Si Si8 0.089720 0.443104 0.658533
O O1 0.843581 0.809054 0.676092
O O2 0.603510 0.608864 0.731413
O O3 0.736809 0.649663 0.889010
O O4 0.500000 0.000000 0.500000
O O5 0.713214 0.181156 0.788094
O O6 0.656548 0.280724 0.868168
O O7 0.784341 0.452552 0.699163
O O8 0.038243 0.042764 0.093465
O O9 0.655900 0.345039 0.510091
O O10 0.019525 0.259337 0.779520
O O11 0.808020 0.785089 0.526692
O O12 0.562684 0.126528 0.274807
O O13 0.000000 0.000000 0.500000
O O14 0.054379 0.369571 0.463340
O O15 0.834186 0.553614 0.136554
O O16 0.343676 0.411729 0.771444
O O17 0.500000 0.500000 0.000000
O O18 0.000000 0.500000 0.500000
#
# Coordination Sequence:
#
# PCOD9003645 Si02
#       8
#     2   2   2   2   2   2   2   2
#     4  10  24  40  62  95 132 169 219 258 320 383
#     4  10  21  37  61  91 114 154 213 257 310 386
#     4   9  21  39  60  88 120 156 202 262 320 373
#     4  11  23  43  63  93 129 174 217 264 319 382
#     4  11  22  41  63  88 126 166 213 260 324 382
#     4  11  20  39  62  86 121 165 202 257 316 376
#     4  11  23  42  63  92 130 171 211 269 315 375
#     4   9  21  41  63  89 127 165 204 264 327 383
#
# _framework density 22.142983999999998
#
# number of rings (size 3 to 8) (size 9 to 14) (size 15 to 20)
#    0.000    1.750    2.500    1.125    5.250    1.000 
#    0.000    5.000    0.000    0.000    0.000    0.000 
#    0.000    0.000    0.000    0.000    0.000    0.000 
#
# Total GULP energy -89161.429043 kJ/mol
# GULP energy per Si atom -5572.589315 kJ/mol
# Density = 2.209259 g / cm^3
# Si number density = 22.142984 Si / 1000 Ang^3
#
#
#
# Elastic Constant Matrix: (Units=GPa)
#
#
# Indices 1 2 3 4 5 6 
#
# 1 122.6798 38.6118 3.7526 -13.0742 -12.7485 -26.0607
# 2 38.6118 81.4457 25.0860 -21.7065 -1.4191 -32.3515
# 3 3.7526 25.0860 70.5053 -12.7907 11.6041 -17.1851
# 4 -13.0742 -21.7065 -12.7907 36.9630 -10.4902 6.0430
# 5 -12.7485 -1.4191 11.6041 -10.4902 33.8958 -2.8300
# 6 -26.0607 -32.3515 -17.1851 6.0430 -2.8300 41.6433
#
#
#
# Elastic Compliance Matrix: (Units=1/GPa)
#
#
# Indices 1 2 3 4 5 6 
#
# 1 0.010909 -0.002486 0.001396 0.003440 0.005030 0.005314
# 2 -0.002486 0.022956 -0.003728 0.010725 0.005755 0.013574
# 3 0.001396 -0.003728 0.017756 0.002388 -0.004583 0.004646
# 4 0.003440 0.010725 0.002388 0.038042 0.013271 0.006852
# 5 0.005030 0.005755 -0.004583 0.013271 0.037843 0.006373
# 6 0.005314 0.013574 0.004646 0.006852 0.006373 0.039240
#
#
# Mechanical properties :
#
#
# Convention : Reuss Voigt Hill
#
# Bulk Modulus (GPa) = 23.81969 45.50352 34.66160
# Shear Modulus (GPa) = 26.26362 36.31246 31.28804
#
# Velocity S-wave (km/s) = 3.44771 4.05397 3.76307
# Velocity P-wave (km/s) = 5.16037 6.51977 5.87949
#
# Compressibility (1/GPa) = 0.04198208
#
# Stress axis : x y z
#
# Youngs Moduli (GPa) = 91.66485 43.56238 56.32039
#
# Poissons Ratio (x) = 0.10832 -0.07860
# Poissons Ratio (y) = 0.22792 0.20998
# Poissons Ratio (z) = -0.12793 0.16241
#
# Static dielectric constant tensor:
#      x y z
#    x 1.904150 -0.030400 0.014860 
#    y -0.030400 1.864980 0.016140 
#    z 0.014860 0.016140 1.844010 
# 
# From -- ./inp_files/499923.got.cif
#   From: 2010.05.17/outbox.cif.g08.bks.cpg/sg2_250_cif.got.tgz:499923.got - 2010.06.03 11:33:40.
