data_PCOD9003131
_publ_section_title
;
Structure prediction by ZEFSAII (Michael W. Deem and Ramdas Pophale) SiO2 
 PCOD9003131
Probable space group: P -1
;
_chemical_formula_sum "Si O2"
_cell_formula_units_Z 12
_cell_length_a 9.279945
_cell_length_b 18.237567
_cell_length_c 7.963005
_cell_angle_alpha 147.975000
_cell_angle_beta 116.030988
_cell_angle_gamma 61.229458
_cell_volume 625.065307
_symmetry_space_group_name_H-M "P -1"
_symmetry_group_IT_number 2
_symmetry_cell_setting 'triclinic'
loop_
_space_group_symop_operation_xyz
x,y,z
-x,-y,-z
loop_
_atom_site_type_symbol
_atom_site_label
_atom_site_fract_x
_atom_site_fract_y
_atom_site_fract_z
Si Si1 0.772445 0.101703 0.612650
Si Si2 0.972676 0.301586 0.934274
Si Si3 0.881585 0.580149 0.237181
Si Si4 0.126635 0.053600 0.289244
Si Si5 0.818249 0.810629 0.896487
Si Si6 0.607342 0.821047 0.522175
O O1 0.854232 0.227533 0.839966
O O2 0.577836 0.143575 0.562741
O O3 0.812743 0.049846 0.722724
O O4 0.841144 0.964372 0.260754
O O5 0.029840 0.202817 0.610453
O O6 0.886085 0.459127 0.142744
O O7 0.137254 0.283500 0.096912
O O8 0.925515 0.715159 0.619149
O O9 0.703836 0.657103 0.221593
O O10 0.000000 0.500000 0.000000
O O11 0.000000 0.000000 0.000000
O O12 0.638418 0.834699 0.765442
O O13 0.284884 0.081881 0.325959
#
# Coordination Sequence:
#
# PCOD9003131 Si02
#       6
#     2   2   2   2   2   2
#     4  11  22  35  60  90 115 144 189 244 285 323
#     4  11  20  37  60  86 112 148 198 230 276 344
#     4  10  21  37  60  81 116 154 190 227 282 345
#     4  11  21  37  60  86 114 153 194 231 276 340
#     4   9  20  36  59  84 110 152 191 229 279 339
#     4  10  21  37  58  84 121 146 187 234 292 326
#
# _framework density 19.197993
#
# number of rings (size 3 to 8) (size 9 to 14) (size 15 to 20)
#    1.000    0.667    1.667    5.500    0.000    0.667 
#    0.000    0.000    0.000    2.000    0.000    0.000 
#    0.000    0.000    0.000    0.000    0.000    0.000 
#
# Total GULP energy -66808.104709 kJ/mol
# GULP energy per Si atom -5567.342059 kJ/mol
# Density = 1.915430 g / cm^3
# Si number density = 19.197993 Si / 1000 Ang^3
#
#
#
# Elastic Constant Matrix: (Units=GPa)
#
#
# Indices 1 2 3 4 5 6 
#
# 1 79.3490 66.8528 33.9887 1.5884 10.8576 -11.2203
# 2 66.8528 165.5980 66.6733 2.5543 14.3898 -12.4421
# 3 33.9887 66.6733 87.6723 -4.9610 -13.5661 -2.0490
# 4 1.5884 2.5543 -4.9610 41.9685 5.3558 4.5513
# 5 10.8576 14.3898 -13.5661 5.3558 30.2953 -2.7181
# 6 -11.2203 -12.4421 -2.0490 4.5513 -2.7181 28.3355
#
#
#
# Elastic Compliance Matrix: (Units=1/GPa)
#
#
# Indices 1 2 3 4 5 6 
#
# 1 0.020968 -0.005585 -0.004802 -0.000743 -0.006431 0.005006
# 2 -0.005585 0.012541 -0.008520 -0.000838 -0.007434 0.002100
# 3 -0.004802 -0.008520 0.022115 0.001697 0.015114 -0.002866
# 4 -0.000743 -0.000838 0.001697 0.025078 -0.003449 -0.004899
# 5 -0.006431 -0.007434 0.015114 -0.003449 0.046246 0.000272
# 6 0.005006 0.002100 -0.002866 -0.004899 0.000272 0.038802
#
#
# Mechanical properties :
#
#
# Convention : Reuss Voigt Hill
#
# Bulk Modulus (GPa) = 56.15131 74.18320 65.16726
# Shear Modulus (GPa) = 23.86645 31.12682 27.49663
#
# Velocity S-wave (km/s) = 3.52969 4.03098 3.78863
# Velocity P-wave (km/s) = 6.77670 7.77110 7.29087
#
# Compressibility (1/GPa) = 0.01780902
#
# Stress axis : x y z
#
# Youngs Moduli (GPa) = 47.69283 79.74113 45.21874
#
# Poissons Ratio (x) = 0.44536 0.21712
# Poissons Ratio (y) = 0.26637 0.38528
# Poissons Ratio (z) = 0.22900 0.67942
#
# Static dielectric constant tensor:
#      x y z
#    x 1.690170 0.014750 -0.005600 
#    y 0.014750 1.740950 -0.013840 
#    z -0.005600 -0.013840 1.686990 
# 
# From -- ./inp_files/278622.got.cif
#   From: 2010.05.17/outbox.cif.g08.bks.cpg/sg2_140_cif.got.tgz:278622.got - 2010.06.03 11:33:40.
