data_PCOD9003562
_publ_section_title
;
Structure prediction by ZEFSAII (Michael W. Deem and Ramdas Pophale) SiO2 
 PCOD9003562
Probable space group: P -1
;
_chemical_formula_sum "Si O2"
_cell_formula_units_Z 16
_cell_length_a 12.124868
_cell_length_b 16.427638
_cell_length_c 11.578191
_cell_angle_alpha 132.685141
_cell_angle_beta 60.182709
_cell_angle_gamma 155.716960
_cell_volume 639.131439
_symmetry_space_group_name_H-M "P -1"
_symmetry_group_IT_number 2
_symmetry_cell_setting 'triclinic'
loop_
_space_group_symop_operation_xyz
x,y,z
-x,-y,-z
loop_
_atom_site_type_symbol
_atom_site_label
_atom_site_fract_x
_atom_site_fract_y
_atom_site_fract_z
Si Si1 0.752956 0.418838 0.337195
Si Si2 0.279584 0.948150 0.972223
Si Si3 0.555455 0.614150 0.428497
Si Si4 0.267694 0.401344 0.961237
Si Si5 0.166931 0.100113 0.659259
Si Si6 0.311075 0.211891 0.093210
Si Si7 0.264469 0.800913 0.607750
Si Si8 0.701872 0.022639 0.451240
O O1 0.547178 0.169150 0.138383
O O2 0.565919 0.378844 0.431689
O O3 0.938078 0.527240 0.459941
O O4 0.012605 0.679720 0.377602
O O5 0.297722 0.081312 0.027683
O O6 0.952053 0.686722 0.946837
O O7 0.299992 0.874957 0.788605
O O8 0.564541 0.665874 0.341693
O O9 0.367906 0.356831 0.292328
O O10 0.885384 0.831423 0.483566
O O11 0.052853 0.131649 0.781079
O O12 0.437083 0.581911 0.936987
O O13 0.500000 0.500000 0.000000
O O14 0.253331 0.073342 0.677354
O O15 0.000000 0.000000 0.000000
O O16 0.466987 0.859760 0.516154
O O17 0.378970 0.989929 0.642876
#
# Coordination Sequence:
#
# PCOD9003562 Si02
#       8
#     2   2   2   2   2   2   2   2
#     4  10  21  39  64  94 127 171 217 269 325 390
#     4  12  23  40  68  95 132 176 212 277 336 377
#     4  10  21  37  60  99 136 159 218 264 330 409
#     4  11  24  37  58 103 137 166 220 264 332 408
#     4  10  21  38  64  92 133 174 201 277 334 386
#     4  11  23  37  58  95 138 176 209 262 332 402
#     4   9  23  43  64  95 126 172 232 270 312 394
#     4   9  21  43  66  91 128 173 230 265 321 395
#
# _framework density 25.033974000000001
#
# number of rings (size 3 to 8) (size 9 to 14) (size 15 to 20)
#    0.750    1.000    2.500    1.500    5.250    1.500 
#    0.000    0.625    2.750    0.750    0.000    0.000 
#    0.000    0.000    0.000    0.000    0.000    0.000 
#
# Total GULP energy -89306.075272 kJ/mol
# GULP energy per Si atom -5581.629704 kJ/mol
# Density = 2.497700 g / cm^3
# Si number density = 25.033974 Si / 1000 Ang^3
#
#
#
# Elastic Constant Matrix: (Units=GPa)
#
#
# Indices 1 2 3 4 5 6 
#
# 1 59.4492 16.0894 25.1791 0.6515 3.2175 -4.7693
# 2 16.0894 154.1072 49.0631 -15.2236 7.3946 4.8757
# 3 25.1791 49.0631 137.0147 -16.1965 9.5362 9.1476
# 4 0.6515 -15.2236 -16.1965 43.0048 1.7881 0.0075
# 5 3.2175 7.3946 9.5362 1.7881 39.2538 10.6482
# 6 -4.7693 4.8757 9.1476 0.0075 10.6482 28.4834
#
#
#
# Elastic Compliance Matrix: (Units=1/GPa)
#
#
# Indices 1 2 3 4 5 6 
#
# 1 0.019182 -0.001138 -0.003573 -0.001964 -0.001821 0.005235
# 2 -0.001138 0.007541 -0.002182 0.001896 -0.000748 -0.000502
# 3 -0.003573 -0.002182 0.009327 0.002833 -0.000910 -0.002881
# 4 -0.001964 0.001896 0.002833 0.025095 -0.001783 -0.000903
# 5 -0.001821 -0.000748 -0.000910 -0.001783 0.028974 -0.010716
# 6 0.005235 -0.000502 -0.002881 -0.000903 -0.010716 0.041002
#
#
# Mechanical properties :
#
#
# Convention : Reuss Voigt Hill
#
# Bulk Modulus (GPa) = 44.91067 59.02603 51.96835
# Shear Modulus (GPa) = 32.82374 39.49768 36.16071
#
# Velocity S-wave (km/s) = 3.62493 3.97642 3.80474
# Velocity P-wave (km/s) = 5.95811 6.68671 6.33289
#
# Compressibility (1/GPa) = 0.02226642
#
# Stress axis : x y z
#
# Youngs Moduli (GPa) = 52.13160 132.60073 107.21795
#
# Poissons Ratio (x) = 0.15084 0.38306
# Poissons Ratio (y) = 0.05930 0.23392
# Poissons Ratio (z) = 0.18625 0.28930
#
# Static dielectric constant tensor:
#      x y z
#    x 2.048410 -0.054200 0.094690 
#    y -0.054200 1.985530 0.062450 
#    z 0.094690 0.062450 2.452900 
# 
# From -- ./inp_files/535258.got.cif
#   From: 2010.05.17/outbox.cif.g08.bks.cpg/sg2_268_cif.got.tgz:535258.got - 2010.06.03 11:33:40.
