data_PCOD9003710
_publ_section_title
;
Structure prediction by ZEFSAII (Michael W. Deem and Ramdas Pophale) SiO2 
 PCOD9003710
Probable space group: P -1
;
_chemical_formula_sum "Si O2"
_cell_formula_units_Z 15
_cell_length_a 8.712033
_cell_length_b 9.634001
_cell_length_c 12.906061
_cell_angle_alpha 93.869342
_cell_angle_beta 134.800076
_cell_angle_gamma 56.323164
_cell_volume 535.283365
_symmetry_space_group_name_H-M "P -1"
_symmetry_group_IT_number 2
_symmetry_cell_setting 'triclinic'
loop_
_space_group_symop_operation_xyz
x,y,z
-x,-y,-z
loop_
_atom_site_type_symbol
_atom_site_label
_atom_site_fract_x
_atom_site_fract_y
_atom_site_fract_z
Si Si1 0.500000 0.500000 0.000000
Si Si2 0.677309 0.144187 0.182385
Si Si3 0.065775 0.408076 0.789262
Si Si4 0.752050 0.782544 0.559346
Si Si5 0.601435 0.593827 0.761499
Si Si6 0.908839 0.240472 0.001788
Si Si7 0.042950 0.639177 0.486799
Si Si8 0.804416 0.110629 0.744579
O O1 0.349540 0.684276 0.859542
O O2 0.620830 0.348172 0.946324
O O3 0.598301 0.190761 0.269348
O O4 0.993852 0.955697 0.265942
O O5 0.372574 0.222730 0.987344
O O6 0.042670 0.589103 0.758972
O O7 0.774777 0.528424 0.732702
O O8 0.080789 0.312954 0.686197
O O9 0.854993 0.796496 0.499626
O O10 0.500000 0.000000 0.500000
O O11 0.554958 0.730299 0.447319
O O12 0.872424 0.418229 0.962418
O O13 0.362596 0.575660 0.634342
O O14 0.163925 0.051510 0.185418
O O15 0.909411 0.164846 0.887769
O O16 0.000000 0.500000 0.500000
#
# Coordination Sequence:
#
# PCOD9003710 Si02
#       8
#     1   2   2   2   2   2   2   2
#     4   8  18  30  60  90 118 156 210 256 304 364
#     4  10  22  37  66  94 127 168 220 260 326 381
#     4  11  25  42  66  95 128 171 221 266 323 395
#     4  11  25  40  63  96 129 164 217 268 326 384
#     4  11  22  43  65  93 130 174 215 267 323 392
#     4   9  19  33  64  87 124 155 215 251 327 358
#     4  10  23  39  67  93 126 168 220 260 319 387
#     4  10  21  37  61  95 128 160 208 276 319 367
#
# _framework density 28.022538000000001
#
# number of rings (size 3 to 8) (size 9 to 14) (size 15 to 20)
#    0.000    1.867    0.000    3.200   22.400    0.000 
#    0.000    4.667    0.000    0.000    0.000    0.000 
#    0.000    0.000    0.000    0.000    0.000    0.000 
#
# Total GULP energy -83584.759903 kJ/mol
# GULP energy per Si atom -5572.317327 kJ/mol
# Density = 2.795876 g / cm^3
# Si number density = 28.022538 Si / 1000 Ang^3
#
#
#
# Elastic Constant Matrix: (Units=GPa)
#
#
# Indices 1 2 3 4 5 6 
#
# 1 166.5585 37.6628 38.7433 2.6639 -2.2821 -47.0277
# 2 37.6628 85.6335 25.0855 19.9450 -6.8778 -37.5617
# 3 38.7433 25.0855 93.8813 26.0064 -4.3015 -14.1790
# 4 2.6639 19.9450 26.0064 48.4748 -5.2585 -11.7273
# 5 -2.2821 -6.8778 -4.3015 -5.2585 38.2557 -4.4474
# 6 -47.0277 -37.5617 -14.1790 -11.7273 -4.4474 64.6952
#
#
#
# Elastic Compliance Matrix: (Units=1/GPa)
#
#
# Indices 1 2 3 4 5 6 
#
# 1 0.008509 -0.001021 -0.003224 0.003131 0.001034 0.005524
# 2 -0.001021 0.017580 -0.001774 -0.003772 0.003384 0.008625
# 3 -0.003224 -0.001774 0.014181 -0.007085 -0.000071 -0.001555
# 4 0.003131 -0.003772 -0.007085 0.026995 0.002844 0.003622
# 5 0.001034 0.003384 -0.000071 0.002844 0.027789 0.005127
# 6 0.005524 0.008625 -0.001555 0.003622 0.005127 0.025149
#
#
# Mechanical properties :
#
#
# Convention : Reuss Voigt Hill
#
# Bulk Modulus (GPa) = 35.42066 61.00629 48.21348
# Shear Modulus (GPa) = 35.29855 46.59059 40.94457
#
# Velocity S-wave (km/s) = 3.55300 4.08194 3.82662
# Velocity P-wave (km/s) = 5.43132 6.63581 6.06355
#
# Compressibility (1/GPa) = 0.02823211
#
# Stress axis : x y z
#
# Youngs Moduli (GPa) = 117.52865 56.88389 70.51828
#
# Poissons Ratio (x) = 0.05806 0.22736
# Poissons Ratio (y) = 0.11996 0.12507
# Poissons Ratio (z) = 0.37893 0.10089
#
# Static dielectric constant tensor:
#      x y z
#    x 2.247270 -0.096870 0.062980 
#    y -0.096870 2.326240 -0.012730 
#    z 0.062980 -0.012730 2.324200 
# 
# From -- ./inp_files/390510.got.cif
#   From: 2010.05.17/outbox.cif.g08.bks.cpg/sg2_196_cif.got.tgz:390510.got - 2010.06.03 11:33:40.
