data_PCOD9003725
_publ_section_title
;
Structure prediction by ZEFSAII (Michael W. Deem and Ramdas Pophale) SiO2 
 PCOD9003725
Probable space group: P -1
;
_chemical_formula_sum "Si O2"
_cell_formula_units_Z 14
_cell_length_a 20.537348
_cell_length_b 22.929469
_cell_length_c 4.963181
_cell_angle_alpha 100.716594
_cell_angle_beta 79.711542
_cell_angle_gamma 167.360665
_cell_volume 502.449785
_symmetry_space_group_name_H-M "P -1"
_symmetry_group_IT_number 2
_symmetry_cell_setting 'triclinic'
loop_
_space_group_symop_operation_xyz
x,y,z
-x,-y,-z
loop_
_atom_site_type_symbol
_atom_site_label
_atom_site_fract_x
_atom_site_fract_y
_atom_site_fract_z
Si Si1 0.739997 0.529408 0.373751
Si Si2 0.181852 0.007517 0.570767
Si Si3 0.075708 0.618837 0.838969
Si Si4 0.168686 0.830949 0.976268
Si Si5 0.297788 0.216171 0.073743
Si Si6 0.530079 0.127074 0.435486
Si Si7 0.736682 0.690099 0.256996
O O1 0.498751 0.364899 0.294936
O O2 0.983440 0.776593 0.588723
O O3 0.911707 0.650609 0.100685
O O4 0.521425 0.291906 0.478420
O O5 0.978215 0.856641 0.354288
O O6 0.220966 0.094223 0.831413
O O7 0.388211 0.869323 0.701497
O O8 0.831973 0.409872 0.603921
O O9 0.083108 0.690289 0.016046
O O10 0.000000 0.500000 0.000000
O O11 0.444605 0.086152 0.190228
O O12 0.275995 0.916498 0.665396
O O13 0.531372 0.470901 0.018127
O O14 0.969398 0.944188 0.202359
O O15 0.500000 0.500000 0.500000
#
# Coordination Sequence:
#
# PCOD9003725 Si02
#       7
#     2   2   2   2   2   2   2
#     4  10  25  41  63  91 128 165 223 270 322 398
#     4  10  22  42  62  90 128 174 213 269 331 381
#     4  11  25  44  69  95 132 169 216 279 348 408
#     4  12  27  42  67  97 129 173 223 278 336 411
#     4  10  21  40  63  89 130 174 207 270 328 378
#     4  11  26  43  66  96 129 168 215 275 344 405
#     4  10  21  37  61  97 129 165 219 265 318 394
#
# _framework density 27.863482999999999
#
# number of rings (size 3 to 8) (size 9 to 14) (size 15 to 20)
#    0.000    1.429    1.429    2.143    8.000    2.286 
#    0.000    0.000    0.000    0.000    0.000    0.000 
#    0.000    0.000    0.000    0.000    0.000    0.000 
#
# Total GULP energy -78304.370613 kJ/mol
# GULP energy per Si atom -5593.169330 kJ/mol
# Density = 2.780006 g / cm^3
# Si number density = 27.863483 Si / 1000 Ang^3
#
#
#
# Elastic Constant Matrix: (Units=GPa)
#
#
# Indices 1 2 3 4 5 6 
#
# 1 72.8167 53.0815 22.9516 -4.3767 -18.4997 -18.4767
# 2 53.0815 213.3220 66.8097 -5.8234 -18.9452 -21.8725
# 3 22.9516 66.8097 141.9252 -10.5284 -22.0762 -15.8270
# 4 -4.3767 -5.8234 -10.5284 64.4834 5.5750 -12.4077
# 5 -18.4997 -18.9452 -22.0762 5.5750 45.0031 -1.2587
# 6 -18.4767 -21.8725 -15.8270 -12.4077 -1.2587 40.6193
#
#
#
# Elastic Compliance Matrix: (Units=1/GPa)
#
#
# Indices 1 2 3 4 5 6 
#
# 1 0.020272 -0.003708 0.000656 0.002145 0.007062 0.008355
# 2 -0.003708 0.006437 -0.002309 0.000124 0.000063 0.000920
# 3 0.000656 -0.002309 0.009068 0.001617 0.003635 0.003195
# 4 0.002145 0.000124 0.001617 0.017284 -0.000219 0.006946
# 5 0.007062 0.000063 0.003635 -0.000219 0.027113 0.005436
# 6 0.008355 0.000920 0.003195 0.006946 0.005436 0.032450
#
#
# Mechanical properties :
#
#
# Convention : Reuss Voigt Hill
#
# Bulk Modulus (GPa) = 39.90848 79.30551 59.60699
# Shear Modulus (GPa) = 37.96602 49.03589 43.50095
#
# Velocity S-wave (km/s) = 3.69531 4.19962 3.95551
# Velocity P-wave (km/s) = 5.70623 7.21386 6.50387
#
# Compressibility (1/GPa) = 0.02505733
#
# Stress axis : x y z
#
# Youngs Moduli (GPa) = 49.32890 155.35857 110.27228
#
# Poissons Ratio (x) = 0.57599 -0.07238
# Poissons Ratio (y) = 0.18289 0.25460
# Poissons Ratio (z) = -0.03238 0.35869
#
# Static dielectric constant tensor:
#      x y z
#    x 2.310160 -0.092730 0.074690 
#    y -0.092730 2.211470 -0.045670 
#    z 0.074690 -0.045670 2.240540 
# 
# From -- ./inp_files/12313.got.cif
#   From: 2010.05.17/outbox.cif.g08.bks.cpg/sg2_7_cif.got.tgz:12313.got - 2010.06.03 11:33:40.
