data_PCOD9003112
_publ_section_title
;
Structure prediction by ZEFSAII (Michael W. Deem and Ramdas Pophale) SiO2 
 PCOD9003112
Probable space group: P -1
;
_chemical_formula_sum "Si O2"
_cell_formula_units_Z 16
_cell_length_a 6.759983
_cell_length_b 11.843181
_cell_length_c 7.802982
_cell_angle_alpha 110.580297
_cell_angle_beta 76.945684
_cell_angle_gamma 93.609347
_cell_volume 569.629147
_symmetry_space_group_name_H-M "P -1"
_symmetry_group_IT_number 2
_symmetry_cell_setting 'triclinic'
loop_
_space_group_symop_operation_xyz
x,y,z
-x,-y,-z
loop_
_atom_site_type_symbol
_atom_site_label
_atom_site_fract_x
_atom_site_fract_y
_atom_site_fract_z
Si Si1 0.819152 0.650799 0.777875
Si Si2 0.828643 0.155716 0.631930
Si Si3 0.305004 0.841621 0.947788
Si Si4 0.390965 0.587806 0.843721
Si Si5 0.285717 0.095905 0.559658
Si Si6 0.670378 0.659275 0.422361
Si Si7 0.907679 0.405167 0.779390
Si Si8 0.752172 0.899278 0.026576
O O1 0.602643 0.631247 0.906358
O O2 0.759495 0.646771 0.588668
O O3 0.940175 0.530245 0.741580
O O4 0.891273 0.784747 0.878538
O O5 0.797286 0.165084 0.847871
O O6 0.802068 0.292758 0.643702
O O7 0.061230 0.116437 0.526298
O O8 0.682640 0.047039 0.551372
O O9 0.541151 0.874682 0.954815
O O10 0.317737 0.703000 0.805386
O O11 0.209612 0.959538 0.939110
O O12 0.440417 0.462198 0.673338
O O13 0.226091 0.572403 0.015260
O O14 0.411542 0.204655 0.511394
O O15 0.270467 0.114519 0.774332
O O16 0.870071 0.650024 0.255317
#
# Coordination Sequence:
#
# PCOD9003112 Si02
#       8
#     2   2   2   2   2   2   2   2
#     4  11  22  37  58  85 117 149 189 238 284 336
#     4   9  20  38  56  82 114 144 189 241 281 332
#     4   9  20  38  56  82 114 144 189 241 281 332
#     4  10  21  38  59  82 113 150 188 234 285 340
#     4  10  21  37  58  82 112 152 191 231 285 341
#     4  11  22  37  58  85 117 149 189 238 284 336
#     4  10  21  38  59  82 113 150 188 234 285 340
#     4  10  21  37  58  82 112 152 191 231 285 341
#
# _framework density 28.088450999999999
#
# number of rings (size 3 to 8) (size 9 to 14) (size 15 to 20)
#    0.000    2.000    0.000    3.000    0.000    6.000 
#    0.000    2.500    0.000    0.000    0.000    0.000 
#    0.000    0.000    0.000    0.000    0.000    0.000 
#
# Total GULP energy -89517.528345 kJ/mol
# GULP energy per Si atom -5594.845522 kJ/mol
# Density = 2.802452 g / cm^3
# Si number density = 28.088451 Si / 1000 Ang^3
#
#
#
# Elastic Constant Matrix: (Units=GPa)
#
#
# Indices 1 2 3 4 5 6 
#
# 1 67.1555 34.6040 -2.0758 12.0296 -6.5637 -5.0106
# 2 34.6040 300.2533 75.7035 58.9912 28.6208 -22.2306
# 3 -2.0758 75.7035 94.2095 34.0369 18.0179 -6.7256
# 4 12.0296 58.9912 34.0369 55.2651 13.9839 4.9210
# 5 -6.5637 28.6208 18.0179 13.9839 35.3423 6.8673
# 6 -5.0106 -22.2306 -6.7256 4.9210 6.8673 58.1686
#
#
#
# Elastic Compliance Matrix: (Units=1/GPa)
#
#
# Indices 1 2 3 4 5 6 
#
# 1 0.017568 -0.002321 0.002937 -0.004564 0.005310 0.000725
# 2 -0.002321 0.005232 -0.002505 -0.003068 -0.002580 0.002074
# 3 0.002937 -0.002505 0.016071 -0.007253 -0.003165 0.002141
# 4 -0.004564 -0.003068 -0.007253 0.028502 -0.005124 -0.004211
# 5 0.005310 -0.002580 -0.003165 -0.005124 0.035925 -0.004702
# 6 0.000725 0.002074 0.002141 -0.004211 -0.004702 0.019205
#
#
# Mechanical properties :
#
#
# Convention : Reuss Voigt Hill
#
# Bulk Modulus (GPa) = 28.49576 75.34241 51.91909
# Shear Modulus (GPa) = 36.23733 53.31432 44.77583
#
# Velocity S-wave (km/s) = 3.59571 4.36143 3.99695
# Velocity P-wave (km/s) = 5.23507 7.22802 6.31071
#
# Compressibility (1/GPa) = 0.03509294
#
# Stress axis : x y z
#
# Youngs Moduli (GPa) = 56.92107 191.12942 62.22337
#
# Poissons Ratio (x) = 0.44364 -0.18277
# Poissons Ratio (y) = 0.13212 0.15589
# Poissons Ratio (z) = -0.16720 0.47885
#
# Static dielectric constant tensor:
#      x y z
#    x 2.373380 0.038490 -0.033820 
#    y 0.038490 2.249460 0.054330 
#    z -0.033820 0.054330 2.150710 
# 
# From -- ./inp_files/182418.got.cif
#   From: 2010.05.17/outbox.cif.g08.bks.cpg/sg2_92_cif.got.tgz:182418.got - 2010.06.03 11:33:40.
