data_PCOD9003691
_publ_section_title
;
Structure prediction by ZEFSAII (Michael W. Deem and Ramdas Pophale) SiO2 
 PCOD9003691
Probable space group: P -1
;
_chemical_formula_sum "Si O2"
_cell_formula_units_Z 14
_cell_length_a 20.459471
_cell_length_b 5.284954
_cell_length_c 20.789831
_cell_angle_alpha 116.304645
_cell_angle_beta 19.134632
_cell_angle_gamma 125.900618
_cell_volume 542.383565
_symmetry_space_group_name_H-M "P -1"
_symmetry_group_IT_number 2
_symmetry_cell_setting 'triclinic'
loop_
_space_group_symop_operation_xyz
x,y,z
-x,-y,-z
loop_
_atom_site_type_symbol
_atom_site_label
_atom_site_fract_x
_atom_site_fract_y
_atom_site_fract_z
Si Si1 0.045969 0.655763 0.683909
Si Si2 0.001090 0.830865 0.546772
Si Si3 0.377047 0.595128 0.052294
Si Si4 0.209903 0.479496 0.770987
Si Si5 0.578505 0.594694 0.544537
Si Si6 0.832295 0.719572 0.000399
Si Si7 0.423672 0.517118 0.263047
O O1 0.252583 0.616199 0.462037
O O2 0.837433 0.485036 0.806071
O O3 0.188773 0.065135 0.604258
O O4 0.928617 0.522484 0.849543
O O5 0.758006 0.681774 0.796521
O O6 0.000000 0.500000 0.500000
O O7 0.000000 0.000000 0.500000
O O8 0.245294 0.101614 0.390170
O O9 0.518718 0.475315 0.864826
O O10 0.500000 0.000000 0.000000
O O11 0.437445 0.654849 0.626730
O O12 0.320982 0.598532 0.609085
O O13 0.000000 0.500000 0.000000
O O14 0.064146 0.066063 0.852589
O O15 0.370494 0.428930 0.772798
O O16 0.677329 0.738504 0.089104
#
# Coordination Sequence:
#
# PCOD9003691 Si02
#       7
#     2   2   2   2   2   2   2
#     4  10  23  42  64 100 133 179 234 287 360 432
#     4  12  26  47  72 105 142 187 245 305 372 442
#     4  11  24  46  71  99 142 184 240 303 364 433
#     4  10  21  37  61  93 128 172 229 278 346 429
#     4  10  21  39  62  90 134 174 219 292 346 417
#     4  10  22  39  63  94 136 173 227 287 353 425
#     4  11  24  43  69  98 137 185 234 294 366 433
#
# _framework density 25.811992
#
# number of rings (size 3 to 8) (size 9 to 14) (size 15 to 20)
#    0.000    1.429    1.429    3.000    0.000    3.429 
#    0.000    0.000    0.000    0.000    0.000    0.000 
#    0.000    0.000    0.000    0.000    0.000    0.000 
#
# Total GULP energy -78152.974741 kJ/mol
# GULP energy per Si atom -5582.355339 kJ/mol
# Density = 2.575324 g / cm^3
# Si number density = 25.811992 Si / 1000 Ang^3
#
#
#
# Elastic Constant Matrix: (Units=GPa)
#
#
# Indices 1 2 3 4 5 6 
#
# 1 117.0276 49.7857 59.2665 -0.0072 22.1270 25.4370
# 2 49.7857 109.6323 48.6051 5.3674 7.5727 22.6042
# 3 59.2665 48.6051 215.9279 20.9991 33.5196 23.1957
# 4 -0.0072 5.3674 20.9991 70.8712 24.3701 -1.0283
# 5 22.1270 7.5727 33.5196 24.3701 79.5135 -2.3689
# 6 25.4370 22.6042 23.1957 -1.0283 -2.3689 34.5582
#
#
#
# Elastic Compliance Matrix: (Units=1/GPa)
#
#
# Indices 1 2 3 4 5 6 
#
# 1 0.012947 -0.003717 -0.001733 0.001829 -0.003261 -0.006105
# 2 -0.003717 0.012292 -0.001272 -0.000795 0.000511 -0.004439
# 3 -0.001733 -0.001272 0.005977 -0.001145 -0.001626 -0.002050
# 4 0.001829 -0.000795 -0.001145 0.016201 -0.004913 0.000088
# 5 -0.003261 0.000511 -0.001626 -0.004913 0.015749 0.004091
# 6 -0.006105 -0.004439 -0.002050 0.000088 0.004091 0.037993
#
#
# Mechanical properties :
#
#
# Convention : Reuss Voigt Hill
#
# Bulk Modulus (GPa) = 56.26455 84.21138 70.23797
# Shear Modulus (GPa) = 41.48453 55.98395 48.73424
#
# Velocity S-wave (km/s) = 4.01331 4.66221 4.34988
# Velocity P-wave (km/s) = 6.58185 7.85349 7.24562
#
# Compressibility (1/GPa) = 0.01777318
#
# Stress axis : x y z
#
# Youngs Moduli (GPa) = 77.23504 81.35309 167.30214
#
# Poissons Ratio (x) = 0.30239 0.28992
# Poissons Ratio (y) = 0.28708 0.21280
# Poissons Ratio (z) = 0.13384 0.10348
#
# Static dielectric constant tensor:
#      x y z
#    x 2.093060 -0.017890 0.060780 
#    y -0.017890 2.037750 0.028570 
#    z 0.060780 0.028570 2.143270 
# 
# From -- ./inp_files/600819.got.cif
#   From: 2010.05.17/outbox.cif.g08.bks.cpg/sg2_301_cif.got.tgz:600819.got - 2010.06.03 11:33:40.
