data_PCOD9003338
_publ_section_title
;
Structure prediction by ZEFSAII (Michael W. Deem and Ramdas Pophale) SiO2 
 PCOD9003338
Probable space group: P -1
;
_chemical_formula_sum "Si O2"
_cell_formula_units_Z 14
_cell_length_a 8.791867
_cell_length_b 11.028432
_cell_length_c 16.438564
_cell_angle_alpha 39.616621
_cell_angle_beta 144.535667
_cell_angle_gamma 139.916516
_cell_volume 547.314567
_symmetry_space_group_name_H-M "P -1"
_symmetry_group_IT_number 2
_symmetry_cell_setting 'triclinic'
loop_
_space_group_symop_operation_xyz
x,y,z
-x,-y,-z
loop_
_atom_site_type_symbol
_atom_site_label
_atom_site_fract_x
_atom_site_fract_y
_atom_site_fract_z
Si Si1 0.690125 0.092013 0.113456
Si Si2 0.985673 0.582607 0.640901
Si Si3 0.495926 0.028800 0.627464
Si Si4 0.319035 0.548708 0.583634
Si Si5 0.440041 0.412058 0.875616
Si Si6 0.625685 0.234884 0.753738
Si Si7 0.083135 0.189453 0.095199
O O1 0.978262 0.208216 0.131383
O O2 0.661083 0.896811 0.254815
O O3 0.555815 0.232274 0.030159
O O4 0.500000 0.000000 0.000000
O O5 0.221325 0.814059 0.621964
O O6 0.149225 0.426863 0.772290
O O7 0.752950 0.547237 0.487544
O O8 0.799623 0.480105 0.692334
O O9 0.775087 0.978380 0.756887
O O10 0.505040 0.207453 0.475772
O O11 0.546982 0.136887 0.681278
O O12 0.444765 0.450440 0.759877
O O13 0.000000 0.500000 0.500000
O O14 0.665382 0.600977 0.921859
O O15 0.850952 0.165930 0.937648
#
# Coordination Sequence:
#
# PCOD9003338 Si02
#       7
#     2   2   2   2   2   2   2
#     4  10  23  37  56  87 120 158 192 236 295 347
#     4   9  21  36  61  90 116 153 191 245 292 339
#     4  10  21  38  63  90 118 152 190 246 293 338
#     4   9  20  36  59  90 119 146 198 244 289 336
#     4  10  21  37  59  90 118 152 197 242 289 345
#     4  10  22  36  59  88 124 152 190 239 293 352
#     4  10  22  36  60  90 119 154 192 237 296 349
#
# _framework density 25.579440999999999
#
# number of rings (size 3 to 8) (size 9 to 14) (size 15 to 20)
#    0.000    2.286    0.000    0.857   16.000    6.286 
#    0.000    0.000    0.000   17.143    0.000    0.000 
#    0.000    0.000    0.000    0.000    0.000    0.000 
#
# Total GULP energy -78096.464410 kJ/mol
# GULP energy per Si atom -5578.318886 kJ/mol
# Density = 2.552122 g / cm^3
# Si number density = 25.579441 Si / 1000 Ang^3
#
#
#
# Elastic Constant Matrix: (Units=GPa)
#
#
# Indices 1 2 3 4 5 6 
#
# 1 57.7754 14.2999 23.1433 -18.6341 -10.5880 28.6240
# 2 14.2999 122.1680 23.9809 -21.2222 -3.9301 19.6703
# 3 23.1433 23.9809 88.9483 -22.2787 -5.1684 8.6716
# 4 -18.6341 -21.2222 -22.2787 46.6165 -3.3701 -5.4150
# 5 -10.5880 -3.9301 -5.1684 -3.3701 30.2971 -8.8209
# 6 28.6240 19.6703 8.6716 -5.4150 -8.8209 37.4427
#
#
#
# Elastic Compliance Matrix: (Units=1/GPa)
#
#
# Indices 1 2 3 4 5 6 
#
# 1 0.034919 0.002722 -0.004439 0.010702 0.005960 -0.024145
# 2 0.002722 0.009931 -0.001719 0.004116 0.000611 -0.006161
# 3 -0.004439 -0.001719 0.013864 0.004440 0.001705 0.002129
# 4 0.010702 0.004116 0.004440 0.029571 0.006715 -0.005514
# 5 0.005960 0.000611 0.001705 0.006715 0.037528 0.004540
# 6 -0.024145 -0.006161 0.002129 -0.005514 0.004540 0.048182
#
#
# Mechanical properties :
#
#
# Convention : Reuss Voigt Hill
#
# Bulk Modulus (GPa) = 19.28847 43.52665 31.40756
# Shear Modulus (GPa) = 25.23397 36.70244 30.96821
#
# Velocity S-wave (km/s) = 3.14426 3.79204 3.48324
# Velocity P-wave (km/s) = 4.55399 6.01880 5.33689
#
# Compressibility (1/GPa) = 0.05184443
#
# Stress axis : x y z
#
# Youngs Moduli (GPa) = 28.63778 100.69614 72.12796
#
# Poissons Ratio (x) = -0.27414 0.32015
# Poissons Ratio (y) = -0.07797 0.12396
# Poissons Ratio (z) = 0.12711 0.17306
#
# Static dielectric constant tensor:
#      x y z
#    x 2.223360 0.064270 0.129260 
#    y 0.064270 2.038610 -0.005840 
#    z 0.129260 -0.005840 2.082780 
# 
# From -- ./inp_files/417790.got.cif
#   From: 2010.05.17/outbox.cif.g08.bks.cpg/sg2_209_cif.got.tgz:417790.got - 2010.06.03 11:33:40.
