data_PCOD9003448
_publ_section_title
;
Structure prediction by ZEFSAII (Michael W. Deem and Ramdas Pophale) SiO2 
 PCOD9003448
Probable space group: P -1
;
_chemical_formula_sum "Si O2"
_cell_formula_units_Z 14
_cell_length_a 9.521009
_cell_length_b 8.987178
_cell_length_c 11.020020
_cell_angle_alpha 76.377549
_cell_angle_beta 135.141685
_cell_angle_gamma 121.104208
_cell_volume 556.002537
_symmetry_space_group_name_H-M "P -1"
_symmetry_group_IT_number 2
_symmetry_cell_setting 'triclinic'
loop_
_space_group_symop_operation_xyz
x,y,z
-x,-y,-z
loop_
_atom_site_type_symbol
_atom_site_label
_atom_site_fract_x
_atom_site_fract_y
_atom_site_fract_z
Si Si1 0.769868 0.488989 0.304501
Si Si2 0.140420 0.551564 0.909114
Si Si3 0.043489 0.112100 0.626673
Si Si4 0.328831 0.559075 0.274992
Si Si5 0.538496 0.918768 0.403291
Si Si6 0.979897 0.815421 0.821182
Si Si7 0.635548 0.850611 0.747740
O O1 0.771933 0.456178 0.167748
O O2 0.544272 0.325116 0.257749
O O3 0.000000 0.500000 0.500000
O O4 0.785567 0.676919 0.305294
O O5 0.864796 0.413495 0.778188
O O6 0.145070 0.734169 0.914622
O O7 0.251042 0.508885 0.098094
O O8 0.794356 0.087963 0.511286
O O9 0.081649 0.994616 0.771762
O O10 0.000000 0.000000 0.500000
O O11 0.534641 0.758490 0.358129
O O12 0.268433 0.371033 0.332840
O O13 0.530863 0.858130 0.549652
O O14 0.363499 0.976804 0.231861
O O15 0.875204 0.859965 0.865532
#
# Coordination Sequence:
#
# PCOD9003448 Si02
#       7
#     2   2   2   2   2   2   2
#     4  12  22  39  63  87 126 153 196 253 298 351
#     4   9  21  41  63  87 113 167 200 237 303 351
#     4  11  24  35  60  96 122 151 199 250 303 346
#     4   9  20  40  64  80 124 161 201 238 294 366
#     4  10  21  37  60  88 121 158 196 241 304 356
#     4   9  21  38  59  88 119 153 204 239 292 353
#     4  10  22  36  59  94 117 155 199 247 303 345
#
# _framework density 25.179742000000001
#
# number of rings (size 3 to 8) (size 9 to 14) (size 15 to 20)
#    0.857    1.143    1.429    1.714    8.000    1.143 
#    0.000    4.286    0.000    0.000    0.000    0.000 
#    0.000    0.000    0.000    0.000    0.000    0.000 
#
# Total GULP energy -77958.127241 kJ/mol
# GULP energy per Si atom -5568.437660 kJ/mol
# Density = 2.512243 g / cm^3
# Si number density = 25.179742 Si / 1000 Ang^3
#
#
#
# Elastic Constant Matrix: (Units=GPa)
#
#
# Indices 1 2 3 4 5 6 
#
# 1 135.3810 55.4047 35.9568 -15.8466 -34.6762 -2.5146
# 2 55.4047 229.6733 39.4596 -10.9662 -18.3236 -21.3341
# 3 35.9568 39.4596 32.2608 0.4985 -19.8200 -4.7447
# 4 -15.8466 -10.9662 0.4985 34.1297 -7.8798 0.6675
# 5 -34.6762 -18.3236 -19.8200 -7.8798 36.6598 -9.6760
# 6 -2.5146 -21.3341 -4.7447 0.6675 -9.6760 49.4067
#
#
#
# Elastic Compliance Matrix: (Units=1/GPa)
#
#
# Indices 1 2 3 4 5 6 
#
# 1 0.013359 -0.000496 -0.007729 0.008544 0.010484 0.001661
# 2 -0.000496 0.005810 -0.006454 0.001643 -0.000227 0.001797
# 3 -0.007729 -0.006454 0.065196 -0.000594 0.026783 0.008334
# 4 0.008544 0.001643 -0.000594 0.037831 0.017785 0.004059
# 5 0.010484 -0.000227 0.026783 0.017785 0.059174 0.014356
# 6 0.001661 0.001797 0.008334 0.004059 0.014356 0.024658
#
#
# Mechanical properties :
#
#
# Convention : Reuss Voigt Hill
#
# Bulk Modulus (GPa) = 18.17981 73.21750 45.69866
# Shear Modulus (GPa) = 19.70680 41.80548 30.75614
#
# Velocity S-wave (km/s) = 2.80061 4.07908 3.49874
# Velocity P-wave (km/s) = 4.20638 7.16423 5.87451
#
# Compressibility (1/GPa) = 0.05500606
#
# Stress axis : x y z
#
# Youngs Moduli (GPa) = 74.85716 172.12417 15.33846
#
# Poissons Ratio (x) = 0.08536 0.11855
# Poissons Ratio (y) = 0.03712 0.09900
# Poissons Ratio (z) = 0.57858 1.11090
#
# Static dielectric constant tensor:
#      x y z
#    x 2.102000 -0.078250 0.068970 
#    y -0.078250 2.058630 -0.004260 
#    z 0.068970 -0.004260 2.152770 
# 
# From -- ./inp_files/417188.got.cif
#   From: 2010.05.17/outbox.cif.g08.bks.cpg/sg2_209_cif.got.tgz:417188.got - 2010.06.03 11:33:40.
