data_PCOD9003421
_publ_section_title
;
Structure prediction by ZEFSAII (Michael W. Deem and Ramdas Pophale) SiO2 
 PCOD9003421
Probable space group: P -1
;
_chemical_formula_sum "Si O2"
_cell_formula_units_Z 16
_cell_length_a 25.098316
_cell_length_b 12.228399
_cell_length_c 10.909453
_cell_angle_alpha 139.845503
_cell_angle_beta 139.640622
_cell_angle_gamma 20.454107
_cell_volume 738.717641
_symmetry_space_group_name_H-M "P -1"
_symmetry_group_IT_number 2
_symmetry_cell_setting 'triclinic'
loop_
_space_group_symop_operation_xyz
x,y,z
-x,-y,-z
loop_
_atom_site_type_symbol
_atom_site_label
_atom_site_fract_x
_atom_site_fract_y
_atom_site_fract_z
Si Si1 0.476802 0.761474 0.322982
Si Si2 0.176605 0.085569 0.135590
Si Si3 0.363274 0.475438 0.056725
Si Si4 0.170442 0.366934 0.008569
Si Si5 0.157164 0.615411 0.958930
Si Si6 0.168849 0.244630 0.527907
Si Si7 0.494422 0.914204 0.263457
Si Si8 0.646284 0.224599 0.338911
O O1 0.553548 0.657690 0.235114
O O2 0.590045 0.486269 0.389533
O O3 0.321109 0.919149 0.175042
O O4 0.446613 0.007795 0.521531
O O5 0.173760 0.199129 0.354305
O O6 0.001502 0.380241 0.027774
O O7 0.225685 0.811608 0.030656
O O8 0.489026 0.397364 0.237035
O O9 0.298952 0.493788 0.077634
O O10 0.450047 0.204621 0.879427
O O11 0.148213 0.539886 0.008079
O O12 0.247747 0.068249 0.821776
O O13 0.306849 0.213346 0.196818
O O14 0.190447 0.403166 0.739351
O O15 0.000000 0.000000 0.000000
O O16 0.000000 0.500000 0.500000
O O17 0.270428 0.934617 0.520595
#
# Coordination Sequence:
#
# PCOD9003421 Si02
#       8
#     2   2   2   2   2   2   2   2
#     4  10  23  42  63  84 115 155 205 248 298 339
#     4  11  21  38  60  92 121 157 195 240 294 356
#     4  10  21  37  60  86 119 156 199 234 298 349
#     4  10  21  38  59  90 123 153 198 235 296 354
#     4  11  20  35  58  89 125 158 185 238 296 352
#     4  11  20  35  57  86 126 154 188 237 290 353
#     4  10  23  43  61  85 116 155 202 254 290 348
#     4   9  21  37  60  86 116 157 196 237 290 355
#
# _framework density 21.659155999999999
#
# number of rings (size 3 to 8) (size 9 to 14) (size 15 to 20)
#    0.000    1.750    3.750    0.750    0.000   14.500 
#    0.000    0.000    0.000    3.000    0.000    0.000 
#    0.000    0.000    0.000    0.000    0.000    0.000 
#
# Total GULP energy -89235.316969 kJ/mol
# GULP energy per Si atom -5577.207311 kJ/mol
# Density = 2.160986 g / cm^3
# Si number density = 21.659156 Si / 1000 Ang^3
#
#
#
# Elastic Constant Matrix: (Units=GPa)
#
#
# Indices 1 2 3 4 5 6 
#
# 1 97.4657 28.4610 8.4578 5.6276 20.1606 12.1043
# 2 28.4610 93.8355 19.0232 -3.0938 10.1497 0.5288
# 3 8.4578 19.0232 47.5112 -5.9004 9.1697 8.5890
# 4 5.6276 -3.0938 -5.9004 24.1290 2.6062 3.9521
# 5 20.1606 10.1497 9.1697 2.6062 27.0526 1.8746
# 6 12.1043 0.5288 8.5890 3.9521 1.8746 21.2656
#
#
#
# Elastic Compliance Matrix: (Units=1/GPa)
#
#
# Indices 1 2 3 4 5 6 
#
# 1 0.014071 -0.003674 0.002006 -0.001007 -0.009155 -0.007734
# 2 -0.003674 0.012854 -0.004916 0.000781 -0.000748 0.003678
# 3 0.002006 -0.004916 0.027875 0.008845 -0.009042 -0.013125
# 4 -0.001007 0.000781 0.008845 0.046434 -0.006245 -0.011098
# 5 -0.009155 -0.000748 -0.009042 -0.006245 0.047328 0.005870
# 6 -0.007734 0.003678 -0.013125 -0.011098 0.005870 0.058181
#
#
# Mechanical properties :
#
#
# Convention : Reuss Voigt Hill
#
# Bulk Modulus (GPa) = 24.01974 38.96627 31.49301
# Shear Modulus (GPa) = 21.38689 26.68079 24.03384
#
# Velocity S-wave (km/s) = 3.14575 3.51358 3.33474
# Velocity P-wave (km/s) = 4.93034 5.87282 5.42210
#
# Compressibility (1/GPa) = 0.04163242
#
# Stress axis : x y z
#
# Youngs Moduli (GPa) = 71.06781 77.79752 35.87445
#
# Poissons Ratio (x) = 0.28582 -0.07197
# Poissons Ratio (y) = 0.26110 0.17636
# Poissons Ratio (z) = -0.14257 0.38245
#
# Static dielectric constant tensor:
#      x y z
#    x 1.853000 0.130200 -0.032600 
#    y 0.130200 1.932630 -0.263900 
#    z -0.032600 -0.263900 1.313900 
# 
# From -- ./inp_files/176620.got.cif
#   From: 2010.05.17/outbox.cif.g08.bks.cpg/sg2_89_cif.got.tgz:176620.got - 2010.06.03 11:33:40.
