data_PCOD9003765
_publ_section_title
;
Structure prediction by ZEFSAII (Michael W. Deem and Ramdas Pophale) SiO2 
 PCOD9003765
Probable space group: P -1
;
_chemical_formula_sum "Si O2"
_cell_formula_units_Z 14
_cell_length_a 23.559056
_cell_length_b 13.916741
_cell_length_c 5.321362
_cell_angle_alpha 73.187303
_cell_angle_beta 112.040594
_cell_angle_gamma 159.909628
_cell_volume 544.457810
_symmetry_space_group_name_H-M "P -1"
_symmetry_group_IT_number 2
_symmetry_cell_setting 'triclinic'
loop_
_space_group_symop_operation_xyz
x,y,z
-x,-y,-z
loop_
_atom_site_type_symbol
_atom_site_label
_atom_site_fract_x
_atom_site_fract_y
_atom_site_fract_z
Si Si1 0.112091 0.689235 0.797198
Si Si2 0.352154 0.771968 0.640664
Si Si3 0.052351 0.245475 0.865883
Si Si4 0.231741 0.045473 0.404533
Si Si5 0.544298 0.418968 0.467740
Si Si6 0.570897 0.934082 0.135817
Si Si7 0.157264 0.241850 0.383358
O O1 0.000000 0.500000 0.500000
O O2 0.188778 0.915454 0.679761
O O3 0.274230 0.861510 0.940762
O O4 0.000000 0.500000 0.000000
O O5 0.154545 0.433311 0.639598
O O6 0.500000 0.000000 0.500000
O O7 0.343555 0.874787 0.633995
O O8 0.443662 0.823870 0.913342
O O9 0.170453 0.371956 0.178492
O O10 0.944292 0.176041 0.830282
O O11 0.910742 0.942980 0.794485
O O12 0.345195 0.152440 0.317721
O O13 0.350564 0.319707 0.489620
O O14 0.527392 0.315257 0.748188
O O15 0.661304 0.529020 0.392585
O O16 0.000000 0.000000 0.500000
#
# Coordination Sequence:
#
# PCOD9003765 Si02
#       7
#     2   2   2   2   2   2   2
#     4  11  25  46  72 101 141 181 230 283 345 418
#     4  11  24  38  65  94 132 176 226 284 346 409
#     4  10  21  39  60  91 123 163 222 271 328 406
#     4   9  20  40  69  91 129 174 219 281 334 408
#     4   9  18  41  63  89 130 166 224 273 342 402
#     4  10  23  41  65  92 132 179 221 287 342 412
#     4  10  21  37  62  88 124 167 206 274 335 398
#
# _framework density 25.713653999999998
#
# number of rings (size 3 to 8) (size 9 to 14) (size 15 to 20)
#    0.000    2.000    1.429    0.857    6.000    0.000 
#    7.714    0.714    0.000    0.000    0.000    0.000 
#    0.000    0.000    0.000    0.000    0.000    0.000 
#
# Total GULP energy -78030.531927 kJ/mol
# GULP energy per Si atom -5573.609423 kJ/mol
# Density = 2.565513 g / cm^3
# Si number density = 25.713654 Si / 1000 Ang^3
#
#
#
# Elastic Constant Matrix: (Units=GPa)
#
#
# Indices 1 2 3 4 5 6 
#
# 1 143.1932 72.6958 56.7487 -18.2393 29.0984 52.4811
# 2 72.6958 151.9092 49.4002 -45.0901 10.3439 25.6412
# 3 56.7487 49.4002 78.9843 -26.5573 12.6863 4.1135
# 4 -18.2393 -45.0901 -26.5573 44.4284 10.2379 7.5022
# 5 29.0984 10.3439 12.6863 10.2379 31.3874 0.3568
# 6 52.4811 25.6412 4.1135 7.5022 0.3568 70.6328
#
#
#
# Elastic Compliance Matrix: (Units=1/GPa)
#
#
# Indices 1 2 3 4 5 6 
#
# 1 0.022253 -0.000222 -0.007357 0.012358 -0.021419 -0.017230
# 2 -0.000222 0.013507 -0.001104 0.016096 -0.008977 -0.006338
# 3 -0.007357 -0.001104 0.022685 0.010049 -0.005302 0.003506
# 4 0.012358 0.016096 0.010049 0.063144 -0.041168 -0.022109
# 5 -0.021419 -0.008977 -0.005302 -0.041168 0.069979 0.023501
# 6 -0.017230 -0.006338 0.003506 -0.022109 0.023501 0.031286
#
#
# Mechanical properties :
#
#
# Convention : Reuss Voigt Hill
#
# Bulk Modulus (GPa) = 24.34346 81.30844 52.82595
# Shear Modulus (GPa) = 19.69166 42.30585 30.99876
#
# Velocity S-wave (km/s) = 2.77032 4.06059 3.47585
# Velocity P-wave (km/s) = 4.44079 7.32625 6.05783
#
# Compressibility (1/GPa) = 0.04107880
#
# Stress axis : x y z
#
# Youngs Moduli (GPa) = 44.93693 74.03552 44.08157
#
# Poissons Ratio (x) = 0.01643 0.32431
# Poissons Ratio (y) = 0.00998 0.04868
# Poissons Ratio (z) = 0.33060 0.08176
#
# Static dielectric constant tensor:
#      x y z
#    x 2.105130 -0.055090 -0.074480 
#    y -0.055090 2.027620 0.151520 
#    z -0.074480 0.151520 2.102360 
# 
# From -- ./inp_files/124141.got.cif
#   From: 2010.05.17/outbox.cif.g08.bks.cpg/sg2_63_cif.got.tgz:124141.got - 2010.06.03 11:33:40.
