data_PCOD9003820
_publ_section_title
;
Structure prediction by ZEFSAII (Michael W. Deem and Ramdas Pophale) SiO2 
 PCOD9003820
Probable space group: P -1
;
_chemical_formula_sum "Si O2"
_cell_formula_units_Z 12
_cell_length_a 11.817138
_cell_length_b 12.270148
_cell_length_c 6.665543
_cell_angle_alpha 58.121068
_cell_angle_beta 132.947961
_cell_angle_gamma 132.770448
_cell_volume 515.453417
_symmetry_space_group_name_H-M "P -1"
_symmetry_group_IT_number 2
_symmetry_cell_setting 'triclinic'
loop_
_space_group_symop_operation_xyz
x,y,z
-x,-y,-z
loop_
_atom_site_type_symbol
_atom_site_label
_atom_site_fract_x
_atom_site_fract_y
_atom_site_fract_z
Si Si1 0.910739 0.196182 0.513231
Si Si2 0.426466 0.356181 0.336886
Si Si3 0.192884 0.096001 0.535594
Si Si4 0.749646 0.356514 0.900449
Si Si5 0.324472 0.306833 0.804856
Si Si6 0.009623 0.605755 0.226871
O O1 0.927835 0.242448 0.722677
O O2 0.119886 0.275506 0.611151
O O3 0.808869 0.020970 0.509277
O O4 0.802730 0.257135 0.196215
O O5 0.236262 0.245102 0.322188
O O6 0.549953 0.300255 0.643042
O O7 0.544986 0.536643 0.302376
O O8 0.397555 0.320064 0.102326
O O9 0.316159 0.169333 0.810182
O O10 0.000000 0.000000 0.500000
O O11 0.853729 0.381639 0.791647
O O12 0.822705 0.506867 0.976828
O O13 0.000000 0.500000 0.500000
#
# Coordination Sequence:
#
# PCOD9003820 Si02
#       6
#     2   2   2   2   2   2
#     4  10  22  40  63  90 124 163 202 245 306 371
#     4  11  23  40  64  93 123 159 208 259 304 358
#     4  10  24  43  62  89 127 167 204 250 309 368
#     4  10  21  37  62  92 121 158 201 254 305 358
#     4  10  23  41  64  93 122 163 209 252 302 362
#     4   9  18  35  60  89 121 157 200 245 301 363
#
# _framework density 23.280476
#
# number of rings (size 3 to 8) (size 9 to 14) (size 15 to 20)
#    0.000    2.000    0.000    3.500    0.000   14.000 
#    0.000    1.667    0.000    0.000    0.000    0.000 
#    0.000    0.000    0.000    0.000    0.000    0.000 
#
# Total GULP energy -66902.644657 kJ/mol
# GULP energy per Si atom -5575.220388 kJ/mol
# Density = 2.322749 g / cm^3
# Si number density = 23.280476 Si / 1000 Ang^3
#
#
#
# Elastic Constant Matrix: (Units=GPa)
#
#
# Indices 1 2 3 4 5 6 
#
# 1 64.8736 51.0563 46.1120 3.2711 -16.3173 3.5050
# 2 51.0563 180.0997 57.8272 36.2144 -23.4297 -23.5012
# 3 46.1120 57.8272 147.5822 18.4910 -4.7301 -9.8007
# 4 3.2711 36.2144 18.4910 34.0456 -11.3470 -16.4406
# 5 -16.3173 -23.4297 -4.7301 -11.3470 46.5876 6.4394
# 6 3.5050 -23.5012 -9.8007 -16.4406 6.4394 47.8735
#
#
#
# Elastic Compliance Matrix: (Units=1/GPa)
#
#
# Indices 1 2 3 4 5 6 
#
# 1 0.027968 -0.006993 -0.007195 0.009072 0.008445 -0.004974
# 2 -0.006993 0.009622 -0.000401 -0.008212 0.000027 0.002330
# 3 -0.007195 -0.000401 0.009740 -0.004627 -0.003017 0.001141
# 4 0.009072 -0.008212 -0.004627 0.047208 0.008778 0.009389
# 5 0.008445 0.000027 -0.003017 0.008778 0.026514 -0.001774
# 6 -0.004974 0.002330 0.001141 0.009389 -0.001774 0.026093
#
#
# Mechanical properties :
#
#
# Convention : Reuss Voigt Hill
#
# Bulk Modulus (GPa) = 55.08854 78.06074 66.57464
# Shear Modulus (GPa) = 27.41649 41.53864 34.47756
#
# Velocity S-wave (km/s) = 3.43543 4.22864 3.85251
# Velocity P-wave (km/s) = 6.28097 7.57927 6.96045
#
# Compressibility (1/GPa) = 0.01815260
#
# Stress axis : x y z
#
# Youngs Moduli (GPa) = 35.75567 103.92444 102.67215
#
# Poissons Ratio (x) = 0.72673 0.73869
# Poissons Ratio (y) = 0.25004 0.04117
# Poissons Ratio (z) = 0.25725 0.04167
#
# Static dielectric constant tensor:
#      x y z
#    x 2.008620 -0.017800 0.068720 
#    y -0.017800 1.957150 0.006150 
#    z 0.068720 0.006150 1.899730 
# 
# From -- ./inp_files/69505.got.cif
#   From: 2010.05.17/outbox.cif.g08.bks.cpg/sg2_35_cif.got.tgz:69505.got - 2010.06.03 11:33:40.
