data_PCOD9003293
_publ_section_title
;
Structure prediction by ZEFSAII (Michael W. Deem and Ramdas Pophale) SiO2 
 PCOD9003293
Probable space group: P -1
;
_chemical_formula_sum "Si O2"
_cell_formula_units_Z 12
_cell_length_a 11.716210
_cell_length_b 31.621529
_cell_length_c 5.223375
_cell_angle_alpha 59.138132
_cell_angle_beta 48.379679
_cell_angle_gamma 22.190959
_cell_volume 509.480553
_symmetry_space_group_name_H-M "P -1"
_symmetry_group_IT_number 2
_symmetry_cell_setting 'triclinic'
loop_
_space_group_symop_operation_xyz
x,y,z
-x,-y,-z
loop_
_atom_site_type_symbol
_atom_site_label
_atom_site_fract_x
_atom_site_fract_y
_atom_site_fract_z
Si Si1 0.497885 0.387943 0.410432
Si Si2 0.471067 0.284878 0.793043
Si Si3 0.261504 0.188152 0.681797
Si Si4 0.433358 0.575771 0.295737
Si Si5 0.473671 0.788573 0.568939
Si Si6 0.769454 0.960952 0.343465
O O1 0.349662 0.376406 0.641947
O O2 0.436261 0.428904 0.651276
O O3 0.383809 0.458379 0.133384
O O4 0.947610 0.254168 0.115531
O O5 0.406210 0.267803 0.706581
O O6 0.918222 0.154654 0.579287
O O7 0.339380 0.299181 0.210212
O O8 0.437920 0.181015 0.598379
O O9 0.004114 0.286925 0.533305
O O10 0.546430 0.067045 0.506130
O O11 0.500000 0.500000 0.500000
O O12 0.032465 0.908848 0.897961
O O13 0.500000 0.000000 0.500000
#
# Coordination Sequence:
#
# PCOD9003293 Si02
#       6
#     2   2   2   2   2   2
#     4  10  21  37  64  86 112 153 198 236 293 346
#     4  10  22  38  57  85 123 155 190 232 288 351
#     4  10  23  36  62  88 118 156 197 241 291 339
#     4  10  22  39  64  89 113 146 201 251 289 339
#     4  10  23  37  56  86 129 154 191 235 288 343
#     4  10  21  37  59  87 123 157 199 228 285 348
#
# _framework density 23.553401000000001
#
# number of rings (size 3 to 8) (size 9 to 14) (size 15 to 20)
#    2.000    0.000    0.000    4.000    2.333    4.667 
#    0.000    0.000    0.000    6.000    0.000    0.000 
#    0.000    0.000    0.000    0.000    0.000    0.000 
#
# Total GULP energy -67066.887909 kJ/mol
# GULP energy per Si atom -5588.907326 kJ/mol
# Density = 2.349979 g / cm^3
# Si number density = 23.553401 Si / 1000 Ang^3
#
#
#
# Elastic Constant Matrix: (Units=GPa)
#
#
# Indices 1 2 3 4 5 6 
#
# 1 168.0282 50.9360 55.9107 -10.1715 17.1020 34.0614
# 2 50.9360 91.8615 33.8971 -14.9771 -12.4322 3.0097
# 3 55.9107 33.8971 96.4506 -7.2106 5.6929 13.9673
# 4 -10.1715 -14.9771 -7.2106 35.9693 3.6400 -10.4762
# 5 17.1020 -12.4322 5.6929 3.6400 37.7966 -2.0608
# 6 34.0614 3.0097 13.9673 -10.4762 -2.0608 38.6838
#
#
#
# Elastic Compliance Matrix: (Units=1/GPa)
#
#
# Indices 1 2 3 4 5 6 
#
# 1 0.011210 -0.006178 -0.002710 -0.001948 -0.007016 -0.009312
# 2 -0.006178 0.017690 -0.003806 0.006153 0.009008 0.007584
# 3 -0.002710 -0.003806 0.013753 -0.000075 -0.002222 -0.002422
# 4 -0.001948 0.006153 -0.000075 0.032719 0.000318 0.010141
# 5 -0.007016 0.009008 -0.002222 0.000318 0.033343 0.008142
# 6 -0.009312 0.007584 -0.002422 0.010141 0.008142 0.037515
#
#
# Mechanical properties :
#
#
# Convention : Reuss Voigt Hill
#
# Bulk Modulus (GPa) = 57.91938 70.86976 64.39457
# Shear Modulus (GPa) = 28.18961 36.86306 32.52633
#
# Velocity S-wave (km/s) = 3.46329 3.96041 3.72016
# Velocity P-wave (km/s) = 6.37468 7.14614 6.77141
#
# Compressibility (1/GPa) = 0.01726538
#
# Stress axis : x y z
#
# Youngs Moduli (GPa) = 89.20821 56.53064 72.71323
#
# Poissons Ratio (x) = 0.34923 0.19705
# Poissons Ratio (y) = 0.55110 0.27672
# Poissons Ratio (z) = 0.24175 0.21514
#
# Static dielectric constant tensor:
#      x y z
#    x 1.836000 -0.078660 -0.000780 
#    y -0.078660 1.903040 0.021590 
#    z -0.000780 0.021590 1.892390 
# 
# From -- ./inp_files/43126.got.cif
#   From: 2010.05.17/outbox.cif.g08.bks.cpg/sg2_22_cif.got.tgz:43126.got - 2010.06.03 11:33:40.
