data_PCOD9003873
_publ_section_title
;
Structure prediction by ZEFSAII (Michael W. Deem and Ramdas Pophale) SiO2 
 PCOD9003873
Probable space group: P -1
;
_chemical_formula_sum "Si O2"
_cell_formula_units_Z 16
_cell_length_a 18.460268
_cell_length_b 16.504270
_cell_length_c 11.644509
_cell_angle_alpha 158.000438
_cell_angle_beta 132.410703
_cell_angle_gamma 37.749718
_cell_volume 786.543172
_symmetry_space_group_name_H-M "P -1"
_symmetry_group_IT_number 2
_symmetry_cell_setting 'triclinic'
loop_
_space_group_symop_operation_xyz
x,y,z
-x,-y,-z
loop_
_atom_site_type_symbol
_atom_site_label
_atom_site_fract_x
_atom_site_fract_y
_atom_site_fract_z
Si Si1 0.332100 0.530541 0.348664
Si Si2 0.116877 0.899380 0.067137
Si Si3 0.332922 0.013928 0.640721
Si Si4 0.902616 0.490995 0.310297
Si Si5 0.316038 0.920209 0.232872
Si Si6 0.066271 0.226188 0.641455
Si Si7 0.057258 0.005920 0.686079
Si Si8 0.508401 0.513023 0.327243
O O1 0.202113 0.825037 0.595963
O O2 0.413137 0.510212 0.302745
O O3 0.398915 0.498987 0.498448
O O4 0.313822 0.296386 0.007006
O O5 0.239919 0.794809 0.994017
O O6 0.084613 0.169103 0.450586
O O7 0.136166 0.673503 0.876804
O O8 0.000000 0.000000 0.000000
O O9 0.353220 0.933876 0.421460
O O10 0.440597 0.780823 0.528730
O O11 0.209006 0.053324 0.601744
O O12 0.000000 0.500000 0.500000
O O13 0.780907 0.779765 0.526470
O O14 0.982139 0.309450 0.047660
O O15 0.424343 0.736954 0.018030
O O16 0.981101 0.133282 0.452035
O O17 0.000000 0.500000 0.000000
O O18 0.000000 0.000000 0.500000
#
# Coordination Sequence:
#
# PCOD9003873 Si02
#       8
#     2   2   2   2   2   2   2   2
#     4  11  24  44  66  94 132 172 221 273 325 392
#     4  10  22  38  61  95 131 166 211 261 329 391
#     4  11  23  43  68  95 130 170 223 271 331 388
#     4  11  22  38  62  96 132 168 208 264 331 387
#     4  11  24  42  66  94 133 172 222 271 322 393
#     4  10  21  37  62  95 125 158 206 267 328 385
#     4  11  22  38  65  96 131 163 208 270 333 388
#     4  11  26  45  64  94 130 178 229 266 316 391
#
# _framework density 20.342177
#
# number of rings (size 3 to 8) (size 9 to 14) (size 15 to 20)
#    0.000    1.250    2.500    3.000    3.500    3.500 
#    0.000    2.500    0.000    0.000    0.000    0.000 
#    0.000    0.000    0.000    0.000    0.000    0.000 
#
# Total GULP energy -89241.132517 kJ/mol
# GULP energy per Si atom -5577.570782 kJ/mol
# Density = 2.029588 g / cm^3
# Si number density = 20.342177 Si / 1000 Ang^3
#
#
#
# Elastic Constant Matrix: (Units=GPa)
#
#
# Indices 1 2 3 4 5 6 
#
# 1 91.3841 27.5332 25.3977 13.6088 -13.5978 -3.1077
# 2 27.5332 108.1031 23.7715 8.0088 -10.6776 8.0553
# 3 25.3977 23.7715 92.7380 10.7755 -14.2699 3.2775
# 4 13.6088 8.0088 10.7755 35.0681 -1.2481 1.8205
# 5 -13.5978 -10.6776 -14.2699 -1.2481 37.8787 1.6231
# 6 -3.1077 8.0553 3.2775 1.8205 1.6231 31.5212
#
#
#
# Elastic Compliance Matrix: (Units=1/GPa)
#
#
# Indices 1 2 3 4 5 6 
#
# 1 0.013431 -0.002513 -0.002181 -0.003977 0.003064 0.002265
# 2 -0.002513 0.010671 -0.001613 -0.000762 0.001595 -0.002845
# 3 -0.002181 -0.001613 0.012663 -0.002492 0.003500 -0.001156
# 4 -0.003977 -0.000762 -0.002492 0.031032 -0.001488 -0.001654
# 5 0.003064 0.001595 0.003500 -0.001488 0.029300 -0.001892
# 6 0.002265 -0.002845 -0.001156 -0.001654 -0.001892 0.032988
#
#
# Mechanical properties :
#
#
# Convention : Reuss Voigt Hill
#
# Bulk Modulus (GPa) = 41.40370 49.51445 45.45908
# Shear Modulus (GPa) = 33.16787 35.26178 34.21482
#
# Velocity S-wave (km/s) = 4.04232 4.16797 4.10563
# Velocity P-wave (km/s) = 6.49500 6.89610 6.69855
#
# Compressibility (1/GPa) = 0.02415243
#
# Stress axis : x y z
#
# Youngs Moduli (GPa) = 74.45415 93.71139 78.97249
#
# Poissons Ratio (x) = 0.23548 0.17222
# Poissons Ratio (y) = 0.18709 0.12735
# Poissons Ratio (z) = 0.16237 0.15112
#
# Static dielectric constant tensor:
#      x y z
#    x 1.639700 -0.045630 0.012410 
#    y -0.045630 1.679140 -0.002380 
#    z 0.012410 -0.002380 1.731980 
# 
# From -- ./inp_files/472541.got.cif
#   From: 2010.05.17/outbox.cif.g08.bks.cpg/sg2_237_cif.got.tgz:472541.got - 2010.06.03 11:33:40.
