data_PCOD9003252
_publ_section_title
;
Structure prediction by ZEFSAII (Michael W. Deem and Ramdas Pophale) SiO2 
 PCOD9003252
Probable space group: P -1
;
_chemical_formula_sum "Si O2"
_cell_formula_units_Z 16
_cell_length_a 17.780335
_cell_length_b 7.143391
_cell_length_c 7.762065
_cell_angle_alpha 122.908856
_cell_angle_beta 102.607877
_cell_angle_gamma 50.003916
_cell_volume 620.797415
_symmetry_space_group_name_H-M "P -1"
_symmetry_group_IT_number 2
_symmetry_cell_setting 'triclinic'
loop_
_space_group_symop_operation_xyz
x,y,z
-x,-y,-z
loop_
_atom_site_type_symbol
_atom_site_label
_atom_site_fract_x
_atom_site_fract_y
_atom_site_fract_z
Si Si1 0.686963 0.828892 0.736392
Si Si2 0.101812 0.429686 0.168419
Si Si3 0.813037 0.671107 0.220536
Si Si4 0.935607 0.801913 0.512164
Si Si5 0.564393 0.698087 0.774644
Si Si6 0.601813 0.929685 0.363079
Si Si7 0.133683 0.894573 0.034194
Si Si8 0.366317 0.605428 0.005939
O O1 0.804594 0.665032 0.714090
O O2 0.661927 0.651595 0.736946
O O3 0.642650 0.886365 0.552719
O O4 0.632231 0.150179 0.948295
O O5 0.003362 0.729713 0.344442
O O6 0.083318 0.196498 0.064535
O O7 0.142649 0.386366 0.976295
O O8 0.838073 0.848404 0.423424
O O9 0.695407 0.834966 0.244463
O O10 0.867770 0.349820 0.165885
O O11 0.000000 0.500000 0.500000
O O12 0.905829 0.038229 0.755901
O O13 0.594171 0.461771 0.811843
O O14 0.496638 0.770287 0.611367
O O15 0.500000 0.000000 0.000000
O O16 0.583318 0.696498 0.215281
O O17 0.250000 0.750000 0.024826
#
# Coordination Sequence:
#
# PCOD9003252 Si02
#       8
#     2   2   2   2   2   2   2   2
#     4  11  21  40  60  80 119 151 181 238 285 323
#     4  10  21  37  59  85 112 150 191 230 281 338
#     4  11  21  40  60  80 119 151 181 238 285 323
#     4  10  21  38  59  86 115 146 192 234 275 340
#     4  10  21  38  59  86 115 146 192 234 275 340
#     4  10  21  37  59  85 112 150 191 230 281 338
#     4   9  20  38  58  83 114 151 190 229 281 335
#     4   9  20  38  58  83 114 151 190 229 281 335
#
# _framework density 25.773302000000001
#
# number of rings (size 3 to 8) (size 9 to 14) (size 15 to 20)
#    0.000    2.000    0.000    5.250    0.000    5.000 
#    0.000   18.750    0.000    0.000    0.000    0.000 
#    0.000    0.000    0.000    0.000    0.000    0.000 
#
# Total GULP energy -89532.868018 kJ/mol
# GULP energy per Si atom -5595.804251 kJ/mol
# Density = 2.571464 g / cm^3
# Si number density = 25.773302 Si / 1000 Ang^3
#
#
#
# Elastic Constant Matrix: (Units=GPa)
#
#
# Indices 1 2 3 4 5 6 
#
# 1 119.9727 16.5134 17.7806 2.0545 -4.1908 -9.6877
# 2 16.5134 39.6853 9.0382 -0.1836 20.4990 0.7787
# 3 17.7806 9.0382 49.8083 -8.6795 8.8186 0.7181
# 4 2.0545 -0.1836 -8.6795 35.1883 -1.4990 9.1169
# 5 -4.1908 20.4990 8.8186 -1.4990 37.8005 -11.7044
# 6 -9.6877 0.7787 0.7181 9.1169 -11.7044 27.4649
#
#
#
# Elastic Compliance Matrix: (Units=1/GPa)
#
#
# Indices 1 2 3 4 5 6 
#
# 1 0.011721 -0.009460 -0.005276 -0.004312 0.010758 0.010557
# 2 -0.009460 0.045858 0.001985 0.005138 -0.032437 -0.020218
# 3 -0.005276 0.001985 0.025042 0.008591 -0.010187 -0.009765
# 4 -0.004312 0.005138 0.008591 0.034941 -0.009285 -0.017447
# 5 0.010758 -0.032437 -0.010187 -0.009285 0.057304 0.032483
# 6 0.010557 -0.020218 -0.009765 -0.017447 0.032483 0.060597
#
#
# Mechanical properties :
#
#
# Convention : Reuss Voigt Hill
#
# Bulk Modulus (GPa) = 17.50711 32.90341 25.20526
# Shear Modulus (GPa) = 17.85694 31.16635 24.51165
#
# Velocity S-wave (km/s) = 2.63505 3.48120 3.08725
# Velocity P-wave (km/s) = 4.00818 5.38075 4.74437
#
# Compressibility (1/GPa) = 0.05711964
#
# Stress axis : x y z
#
# Youngs Moduli (GPa) = 85.31466 21.80654 39.93366
#
# Poissons Ratio (x) = 0.20629 0.21069
# Poissons Ratio (y) = 0.80706 -0.07928
# Poissons Ratio (z) = 0.45012 -0.04329
#
# Static dielectric constant tensor:
#      x y z
#    x 2.022920 -0.001670 -0.009000 
#    y -0.001670 2.025950 -0.012020 
#    z -0.009000 -0.012020 2.034380 
# 
# From -- ./inp_files/329617.got.cif
#   From: 2010.05.17/outbox.cif.g08.bks.cpg/sg2_165_cif.got.tgz:329617.got - 2010.06.03 11:33:40.
