data_PCOD9003194
_publ_section_title
;
Structure prediction by ZEFSAII (Michael W. Deem and Ramdas Pophale) SiO2 
 PCOD9003194
Probable space group: P -1
;
_chemical_formula_sum "Si O2"
_cell_formula_units_Z 16
_cell_length_a 9.923651
_cell_length_b 13.357452
_cell_length_c 9.419752
_cell_angle_alpha 77.992873
_cell_angle_beta 42.461165
_cell_angle_gamma 98.528497
_cell_volume 733.357763
_symmetry_space_group_name_H-M "P -1"
_symmetry_group_IT_number 2
_symmetry_cell_setting 'triclinic'
loop_
_space_group_symop_operation_xyz
x,y,z
-x,-y,-z
loop_
_atom_site_type_symbol
_atom_site_label
_atom_site_fract_x
_atom_site_fract_y
_atom_site_fract_z
Si Si1 0.676217 0.115798 0.409246
Si Si2 0.159382 0.635142 0.308645
Si Si3 0.618775 0.746570 0.090574
Si Si4 0.638105 0.418657 0.074358
Si Si5 0.566619 0.972468 0.107255
Si Si6 0.972617 0.112909 0.944750
Si Si7 0.540178 0.710358 0.478585
Si Si8 0.813691 0.666569 0.733206
O O1 0.646886 0.075728 0.606690
O O2 0.591268 0.212335 0.442144
O O3 0.500000 0.000000 0.500000
O O4 0.900396 0.152564 0.134690
O O5 0.386565 0.674411 0.208349
O O6 0.000000 0.500000 0.500000
O O7 0.029847 0.700343 0.457410
O O8 0.769919 0.355515 0.914120
O O9 0.641995 0.872431 0.062072
O O10 0.581912 0.687243 0.290711
O O11 0.806694 0.750384 0.835274
O O12 0.593941 0.394159 0.281200
O O13 0.397527 0.369610 0.197185
O O14 0.768453 0.551960 0.891781
O O15 0.500000 0.000000 0.000000
O O16 0.773459 0.075678 0.996321
O O17 0.211124 0.208832 0.678431
O O18 0.000000 0.000000 0.000000
#
# Coordination Sequence:
#
# PCOD9003194 Si02
#       8
#     2   2   2   2   2   2   2   2
#     4   9  19  36  59  79 119 156 195 245 292 343
#     4   9  19  39  61  80 114 157 190 238 305 353
#     4  10  21  37  58  89 120 149 197 249 299 344
#     4   9  20  37  60  86 115 152 199 242 296 356
#     4  10  22  40  61  89 123 155 198 255 295 345
#     4  11  20  41  63  84 118 168 198 234 304 358
#     4  11  22  37  60  90 118 157 201 244 294 358
#     4   9  19  38  60  84 117 153 190 250 299 351
#
# _framework density 21.817456
#
# number of rings (size 3 to 8) (size 9 to 14) (size 15 to 20)
#    0.000    2.250    3.750    0.750    0.000    8.500 
#    0.000    4.375    0.000    0.000    0.000    0.000 
#    0.000    0.000    0.000    0.000    0.000    0.000 
#
# Total GULP energy -89318.046167 kJ/mol
# GULP energy per Si atom -5582.377885 kJ/mol
# Density = 2.176780 g / cm^3
# Si number density = 21.817456 Si / 1000 Ang^3
#
#
#
# Elastic Constant Matrix: (Units=GPa)
#
#
# Indices 1 2 3 4 5 6 
#
# 1 57.0278 0.7231 33.4646 11.1960 12.8388 2.4642
# 2 0.7231 44.5334 22.5491 25.0761 3.5547 2.8338
# 3 33.4646 22.5491 123.7823 30.0057 4.8819 -15.7261
# 4 11.1960 25.0761 30.0057 40.6877 1.7523 -2.0167
# 5 12.8388 3.5547 4.8819 1.7523 36.7149 -4.0273
# 6 2.4642 2.8338 -15.7261 -2.0167 -4.0273 22.0450
#
#
#
# Elastic Compliance Matrix: (Units=1/GPa)
#
#
# Indices 1 2 3 4 5 6 
#
# 1 0.026567 0.009452 -0.008382 -0.007146 -0.010140 -0.012670
# 2 0.009452 0.039644 -0.005578 -0.023298 -0.006771 -0.013500
# 3 -0.008382 -0.005578 0.013654 -0.003884 0.003114 0.011608
# 4 -0.007146 -0.023298 -0.003884 0.043887 0.003805 0.005733
# 5 -0.010140 -0.006771 0.003114 0.003805 0.031985 0.010417
# 6 -0.012670 -0.013500 0.011608 0.005733 0.010417 0.059222
#
#
# Mechanical properties :
#
#
# Convention : Reuss Voigt Hill
#
# Bulk Modulus (GPa) = 14.11430 37.64635 25.88032
# Shear Modulus (GPa) = 20.19458 31.12996 25.66227
#
# Velocity S-wave (km/s) = 3.04569 3.78145 3.43334
# Velocity P-wave (km/s) = 4.34185 6.02979 5.25405
#
# Compressibility (1/GPa) = 0.07085015
#
# Stress axis : x y z
#
# Youngs Moduli (GPa) = 37.64045 25.22456 73.23669
#
# Poissons Ratio (x) = -0.23842 0.61386
# Poissons Ratio (y) = -0.35578 0.40849
# Poissons Ratio (z) = 0.31550 0.14069
#
# Static dielectric constant tensor:
#      x y z
#    x 1.791710 0.011660 -0.005360 
#    y 0.011660 1.829710 0.016480 
#    z -0.005360 0.016480 1.812600 
# 
# From -- ./inp_files/206676.got.cif
#   From: 2010.05.17/outbox.cif.g08.bks.cpg/sg2_104_cif.got.tgz:206676.got - 2010.06.03 11:33:40.
