data_PCOD9003870
_publ_section_title
;
Structure prediction by ZEFSAII (Michael W. Deem and Ramdas Pophale) SiO2 
 PCOD9003870
Probable space group: P -1
;
_chemical_formula_sum "Si O2"
_cell_formula_units_Z 16
_cell_length_a 15.478158
_cell_length_b 5.084260
_cell_length_c 16.150015
_cell_angle_alpha 44.275965
_cell_angle_beta 48.115577
_cell_angle_gamma 72.560974
_cell_volume 620.456802
_symmetry_space_group_name_H-M "P -1"
_symmetry_group_IT_number 2
_symmetry_cell_setting 'triclinic'
loop_
_space_group_symop_operation_xyz
x,y,z
-x,-y,-z
loop_
_atom_site_type_symbol
_atom_site_label
_atom_site_fract_x
_atom_site_fract_y
_atom_site_fract_z
Si Si1 0.364886 0.534562 0.459800
Si Si2 0.808343 0.503748 0.265617
Si Si3 0.750551 0.444655 0.965205
Si Si4 0.050830 0.550528 0.050016
Si Si5 0.854858 0.822718 0.649377
Si Si6 0.712754 0.401603 0.672990
Si Si7 0.611235 0.490330 0.278566
Si Si8 0.484663 0.550444 0.831785
O O1 0.271268 0.497455 0.602254
O O2 0.298511 0.347098 0.458838
O O3 0.484227 0.406306 0.429900
O O4 0.426278 0.015017 0.292357
O O5 0.712952 0.335496 0.288992
O O6 0.927241 0.369459 0.224727
O O7 0.879086 0.974507 0.092182
O O8 0.845208 0.611738 0.943271
O O9 0.824666 0.524556 0.814395
O O10 0.639123 0.623686 0.995958
O O11 0.676766 0.971503 0.126323
O O12 0.000000 0.500000 0.000000
O O13 0.789625 0.627722 0.650854
O O14 0.789692 0.135793 0.649356
O O15 0.000000 0.000000 0.500000
O O16 0.569094 0.282341 0.821407
O O17 0.568656 0.364364 0.241501
#
# Coordination Sequence:
#
# PCOD9003870 Si02
#       8
#     2   2   2   2   2   2   2   2
#     4  10  21  39  66  98 136 175 221 284 334 400
#     4  10  21  37  62  94 134 178 225 271 337 402
#     4  10  24  41  66  96 135 175 226 281 344 393
#     4  10  22  40  61  95 134 179 225 271 331 411
#     4  12  28  48  70 102 135 182 225 282 335 410
#     4  11  25  48  70 101 138 170 235 277 340 399
#     4   9  20  39  61  98 136 170 224 279 337 405
#     4  10  21  42  67  99 136 174 224 282 339 404
#
# _framework density 25.787451000000001
#
# number of rings (size 3 to 8) (size 9 to 14) (size 15 to 20)
#    0.000    1.750    1.250    1.500    3.500    4.500 
#    0.000    0.000    0.000    0.000    0.000    0.000 
#    0.000    0.000    0.000    0.000    0.000    0.000 
#
# Total GULP energy -89491.971367 kJ/mol
# GULP energy per Si atom -5593.248210 kJ/mol
# Density = 2.572876 g / cm^3
# Si number density = 25.787451 Si / 1000 Ang^3
#
#
#
# Elastic Constant Matrix: (Units=GPa)
#
#
# Indices 1 2 3 4 5 6 
#
# 1 175.9124 49.0846 72.3501 16.4971 -24.6595 16.8749
# 2 49.0846 98.8330 27.4523 26.1526 -13.0157 4.5878
# 3 72.3501 27.4523 168.4431 43.9657 -40.7889 -2.9906
# 4 16.4971 26.1526 43.9657 41.7955 -8.9394 1.1280
# 5 -24.6595 -13.0157 -40.7889 -8.9394 43.2997 10.5802
# 6 16.8749 4.5878 -2.9906 1.1280 10.5802 56.1361
#
#
#
# Elastic Compliance Matrix: (Units=1/GPa)
#
#
# Indices 1 2 3 4 5 6 
#
# 1 0.008322 -0.003625 -0.003392 0.003002 0.001752 -0.002777
# 2 -0.003625 0.014061 0.002257 -0.009215 0.002438 -0.000213
# 3 -0.003392 0.002257 0.011626 -0.010724 0.007418 0.000272
# 4 0.003002 -0.009215 -0.010724 0.039209 -0.002829 -0.000975
# 5 0.001752 0.002438 0.007418 -0.002829 0.032808 -0.006457
# 6 -0.002777 -0.000213 0.000272 -0.000975 -0.006457 0.019917
#
#
# Mechanical properties :
#
#
# Convention : Reuss Voigt Hill
#
# Bulk Modulus (GPa) = 40.83523 82.32917 61.58220
# Shear Modulus (GPa) = 34.81280 47.86636 41.33958
#
# Velocity S-wave (km/s) = 3.67821 4.31302 4.00820
# Velocity P-wave (km/s) = 5.82311 7.53646 6.73450
#
# Compressibility (1/GPa) = 0.02448866
#
# Stress axis : x y z
#
# Youngs Moduli (GPa) = 120.16606 71.11920 86.01402
#
# Poissons Ratio (x) = 0.25784 0.29176
# Poissons Ratio (y) = 0.43565 -0.19416
# Poissons Ratio (z) = 0.40760 -0.16054
#
# Static dielectric constant tensor:
#      x y z
#    x 2.020000 -0.049430 0.029310 
#    y -0.049430 2.097660 -0.051670 
#    z 0.029310 -0.051670 2.051140 
# 
# From -- ./inp_files/127447.got.cif
#   From: 2010.05.17/outbox.cif.g08.bks.cpg/sg2_64_cif.got.tgz:127447.got - 2010.06.03 11:33:40.
