data_PCOD9003548
_publ_section_title
;
Structure prediction by ZEFSAII (Michael W. Deem and Ramdas Pophale) SiO2 
 PCOD9003548
Probable space group: P -1
;
_chemical_formula_sum "Si O2"
_cell_formula_units_Z 14
_cell_length_a 25.490919
_cell_length_b 11.421741
_cell_length_c 6.085087
_cell_angle_alpha 127.677123
_cell_angle_beta 41.720390
_cell_angle_gamma 148.555373
_cell_volume 613.405489
_symmetry_space_group_name_H-M "P -1"
_symmetry_group_IT_number 2
_symmetry_cell_setting 'triclinic'
loop_
_space_group_symop_operation_xyz
x,y,z
-x,-y,-z
loop_
_atom_site_type_symbol
_atom_site_label
_atom_site_fract_x
_atom_site_fract_y
_atom_site_fract_z
Si Si1 0.851966 0.139950 0.485220
Si Si2 0.592898 0.107557 0.135097
Si Si3 0.741723 0.526031 0.395017
Si Si4 0.040653 0.443139 0.620329
Si Si5 0.033446 0.203798 0.721793
Si Si6 0.379600 0.372972 0.363869
Si Si7 0.556796 0.309327 0.118073
O O1 0.875982 0.338188 0.544981
O O2 0.926006 0.233886 0.590584
O O3 0.714786 0.894992 0.646800
O O4 0.918803 0.125699 0.088763
O O5 0.712070 0.334312 0.137252
O O6 0.565859 0.196765 0.145597
O O7 0.500000 0.000000 0.500000
O O8 0.564686 0.909886 0.884346
O O9 0.876441 0.699877 0.250741
O O10 0.698657 0.605913 0.480378
O O11 0.662558 0.431426 0.754372
O O12 0.088195 0.375927 0.544748
O O13 0.000000 0.500000 0.000000
O O14 0.000000 0.000000 0.500000
O O15 0.424243 0.508149 0.609715
O O16 0.500000 0.500000 0.000000
#
# Coordination Sequence:
#
# PCOD9003548 Si02
#       7
#     2   2   2   2   2   2   2
#     4  10  22  44  67  93 133 173 215 269 325 389
#     4   8  16  34  57  84 123 160 204 264 320 384
#     4  10  21  37  60  95 126 158 215 270 326 388
#     4   9  21  43  66  95 131 172 218 262 326 397
#     4  11  22  38  68 102 130 164 211 275 336 390
#     4  11  24  41  62  91 129 176 224 264 315 390
#     4   9  18  37  59  82 121 165 208 265 321 370
#
# _framework density 22.823402000000002
#
# number of rings (size 3 to 8) (size 9 to 14) (size 15 to 20)
#    0.000    2.286    0.000    1.714    0.000    6.286 
#    0.000   34.286    0.000    0.000    0.000    0.000 
#    0.000    0.000    0.000    0.000    0.000    0.000 
#
# Total GULP energy -78134.917069 kJ/mol
# GULP energy per Si atom -5581.065505 kJ/mol
# Density = 2.277145 g / cm^3
# Si number density = 22.823402 Si / 1000 Ang^3
#
#
#
# Elastic Constant Matrix: (Units=GPa)
#
#
# Indices 1 2 3 4 5 6 
#
# 1 113.3344 45.5359 34.9747 2.0527 -7.2581 2.1222
# 2 45.5359 168.3965 39.3402 19.2873 -4.2058 37.0789
# 3 34.9747 39.3402 84.0088 13.9169 1.3737 15.3578
# 4 2.0527 19.2873 13.9169 39.4874 6.8442 14.9780
# 5 -7.2581 -4.2058 1.3737 6.8442 37.8848 4.2159
# 6 2.1222 37.0789 15.3578 14.9780 4.2159 36.2195
#
#
#
# Elastic Compliance Matrix: (Units=1/GPa)
#
#
# Indices 1 2 3 4 5 6 
#
# 1 0.011288 -0.002930 -0.004127 0.000664 0.001462 0.003643
# 2 -0.002930 0.009018 -0.001364 -0.000899 0.001574 -0.008293
# 3 -0.004127 -0.001364 0.015435 -0.003117 -0.000543 -0.003555
# 4 0.000664 -0.000899 -0.003117 0.031502 -0.004403 -0.010312
# 5 0.001462 0.001574 -0.000543 -0.004403 0.027989 -0.002904
# 6 0.003643 -0.008293 -0.003555 -0.010312 -0.002904 0.041996
#
#
# Mechanical properties :
#
#
# Convention : Reuss Voigt Hill
#
# Bulk Modulus (GPa) = 52.91280 67.27124 60.09202
# Shear Modulus (GPa) = 31.17821 39.11094 35.14457
#
# Velocity S-wave (km/s) = 3.70004 4.14410 3.92835
# Velocity P-wave (km/s) = 6.44109 7.24132 6.85289
#
# Compressibility (1/GPa) = 0.01889902
#
# Stress axis : x y z
#
# Youngs Moduli (GPa) = 88.59280 110.89499 64.78578
#
# Poissons Ratio (x) = 0.32490 0.26738
# Poissons Ratio (y) = 0.25956 0.08836
# Poissons Ratio (z) = 0.36564 0.15124
#
# Static dielectric constant tensor:
#      x y z
#    x 1.926070 -0.025030 -0.018990 
#    y -0.025030 1.905090 -0.013270 
#    z -0.018990 -0.013270 1.734430 
# 
# From -- ./inp_files/126923.got.cif
#   From: 2010.05.17/outbox.cif.g08.bks.cpg/sg2_64_cif.got.tgz:126923.got - 2010.06.03 11:33:40.
