data_PCOD9003750
_publ_section_title
;
Structure prediction by ZEFSAII (Michael W. Deem and Ramdas Pophale) SiO2 
 PCOD9003750
Probable space group: P -1
;
_chemical_formula_sum "Si O2"
_cell_formula_units_Z 16
_cell_length_a 13.909542
_cell_length_b 13.953057
_cell_length_c 11.730612
_cell_angle_alpha 150.636106
_cell_angle_beta 53.863676
_cell_angle_gamma 137.787981
_cell_volume 739.235489
_symmetry_space_group_name_H-M "P -1"
_symmetry_group_IT_number 2
_symmetry_cell_setting 'triclinic'
loop_
_space_group_symop_operation_xyz
x,y,z
-x,-y,-z
loop_
_atom_site_type_symbol
_atom_site_label
_atom_site_fract_x
_atom_site_fract_y
_atom_site_fract_z
Si Si1 0.814637 0.183242 0.366955
Si Si2 0.572538 0.045802 0.208046
Si Si3 0.168949 0.119284 0.524486
Si Si4 0.092618 0.304369 0.169967
Si Si5 0.389055 0.583155 0.962380
Si Si6 0.342474 0.440835 0.317517
Si Si7 0.777431 0.849583 0.232184
Si Si8 0.639562 0.770392 0.706315
O O1 0.872898 0.446197 0.642824
O O2 0.950203 0.194393 0.231235
O O3 0.709882 0.130482 0.280730
O O4 0.739523 0.983412 0.309415
O O5 0.581490 0.281770 0.419468
O O6 0.438191 0.847909 0.175368
O O7 0.586628 0.921657 0.958606
O O8 0.258598 0.403758 0.782008
O O9 0.191789 0.038728 0.548088
O O10 0.255911 0.103385 0.343641
O O11 0.000000 0.000000 0.500000
O O12 0.224838 0.365500 0.223815
O O13 0.086615 0.140751 0.904698
O O14 0.530307 0.586155 0.837194
O O15 0.336238 0.436730 0.965793
O O16 0.276124 0.275369 0.303221
O O17 0.500000 0.500000 0.500000
#
# Coordination Sequence:
#
# PCOD9003750 Si02
#       8
#     2   2   2   2   2   2   2   2
#     4  10  22  38  58  88 114 143 195 242 285 350
#     4  10  21  37  62  86 112 152 194 242 289 332
#     4  10  23  39  59  88 120 156 194 236 291 347
#     4  10  22  38  58  88 114 143 195 242 285 350
#     4   9  21  39  54  86 119 141 198 236 276 354
#     4  10  21  37  62  86 112 152 194 242 289 332
#     4  10  21  38  60  79 114 158 178 235 298 337
#     4  11  20  41  59  86 118 151 200 245 270 352
#
# _framework density 21.643982999999999
#
# number of rings (size 3 to 8) (size 9 to 14) (size 15 to 20)
#    0.750    1.250    2.500    1.875    3.500    3.500 
#    0.000    3.750    0.000    5.250    0.000    0.000 
#    0.000    0.000    0.000    0.000    0.000    0.000 
#
# Total GULP energy -89221.819272 kJ/mol
# GULP energy per Si atom -5576.363705 kJ/mol
# Density = 2.159472 g / cm^3
# Si number density = 21.643983 Si / 1000 Ang^3
#
#
#
# Elastic Constant Matrix: (Units=GPa)
#
#
# Indices 1 2 3 4 5 6 
#
# 1 57.4694 31.7900 12.0568 -11.8419 0.7536 -0.5883
# 2 31.7900 93.1286 29.3565 -7.1001 -1.6680 -12.3867
# 3 12.0568 29.3565 53.3283 7.0871 -11.1928 -23.2517
# 4 -11.8419 -7.1001 7.0871 33.4121 -3.8695 6.9995
# 5 0.7536 -1.6680 -11.1928 -3.8695 21.2467 7.0355
# 6 -0.5883 -12.3867 -23.2517 6.9995 7.0355 41.4439
#
#
#
# Elastic Compliance Matrix: (Units=1/GPa)
#
#
# Indices 1 2 3 4 5 6 
#
# 1 0.024265 -0.006441 -0.006307 0.009889 -0.000678 -0.006674
# 2 -0.006441 0.015573 -0.007856 0.002397 -0.002298 0.000141
# 3 -0.006307 -0.007856 0.036812 -0.014517 0.010079 0.018956
# 4 0.009889 0.002397 -0.014517 0.040676 0.004541 -0.014928
# 5 -0.000678 -0.002298 0.010079 0.004541 0.054735 -0.005101
# 6 -0.006674 0.000141 0.018956 -0.014928 -0.005101 0.038099
#
#
# Mechanical properties :
#
#
# Convention : Reuss Voigt Hill
#
# Bulk Modulus (GPa) = 28.21451 38.92588 33.57020
# Shear Modulus (GPa) = 18.99830 27.93541 23.46685
#
# Velocity S-wave (km/s) = 2.96592 3.59650 3.29632
# Velocity P-wave (km/s) = 4.97925 5.93886 5.48010
#
# Compressibility (1/GPa) = 0.03544275
#
# Stress axis : x y z
#
# Youngs Moduli (GPa) = 41.21225 64.21263 27.16496
#
# Poissons Ratio (x) = 0.41358 0.17132
# Poissons Ratio (y) = 0.26544 0.21342
# Poissons Ratio (z) = 0.25991 0.50447
#
# Static dielectric constant tensor:
#      x y z
#    x 1.786310 -0.034950 0.026910 
#    y -0.034950 1.851030 0.017330 
#    z 0.026910 0.017330 1.830460 
# 
# From -- ./inp_files/455230.got.cif
#   From: 2010.05.17/outbox.cif.g08.bks.cpg/sg2_228_cif.got.tgz:455230.got - 2010.06.03 11:33:40.
