data_PCOD9003834
_publ_section_title
;
Structure prediction by ZEFSAII (Michael W. Deem and Ramdas Pophale) SiO2 
 PCOD9003834
Probable space group: P -1
;
_chemical_formula_sum "Si O2"
_cell_formula_units_Z 15
_cell_length_a 16.981739
_cell_length_b 8.193194
_cell_length_c 5.583474
_cell_angle_alpha 58.850349
_cell_angle_beta 92.538189
_cell_angle_gamma 103.830076
_cell_volume 642.621675
_symmetry_space_group_name_H-M "P -1"
_symmetry_group_IT_number 2
_symmetry_cell_setting 'triclinic'
loop_
_space_group_symop_operation_xyz
x,y,z
-x,-y,-z
loop_
_atom_site_type_symbol
_atom_site_label
_atom_site_fract_x
_atom_site_fract_y
_atom_site_fract_z
Si Si1 0.683798 0.108915 0.948222
Si Si2 0.026113 0.689827 0.698980
Si Si3 0.069616 0.074615 0.750687
Si Si4 0.465651 0.057161 0.203120
Si Si5 0.500000 0.500000 0.000000
Si Si6 0.755649 0.860378 0.443672
Si Si7 0.200171 0.747138 0.514748
Si Si8 0.682933 0.457728 0.027706
O O1 0.773658 0.204089 0.791157
O O2 0.661119 0.272458 0.983342
O O3 0.628631 0.056985 0.746267
O O4 0.682871 0.910750 0.241993
O O5 0.103887 0.668968 0.577134
O O6 0.953545 0.733445 0.502737
O O7 0.052811 0.887874 0.711716
O O8 0.000000 0.500000 0.000000
O O9 0.168196 0.135674 0.727344
O O10 0.000000 0.000000 0.000000
O O11 0.500000 0.000000 0.500000
O O12 0.478195 0.287698 0.034356
O O13 0.500000 0.000000 0.000000
O O14 0.595920 0.478147 0.093307
O O15 0.726118 0.657952 0.738365
O O16 0.779374 0.047798 0.485546
O O17 0.251749 0.600897 0.739464
#
# Coordination Sequence:
#
# PCOD9003834 Si02
#       8
#     2   2   2   2   1   2   2   2
#     4  11  24  43  66  95 135 178 228 289 358 421
#     4  10  21  37  62  92 128 174 220 276 344 411
#     4  10  21  38  61  95 130 167 222 276 335 417
#     4  12  28  49  74 106 146 186 243 308 362 437
#     4  12  26  46  74 100 140 188 242 298 370 430
#     4  10  23  41  64  94 131 174 221 282 352 416
#     4  10  22  42  61  91 135 175 220 289 349 418
#     4  11  24  42  66  97 131 178 236 287 354 426
#
# _framework density 23.341884
#
# number of rings (size 3 to 8) (size 9 to 14) (size 15 to 20)
#    0.000    1.333    1.333    3.200    3.733    5.333 
#    0.000    0.000    0.000    0.000    0.000    0.000 
#    0.000    0.000    0.000    0.000    0.000    0.000 
#
# Total GULP energy -83543.197674 kJ/mol
# GULP energy per Si atom -5569.546512 kJ/mol
# Density = 2.328876 g / cm^3
# Si number density = 23.341884 Si / 1000 Ang^3
#
#
#
# Elastic Constant Matrix: (Units=GPa)
#
#
# Indices 1 2 3 4 5 6 
#
# 1 125.8604 39.8378 32.2761 -18.4663 14.1950 -40.1067
# 2 39.8378 97.2317 39.2573 -16.1153 16.8645 -24.8087
# 3 32.2761 39.2573 113.9161 -32.0368 21.4970 -25.9145
# 4 -18.4663 -16.1153 -32.0368 36.6160 -7.1235 0.1223
# 5 14.1950 16.8645 21.4970 -7.1235 41.5716 0.5047
# 6 -40.1067 -24.8087 -25.9145 0.1223 0.5047 36.2325
#
#
#
# Elastic Compliance Matrix: (Units=1/GPa)
#
#
# Indices 1 2 3 4 5 6 
#
# 1 0.015483 -0.000223 0.004233 0.010202 -0.005880 0.020061
# 2 -0.000223 0.014662 -0.000548 0.004883 -0.004867 0.009452
# 3 0.004233 -0.000548 0.017456 0.015596 -0.007782 0.016851
# 4 0.010202 0.004883 0.015596 0.047040 -0.005781 0.025713
# 5 -0.005880 -0.004867 -0.007782 -0.005781 0.031262 -0.015823
# 6 0.020061 0.009452 0.016851 0.025713 -0.015823 0.068463
#
#
# Mechanical properties :
#
#
# Convention : Reuss Voigt Hill
#
# Bulk Modulus (GPa) = 18.34050 62.19452 40.26751
# Shear Modulus (GPa) = 24.31688 37.92650 31.12169
#
# Velocity S-wave (km/s) = 3.23115 4.03529 3.65540
# Velocity P-wave (km/s) = 4.66849 6.95804 5.92491
#
# Compressibility (1/GPa) = 0.05452413
#
# Stress axis : x y z
#
# Youngs Moduli (GPa) = 64.58613 68.20164 57.28715
#
# Poissons Ratio (x) = 0.01523 -0.24247
# Poissons Ratio (y) = 0.01442 0.03139
# Poissons Ratio (z) = -0.27336 0.03737
#
# Static dielectric constant tensor:
#      x y z
#    x 1.981780 -0.063300 -0.133690 
#    y -0.063300 2.455190 0.932270 
#    z -0.133690 0.932270 3.164360 
# 
# From -- ./inp_files/106112.got.cif
#   From: 2010.05.17/outbox.cif.g08.bks.cpg/sg2_54_cif.got.tgz:106112.got - 2010.06.03 11:33:40.
