data_PCOD9003808
_publ_section_title
;
Structure prediction by ZEFSAII (Michael W. Deem and Ramdas Pophale) SiO2 
 PCOD9003808
Probable space group: P -1
;
_chemical_formula_sum "Si O2"
_cell_formula_units_Z 14
_cell_length_a 8.926144
_cell_length_b 10.606172
_cell_length_c 9.686009
_cell_angle_alpha 52.585049
_cell_angle_beta 91.624736
_cell_angle_gamma 103.099785
_cell_volume 702.252832
_symmetry_space_group_name_H-M "P -1"
_symmetry_group_IT_number 2
_symmetry_cell_setting 'triclinic'
loop_
_space_group_symop_operation_xyz
x,y,z
-x,-y,-z
loop_
_atom_site_type_symbol
_atom_site_label
_atom_site_fract_x
_atom_site_fract_y
_atom_site_fract_z
Si Si1 0.157201 0.461818 0.575392
Si Si2 0.676580 0.546157 0.682751
Si Si3 0.693319 0.992068 0.692170
Si Si4 0.447844 0.663608 0.935503
Si Si5 0.379703 0.690961 0.612531
Si Si6 0.840725 0.910739 0.481940
Si Si7 0.972889 0.919660 0.202137
O O1 0.285222 0.515860 0.422735
O O2 0.225099 0.556998 0.650667
O O3 0.114745 0.267140 0.710897
O O4 0.000000 0.500000 0.500000
O O5 0.523054 0.614012 0.633042
O O6 0.810588 0.712532 0.610558
O O7 0.657279 0.404228 0.890440
O O8 0.589874 0.821992 0.867129
O O9 0.717182 0.948049 0.560844
O O10 0.614383 0.142210 0.580950
O O11 0.859220 0.052908 0.734873
O O12 0.373460 0.714315 0.761370
O O13 0.500000 0.500000 0.000000
O O14 0.862399 0.969114 0.284256
O O15 0.000000 0.000000 0.500000
O O16 0.000000 0.000000 0.000000
#
# Coordination Sequence:
#
# PCOD9003808 Si02
#       7
#     2   2   2   2   2   2   2
#     4  11  23  45  62  87 128 165 207 251 312 366
#     4  10  22  41  62  93 119 166 204 250 312 361
#     4  11  20  40  60  93 125 159 205 255 310 367
#     4  10  21  37  62  91 123 157 206 253 299 363
#     4  11  22  38  65  91 125 164 199 254 310 368
#     4   9  19  36  63  84 123 159 203 249 309 358
#     4  10  23  39  64  87 122 166 209 255 302 367
#
# _framework density 19.935839999999999
#
# number of rings (size 3 to 8) (size 9 to 14) (size 15 to 20)
#    0.000    1.714    4.286    0.857    4.000    0.000 
#    2.571    1.429    0.000    0.000    0.000    0.000 
#    0.000    0.000    0.000    0.000    0.000    0.000 
#
# Total GULP energy -78016.257422 kJ/mol
# GULP energy per Si atom -5572.589816 kJ/mol
# Density = 1.989047 g / cm^3
# Si number density = 19.935840 Si / 1000 Ang^3
#
#
#
# Elastic Constant Matrix: (Units=GPa)
#
#
# Indices 1 2 3 4 5 6 
#
# 1 43.1936 5.3677 30.0067 1.8234 -4.6797 7.1978
# 2 5.3677 69.7281 20.2453 -9.6746 -3.5953 23.5458
# 3 30.0067 20.2453 131.5679 1.3056 -23.6545 -0.9022
# 4 1.8234 -9.6746 1.3056 27.0347 0.4808 -5.6468
# 5 -4.6797 -3.5953 -23.6545 0.4808 28.0713 0.1172
# 6 7.1978 23.5458 -0.9022 -5.6468 0.1172 36.9148
#
#
#
# Elastic Compliance Matrix: (Units=1/GPa)
#
#
# Indices 1 2 3 4 5 6 
#
# 1 0.029113 0.001967 -0.007116 -0.002464 -0.000818 -0.007479
# 2 0.001967 0.020167 -0.003731 0.004631 -0.000260 -0.012629
# 3 -0.007116 -0.003731 0.011234 -0.000720 0.007798 0.003907
# 4 -0.002464 0.004631 -0.000720 0.039614 -0.001118 0.003572
# 5 -0.000818 -0.000260 0.007798 -0.001118 0.042043 0.000211
# 6 -0.007479 -0.012629 0.003907 0.003572 0.000211 0.037244
#
#
# Mechanical properties :
#
#
# Convention : Reuss Voigt Hill
#
# Bulk Modulus (GPa) = 23.39075 39.52545 31.45810
# Shear Modulus (GPa) = 23.64889 30.99546 27.32218
#
# Velocity S-wave (km/s) = 3.44793 3.94732 3.70605
# Velocity P-wave (km/s) = 5.25447 6.37531 5.84183
#
# Compressibility (1/GPa) = 0.04275194
#
# Stress axis : x y z
#
# Youngs Moduli (GPa) = 34.34942 49.58599 89.01790
#
# Poissons Ratio (x) = -0.09752 0.63347
# Poissons Ratio (y) = -0.06755 0.33213
# Poissons Ratio (z) = 0.24444 0.18501
#
# Static dielectric constant tensor:
#      x y z
#    x 1.838650 -0.204830 0.054750 
#    y -0.204830 2.197090 -0.134880 
#    z 0.054750 -0.134880 1.786010 
# 
# From -- ./inp_files/174476.got.cif
#   From: 2010.05.17/outbox.cif.g08.bks.cpg/sg2_88_cif.got.tgz:174476.got - 2010.06.03 11:33:40.
