data_PCOD9003772
_publ_section_title
;
Structure prediction by ZEFSAII (Michael W. Deem and Ramdas Pophale) SiO2 
 PCOD9003772
Probable space group: P -1
;
_chemical_formula_sum "Si O2"
_cell_formula_units_Z 12
_cell_length_a 6.878228
_cell_length_b 8.541121
_cell_length_c 9.215536
_cell_angle_alpha 99.793913
_cell_angle_beta 86.303192
_cell_angle_gamma 123.213530
_cell_volume 446.075903
_symmetry_space_group_name_H-M "P -1"
_symmetry_group_IT_number 2
_symmetry_cell_setting 'triclinic'
loop_
_space_group_symop_operation_xyz
x,y,z
-x,-y,-z
loop_
_atom_site_type_symbol
_atom_site_label
_atom_site_fract_x
_atom_site_fract_y
_atom_site_fract_z
Si Si1 0.326560 0.172075 0.119973
Si Si2 0.850585 0.085938 0.483443
Si Si3 0.726736 0.576778 0.598465
Si Si4 0.089949 0.271863 0.941916
Si Si5 0.496812 0.984988 0.249027
Si Si6 0.874586 0.415195 0.804257
O O1 0.281431 0.281453 0.264564
O O2 0.530641 0.148355 0.165981
O O3 0.309583 0.268937 0.989215
O O4 0.114354 0.950017 0.088813
O O5 0.666661 0.028261 0.611565
O O6 0.041529 0.306108 0.488832
O O7 0.722087 0.020134 0.324199
O O8 0.000000 0.000000 0.500000
O O9 0.500000 0.500000 0.500000
O O10 0.760535 0.430513 0.664068
O O11 0.078848 0.373480 0.811959
O O12 0.058577 0.397197 0.082050
O O13 0.343699 0.780261 0.150838
#
# Coordination Sequence:
#
# PCOD9003772 Si02
#       6
#     2   2   2   2   2   2
#     4   9  17  35  61  89 111 162 203 240 298 353
#     4  11  22  38  58  87 129 160 196 238 298 374
#     4  11  22  36  59  93 126 154 197 248 304 354
#     4   8  16  33  62  84 114 159 203 247 292 340
#     4  10  21  37  62  89 117 164 198 236 307 355
#     4   9  18  34  58  92 114 155 203 249 294 346
#
# _framework density 26.901253000000001
#
# number of rings (size 3 to 8) (size 9 to 14) (size 15 to 20)
#    0.000    2.333    1.667    1.000    2.333    0.667 
#    0.000    0.000    0.000   38.000    0.000    0.000 
#    0.000    0.000    0.000    0.000    0.000    0.000 
#
# Total GULP energy -67058.834011 kJ/mol
# GULP energy per Si atom -5588.236168 kJ/mol
# Density = 2.684002 g / cm^3
# Si number density = 26.901253 Si / 1000 Ang^3
#
#
#
# Elastic Constant Matrix: (Units=GPa)
#
#
# Indices 1 2 3 4 5 6 
#
# 1 130.8052 56.1405 79.6527 -13.4688 35.3864 -30.4062
# 2 56.1405 126.6795 57.5972 -12.8096 28.0321 -36.9387
# 3 79.6527 57.5972 172.3246 -12.3573 60.3596 -24.0618
# 4 -13.4688 -12.8096 -12.3573 65.3858 -22.8420 15.4662
# 5 35.3864 28.0321 60.3596 -22.8420 56.6621 -11.9033
# 6 -30.4062 -36.9387 -24.0618 15.4662 -11.9033 46.0924
#
#
#
# Elastic Compliance Matrix: (Units=1/GPa)
#
#
# Indices 1 2 3 4 5 6 
#
# 1 0.012270 -0.002186 -0.003766 -0.000184 -0.001810 0.003971
# 2 -0.002186 0.011908 -0.001377 -0.000712 -0.001846 0.007145
# 3 -0.003766 -0.001377 0.011422 -0.002540 -0.010024 0.000639
# 4 -0.000184 -0.000712 -0.002540 0.019471 0.009755 -0.006032
# 5 -0.001810 -0.001846 -0.010024 0.009755 0.033787 -0.002454
# 6 0.003971 0.007145 0.000639 -0.006032 -0.002454 0.031765
#
#
# Mechanical properties :
#
#
# Convention : Reuss Voigt Hill
#
# Bulk Modulus (GPa) = 47.74616 90.73223 69.23920
# Shear Modulus (GPa) = 35.14658 49.38932 42.26795
#
# Velocity S-wave (km/s) = 3.61848 4.28945 3.96817
# Velocity P-wave (km/s) = 5.93676 7.63764 6.84027
#
# Compressibility (1/GPa) = 0.02094409
#
# Stress axis : x y z
#
# Youngs Moduli (GPa) = 81.50035 83.97368 87.55118
#
# Poissons Ratio (x) = 0.18354 0.32969
# Poissons Ratio (y) = 0.17813 0.12054
# Poissons Ratio (z) = 0.30690 0.11562
#
# Static dielectric constant tensor:
#      x y z
#    x 2.167900 -0.006140 0.022520 
#    y -0.006140 2.068210 0.000200 
#    z 0.022520 0.000200 2.202770 
# 
# From -- ./inp_files/213669.got.cif
#   From: 2010.05.17/outbox.cif.g08.bks.cpg/sg2_107_cif.got.tgz:213669.got - 2010.06.03 11:33:40.
