data_PCOD9003143
_publ_section_title
;
Structure prediction by ZEFSAII (Michael W. Deem and Ramdas Pophale) SiO2 
 PCOD9003143
Probable space group: P -1
;
_chemical_formula_sum "Si O2"
_cell_formula_units_Z 14
_cell_length_a 7.120340
_cell_length_b 15.979002
_cell_length_c 7.715427
_cell_angle_alpha 119.955104
_cell_angle_beta 51.155290
_cell_angle_gamma 94.882719
_cell_volume 557.510037
_symmetry_space_group_name_H-M "P -1"
_symmetry_group_IT_number 2
_symmetry_cell_setting 'triclinic'
loop_
_space_group_symop_operation_xyz
x,y,z
-x,-y,-z
loop_
_atom_site_type_symbol
_atom_site_label
_atom_site_fract_x
_atom_site_fract_y
_atom_site_fract_z
Si Si1 0.623491 0.394858 0.210479
Si Si2 0.841042 0.093448 0.309604
Si Si3 0.702771 0.298667 0.411148
Si Si4 0.708485 0.847221 0.705076
Si Si5 0.294639 0.984085 0.353245
Si Si6 0.866117 0.637003 0.569656
Si Si7 0.274097 0.483563 0.001187
O O1 0.500000 0.500000 0.500000
O O2 0.739733 0.308283 0.194981
O O3 0.401645 0.367042 0.206967
O O4 0.798102 0.426579 0.008231
O O5 0.713870 0.188856 0.356578
O O6 0.045586 0.129957 0.336005
O O7 0.673596 0.059137 0.513999
O O8 0.000000 0.000000 0.000000
O O9 0.426003 0.376936 0.713375
O O10 0.933232 0.330327 0.396803
O O11 0.663386 0.909058 0.613065
O O12 0.774246 0.726098 0.567860
O O13 0.476355 0.903127 0.029053
O O14 0.000000 0.000000 0.500000
O O15 0.018884 0.519903 0.299194
O O16 0.500000 0.500000 0.000000
#
# Coordination Sequence:
#
# PCOD9003143 Si02
#       7
#     2   2   2   2   2   2   2
#     4  10  22  38  59  86 118 156 199 243 297 356
#     4  10  21  37  58  85 122 157 196 253 300 345
#     4   9  21  39  57  88 122 157 201 241 298 360
#     4   9  20  37  59  89 116 158 206 236 300 363
#     4   9  19  37  59  82 118 155 198 250 292 353
#     4  10  21  39  62  87 121 156 195 248 293 354
#     4   9  20  38  60  86 119 156 198 242 298 357
#
# _framework density 25.111656
#
# number of rings (size 3 to 8) (size 9 to 14) (size 15 to 20)
#    0.000    2.571    0.000    0.000    0.000   17.143 
#    0.000    7.143    0.000    1.714    0.000    0.000 
#    0.000    0.000    0.000    0.000    0.000    0.000 
#
# Total GULP energy -78199.460358 kJ/mol
# GULP energy per Si atom -5585.675740 kJ/mol
# Density = 2.505450 g / cm^3
# Si number density = 25.111656 Si / 1000 Ang^3
#
#
#
# Elastic Constant Matrix: (Units=GPa)
#
#
# Indices 1 2 3 4 5 6 
#
# 1 88.5365 40.2771 3.6712 0.2531 -4.6663 5.3395
# 2 40.2771 177.3475 53.5782 -0.9270 0.6103 -34.9279
# 3 3.6712 53.5782 76.1950 -0.0715 -14.4511 -15.6435
# 4 0.2531 -0.9270 -0.0715 39.3371 -6.3378 2.9272
# 5 -4.6663 0.6103 -14.4511 -6.3378 26.4323 -3.3144
# 6 5.3395 -34.9279 -15.6435 2.9272 -3.3144 60.2162
#
#
#
# Elastic Compliance Matrix: (Units=1/GPa)
#
#
# Indices 1 2 3 4 5 6 
#
# 1 0.013583 -0.004451 0.002570 0.000626 0.003687 -0.002946
# 2 -0.004451 0.009358 -0.006333 -0.000726 -0.004139 0.003985
# 3 0.002570 -0.006333 0.020183 0.001706 0.012286 0.001935
# 4 0.000626 -0.000726 0.001706 0.026654 0.007335 -0.000925
# 5 0.003687 -0.004139 0.012286 0.007335 0.047395 0.002716
# 6 -0.002946 0.003985 0.001935 -0.000925 0.002716 0.019877
#
#
# Mechanical properties :
#
#
# Convention : Reuss Voigt Hill
#
# Bulk Modulus (GPa) = 37.45874 59.68135 48.57004
# Shear Modulus (GPa) = 30.79249 41.50063 36.14656
#
# Velocity S-wave (km/s) = 3.50555 4.06968 3.79810
# Velocity P-wave (km/s) = 5.59771 6.77503 6.21432
#
# Compressibility (1/GPa) = 0.02669604
#
# Stress axis : x y z
#
# Youngs Moduli (GPa) = 73.62028 106.85876 49.54675
#
# Poissons Ratio (x) = 0.47563 -0.12735
# Poissons Ratio (y) = 0.32768 0.31380
# Poissons Ratio (z) = -0.18922 0.67678
#
# Static dielectric constant tensor:
#      x y z
#    x 2.069100 -0.011220 0.054650 
#    y -0.011220 2.128770 0.088890 
#    z 0.054650 0.088890 2.039490 
# 
# From -- ./inp_files/208608.got.cif
#   From: 2010.05.17/outbox.cif.g08.bks.cpg/sg2_105_cif.got.tgz:208608.got - 2010.06.03 11:33:40.
