data_PCOD9003411
_publ_section_title
;
Structure prediction by ZEFSAII (Michael W. Deem and Ramdas Pophale) SiO2 
 PCOD9003411
Probable space group: P -1
;
_chemical_formula_sum "Si O2"
_cell_formula_units_Z 16
_cell_length_a 18.642600
_cell_length_b 5.505239
_cell_length_c 7.953785
_cell_angle_alpha 100.754416
_cell_angle_beta 121.318574
_cell_angle_gamma 70.754427
_cell_volume 658.277294
_symmetry_space_group_name_H-M "P -1"
_symmetry_group_IT_number 2
_symmetry_cell_setting 'triclinic'
loop_
_space_group_symop_operation_xyz
x,y,z
-x,-y,-z
loop_
_atom_site_type_symbol
_atom_site_label
_atom_site_fract_x
_atom_site_fract_y
_atom_site_fract_z
Si Si1 0.185161 0.791535 0.080712
Si Si2 0.397171 0.600516 0.916023
Si Si3 0.995758 0.193081 0.262524
Si Si4 0.337182 0.750094 0.507174
Si Si5 0.715198 0.955933 0.967712
Si Si6 0.080898 0.641760 0.431481
Si Si7 0.248044 0.414166 0.786212
Si Si8 0.596795 0.827948 0.564861
O O1 0.244994 0.734899 0.312146
O O2 0.208465 0.043323 0.069321
O O3 0.084011 0.809006 0.959129
O O4 0.220758 0.606818 0.937854
O O5 0.350576 0.767549 0.722899
O O6 0.347476 0.381258 0.849811
O O7 0.500000 0.500000 0.000000
O O8 0.361521 0.783432 0.055392
O O9 0.956557 0.280299 0.413986
O O10 0.042945 0.408712 0.295360
O O11 0.054618 0.901893 0.325522
O O12 0.400670 0.460232 0.519998
O O13 0.362529 0.988757 0.480709
O O14 0.656804 0.787295 0.798306
O O15 0.764049 0.844065 0.182955
O O16 0.184007 0.525177 0.571130
O O17 0.500000 0.000000 0.500000
#
# Coordination Sequence:
#
# PCOD9003411 Si02
#       8
#     2   2   2   2   2   2   2   2
#     4   9  20  37  60  90 121 157 201 251 305 361
#     4  11  26  41  60  88 124 165 210 254 304 366
#     4   9  18  30  55  88 120 147 195 247 297 358
#     4  11  24  41  61  91 120 161 203 253 306 362
#     4  10  22  38  61  87 121 165 200 257 308 358
#     4   9  19  30  53  88 120 152 190 247 302 352
#     4  10  21  37  60  85 123 159 203 250 307 360
#     4  11  23  40  64  86 119 156 207 258 307 362
#
# _framework density 24.305866999999999
#
# number of rings (size 3 to 8) (size 9 to 14) (size 15 to 20)
#    0.000    2.000    1.250    1.125   14.000    0.500 
#    0.000    0.000    0.000    1.500    0.000    0.000 
#    0.000    0.000    0.000    0.000    0.000    0.000 
#
# Total GULP energy -89223.261469 kJ/mol
# GULP energy per Si atom -5576.453842 kJ/mol
# Density = 2.425055 g / cm^3
# Si number density = 24.305867 Si / 1000 Ang^3
#
#
#
# Elastic Constant Matrix: (Units=GPa)
#
#
# Indices 1 2 3 4 5 6 
#
# 1 63.7602 21.7011 38.3808 -1.5447 16.0089 8.9356
# 2 21.7011 81.8680 12.4016 -9.9249 5.6356 16.9889
# 3 38.3808 12.4016 118.0693 -16.2632 20.0428 11.4250
# 4 -1.5447 -9.9249 -16.2632 29.4112 3.6472 -7.1118
# 5 16.0089 5.6356 20.0428 3.6472 32.4033 -0.5032
# 6 8.9356 16.9889 11.4250 -7.1118 -0.5032 18.5864
#
#
#
# Elastic Compliance Matrix: (Units=1/GPa)
#
#
# Indices 1 2 3 4 5 6 
#
# 1 0.022964 -0.004106 -0.005941 -0.003933 -0.006596 -0.005318
# 2 -0.004106 0.016267 0.001755 0.003478 -0.002475 -0.012710
# 3 -0.005941 0.001755 0.012588 0.007029 -0.006009 -0.003959
# 4 -0.003933 0.003478 0.007029 0.042306 -0.007610 0.010373
# 5 -0.006596 -0.002475 -0.006009 -0.007610 0.039237 0.007277
# 6 -0.005318 -0.012710 -0.003959 0.010373 0.007277 0.074577
#
#
# Mechanical properties :
#
#
# Convention : Reuss Voigt Hill
#
# Bulk Modulus (GPa) = 28.38119 45.40717 36.89418
# Shear Modulus (GPa) = 21.16258 28.82778 24.99518
#
# Velocity S-wave (km/s) = 2.95393 3.44763 3.21028
# Velocity P-wave (km/s) = 4.83076 5.87966 5.38083
#
# Compressibility (1/GPa) = 0.03523460
#
# Stress axis : x y z
#
# Youngs Moduli (GPa) = 43.54697 61.47486 79.44288
#
# Poissons Ratio (x) = 0.25243 0.47195
# Poissons Ratio (y) = 0.17881 -0.13944
# Poissons Ratio (z) = 0.25870 -0.10790
#
# Static dielectric constant tensor:
#      x y z
#    x 2.029550 0.178270 -0.050250 
#    y 0.178270 2.446650 0.080210 
#    z -0.050250 0.080210 2.019260 
# 
# From -- ./inp_files/339881.got.cif
#   From: 2010.05.17/outbox.cif.g08.bks.cpg/sg2_170_cif.got.tgz:339881.got - 2010.06.03 11:33:40.
