data_PCOD9003223
_publ_section_title
;
Structure prediction by ZEFSAII (Michael W. Deem and Ramdas Pophale) SiO2 
 PCOD9003223
Probable space group: P -1
;
_chemical_formula_sum "Si O2"
_cell_formula_units_Z 16
_cell_length_a 16.337350
_cell_length_b 9.189331
_cell_length_c 5.847120
_cell_angle_alpha 77.762399
_cell_angle_beta 71.311756
_cell_angle_gamma 120.135076
_cell_volume 640.368177
_symmetry_space_group_name_H-M "P -1"
_symmetry_group_IT_number 2
_symmetry_cell_setting 'triclinic'
loop_
_space_group_symop_operation_xyz
x,y,z
-x,-y,-z
loop_
_atom_site_type_symbol
_atom_site_label
_atom_site_fract_x
_atom_site_fract_y
_atom_site_fract_z
Si Si1 0.368699 0.861216 0.173859
Si Si2 0.127316 0.479968 0.046440
Si Si3 0.680709 0.798510 0.295564
Si Si4 0.391056 0.983285 0.614909
Si Si5 0.884061 0.194064 0.213597
Si Si6 0.082194 0.224609 0.573221
Si Si7 0.282117 0.482331 0.597487
Si Si8 0.148627 0.012382 0.273813
O O1 0.328980 0.652197 0.326026
O O2 0.341859 0.913809 0.424270
O O3 0.500000 0.000000 0.000000
O O4 0.333413 0.879793 0.946312
O O5 0.128447 0.656861 0.936738
O O6 0.242126 0.527584 0.844167
O O7 0.107562 0.400384 0.345870
O O8 0.016616 0.308319 0.065816
O O9 0.587979 0.819455 0.427248
O O10 0.649742 0.596333 0.438343
O O11 0.787819 0.985846 0.265953
O O12 0.730907 0.845433 0.980523
O O13 0.500000 0.000000 0.500000
O O14 0.861467 0.149597 0.520113
O O15 0.164051 0.300616 0.680829
O O16 0.952965 0.090551 0.777495
O O17 0.116397 0.119247 0.423014
#
# Coordination Sequence:
#
# PCOD9003223 Si02
#       8
#     2   2   2   2   2   2   2   2
#     4  10  25  50  75 100 133 173 222 290 362 418
#     4  10  22  38  57  89 136 181 226 273 329 394
#     4  12  24  37  65  98 130 177 230 285 336 415
#     4  10  25  50  75 100 133 173 222 290 362 418
#     4  10  22  38  57  89 136 181 226 273 329 394
#     4  10  21  37  58  93 141 184 224 279 333 393
#     4  12  24  37  65  98 130 177 230 285 336 415
#     4  10  21  37  58  93 141 184 224 279 333 393
#
# _framework density 24.985627000000001
#
# number of rings (size 3 to 8) (size 9 to 14) (size 15 to 20)
#    0.000    1.500    2.500    1.500    7.000    1.000 
#    0.000    8.750    0.000    0.000    0.000    0.000 
#    0.000    0.000    0.000    0.000    0.000    0.000 
#
# Total GULP energy -89207.202490 kJ/mol
# GULP energy per Si atom -5575.450156 kJ/mol
# Density = 2.492876 g / cm^3
# Si number density = 24.985627 Si / 1000 Ang^3
#
#
#
# Elastic Constant Matrix: (Units=GPa)
#
#
# Indices 1 2 3 4 5 6 
#
# 1 90.5301 29.9271 10.9417 3.4194 -0.5413 -27.2171
# 2 29.9271 83.6396 28.4084 -5.3634 14.6842 -20.6833
# 3 10.9417 28.4084 90.6763 3.3427 10.3674 -17.2802
# 4 3.4194 -5.3634 3.3427 34.5833 -5.3454 4.6760
# 5 -0.5413 14.6842 10.3674 -5.3454 37.5963 -3.6629
# 6 -27.2171 -20.6833 -17.2802 4.6760 -3.6629 54.0248
#
#
#
# Elastic Compliance Matrix: (Units=1/GPa)
#
#
# Indices 1 2 3 4 5 6 
#
# 1 0.014369 -0.004366 0.000684 -0.002696 0.001940 0.006151
# 2 -0.004366 0.016351 -0.003670 0.002248 -0.004888 0.002361
# 3 0.000684 -0.003670 0.013058 -0.002675 -0.002226 0.003197
# 4 -0.002696 0.002248 -0.002675 0.030893 0.003846 -0.003766
# 5 0.001940 -0.004888 -0.002226 0.003846 0.029703 0.000075
# 6 0.006151 0.002361 0.003197 -0.003766 0.000075 0.023866
#
#
# Mechanical properties :
#
#
# Convention : Reuss Voigt Hill
#
# Bulk Modulus (GPa) = 34.39546 44.82227 39.60886
# Shear Modulus (GPa) = 32.75758 38.27881 35.51820
#
# Velocity S-wave (km/s) = 3.62478 3.91837 3.77443
# Velocity P-wave (km/s) = 5.59595 6.20078 5.90611
#
# Compressibility (1/GPa) = 0.02907361
#
# Stress axis : x y z
#
# Youngs Moduli (GPa) = 69.59217 61.15938 76.58207
#
# Poissons Ratio (x) = 0.26702 -0.05237
# Poissons Ratio (y) = 0.30384 0.28105
# Poissons Ratio (z) = -0.04759 0.22445
#
# Static dielectric constant tensor:
#      x y z
#    x 2.144680 -0.114990 0.024990 
#    y -0.114990 2.223240 0.060230 
#    z 0.024990 0.060230 2.007980 
# 
# From -- ./inp_files/91011.got.cif
#   From: 2010.05.17/outbox.cif.g08.bks.cpg/sg2_46_cif.got.tgz:91011.got - 2010.06.03 11:33:40.
