data_PCOD9003140
_publ_section_title
;
Structure prediction by ZEFSAII (Michael W. Deem and Ramdas Pophale) SiO2 
 PCOD9003140
Probable space group: P -1
;
_chemical_formula_sum "Si O2"
_cell_formula_units_Z 14
_cell_length_a 11.020264
_cell_length_b 14.486975
_cell_length_c 7.134055
_cell_angle_alpha 79.085052
_cell_angle_beta 79.464756
_cell_angle_gamma 30.047439
_cell_volume 559.561015
_symmetry_space_group_name_H-M "P -1"
_symmetry_group_IT_number 2
_symmetry_cell_setting 'triclinic'
loop_
_space_group_symop_operation_xyz
x,y,z
-x,-y,-z
loop_
_atom_site_type_symbol
_atom_site_label
_atom_site_fract_x
_atom_site_fract_y
_atom_site_fract_z
Si Si1 0.766079 0.639861 0.269551
Si Si2 0.502413 0.323686 0.393820
Si Si3 0.416330 0.593936 0.252814
Si Si4 0.662543 0.912648 0.170031
Si Si5 0.968809 0.005573 0.782039
Si Si6 0.679726 0.699313 0.826822
Si Si7 0.106540 0.721723 0.940918
O O1 0.621980 0.659821 0.423860
O O2 0.696232 0.790240 0.303906
O O3 0.057844 0.439305 0.267443
O O4 0.696270 0.679910 0.054292
O O5 0.439107 0.475135 0.381081
O O6 0.385427 0.358025 0.221977
O O7 0.786656 0.126574 0.342852
O O8 0.688377 0.450198 0.189660
O O9 0.249787 0.786037 0.304995
O O10 0.269838 0.664888 0.075245
O O11 0.529721 0.086631 0.241418
O O12 0.923077 0.772754 0.071939
O O13 0.500000 0.000000 0.000000
O O14 0.948729 0.906016 0.810847
O O15 0.000000 0.000000 0.000000
#
# Coordination Sequence:
#
# PCOD9003140 Si02
#       7
#     2   2   2   2   2   2   2
#     4  10  23  38  55  89 124 155 201 245 292 358
#     4  11  21  35  61  91 118 154 200 245 297 359
#     4   9  18  32  56  88 118 149 194 252 297 347
#     4  10  21  37  58  85 119 160 198 241 295 354
#     4   9  18  33  57  90 116 148 197 246 297 351
#     4  10  21  38  57  82 122 162 195 243 298 349
#     4   9  17  31  54  87 117 149 202 245 289 355
#
# _framework density 25.019614000000001
#
# number of rings (size 3 to 8) (size 9 to 14) (size 15 to 20)
#    0.000    2.286    0.000    3.857    0.000    2.857 
#    0.000    0.000    0.000   21.429    0.000  122.000 
#    0.000    0.000    0.000    0.000    0.000    0.000 
#
# Total GULP energy -78388.766607 kJ/mol
# GULP energy per Si atom -5599.197615 kJ/mol
# Density = 2.496267 g / cm^3
# Si number density = 25.019614 Si / 1000 Ang^3
#
#
#
# Elastic Constant Matrix: (Units=GPa)
#
#
# Indices 1 2 3 4 5 6 
#
# 1 111.6012 79.3527 29.6072 7.2819 -25.8259 11.8389
# 2 79.3527 233.6727 85.5133 -6.8392 -44.9616 9.2325
# 3 29.6072 85.5133 101.6028 5.8085 -30.9957 10.2151
# 4 7.2819 -6.8392 5.8085 35.0712 5.5060 -9.0506
# 5 -25.8259 -44.9616 -30.9957 5.5060 51.8017 -3.6772
# 6 11.8389 9.2325 10.2151 -9.0506 -3.6772 34.4846
#
#
#
# Elastic Compliance Matrix: (Units=1/GPa)
#
#
# Indices 1 2 3 4 5 6 
#
# 1 0.013559 -0.004474 0.002007 -0.006038 0.004352 -0.005172
# 2 -0.004474 0.008099 -0.005575 0.003795 0.001212 0.002144
# 3 0.002007 -0.005575 0.016871 -0.006688 0.006595 -0.005246
# 4 -0.006038 0.003795 -0.006688 0.035680 -0.006681 0.011690
# 5 0.004352 0.001212 0.006595 -0.006681 0.026994 -0.002647
# 6 -0.005172 0.002144 -0.005246 0.011690 -0.002647 0.034540
#
#
# Mechanical properties :
#
#
# Convention : Reuss Voigt Hill
#
# Bulk Modulus (GPa) = 44.55285 92.86922 68.71103
# Shear Modulus (GPa) = 31.38548 41.09838 36.24193
#
# Velocity S-wave (km/s) = 3.54564 4.05735 3.81010
# Velocity P-wave (km/s) = 5.88285 7.69082 6.84677
#
# Compressibility (1/GPa) = 0.02244525
#
# Stress axis : x y z
#
# Youngs Moduli (GPa) = 73.75153 123.47840 59.27178
#
# Poissons Ratio (x) = 0.55245 -0.11899
# Poissons Ratio (y) = 0.32997 0.33046
# Poissons Ratio (z) = -0.14805 0.68843
#
# Static dielectric constant tensor:
#      x y z
#    x 1.958420 0.075360 0.097940 
#    y 0.075360 1.987020 -0.031610 
#    z 0.097940 -0.031610 2.051920 
# 
# From -- ./inp_files/272418.got.cif
#   From: 2010.05.17/outbox.cif.g08.bks.cpg/sg2_137_cif.got.tgz:272418.got - 2010.06.03 11:33:40.
