data_PCOD9003957
_publ_section_title
;
Structure prediction by ZEFSAII (Michael W. Deem and Ramdas Pophale) SiO2 
 PCOD9003957
Probable space group: P -1
;
_chemical_formula_sum "Si O2"
_cell_formula_units_Z 16
_cell_length_a 13.646216
_cell_length_b 7.684332
_cell_length_c 7.997537
_cell_angle_alpha 113.750292
_cell_angle_beta 101.833452
_cell_angle_gamma 46.265440
_cell_volume 551.216409
_symmetry_space_group_name_H-M "P -1"
_symmetry_group_IT_number 2
_symmetry_cell_setting 'triclinic'
loop_
_space_group_symop_operation_xyz
x,y,z
-x,-y,-z
loop_
_atom_site_type_symbol
_atom_site_label
_atom_site_fract_x
_atom_site_fract_y
_atom_site_fract_z
Si Si1 0.361457 0.507724 0.001881
Si Si2 0.638961 0.953803 0.943412
Si Si3 0.912084 0.623636 0.766001
Si Si4 0.322689 0.065810 0.655104
Si Si5 0.200260 0.852241 0.575347
Si Si6 0.124801 0.602803 0.659746
Si Si7 0.517150 0.565516 0.324961
Si Si8 0.837287 0.379368 0.812540
O O1 0.399275 0.588137 0.207740
O O2 0.206895 0.641970 0.033316
O O3 0.385204 0.570223 0.856614
O O4 0.490828 0.194057 0.919976
O O5 0.763458 0.898517 0.872411
O O6 0.692050 0.670513 0.823604
O O7 0.641017 0.983449 0.154727
O O8 0.893917 0.503265 0.555912
O O9 0.936132 0.432357 0.847879
O O10 0.009220 0.670351 0.768720
O O11 0.193521 0.084575 0.620226
O O12 0.437796 0.847626 0.482654
O O13 0.268289 0.336557 0.676258
O O14 0.135663 0.808774 0.686113
O O15 0.366241 0.625621 0.568710
O O16 0.141628 0.816564 0.382593
#
# Coordination Sequence:
#
# PCOD9003957 Si02
#       8
#     2   2   2   2   2   2   2   2
#     4  11  20  38  59  91 126 165 203 246 314 373
#     4  10  21  37  63  89 124 165 197 255 311 361
#     4   8  20  42  62  88 125 159 204 265 297 358
#     4  12  23  40  64  93 126 162 205 253 312 363
#     4  11  22  42  63  92 127 160 206 255 305 364
#     4  10  22  42  67  88 122 165 209 254 305 361
#     4  11  24  35  60  91 131 158 203 261 298 371
#     4   9  20  38  62  86 123 165 197 251 309 361
#
# _framework density 29.026713999999998
#
# number of rings (size 3 to 8) (size 9 to 14) (size 15 to 20)
#    0.750    1.000    2.500    2.250    1.750    1.000 
#    0.000    6.250    0.000    0.000    0.000    0.000 
#    0.000    0.000    0.000    0.000    0.000    0.000 
#
# Total GULP energy -89387.728559 kJ/mol
# GULP energy per Si atom -5586.733035 kJ/mol
# Density = 2.896065 g / cm^3
# Si number density = 29.026714 Si / 1000 Ang^3
#
#
#
# Elastic Constant Matrix: (Units=GPa)
#
#
# Indices 1 2 3 4 5 6 
#
# 1 181.6102 7.1623 46.9176 2.6850 -25.7267 9.3413
# 2 7.1623 70.0456 14.7475 -0.8117 4.2022 1.0185
# 3 46.9176 14.7475 132.9249 -2.6555 -9.7213 -3.6513
# 4 2.6850 -0.8117 -2.6555 32.3050 -0.3173 -1.7068
# 5 -25.7267 4.2022 -9.7213 -0.3173 66.4978 -2.5551
# 6 9.3413 1.0185 -3.6513 -1.7068 -2.5551 53.2712
#
#
#
# Elastic Compliance Matrix: (Units=1/GPa)
#
#
# Indices 1 2 3 4 5 6 
#
# 1 0.006447 -0.000332 -0.002129 -0.000761 0.002155 -0.001191
# 2 -0.000332 0.014738 -0.001620 0.000231 -0.001310 -0.000390
# 3 -0.002129 -0.001620 0.008543 0.000899 0.000572 0.001046
# 4 -0.000761 0.000231 0.000899 0.031161 0.000017 0.001190
# 5 0.002155 -0.001310 0.000572 0.000017 0.016056 0.000457
# 6 -0.001191 -0.000390 0.001046 0.001190 0.000457 0.019120
#
#
# Mechanical properties :
#
#
# Convention : Reuss Voigt Hill
#
# Bulk Modulus (GPa) = 46.36800 58.02617 52.19709
# Shear Modulus (GPa) = 44.87699 51.46501 48.17100
#
# Velocity S-wave (km/s) = 3.93626 4.21530 4.07816
# Velocity P-wave (km/s) = 6.05539 6.61254 6.34009
#
# Compressibility (1/GPa) = 0.02156660
#
# Stress axis : x y z
#
# Youngs Moduli (GPa) = 155.10683 67.85005 117.05726
#
# Poissons Ratio (x) = 0.02251 0.24923
# Poissons Ratio (y) = 0.05145 0.18963
# Poissons Ratio (z) = 0.33025 0.10992
#
# Static dielectric constant tensor:
#      x y z
#    x 2.451810 0.092560 -0.053170 
#    y 0.092560 2.355320 -0.062200 
#    z -0.053170 -0.062200 2.258270 
# 
# From -- ./inp_files/296113.got.cif
#   From: 2010.05.17/outbox.cif.g08.bks.cpg/sg2_149_cif.got.tgz:296113.got - 2010.06.03 11:33:40.
