data_PCOD9003231
_publ_section_title
;
Structure prediction by ZEFSAII (Michael W. Deem and Ramdas Pophale) SiO2 
 PCOD9003231
Probable space group: P -1
;
_chemical_formula_sum "Si O2"
_cell_formula_units_Z 14
_cell_length_a 7.612531
_cell_length_b 24.311351
_cell_length_c 5.531704
_cell_angle_alpha 78.718763
_cell_angle_beta 121.137167
_cell_angle_gamma 136.888507
_cell_volume 569.181057
_symmetry_space_group_name_H-M "P -1"
_symmetry_group_IT_number 2
_symmetry_cell_setting 'triclinic'
loop_
_space_group_symop_operation_xyz
x,y,z
-x,-y,-z
loop_
_atom_site_type_symbol
_atom_site_label
_atom_site_fract_x
_atom_site_fract_y
_atom_site_fract_z
Si Si1 0.312144 0.422487 0.114739
Si Si2 0.877820 0.823948 0.991701
Si Si3 0.076323 0.132090 0.513057
Si Si4 0.427747 0.065018 0.639231
Si Si5 0.301188 0.530214 0.264924
Si Si6 0.103666 0.300066 0.730370
Si Si7 0.614273 0.146001 0.203852
O O1 0.219530 0.447671 0.233991
O O2 0.572145 0.435853 0.404647
O O3 0.500000 0.500000 0.000000
O O4 0.046653 0.333043 0.874368
O O5 0.746129 0.819941 0.650816
O O6 0.762215 0.832388 0.140474
O O7 0.842287 0.750065 0.070496
O O8 0.255364 0.907486 0.174035
O O9 0.848703 0.140048 0.359694
O O10 0.857139 0.033393 0.423215
O O11 0.397892 0.086661 0.333216
O O12 0.479517 0.117478 0.859646
O O13 0.583290 0.612974 0.239355
O O14 0.000000 0.500000 0.000000
O O15 0.844041 0.240403 0.392019
#
# Coordination Sequence:
#
# PCOD9003231 Si02
#       7
#     2   2   2   2   2   2   2
#     4   9  20  37  56  80 106 140 179 222 286 331
#     4   9  16  22  37  61  90 137 171 213 270 310
#     4   9  14  22  34  56  91 134 176 211 260 315
#     4   9  14  22  34  56  91 134 176 211 260 315
#     4  10  21  37  59  81 105 140 186 227 273 337
#     4   9  19  29  47  70 103 138 175 223 272 332
#     4   9  16  22  37  61  90 137 171 213 270 310
#
# _framework density 24.596741999999999
#
# number of rings (size 3 to 8) (size 9 to 14) (size 15 to 20)
#    0.000    3.143    0.000    4.286    8.000    2.286 
#    0.000    0.000    0.000    0.000    0.000    0.000 
#    0.000    0.000    0.000  169.714    0.000    0.000 
#
# Total GULP energy -78153.877881 kJ/mol
# GULP energy per Si atom -5582.419849 kJ/mol
# Density = 2.454076 g / cm^3
# Si number density = 24.596742 Si / 1000 Ang^3
#
#
#
# Elastic Constant Matrix: (Units=GPa)
#
#
# Indices 1 2 3 4 5 6 
#
# 1 59.8103 15.5528 42.9626 13.2769 -18.8948 -10.2678
# 2 15.5528 112.6904 54.9969 10.8271 -15.2640 -7.4820
# 3 42.9626 54.9969 168.0687 -3.5779 -36.6917 4.2256
# 4 13.2769 10.8271 -3.5779 48.6923 4.5579 -19.6122
# 5 -18.8948 -15.2640 -36.6917 4.5579 52.6663 7.5154
# 6 -10.2678 -7.4820 4.2256 -19.6122 7.5154 27.1234
#
#
#
# Elastic Compliance Matrix: (Units=1/GPa)
#
#
# Indices 1 2 3 4 5 6 
#
# 1 0.024172 0.000961 -0.005691 -0.005723 0.004791 0.004836
# 2 0.000961 0.011055 -0.003796 -0.002181 0.000778 0.002212
# 3 -0.005691 -0.003796 0.009765 0.000426 0.004429 -0.005642
# 4 -0.005723 -0.002181 0.000426 0.032768 -0.008538 0.023224
# 5 0.004791 0.000778 0.004429 -0.008538 0.026494 -0.012177
# 6 0.004836 0.002212 -0.005642 0.023224 -0.012177 0.060355
#
#
# Mechanical properties :
#
#
# Convention : Reuss Voigt Hill
#
# Bulk Modulus (GPa) = 35.78957 63.06600 49.42779
# Shear Modulus (GPa) = 26.18171 40.83353 33.50762
#
# Velocity S-wave (km/s) = 3.26611 4.07888 3.69491
# Velocity P-wave (km/s) = 5.36707 6.91944 6.19209
#
# Compressibility (1/GPa) = 0.02794110
#
# Stress axis : x y z
#
# Youngs Moduli (GPa) = 41.37065 90.45366 102.41051
#
# Poissons Ratio (x) = -0.08695 0.58282
# Poissons Ratio (y) = -0.03977 0.38871
# Poissons Ratio (z) = 0.23544 0.34333
#
# Static dielectric constant tensor:
#      x y z
#    x 2.117240 -0.034640 -0.012600 
#    y -0.034640 1.915410 -0.100840 
#    z -0.012600 -0.100840 2.149290 
# 
# From -- ./inp_files/56400.got.cif
#   From: 2010.05.17/outbox.cif.g08.bks.cpg/sg2_29_cif.got.tgz:56400.got - 2010.06.03 11:33:40.
