data_PCOD9003539
_publ_section_title
;
Structure prediction by ZEFSAII (Michael W. Deem and Ramdas Pophale) SiO2 
 PCOD9003539
Probable space group: P -1
;
_chemical_formula_sum "Si O2"
_cell_formula_units_Z 16
_cell_length_a 8.762088
_cell_length_b 10.751471
_cell_length_c 16.695194
_cell_angle_alpha 135.389178
_cell_angle_beta 143.752825
_cell_angle_gamma 41.453468
_cell_volume 591.980037
_symmetry_space_group_name_H-M "P -1"
_symmetry_group_IT_number 2
_symmetry_cell_setting 'triclinic'
loop_
_space_group_symop_operation_xyz
x,y,z
-x,-y,-z
loop_
_atom_site_type_symbol
_atom_site_label
_atom_site_fract_x
_atom_site_fract_y
_atom_site_fract_z
Si Si1 0.295995 0.127345 0.575917
Si Si2 0.459299 0.895225 0.100051
Si Si3 0.755529 0.296645 0.839651
Si Si4 0.982905 0.336459 0.676915
Si Si5 0.212631 0.255283 0.417417
Si Si6 0.516232 0.464563 0.323346
Si Si7 0.069666 0.697700 0.911230
Si Si8 0.247016 0.876072 0.835059
O O1 0.503468 0.234357 0.728977
O O2 0.021700 0.217654 0.557158
O O3 0.229723 0.163125 0.470973
O O4 0.498473 0.900235 0.572821
O O5 0.772127 0.816007 0.232372
O O6 0.308896 0.762168 0.010930
O O7 0.456787 0.875415 0.993881
O O8 0.231657 0.111918 0.128094
O O9 0.652144 0.437123 0.784769
O O10 0.856884 0.368044 0.994665
O O11 0.012126 0.095398 0.828672
O O12 0.056376 0.520680 0.776699
O O13 0.687386 0.442156 0.645761
O O14 0.239424 0.457055 0.528297
O O15 0.931739 0.242715 0.259890
O O16 0.617748 0.237731 0.241145
#
# Coordination Sequence:
#
# PCOD9003539 Si02
#       8
#     2   2   2   2   2   2   2   2
#     4   9  19  38  65  88 114 161 205 254 299 344
#     4  10  22  38  64  96 119 159 200 248 307 356
#     4   9  19  39  62  85 123 158 203 251 288 358
#     4  12  24  38  61  96 130 153 193 254 313 363
#     4   9  20  41  64  85 115 162 215 249 287 353
#     4  11  24  38  60  94 122 166 200 241 312 357
#     4  10  21  37  60  94 124 157 201 246 301 361
#     4  10  21  39  66  88 119 159 213 249 286 359
#
# _framework density 27.027937999999999
#
# number of rings (size 3 to 8) (size 9 to 14) (size 15 to 20)
#    0.000    2.000    1.250    2.250    5.250    3.500 
#    0.000    3.125    0.000    0.000    0.000    0.000 
#    0.000    0.000    0.000    0.000    0.000    0.000 
#
# Total GULP energy -89739.694862 kJ/mol
# GULP energy per Si atom -5608.730929 kJ/mol
# Density = 2.696642 g / cm^3
# Si number density = 27.027938 Si / 1000 Ang^3
#
#
#
# Elastic Constant Matrix: (Units=GPa)
#
#
# Indices 1 2 3 4 5 6 
#
# 1 110.0066 41.6461 13.9449 4.9794 -11.9513 -42.1858
# 2 41.6461 93.3865 20.3486 11.9625 -8.9619 -29.2460
# 3 13.9449 20.3486 73.3687 2.8470 -18.8444 -4.6610
# 4 4.9794 11.9625 2.8470 36.5909 -7.1156 -12.0703
# 5 -11.9513 -8.9619 -18.8444 -7.1156 34.9179 6.9580
# 6 -42.1858 -29.2460 -4.6610 -12.0703 6.9580 50.4234
#
#
#
# Elastic Compliance Matrix: (Units=1/GPa)
#
#
# Indices 1 2 3 4 5 6 
#
# 1 0.014612 -0.003165 -0.000753 0.003091 0.002271 0.010746
# 2 -0.003165 0.014663 -0.003192 -0.002567 -0.000567 0.005026
# 3 -0.000753 -0.003192 0.016682 0.000870 0.008482 -0.001902
# 4 0.003091 -0.002567 0.000870 0.031395 0.005691 0.007908
# 5 0.002271 -0.000567 0.008482 0.005691 0.035236 -0.001145
# 6 0.010746 0.005026 -0.001902 0.007908 -0.001145 0.033613
#
#
# Mechanical properties :
#
#
# Convention : Reuss Voigt Hill
#
# Bulk Modulus (GPa) = 31.50901 47.62679 39.56790
# Shear Modulus (GPa) = 29.23964 37.77461 33.50713
#
# Velocity S-wave (km/s) = 3.29269 3.74252 3.52479
# Velocity P-wave (km/s) = 5.11263 6.02784 5.58900
#
# Compressibility (1/GPa) = 0.03173695
#
# Stress axis : x y z
#
# Youngs Moduli (GPa) = 68.43851 68.19685 59.94355
#
# Poissons Ratio (x) = 0.21582 0.04517
# Poissons Ratio (y) = 0.21658 0.19135
# Poissons Ratio (z) = 0.05157 0.21769
#
# Static dielectric constant tensor:
#      x y z
#    x 2.160440 0.003340 0.002680 
#    y 0.003340 2.069830 -0.035260 
#    z 0.002680 -0.035260 2.086260 
# 
# From -- ./inp_files/283300.got.cif
#   From: 2010.05.17/outbox.cif.g08.bks.cpg/sg2_142_cif.got.tgz:283300.got - 2010.06.03 11:33:40.
