data_PCOD9003837
_publ_section_title
;
Structure prediction by ZEFSAII (Michael W. Deem and Ramdas Pophale) SiO2 
 PCOD9003837
Probable space group: P -1
;
_chemical_formula_sum "Si O2"
_cell_formula_units_Z 14
_cell_length_a 11.645277
_cell_length_b 5.154184
_cell_length_c 11.875481
_cell_angle_alpha 81.014308
_cell_angle_beta 127.061477
_cell_angle_gamma 75.157611
_cell_volume 503.286046
_symmetry_space_group_name_H-M "P -1"
_symmetry_group_IT_number 2
_symmetry_cell_setting 'triclinic'
loop_
_space_group_symop_operation_xyz
x,y,z
-x,-y,-z
loop_
_atom_site_type_symbol
_atom_site_label
_atom_site_fract_x
_atom_site_fract_y
_atom_site_fract_z
Si Si1 0.685762 0.433857 0.620992
Si Si2 0.421205 0.601130 0.219009
Si Si3 0.255103 0.122090 0.751659
Si Si4 0.638779 0.904047 0.410983
Si Si5 0.078884 0.397818 0.933086
Si Si6 0.373131 0.350523 0.005073
Si Si7 0.993661 0.021455 0.742662
O O1 0.500000 0.500000 0.500000
O O2 0.718818 0.317159 0.776502
O O3 0.687349 0.741888 0.571014
O O4 0.801514 0.213690 0.610194
O O5 0.533585 0.753257 0.303360
O O6 0.363509 0.627107 0.053769
O O7 0.528805 0.249410 0.323620
O O8 0.222667 0.183651 0.595192
O O9 0.110698 0.063265 0.718981
O O10 0.435943 0.850289 0.880418
O O11 0.288738 0.350618 0.835661
O O12 0.022044 0.177322 0.858853
O O13 0.029530 0.691528 0.810029
O O14 0.270915 0.249316 0.038315
O O15 0.000000 0.500000 0.000000
#
# Coordination Sequence:
#
# PCOD9003837 Si02
#       7
#     2   2   2   2   2   2   2
#     4  10  23  43  66  90 124 165 214 263 315 363
#     4  10  21  37  62  93 119 159 214 258 310 367
#     4   9  21  40  62  95 128 166 211 246 311 376
#     4  10  22  38  62  90 122 165 212 262 300 365
#     4  11  24  41  63  94 127 161 203 255 314 370
#     4   9  20  38  65  90 127 166 199 252 309 378
#     4  11  25  40  61  91 126 162 205 261 305 369
#
# _framework density 27.817181000000001
#
# number of rings (size 3 to 8) (size 9 to 14) (size 15 to 20)
#    0.000    2.000    0.000    1.714    0.000   21.143 
#    0.000    0.000    0.000   18.857    0.000    0.000 
#    0.000    0.000    0.000    0.000    0.000    0.000 
#
# Total GULP energy -78272.040013 kJ/mol
# GULP energy per Si atom -5590.860001 kJ/mol
# Density = 2.775387 g / cm^3
# Si number density = 27.817181 Si / 1000 Ang^3
#
#
#
# Elastic Constant Matrix: (Units=GPa)
#
#
# Indices 1 2 3 4 5 6 
#
# 1 246.5284 28.9191 43.7456 -3.4250 -1.9980 -31.3935
# 2 28.9191 117.2718 10.2535 -2.4971 12.5843 -3.8353
# 3 43.7456 10.2535 57.1750 -4.8031 8.2005 3.2599
# 4 -3.4250 -2.4971 -4.8031 50.1501 -5.7115 -2.8319
# 5 -1.9980 12.5843 8.2005 -5.7115 60.5934 8.2957
# 6 -31.3935 -3.8353 3.2599 -2.8319 8.2957 50.3481
#
#
#
# Elastic Compliance Matrix: (Units=1/GPa)
#
#
# Indices 1 2 3 4 5 6 
#
# 1 0.005352 -0.000887 -0.004186 0.000170 0.000468 0.003473
# 2 -0.000887 0.009025 -0.000689 0.000138 -0.001865 0.000494
# 3 -0.004186 -0.000689 0.021457 0.001271 -0.002286 -0.003604
# 4 0.000170 0.000138 0.001271 0.020314 0.001594 0.000914
# 5 0.000468 -0.001865 -0.002286 0.001594 0.017712 -0.002531
# 6 0.003473 0.000494 -0.003604 0.000914 -0.002531 0.022767
#
#
# Mechanical properties :
#
#
# Convention : Reuss Voigt Hill
#
# Bulk Modulus (GPa) = 41.13658 65.20128 53.16893
# Shear Modulus (GPa) = 43.00922 54.75547 48.88234
#
# Velocity S-wave (km/s) = 3.93636 4.44148 4.19653
# Velocity P-wave (km/s) = 5.95653 7.05638 6.52965
#
# Compressibility (1/GPa) = 0.02430926
#
# Stress axis : x y z
#
# Youngs Moduli (GPa) = 186.85997 110.79894 46.60495
#
# Poissons Ratio (x) = 0.09824 0.19511
# Poissons Ratio (y) = 0.16568 0.03212
# Poissons Ratio (z) = 0.78228 0.07637
#
# Static dielectric constant tensor:
#      x y z
#    x 2.277100 -0.010940 0.022080 
#    y -0.010940 2.252840 0.000490 
#    z 0.022080 0.000490 2.473830 
# 
# From -- ./inp_files/509768.got.cif
#   From: 2010.05.17/outbox.cif.g08.bks.cpg/sg2_255_cif.got.tgz:509768.got - 2010.06.03 11:33:40.
