data_PCOD9003557
_publ_section_title
;
Structure prediction by ZEFSAII (Michael W. Deem and Ramdas Pophale) SiO2 
 PCOD9003557
Probable space group: P -1
;
_chemical_formula_sum "Si O2"
_cell_formula_units_Z 16
_cell_length_a 13.659169
_cell_length_b 7.689555
_cell_length_c 9.666212
_cell_angle_alpha 81.265180
_cell_angle_beta 101.814010
_cell_angle_gamma 48.232395
_cell_volume 680.986354
_symmetry_space_group_name_H-M "P -1"
_symmetry_group_IT_number 2
_symmetry_cell_setting 'triclinic'
loop_
_space_group_symop_operation_xyz
x,y,z
-x,-y,-z
loop_
_atom_site_type_symbol
_atom_site_label
_atom_site_fract_x
_atom_site_fract_y
_atom_site_fract_z
Si Si1 0.078200 0.933140 0.304065
Si Si2 0.732537 0.627464 0.573003
Si Si3 0.153925 0.292986 0.644879
Si Si4 0.281611 0.869818 0.183545
Si Si5 0.573238 0.157640 0.530649
Si Si6 0.371682 0.017949 0.963704
Si Si7 0.799796 0.179317 0.334908
Si Si8 0.524672 0.377261 0.193218
O O1 0.139289 0.663612 0.308436
O O2 0.130344 0.002599 0.191875
O O3 0.156336 0.859951 0.486199
O O4 0.910975 0.143759 0.274411
O O5 0.764224 0.669469 0.429408
O O6 0.585850 0.707119 0.504922
O O7 0.690042 0.852517 0.623180
O O8 0.218609 0.261841 0.816447
O O9 0.000000 0.500000 0.500000
O O10 0.176058 0.055319 0.669999
O O11 0.380895 0.749630 0.363621
O O12 0.356049 0.630791 0.134822
O O13 0.318167 0.001200 0.094678
O O14 0.571539 0.210083 0.363558
O O15 0.437245 0.781734 0.911214
O O16 0.500000 0.000000 0.000000
O O17 0.629403 0.415974 0.230867
#
# Coordination Sequence:
#
# PCOD9003557 Si02
#       8
#     2   2   2   2   2   2   2   2
#     4  11  21  35  60 100 129 176 214 287 330 402
#     4  11  20  33  63  96 126 166 234 277 326 381
#     4  11  21  42  67  92 126 184 224 272 328 410
#     4  12  23  40  66  97 139 171 227 282 346 396
#     4  11  21  35  63 101 128 170 234 289 316 397
#     4  11  26  44  65 102 141 176 220 286 349 399
#     4  10  21  37  60  96 137 165 236 265 337 383
#     4  11  21  42  63  98 132 185 220 276 337 405
#
# _framework density 23.495331
#
# number of rings (size 3 to 8) (size 9 to 14) (size 15 to 20)
#    0.000    1.000    6.250    2.250    1.750    0.000 
#    0.000    2.500    0.000    3.000    0.000    0.000 
#    0.000    0.000    0.000    0.000    0.000    0.000 
#
# Total GULP energy -89153.833077 kJ/mol
# GULP energy per Si atom -5572.114567 kJ/mol
# Density = 2.344185 g / cm^3
# Si number density = 23.495331 Si / 1000 Ang^3
#
#
#
# Elastic Constant Matrix: (Units=GPa)
#
#
# Indices 1 2 3 4 5 6 
#
# 1 161.7717 21.3037 65.6424 10.3422 -40.2788 -34.9302
# 2 21.3037 41.2796 16.0210 5.7512 -4.8096 -6.2913
# 3 65.6424 16.0210 99.1287 3.1300 -18.3727 -12.3837
# 4 10.3422 5.7512 3.1300 28.4045 -6.2976 -1.6556
# 5 -40.2788 -4.8096 -18.3727 -6.2976 38.8358 7.9927
# 6 -34.9302 -6.2913 -12.3837 -1.6556 7.9927 38.8926
#
#
#
# Elastic Compliance Matrix: (Units=1/GPa)
#
#
# Indices 1 2 3 4 5 6 
#
# 1 0.012348 -0.002043 -0.005355 -0.001222 0.008322 0.007292
# 2 -0.002043 0.027165 -0.002908 -0.004609 -0.001226 0.001689
# 3 -0.005355 -0.002908 0.014164 0.001183 0.001177 -0.000961
# 4 -0.001222 -0.004609 0.001183 0.037507 0.004987 -0.000895
# 5 0.008322 -0.001226 0.001177 0.004987 0.035476 0.000572
# 6 0.007292 0.001689 -0.000961 -0.000895 0.000572 0.032073
#
#
# Mechanical properties :
#
#
# Convention : Reuss Voigt Hill
#
# Bulk Modulus (GPa) = 30.24279 56.45714 43.34997
# Shear Modulus (GPa) = 26.26501 34.50743 30.38622
#
# Velocity S-wave (km/s) = 3.34710 3.83651 3.60013
# Velocity P-wave (km/s) = 5.27610 6.61108 5.98095
#
# Compressibility (1/GPa) = 0.03306573
#
# Stress axis : x y z
#
# Youngs Moduli (GPa) = 80.98415 36.81223 70.59940
#
# Poissons Ratio (x) = 0.07521 0.37804
# Poissons Ratio (y) = 0.16547 0.20530
# Poissons Ratio (z) = 0.43364 0.10705
#
# Static dielectric constant tensor:
#      x y z
#    x 1.780170 0.056370 -0.091690 
#    y 0.056370 2.013630 -0.032370 
#    z -0.091690 -0.032370 1.890750 
# 
# From -- ./inp_files/295251.got.cif
#   From: 2010.05.17/outbox.cif.g08.bks.cpg/sg2_148_cif.got.tgz:295251.got - 2010.06.03 11:33:40.
