data_PCOD9003970
_publ_section_title
;
Structure prediction by ZEFSAII (Michael W. Deem and Ramdas Pophale) SiO2 
 PCOD9003970
Probable space group: P -1
;
_chemical_formula_sum "Si O2"
_cell_formula_units_Z 14
_cell_length_a 22.495956
_cell_length_b 8.754895
_cell_length_c 7.206340
_cell_angle_alpha 97.941519
_cell_angle_beta 138.678299
_cell_angle_gamma 108.295751
_cell_volume 714.164594
_symmetry_space_group_name_H-M "P -1"
_symmetry_group_IT_number 2
_symmetry_cell_setting 'triclinic'
loop_
_space_group_symop_operation_xyz
x,y,z
-x,-y,-z
loop_
_atom_site_type_symbol
_atom_site_label
_atom_site_fract_x
_atom_site_fract_y
_atom_site_fract_z
Si Si1 0.331987 0.439440 0.101636
Si Si2 0.166817 0.549162 0.187161
Si Si3 0.085269 0.213724 0.635628
Si Si4 0.967117 0.538039 0.625384
Si Si5 0.609835 0.033753 0.176262
Si Si6 0.723157 0.313694 0.163549
Si Si7 0.465759 0.394820 0.100658
O O1 0.379431 0.403329 0.025672
O O2 0.417921 0.498053 0.483259
O O3 0.197728 0.258273 0.810892
O O4 0.334604 0.624556 0.092760
O O5 0.211840 0.529034 0.484024
O O6 0.275757 0.774924 0.419208
O O7 0.135139 0.383168 0.940195
O O8 0.060876 0.552240 0.973805
O O9 0.027268 0.270579 0.361326
O O10 0.000000 0.000000 0.500000
O O11 0.832732 0.353266 0.328069
O O12 0.000000 0.500000 0.500000
O O13 0.634165 0.107569 0.030536
O O14 0.591921 0.833637 0.109123
O O15 0.500000 0.000000 0.000000
O O16 0.500000 0.500000 0.000000
#
# Coordination Sequence:
#
# PCOD9003970 Si02
#       7
#     2   2   2   2   2   2   2
#     4  10  23  42  60  90 125 163 203 258 303 368
#     4   9  20  37  61  86 122 155 204 254 297 360
#     4  10  21  38  61  90 125 161 199 254 310 366
#     4   9  18  36  57  85 121 157 199 252 301 355
#     4  10  21  37  63  91 116 163 206 248 306 358
#     4   9  20  38  61  87 120 157 210 249 304 362
#     4  11  24  41  64  90 128 161 206 253 308 368
#
# _framework density 19.603325999999999
#
# number of rings (size 3 to 8) (size 9 to 14) (size 15 to 20)
#    0.857    1.429    0.000    2.143    2.000    4.000 
#    0.000    8.571    0.000    0.000    0.000    0.000 
#    0.000    0.000    0.000    0.000    0.000    0.000 
#
# Total GULP energy -77978.013360 kJ/mol
# GULP energy per Si atom -5569.858097 kJ/mol
# Density = 1.955871 g / cm^3
# Si number density = 19.603326 Si / 1000 Ang^3
#
#
#
# Elastic Constant Matrix: (Units=GPa)
#
#
# Indices 1 2 3 4 5 6 
#
# 1 132.0140 61.1880 66.5194 8.4073 30.8982 8.5863
# 2 61.1880 113.1761 49.0459 13.0683 25.0606 16.5785
# 3 66.5194 49.0459 75.2809 6.4140 26.1605 -5.9260
# 4 8.4073 13.0683 6.4140 41.8619 2.8164 3.6519
# 5 30.8982 25.0606 26.1605 2.8164 44.3636 0.1017
# 6 8.5863 16.5785 -5.9260 3.6519 0.1017 33.1679
#
#
#
# Elastic Compliance Matrix: (Units=1/GPa)
#
#
# Indices 1 2 3 4 5 6 
#
# 1 0.015356 -0.001801 -0.011873 -0.000072 -0.002660 -0.005181
# 2 -0.001801 0.015310 -0.007965 -0.002299 -0.002533 -0.008349
# 3 -0.011873 -0.007965 0.032201 -0.000772 -0.006200 0.012912
# 4 -0.000072 -0.002299 -0.000772 0.024872 0.000229 -0.001710
# 5 -0.002660 -0.002533 -0.006200 0.000229 0.029465 0.000731
# 6 -0.005181 -0.008349 0.012912 -0.001710 0.000731 0.038157
#
#
# Mechanical properties :
#
#
# Convention : Reuss Voigt Hill
#
# Bulk Modulus (GPa) = 51.04626 74.88641 62.96633
# Shear Modulus (GPa) = 24.37029 33.45985 28.91507
#
# Velocity S-wave (km/s) = 3.52969 4.13588 3.84475
# Velocity P-wave (km/s) = 6.53511 7.81608 7.20413
#
# Compressibility (1/GPa) = 0.01959008
#
# Stress axis : x y z
#
# Youngs Moduli (GPa) = 65.11915 65.31641 31.05515
#
# Poissons Ratio (x) = 0.11762 0.36872
# Poissons Ratio (y) = 0.11727 0.24734
# Poissons Ratio (z) = 0.77317 0.52022
#
# Static dielectric constant tensor:
#      x y z
#    x 1.717630 0.034740 0.000800 
#    y 0.034740 1.710810 -0.048490 
#    z 0.000800 -0.048490 1.720880 
# 
# From -- ./inp_files/351810.got.cif
#   From: 2010.05.17/outbox.cif.g08.bks.cpg/sg2_176_cif.got.tgz:351810.got - 2010.06.03 11:33:40.
