data_PCOD9003673
_publ_section_title
;
Structure prediction by ZEFSAII (Michael W. Deem and Ramdas Pophale) SiO2 
 PCOD9003673
Probable space group: P -1
;
_chemical_formula_sum "Si O2"
_cell_formula_units_Z 16
_cell_length_a 29.198672
_cell_length_b 8.439954
_cell_length_c 5.455091
_cell_angle_alpha 56.642010
_cell_angle_beta 101.853779
_cell_angle_gamma 140.072070
_cell_volume 659.434253
_symmetry_space_group_name_H-M "P -1"
_symmetry_group_IT_number 2
_symmetry_cell_setting 'triclinic'
loop_
_space_group_symop_operation_xyz
x,y,z
-x,-y,-z
loop_
_atom_site_type_symbol
_atom_site_label
_atom_site_fract_x
_atom_site_fract_y
_atom_site_fract_z
Si Si1 0.265255 0.632430 0.419231
Si Si2 0.670678 0.539573 0.319718
Si Si3 0.328498 0.176680 0.300678
Si Si4 0.049314 0.139317 0.185911
Si Si5 0.507481 0.703744 0.081342
Si Si6 0.824438 0.757663 0.841049
Si Si7 0.807366 0.111487 0.306310
Si Si8 0.471861 0.669820 0.555814
O O1 0.333484 0.697182 0.444589
O O2 0.298293 0.945929 0.243693
O O3 0.226992 0.487640 0.235043
O O4 0.210279 0.403884 0.790084
O O5 0.605913 0.458137 0.450667
O O6 0.758642 0.872914 0.224891
O O7 0.662490 0.581336 0.997389
O O8 0.256698 0.956795 0.589192
O O9 0.412661 0.371356 0.299006
O O10 0.093793 0.082931 0.249572
O O11 0.115547 0.516607 0.961089
O O12 0.000000 0.000000 0.500000
O O13 0.000000 0.000000 0.000000
O O14 0.528410 0.874232 0.212229
O O15 0.541193 0.601440 0.198638
O O16 0.508542 0.826392 0.729570
O O17 0.826329 0.990065 0.599241
#
# Coordination Sequence:
#
# PCOD9003673 Si02
#       8
#     2   2   2   2   2   2   2   2
#     4  11  23  36  63  94 125 152 207 255 294 345
#     4  10  21  37  61  92 120 163 205 252 300 348
#     4  11  20  36  62  90 119 165 203 254 294 356
#     4  12  28  45  67  92 126 157 192 246 305 361
#     4   9  18  30  53  84 117 160 203 241 300 349
#     4  11  24  44  64  94 121 156 199 249 295 361
#     4  11  23  40  68  89 122 158 207 242 301 358
#     4   9  17  32  52  82 121 157 200 249 292 354
#
# _framework density 24.263224999999998
#
# number of rings (size 3 to 8) (size 9 to 14) (size 15 to 20)
#    0.000    1.500    3.750    1.500    1.750    1.000 
#    0.000    0.625    0.000    0.000    0.000   11.375 
#    0.000    0.000    0.000    0.000    0.000    0.000 
#
# Total GULP energy -89436.279497 kJ/mol
# GULP energy per Si atom -5589.767469 kJ/mol
# Density = 2.420800 g / cm^3
# Si number density = 24.263225 Si / 1000 Ang^3
#
#
#
# Elastic Constant Matrix: (Units=GPa)
#
#
# Indices 1 2 3 4 5 6 
#
# 1 157.5248 32.7397 51.8182 2.0987 -2.9104 21.4174
# 2 32.7397 98.8269 34.8568 -0.4305 -4.4380 1.8530
# 3 51.8182 34.8568 111.5050 21.4190 -6.4914 -4.4726
# 4 2.0987 -0.4305 21.4190 43.7710 -5.1895 3.0851
# 5 -2.9104 -4.4380 -6.4914 -5.1895 54.9717 5.6226
# 6 21.4174 1.8530 -4.4726 3.0851 5.6226 42.1944
#
#
#
# Elastic Compliance Matrix: (Units=1/GPa)
#
#
# Indices 1 2 3 4 5 6 
#
# 1 0.008651 -0.001261 -0.004186 0.002041 0.000566 -0.005004
# 2 -0.001261 0.011809 -0.003466 0.001992 0.000715 -0.000487
# 3 -0.004186 -0.003466 0.013455 -0.006710 0.000025 0.004190
# 4 0.002041 0.001992 -0.006710 0.026626 0.002410 -0.004103
# 5 0.000566 0.000715 0.000025 0.002410 0.018816 -0.003000
# 6 -0.005004 -0.000487 0.004190 -0.004103 -0.003000 0.027405
#
#
# Mechanical properties :
#
#
# Convention : Reuss Voigt Hill
#
# Bulk Modulus (GPa) = 62.15302 67.40958 64.78130
# Shear Modulus (GPa) = 38.47594 44.75022 41.61308
#
# Velocity S-wave (km/s) = 3.98650 4.29926 4.14583
# Velocity P-wave (km/s) = 6.84553 7.24485 7.04802
#
# Compressibility (1/GPa) = 0.01608932
#
# Stress axis : x y z
#
# Youngs Moduli (GPa) = 115.59478 84.68196 74.32056
#
# Poissons Ratio (x) = 0.10682 0.31108
# Poissons Ratio (y) = 0.14582 0.25758
# Poissons Ratio (z) = 0.48384 0.29349
#
# Static dielectric constant tensor:
#      x y z
#    x 1.936010 -0.041020 -0.053670 
#    y -0.041020 1.967380 0.052650 
#    z -0.053670 0.052650 2.021800 
# 
# From -- ./inp_files/45184.got.cif
#   From: 2010.05.17/outbox.cif.g08.bks.cpg/sg2_23_cif.got.tgz:45184.got - 2010.06.03 11:33:40.
