data_PCOD9003085
_publ_section_title
;
Structure prediction by ZEFSAII (Michael W. Deem and Ramdas Pophale) SiO2 
 PCOD9003085
Probable space group: P -1
;
_chemical_formula_sum "Si O2"
_cell_formula_units_Z 14
_cell_length_a 5.186184
_cell_length_b 5.099722
_cell_length_c 26.788362
_cell_angle_alpha 52.845965
_cell_angle_beta 75.435162
_cell_angle_gamma 85.311218
_cell_volume 544.275157
_symmetry_space_group_name_H-M "P -1"
_symmetry_group_IT_number 2
_symmetry_cell_setting 'triclinic'
loop_
_space_group_symop_operation_xyz
x,y,z
-x,-y,-z
loop_
_atom_site_type_symbol
_atom_site_label
_atom_site_fract_x
_atom_site_fract_y
_atom_site_fract_z
Si Si1 0.418945 0.677372 0.338675
Si Si2 0.979326 0.629457 0.296817
Si Si3 0.064145 0.070751 0.836858
Si Si4 0.421985 0.928957 0.454788
Si Si5 0.018788 0.131089 0.583455
Si Si6 0.659149 0.499101 0.941336
Si Si7 0.783155 0.620181 0.100723
O O1 0.730303 0.806523 0.311951
O O2 0.439400 0.285360 0.385676
O O3 0.268506 0.780783 0.284257
O O4 0.206059 0.750512 0.382781
O O5 0.945231 0.654502 0.236469
O O6 0.971140 0.256630 0.360102
O O7 0.175120 0.192256 0.870885
O O8 0.769760 0.876542 0.879876
O O9 0.228122 0.774064 0.843140
O O10 0.113750 0.814615 0.470535
O O11 0.668350 0.739321 0.442552
O O12 0.500000 0.000000 0.500000
O O13 0.470264 0.334079 0.926386
O O14 0.937348 0.330921 0.949541
O O15 0.500000 0.500000 0.000000
#
# Coordination Sequence:
#
# PCOD9003085 Si02
#       7
#     2   2   2   2   2   2   2
#     4  10  22  39  59  87 119 162 211 256 325 385
#     4  10  23  39  59  87 123 162 209 268 321 393
#     4  10  26  43  66  98 133 173 222 275 336 397
#     4  10  21  37  57  88 121 155 205 259 312 386
#     4  10  21  38  59  85 118 161 205 257 320 384
#     4  10  24  44  67  98 132 174 221 274 331 398
#     4  10  25  41  67  96 132 169 223 267 337 396
#
# _framework density 25.722283000000001
#
# number of rings (size 3 to 8) (size 9 to 14) (size 15 to 20)
#    0.857    1.143    0.000    1.714    6.000    2.286 
#    0.000    0.000    0.000    0.000    0.000    0.000 
#    0.000    0.000    0.000    0.000    0.000    0.000 
#
# Total GULP energy -78220.250719 kJ/mol
# GULP energy per Si atom -5587.160766 kJ/mol
# Density = 2.566374 g / cm^3
# Si number density = 25.722283 Si / 1000 Ang^3
#
#
#
# Elastic Constant Matrix: (Units=GPa)
#
#
# Indices 1 2 3 4 5 6 
#
# 1 205.4618 57.6747 59.6116 -0.1266 19.5621 -10.9525
# 2 57.6747 90.2077 22.0412 5.4526 5.9755 -11.2176
# 3 59.6116 22.0412 90.0353 14.4200 11.5463 -2.9382
# 4 -0.1266 5.4526 14.4200 28.5596 -0.7552 9.3594
# 5 19.5621 5.9755 11.5463 -0.7552 33.0452 3.1878
# 6 -10.9525 -11.2176 -2.9382 9.3594 3.1878 48.0723
#
#
#
# Elastic Compliance Matrix: (Units=1/GPa)
#
#
# Indices 1 2 3 4 5 6 
#
# 1 0.007298 -0.003664 -0.004076 0.002672 -0.002190 0.000184
# 2 -0.003664 0.014158 -0.000261 -0.003658 -0.000694 0.003211
# 3 -0.004076 -0.000261 0.015751 -0.008628 -0.003422 0.001880
# 4 0.002672 -0.003658 -0.008628 0.043289 0.003997 -0.009466
# 5 -0.002190 -0.000694 -0.003422 0.003997 0.033343 -0.003859
# 6 0.000184 0.003211 0.001880 -0.009466 -0.003859 0.023807
#
#
# Mechanical properties :
#
#
# Convention : Reuss Voigt Hill
#
# Bulk Modulus (GPa) = 47.15488 73.81774 60.48631
# Shear Modulus (GPa) = 31.11076 38.36057 34.73566
#
# Velocity S-wave (km/s) = 3.48154 3.86597 3.67878
# Velocity P-wave (km/s) = 5.87653 6.97767 6.45064
#
# Compressibility (1/GPa) = 0.02120672
#
# Stress axis : x y z
#
# Youngs Moduli (GPa) = 137.02156 70.63135 63.48646
#
# Poissons Ratio (x) = 0.25877 0.25878
# Poissons Ratio (y) = 0.50200 0.01654
# Poissons Ratio (z) = 0.55852 0.01840
#
# Static dielectric constant tensor:
#      x y z
#    x 2.080180 0.044690 -0.040740 
#    y 0.044690 2.063960 -0.030040 
#    z -0.040740 -0.030040 2.042160 
# 
# From -- ./inp_files/127821.got.cif
#   From: 2010.05.17/outbox.cif.g08.bks.cpg/sg2_64_cif.got.tgz:127821.got - 2010.06.03 11:33:40.
