data_PCOD9003983
_publ_section_title
;
Structure prediction by ZEFSAII (Michael W. Deem and Ramdas Pophale) SiO2 
 PCOD9003983
Probable space group: P -1
;
_chemical_formula_sum "Si O2"
_cell_formula_units_Z 14
_cell_length_a 14.427372
_cell_length_b 23.360114
_cell_length_c 8.294903
_cell_angle_alpha 137.862292
_cell_angle_beta 41.040272
_cell_angle_gamma 159.780979
_cell_volume 627.324007
_symmetry_space_group_name_H-M "P -1"
_symmetry_group_IT_number 2
_symmetry_cell_setting 'triclinic'
loop_
_space_group_symop_operation_xyz
x,y,z
-x,-y,-z
loop_
_atom_site_type_symbol
_atom_site_label
_atom_site_fract_x
_atom_site_fract_y
_atom_site_fract_z
Si Si1 0.469965 0.617493 0.834802
Si Si2 0.540513 0.974623 0.651076
Si Si3 0.873184 0.139243 0.238416
Si Si4 0.175289 0.479613 0.591152
Si Si5 0.890529 0.732533 0.335484
Si Si6 0.666652 0.674763 0.175964
Si Si7 0.775893 0.356908 0.626789
O O1 0.314527 0.559993 0.750472
O O2 0.765054 0.732128 0.633528
O O3 0.300365 0.450652 0.786361
O O4 0.441475 0.682432 0.125724
O O5 0.338689 0.946350 0.806182
O O6 0.365837 0.803608 0.581828
O O7 0.685655 0.020030 0.387559
O O8 0.794864 0.128382 0.753109
O O9 0.033425 0.311689 0.426488
O O10 0.111021 0.198431 0.992251
O O11 0.424195 0.613170 0.412227
O O12 0.941012 0.419886 0.707140
O O13 0.842131 0.750837 0.266455
O O14 0.500000 0.500000 0.000000
O O15 0.000000 0.500000 0.500000
#
# Coordination Sequence:
#
# PCOD9003983 Si02
#       7
#     2   2   2   2   2   2   2
#     4  10  21  38  61  87 118 156 197 241 290 358
#     4  10  21  38  56  87 122 153 200 239 297 348
#     4   9  18  35  59  87 117 154 195 241 291 342
#     4   9  18  38  59  85 116 156 196 235 292 350
#     4  10  21  37  63  92 114 153 203 244 289 343
#     4   9  19  33  60  91 116 148 194 251 288 338
#     4  11  25  39  58  87 121 160 194 240 301 352
#
# _framework density 22.317015000000001
#
# number of rings (size 3 to 8) (size 9 to 14) (size 15 to 20)
#    0.000    2.286    1.429    0.429    8.000    1.143 
#    0.000    0.000    0.000    3.429    0.000    0.000 
#    0.000    0.000    0.000    0.000    0.000    0.000 
#
# Total GULP energy -78197.480046 kJ/mol
# GULP energy per Si atom -5585.534289 kJ/mol
# Density = 2.226622 g / cm^3
# Si number density = 22.317015 Si / 1000 Ang^3
#
#
#
# Elastic Constant Matrix: (Units=GPa)
#
#
# Indices 1 2 3 4 5 6 
#
# 1 49.5262 12.6629 7.3830 2.9224 -2.0121 8.9808
# 2 12.6629 80.3295 -2.0794 -20.6528 0.2907 1.9890
# 3 7.3830 -2.0794 42.6119 -19.4519 -9.5642 -0.5271
# 4 2.9224 -20.6528 -19.4519 20.9079 4.2502 6.0847
# 5 -2.0121 0.2907 -9.5642 4.2502 23.5764 -5.8795
# 6 8.9808 1.9890 -0.5271 6.0847 -5.8795 44.6469
#
#
#
# Elastic Compliance Matrix: (Units=1/GPa)
#
#
# Indices 1 2 3 4 5 6 
#
# 1 0.032651 -0.019520 -0.030560 -0.052709 0.000426 0.001180
# 2 -0.019520 0.038248 0.042659 0.083199 -0.002046 -0.008882
# 3 -0.030560 0.042659 0.094750 0.136574 0.007629 -0.012243
# 4 -0.052709 0.083199 0.136574 0.274561 -0.007059 -0.029840
# 5 0.000426 -0.002046 0.007629 -0.007059 0.048707 0.007472
# 6 0.001180 -0.008882 -0.012243 -0.029840 0.007472 0.027462
#
#
# Mechanical properties :
#
#
# Convention : Reuss Voigt Hill
#
# Bulk Modulus (GPa) = 6.63107 23.15562 14.89335
# Shear Modulus (GPa) = 8.59856 28.12632 18.36244
#
# Velocity S-wave (km/s) = 1.96501 3.55393 2.87156
# Velocity P-wave (km/s) = 2.85064 5.21909 4.20506
#
# Compressibility (1/GPa) = 0.15080512
#
# Stress axis : x y z
#
# Youngs Moduli (GPa) = 30.62647 26.14523 10.55413
#
# Poissons Ratio (x) = 0.51036 0.32254
# Poissons Ratio (y) = 0.59784 -0.45023
# Poissons Ratio (z) = 0.93596 -1.11533
#
# Static dielectric constant tensor:
#      x y z
#    x 1.838340 0.015660 0.039730 
#    y 0.015660 1.791560 -0.019140 
#    z 0.039730 -0.019140 1.843010 
# 
# From -- ./inp_files/182642.got.cif
#   From: 2010.05.17/outbox.cif.g08.bks.cpg/sg2_92_cif.got.tgz:182642.got - 2010.06.03 11:33:40.
