data_PCOD9003409
_publ_section_title
;
Structure prediction by ZEFSAII (Michael W. Deem and Ramdas Pophale) SiO2 
 PCOD9003409
Probable space group: P -1
;
_chemical_formula_sum "Si O2"
_cell_formula_units_Z 14
_cell_length_a 6.385356
_cell_length_b 8.312316
_cell_length_c 22.140880
_cell_angle_alpha 137.818792
_cell_angle_beta 80.029730
_cell_angle_gamma 123.197293
_cell_volume 601.083671
_symmetry_space_group_name_H-M "P -1"
_symmetry_group_IT_number 2
_symmetry_cell_setting 'triclinic'
loop_
_space_group_symop_operation_xyz
x,y,z
-x,-y,-z
loop_
_atom_site_type_symbol
_atom_site_label
_atom_site_fract_x
_atom_site_fract_y
_atom_site_fract_z
Si Si1 0.247631 0.788966 0.608296
Si Si2 0.667840 0.526187 0.374701
Si Si3 0.796798 0.364939 0.882452
Si Si4 0.905620 0.975531 0.703731
Si Si5 0.644634 0.061194 0.926152
Si Si6 0.326678 0.254835 0.064956
Si Si7 0.204987 0.952206 0.401868
O O1 0.294676 0.643161 0.621275
O O2 0.526651 0.013496 0.617421
O O3 0.000000 0.500000 0.500000
O O4 0.156087 0.975120 0.692384
O O5 0.340713 0.297458 0.317875
O O6 0.724964 0.828005 0.484347
O O7 0.900356 0.636543 0.343994
O O8 0.627571 0.095184 0.865538
O O9 0.622583 0.443763 0.879353
O O10 0.932750 0.271356 0.804007
O O11 0.043159 0.664344 0.990713
O O12 0.822064 0.911812 0.619816
O O13 0.589728 0.763169 0.876145
O O14 0.464606 0.143310 0.987726
O O15 0.000000 0.000000 0.000000
#
# Coordination Sequence:
#
# PCOD9003409 Si02
#       7
#     2   2   2   2   2   2   2
#     4  11  19  36  60  83 116 157 198 246 296 351
#     4  10  21  38  59  84 112 155 206 242 297 365
#     4  10  21  37  60  85 122 155 193 248 301 344
#     4  11  22  39  56  87 121 155 197 251 297 348
#     4   9  19  38  62  89 111 158 203 230 293 378
#     4   9  18  37  62  87 115 153 195 241 295 358
#     4  10  21  38  59  83 115 154 201 247 297 359
#
# _framework density 23.291264000000002
#
# number of rings (size 3 to 8) (size 9 to 14) (size 15 to 20)
#    0.000    2.000    2.857    1.286    0.000    4.000 
#   10.286    0.000    0.000    0.000    0.000    0.000 
#    0.000    0.000    0.000    0.000    0.000    0.000 
#
# Total GULP energy -78078.632361 kJ/mol
# GULP energy per Si atom -5577.045169 kJ/mol
# Density = 2.323825 g / cm^3
# Si number density = 23.291264 Si / 1000 Ang^3
#
#
#
# Elastic Constant Matrix: (Units=GPa)
#
#
# Indices 1 2 3 4 5 6 
#
# 1 144.6137 77.8917 31.4181 -8.6900 -34.8300 0.1742
# 2 77.8917 135.7304 20.8078 -13.5088 -22.2948 20.2868
# 3 31.4181 20.8078 47.0076 -0.4328 -19.3789 -4.2233
# 4 -8.6900 -13.5088 -0.4328 19.3232 9.8328 -6.9635
# 5 -34.8300 -22.2948 -19.3789 9.8328 35.9134 8.9591
# 6 0.1742 20.2868 -4.2233 -6.9635 8.9591 44.0266
#
#
#
# Elastic Compliance Matrix: (Units=1/GPa)
#
#
# Indices 1 2 3 4 5 6 
#
# 1 0.012168 -0.005663 -0.002569 -0.002114 0.007357 0.000483
# 2 -0.005663 0.012304 -0.001289 0.002895 0.002089 -0.005738
# 3 -0.002569 -0.001289 0.029907 -0.009965 0.015909 -0.001341
# 4 -0.002114 0.002895 -0.009965 0.073092 -0.029452 0.015272
# 5 0.007357 0.002089 0.015909 -0.029452 0.056840 -0.015691
# 6 0.000483 -0.005738 -0.001341 0.015272 -0.015691 0.030835
#
#
# Mechanical properties :
#
#
# Convention : Reuss Voigt Hill
#
# Bulk Modulus (GPa) = 28.29878 65.28745 46.79312
# Shear Modulus (GPa) = 20.32803 33.00159 26.66481
#
# Velocity S-wave (km/s) = 2.95748 3.76827 3.38722
# Velocity P-wave (km/s) = 4.88248 6.85747 5.95246
#
# Compressibility (1/GPa) = 0.03533722
#
# Stress axis : x y z
#
# Youngs Moduli (GPa) = 82.18569 81.27506 33.43704
#
# Poissons Ratio (x) = 0.46026 0.08589
# Poissons Ratio (y) = 0.46542 0.04310
# Poissons Ratio (z) = 0.21111 0.10476
#
# Static dielectric constant tensor:
#      x y z
#    x 1.881570 0.020400 0.018250 
#    y 0.020400 1.955210 0.035820 
#    z 0.018250 0.035820 1.905740 
# 
# From -- ./inp_files/107478.got.cif
#   From: 2010.05.17/outbox.cif.g08.bks.cpg/sg2_54_cif.got.tgz:107478.got - 2010.06.03 11:33:40.
