data_PCOD9003799
_publ_section_title
;
Structure prediction by ZEFSAII (Michael W. Deem and Ramdas Pophale) SiO2 
 PCOD9003799
Probable space group: P -1
;
_chemical_formula_sum "Si O2"
_cell_formula_units_Z 16
_cell_length_a 23.095713
_cell_length_b 14.067569
_cell_length_c 16.030628
_cell_angle_alpha 148.450822
_cell_angle_beta 22.461689
_cell_angle_gamma 159.213243
_cell_volume 703.535111
_symmetry_space_group_name_H-M "P -1"
_symmetry_group_IT_number 2
_symmetry_cell_setting 'triclinic'
loop_
_space_group_symop_operation_xyz
x,y,z
-x,-y,-z
loop_
_atom_site_type_symbol
_atom_site_label
_atom_site_fract_x
_atom_site_fract_y
_atom_site_fract_z
Si Si1 0.536286 0.321690 0.336314
Si Si2 0.644519 0.364574 0.040813
Si Si3 0.913773 0.064912 0.093551
Si Si4 0.266970 0.769874 0.343706
Si Si5 0.552828 0.474610 0.674128
Si Si6 0.635766 0.859856 0.976623
Si Si7 0.965854 0.578970 0.191165
Si Si8 0.953411 0.193396 0.958964
O O1 0.500000 0.500000 0.500000
O O2 0.550801 0.242487 0.165769
O O3 0.782897 0.542879 0.214185
O O4 0.352044 0.053178 0.435593
O O5 0.523001 0.444545 0.233471
O O6 0.911947 0.620961 0.890472
O O7 0.641826 0.238846 0.869535
O O8 0.944185 0.051883 0.944809
O O9 0.649960 0.847503 0.292581
O O10 0.000000 0.000000 0.000000
O O11 0.000000 0.500000 0.500000
O O12 0.414246 0.788427 0.229256
O O13 0.571953 0.611283 0.835324
O O14 0.780574 0.570251 0.428004
O O15 0.790479 0.982290 0.944547
O O16 0.798141 0.109305 0.880486
O O17 0.889681 0.347846 0.180220
O O18 0.000000 0.500000 0.000000
#
# Coordination Sequence:
#
# PCOD9003799 Si02
#       8
#     2   2   2   2   2   2   2   2
#     4  11  24  41  68  99 133 182 237 282 340 418
#     4   9  22  41  66  94 133 177 230 281 335 415
#     4   9  20  41  65  94 132 172 223 282 337 400
#     4  11  24  44  70 100 138 183 226 290 353 406
#     4  10  21  38  66  97 132 174 221 280 341 397
#     4  10  22  41  66  97 136 172 224 280 338 407
#     4  10  21  37  62  90 132 172 218 273 328 405
#     4  10  22  41  64  96 133 174 223 274 341 409
#
# _framework density 22.742290000000001
#
# number of rings (size 3 to 8) (size 9 to 14) (size 15 to 20)
#    0.000    2.000    1.250    0.750    3.500   10.000 
#    0.000    1.250    0.000    0.000    0.000    0.000 
#    0.000    0.000    0.000    0.000    0.000    0.000 
#
# Total GULP energy -89153.518527 kJ/mol
# GULP energy per Si atom -5572.094908 kJ/mol
# Density = 2.269053 g / cm^3
# Si number density = 22.742290 Si / 1000 Ang^3
#
#
#
# Elastic Constant Matrix: (Units=GPa)
#
#
# Indices 1 2 3 4 5 6 
#
# 1 130.4179 38.1241 27.4112 -5.3545 -17.4265 16.4571
# 2 38.1241 86.5718 59.9749 -28.1528 -12.8551 3.3313
# 3 27.4112 59.9749 119.6891 -15.1733 -28.8283 1.4358
# 4 -5.3545 -28.1528 -15.1733 43.3905 9.8148 -4.8435
# 5 -17.4265 -12.8551 -28.8283 9.8148 29.5644 -8.6163
# 6 16.4571 3.3313 1.4358 -4.8435 -8.6163 34.1764
#
#
#
# Elastic Compliance Matrix: (Units=1/GPa)
#
#
# Indices 1 2 3 4 5 6 
#
# 1 0.009967 -0.005500 0.001235 -0.003385 0.004764 -0.003594
# 2 -0.005500 0.025148 -0.011532 0.013446 -0.007838 0.000611
# 3 0.001235 -0.011532 0.016697 -0.004407 0.014274 0.002802
# 4 -0.003385 0.013446 -0.004407 0.032463 -0.010508 0.002456
# 5 0.004764 -0.007838 0.014274 -0.010508 0.053508 0.009871
# 6 -0.003594 0.000611 0.002802 0.002456 0.009871 0.033650
#
#
# Mechanical properties :
#
#
# Convention : Reuss Voigt Hill
#
# Bulk Modulus (GPa) = 49.46492 65.29993 57.38242
# Shear Modulus (GPa) = 23.83616 35.50416 29.67016
#
# Velocity S-wave (km/s) = 3.24095 3.95543 3.61588
# Velocity P-wave (km/s) = 5.98351 7.04527 6.53599
#
# Compressibility (1/GPa) = 0.02021635
#
# Stress axis : x y z
#
# Youngs Moduli (GPa) = 100.33162 39.76537 59.89254
#
# Poissons Ratio (x) = 0.21870 -0.07394
# Poissons Ratio (y) = 0.55180 0.69069
# Poissons Ratio (z) = -0.12387 0.45858
#
# Static dielectric constant tensor:
#      x y z
#    x 2.005880 -0.046880 -0.008960 
#    y -0.046880 1.903540 0.045150 
#    z -0.008960 0.045150 1.890600 
# 
# From -- ./inp_files/579328.got.cif
#   From: 2010.05.17/outbox.cif.g08.bks.cpg/sg2_290_cif.got.tgz:579328.got - 2010.06.03 11:33:40.
