data_PCOD9003729
_publ_section_title
;
Structure prediction by ZEFSAII (Michael W. Deem and Ramdas Pophale) SiO2 
 PCOD9003729
Probable space group: P -1
;
_chemical_formula_sum "Si O2"
_cell_formula_units_Z 6
_cell_length_a 17.097030
_cell_length_b 5.136145
_cell_length_c 5.531754
_cell_angle_alpha 120.980750
_cell_angle_beta 37.479598
_cell_angle_gamma 131.137940
_cell_volume 222.576690
_symmetry_space_group_name_H-M "P -1"
_symmetry_group_IT_number 2
_symmetry_cell_setting 'triclinic'
loop_
_space_group_symop_operation_xyz
x,y,z
-x,-y,-z
loop_
_atom_site_type_symbol
_atom_site_label
_atom_site_fract_x
_atom_site_fract_y
_atom_site_fract_z
Si Si1 0.050821 0.904365 0.077834
Si Si2 0.666666 0.803308 0.206711
Si Si3 0.602746 0.341157 0.752652
O O1 0.228022 0.108195 0.779306
O O2 0.000000 0.000000 0.500000
O O3 0.000000 0.500000 0.000000
O O4 0.000000 0.000000 0.000000
O O5 0.500000 0.500000 0.500000
O O6 0.664557 0.162514 0.326378
O O7 0.717682 0.637952 0.787484
O O8 0.500000 0.500000 0.000000
O O9 0.500000 0.000000 0.000000
#
# Coordination Sequence:
#
# PCOD9003729 Si02
#       3
#     2   2   2
#     4  12  28  50  75 109 153 199 246 306 378 448
#     4  10  23  43  71 104 140 189 245 302 361 437
#     4  10  21  37  61  97 134 172 226 294 353 411
#
# _framework density 26.956997000000001
#
# number of rings (size 3 to 8) (size 9 to 14) (size 15 to 20)
#    0.000    1.333    0.000    4.000    0.000   16.000 
#    0.000    0.000    0.000    0.000    0.000    0.000 
#    0.000    0.000    0.000    0.000    0.000    0.000 
#
# Total GULP energy -33551.761805 kJ/mol
# GULP energy per Si atom -5591.960301 kJ/mol
# Density = 2.689564 g / cm^3
# Si number density = 26.956997 Si / 1000 Ang^3
#
#
#
# Elastic Constant Matrix: (Units=GPa)
#
#
# Indices 1 2 3 4 5 6 
#
# 1 252.7352 132.9712 56.1766 -15.1639 28.1446 17.1072
# 2 132.9712 321.6127 62.5480 43.6810 10.2309 -16.0037
# 3 56.1766 62.5480 115.4598 10.6557 1.2358 2.4371
# 4 -15.1639 43.6810 10.6557 55.2251 3.7738 -7.2378
# 5 28.1446 10.2309 1.2358 3.7738 46.4015 -7.0170
# 6 17.1072 -16.0037 2.4371 -7.2378 -7.0170 80.1054
#
#
#
# Elastic Compliance Matrix: (Units=1/GPa)
#
#
# Indices 1 2 3 4 5 6 
#
# 1 0.006903 -0.003065 -0.002050 0.004741 -0.004138 -0.001958
# 2 -0.003065 0.005228 -0.000952 -0.004698 0.001329 0.001420
# 3 -0.002050 -0.000952 0.010339 -0.001911 0.001315 -0.000124
# 4 0.004741 -0.004698 -0.001911 0.023739 -0.003731 -0.000075
# 5 -0.004138 0.001329 0.001315 -0.003731 0.024478 0.002916
# 6 -0.001958 0.001420 -0.000124 -0.000075 0.002916 0.013438
#
#
# Mechanical properties :
#
#
# Convention : Reuss Voigt Hill
#
# Bulk Modulus (GPa) = 96.74468 132.57770 114.66119
# Shear Modulus (GPa) = 50.14853 65.55387 57.85120
#
# Velocity S-wave (km/s) = 4.31782 4.93667 4.63758
# Velocity P-wave (km/s) = 7.79901 9.04335 8.44413
#
# Compressibility (1/GPa) = 0.01033649
#
# Stress axis : x y z
#
# Youngs Moduli (GPa) = 144.86674 191.27354 96.72200
#
# Poissons Ratio (x) = 0.58627 0.19829
# Poissons Ratio (y) = 0.44403 0.09203
# Poissons Ratio (z) = 0.29699 0.18200
#
# Static dielectric constant tensor:
#      x y z
#    x 2.297330 0.012990 0.162500 
#    y 0.012990 2.123800 0.124520 
#    z 0.162500 0.124520 2.950680 
# 
# From -- ./inp_files/1212.got.cif
#   From: 2010.05.17/outbox.cif.g08.bks.cpg/sg2_1_cif.got.tgz:1212.got - 2010.06.03 11:33:40.
