data_PCOD9003083
_publ_section_title
;
Structure prediction by ZEFSAII (Michael W. Deem and Ramdas Pophale) SiO2 
 PCOD9003083
Probable space group: P -1
;
_chemical_formula_sum "Si O2"
_cell_formula_units_Z 14
_cell_length_a 7.272720
_cell_length_b 14.958821
_cell_length_c 16.261400
_cell_angle_alpha 27.748968
_cell_angle_beta 80.887440
_cell_angle_gamma 63.251623
_cell_volume 600.709984
_symmetry_space_group_name_H-M "P -1"
_symmetry_group_IT_number 2
_symmetry_cell_setting 'triclinic'
loop_
_space_group_symop_operation_xyz
x,y,z
-x,-y,-z
loop_
_atom_site_type_symbol
_atom_site_label
_atom_site_fract_x
_atom_site_fract_y
_atom_site_fract_z
Si Si1 0.817458 0.951458 0.075301
Si Si2 0.531836 0.127620 0.115736
Si Si3 0.503735 0.263448 0.364513
Si Si4 0.549699 0.134312 0.293661
Si Si5 0.861382 0.329969 0.371567
Si Si6 0.431962 0.464056 0.622875
Si Si7 0.755293 0.564296 0.601743
O O1 0.976039 0.652476 0.284324
O O2 0.741287 0.029745 0.111723
O O3 0.567560 0.164701 0.866146
O O4 0.000000 0.000000 0.000000
O O5 0.532870 0.217255 0.133797
O O6 0.597543 0.859606 0.345378
O O7 0.274502 0.381941 0.885656
O O8 0.583153 0.983299 0.595907
O O9 0.708801 0.265024 0.388008
O O10 0.253597 0.445411 0.291162
O O11 0.454674 0.326230 0.220384
O O12 0.846471 0.894902 0.484032
O O13 0.826872 0.355127 0.453970
O O14 0.500000 0.500000 0.500000
O O15 0.587181 0.503310 0.635913
#
# Coordination Sequence:
#
# PCOD9003083 Si02
#       7
#     2   2   2   2   2   2   2
#     4   9  18  33  56  78 114 154 184 242 297 339
#     4  10  21  37  57  88 118 150 204 242 287 362
#     4   9  20  41  59  88 122 152 200 253 283 351
#     4  10  21  39  66  83 117 164 197 240 304 346
#     4  10  21  39  60  88 123 152 198 249 292 349
#     4   9  19  35  55  83 118 149 196 242 290 356
#     4   9  18  36  56  77 119 155 183 248 295 333
#
# _framework density 23.305755999999999
#
# number of rings (size 3 to 8) (size 9 to 14) (size 15 to 20)
#    0.000    2.571    0.000    1.714    4.000    0.571 
#    5.143   10.714    0.000    0.000    0.000    0.000 
#    0.000    0.000    0.000    0.000    0.000    0.000 
#
# Total GULP energy -77977.138385 kJ/mol
# GULP energy per Si atom -5569.795599 kJ/mol
# Density = 2.325271 g / cm^3
# Si number density = 23.305756 Si / 1000 Ang^3
#
#
#
# Elastic Constant Matrix: (Units=GPa)
#
#
# Indices 1 2 3 4 5 6 
#
# 1 58.4586 1.2342 20.3049 -2.9336 -8.6347 3.8034
# 2 1.2342 180.1874 45.2686 46.1261 1.4530 -7.9581
# 3 20.3049 45.2686 89.2676 7.4647 -8.3999 -0.3947
# 4 -2.9336 46.1261 7.4647 28.6731 7.0080 -8.8653
# 5 -8.6347 1.4530 -8.3999 7.0080 23.7889 -4.8860
# 6 3.8034 -7.9581 -0.3947 -8.8653 -4.8860 32.1960
#
#
#
# Elastic Compliance Matrix: (Units=1/GPa)
#
#
# Indices 1 2 3 4 5 6 
#
# 1 0.019465 0.000839 -0.004383 0.000109 0.005161 -0.001333
# 2 0.000839 0.011047 -0.004002 -0.017994 0.003128 -0.001898
# 3 -0.004383 -0.004002 0.014418 0.001610 0.003407 0.000665
# 4 0.000109 -0.017994 0.001610 0.071427 -0.016729 0.012688
# 5 0.005161 0.003128 0.003407 -0.016729 0.050521 0.003266
# 6 -0.001333 -0.001898 0.000665 0.012688 0.003266 0.034746
#
#
# Mechanical properties :
#
#
# Convention : Reuss Voigt Hill
#
# Bulk Modulus (GPa) = 33.51348 51.28100 42.39724
# Shear Modulus (GPa) = 22.05944 34.33866 28.19905
#
# Velocity S-wave (km/s) = 3.07990 3.84265 3.48222
# Velocity P-wave (km/s) = 5.20181 6.46060 5.86507
#
# Compressibility (1/GPa) = 0.02983874
#
# Stress axis : x y z
#
# Youngs Moduli (GPa) = 51.37413 90.52333 69.35930
#
# Poissons Ratio (x) = -0.07598 0.30397
# Poissons Ratio (y) = -0.04312 0.27759
# Poissons Ratio (z) = 0.22515 0.36230
#
# Static dielectric constant tensor:
#      x y z
#    x 1.977920 -0.134800 -0.075550 
#    y -0.134800 2.227620 0.153400 
#    z -0.075550 0.153400 2.043690 
# 
# From -- ./inp_files/291724.got.cif
#   From: 2010.05.17/outbox.cif.g08.bks.cpg/sg2_146_cif.got.tgz:291724.got - 2010.06.03 11:33:40.
