data_PCOD9003023
_publ_section_title
;
Structure prediction by ZEFSAII (Michael W. Deem and Ramdas Pophale) SiO2 
 PCOD9003023
Probable space group: P -1
;
_chemical_formula_sum "Si O2"
_cell_formula_units_Z 16
_cell_length_a 8.709440
_cell_length_b 5.408017
_cell_length_c 21.747553
_cell_angle_alpha 115.774451
_cell_angle_beta 61.013658
_cell_angle_gamma 134.492040
_cell_volume 631.685192
_symmetry_space_group_name_H-M "P -1"
_symmetry_group_IT_number 2
_symmetry_cell_setting 'triclinic'
loop_
_space_group_symop_operation_xyz
x,y,z
-x,-y,-z
loop_
_atom_site_type_symbol
_atom_site_label
_atom_site_fract_x
_atom_site_fract_y
_atom_site_fract_z
Si Si1 0.153295 0.885037 0.886630
Si Si2 0.819804 0.077970 0.984301
Si Si3 0.411307 0.217506 0.395402
Si Si4 0.865273 0.128576 0.241665
Si Si5 0.797358 0.938012 0.366995
Si Si6 0.202468 0.955720 0.145873
Si Si7 0.741406 0.307904 0.521018
Si Si8 0.803311 0.041104 0.719312
O O1 0.270571 0.015796 0.811657
O O2 0.993321 0.464222 0.866127
O O3 0.295568 0.028635 0.937661
O O4 0.976614 0.962350 0.936109
O O5 0.681235 0.953173 0.933834
O O6 0.000000 0.500000 0.000000
O O7 0.669040 0.556734 0.380297
O O8 0.294485 0.402011 0.448364
O O9 0.354523 0.944873 0.428450
O O10 0.341105 0.053400 0.323324
O O11 0.000862 0.541205 0.269164
O O12 0.733697 0.920116 0.306108
O O13 0.064189 0.102023 0.192051
O O14 0.060314 0.114789 0.333087
O O15 0.706649 0.101920 0.442613
O O16 0.318513 0.055050 0.200944
O O17 0.000000 0.500000 0.500000
#
# Coordination Sequence:
#
# PCOD9003023 Si02
#       8
#     2   2   2   2   2   2   2   2
#     4   8  13  23  41  71 107 147 186 234 282 338
#     4   8  12  20  39  68 109 145 187 233 279 333
#     4  12  27  42  64  90 116 154 198 241 297 357
#     4   9  18  32  53  75 112 149 191 236 294 344
#     4  11  24  39  61  85 116 151 192 245 293 353
#     4   8  15  27  44  74 106 149 188 235 287 337
#     4  12  25  45  66  88 119 153 194 244 299 353
#     4  10  21  37  57  81 116 154 193 242 295 350
#
# _framework density 25.329075
#
# number of rings (size 3 to 8) (size 9 to 14) (size 15 to 20)
#    0.000    2.250    1.250    1.875    5.250    0.000 
#    0.000    0.000    0.000    0.000    0.000    0.875 
#    0.000  195.000    0.000   50.000    0.000   11.625 
#
# Total GULP energy -89308.590101 kJ/mol
# GULP energy per Si atom -5581.786881 kJ/mol
# Density = 2.527142 g / cm^3
# Si number density = 25.329075 Si / 1000 Ang^3
#
#
#
# Elastic Constant Matrix: (Units=GPa)
#
#
# Indices 1 2 3 4 5 6 
#
# 1 68.0017 9.5443 48.3435 3.4039 9.2912 -20.5922
# 2 9.5443 49.3243 20.5287 0.0603 1.2820 -18.0068
# 3 48.3435 20.5287 200.6081 -6.2196 45.8603 -12.9890
# 4 3.4039 0.0603 -6.2196 39.5407 -23.5886 -3.6424
# 5 9.2912 1.2820 45.8603 -23.5886 59.4049 6.0388
# 6 -20.5922 -18.0068 -12.9890 -3.6424 6.0388 21.6868
#
#
#
# Elastic Compliance Matrix: (Units=1/GPa)
#
#
# Indices 1 2 3 4 5 6 
#
# 1 0.026621 0.007735 -0.004059 -0.003543 -0.005679 0.030255
# 2 0.007735 0.032065 -0.002102 -0.000197 -0.003786 0.033731
# 3 -0.004059 -0.002102 0.007476 -0.001969 -0.005893 0.000188
# 4 -0.003543 -0.000197 -0.001969 0.034620 0.016171 -0.003395
# 5 -0.005679 -0.003786 -0.005893 0.016171 0.030590 -0.017867
# 6 0.030255 0.033731 0.000188 -0.003395 -0.017867 0.107364
#
#
# Mechanical properties :
#
#
# Convention : Reuss Voigt Hill
#
# Bulk Modulus (GPa) = 14.42791 52.75192 33.58992
# Shear Modulus (GPa) = 19.32811 40.09434 29.71122
#
# Velocity S-wave (km/s) = 2.76539 3.98293 3.42864
# Velocity P-wave (km/s) = 3.98811 6.48255 5.38185
#
# Compressibility (1/GPa) = 0.06931009
#
# Stress axis : x y z
#
# Youngs Moduli (GPa) = 37.56474 31.18687 133.75428
#
# Poissons Ratio (x) = -0.24124 0.54296
# Poissons Ratio (y) = -0.29058 0.28114
# Poissons Ratio (z) = 0.15249 0.06555
#
# Static dielectric constant tensor:
#      x y z
#    x 2.046990 0.009570 0.093780 
#    y 0.009570 2.077160 0.064950 
#    z 0.093780 0.064950 2.137880 
# 
# From -- ./inp_files/51206.got.cif
#   From: 2010.05.17/outbox.cif.g08.bks.cpg/sg2_26_cif.got.tgz:51206.got - 2010.06.03 11:33:40.
