data_PCOD9003999
_publ_section_title
;
Structure prediction by ZEFSAII (Michael W. Deem and Ramdas Pophale) SiO2 
 PCOD9003999
Probable space group: P -1
;
_chemical_formula_sum "Si O2"
_cell_formula_units_Z 16
_cell_length_a 19.428936
_cell_length_b 12.968504
_cell_length_c 8.436125
_cell_angle_alpha 52.848903
_cell_angle_beta 116.621901
_cell_angle_gamma 150.456072
_cell_volume 819.079209
_symmetry_space_group_name_H-M "P -1"
_symmetry_group_IT_number 2
_symmetry_cell_setting 'triclinic'
loop_
_space_group_symop_operation_xyz
x,y,z
-x,-y,-z
loop_
_atom_site_type_symbol
_atom_site_label
_atom_site_fract_x
_atom_site_fract_y
_atom_site_fract_z
Si Si1 0.147796 0.467488 0.124648
Si Si2 0.832849 0.615667 0.112375
Si Si3 0.945906 0.040869 0.725590
Si Si4 0.495109 0.122047 0.214791
Si Si5 0.803856 0.709126 0.453790
Si Si6 0.530471 0.214505 0.504638
Si Si7 0.364361 0.012173 0.852602
Si Si8 0.839808 0.034585 0.346905
O O1 0.208892 0.421406 0.306477
O O2 0.114607 0.386920 0.984494
O O3 0.001418 0.296745 0.219547
O O4 0.263393 0.743298 0.998355
O O5 0.665967 0.352984 0.192458
O O6 0.936075 0.724887 0.261048
O O7 0.857884 0.805471 0.941648
O O8 0.042584 0.099853 0.642762
O O9 0.848922 0.004967 0.567156
O O10 0.451020 0.121943 0.339262
O O11 0.437189 0.893644 0.358335
O O12 0.455270 0.133250 0.997168
O O13 0.676662 0.501484 0.393796
O O14 0.796897 0.842618 0.389893
O O15 0.450154 0.131227 0.664138
O O16 0.266810 0.001043 0.763280
#
# Coordination Sequence:
#
# PCOD9003999 Si02
#       8
#     2   2   2   2   2   2   2   2
#     4  11  20  40  66  90 116 163 214 250 300 366
#     4  11  19  37  67  92 114 155 215 263 297 350
#     4  10  21  37  63  93 119 156 208 260 303 359
#     4  11  23  41  65  95 120 161 214 258 299 364
#     4  11  19  40  63  89 119 160 211 255 298 359
#     4  11  23  39  66  91 123 163 212 255 298 368
#     4  12  25  42  62  92 131 167 198 251 318 370
#     4  11  24  40  60  92 128 163 197 254 318 367
#
# _framework density 19.534132
#
# number of rings (size 3 to 8) (size 9 to 14) (size 15 to 20)
#    0.000    1.000    6.250    2.250    0.000    0.500 
#    2.250    1.250    0.000    0.000    0.000    0.000 
#    0.000    0.000    0.000    0.000    0.000    0.000 
#
# Total GULP energy -89321.941549 kJ/mol
# GULP energy per Si atom -5582.621347 kJ/mol
# Density = 1.948967 g / cm^3
# Si number density = 19.534132 Si / 1000 Ang^3
#
#
#
# Elastic Constant Matrix: (Units=GPa)
#
#
# Indices 1 2 3 4 5 6 
#
# 1 49.7998 10.9112 24.1293 12.9304 -5.7792 -6.7159
# 2 10.9112 94.2033 22.1811 8.4077 1.2839 -17.1300
# 3 24.1293 22.1811 65.8225 10.2893 -7.0464 -4.0486
# 4 12.9304 8.4077 10.2893 44.9520 -7.0079 -10.5501
# 5 -5.7792 1.2839 -7.0464 -7.0079 23.3250 0.4602
# 6 -6.7159 -17.1300 -4.0486 -10.5501 0.4602 22.7507
#
#
#
# Elastic Compliance Matrix: (Units=1/GPa)
#
#
# Indices 1 2 3 4 5 6 
#
# 1 0.026097 0.000069 -0.008395 -0.004195 0.002582 0.004264
# 2 0.000069 0.013324 -0.004208 0.000362 -0.002067 0.009513
# 3 -0.008395 -0.004208 0.020157 -0.001473 0.003854 -0.002820
# 4 -0.004195 0.000362 -0.001473 0.027399 0.006504 0.011346
# 5 0.002582 -0.002067 0.003854 0.006504 0.046705 0.001963
# 6 0.004264 0.009513 -0.002820 0.011346 0.001963 0.057096
#
#
# Mechanical properties :
#
#
# Convention : Reuss Voigt Hill
#
# Bulk Modulus (GPa) = 28.97790 36.02985 32.50388
# Shear Modulus (GPa) = 21.99246 28.37914 25.18580
#
# Velocity S-wave (km/s) = 3.35901 3.81569 3.59461
# Velocity P-wave (km/s) = 5.46906 6.15608 5.82271
#
# Compressibility (1/GPa) = 0.03450905
#
# Stress axis : x y z
#
# Youngs Moduli (GPa) = 38.31868 75.05301 49.60988
#
# Poissons Ratio (x) = -0.00515 0.41650
# Poissons Ratio (y) = -0.00263 0.20875
# Poissons Ratio (z) = 0.32170 0.31580
#
# Static dielectric constant tensor:
#      x y z
#    x 1.675030 -0.016780 -0.060550 
#    y -0.016780 1.705350 0.022420 
#    z -0.060550 0.022420 1.735370 
# 
# From -- ./inp_files/263367.got.cif
#   From: 2010.05.17/outbox.cif.g08.bks.cpg/sg2_132_cif.got.tgz:263367.got - 2010.06.03 11:33:40.
