data_PCOD9003612
_publ_section_title
;
Structure prediction by ZEFSAII (Michael W. Deem and Ramdas Pophale) SiO2 
 PCOD9003612
Probable space group: P -1
;
_chemical_formula_sum "Si O2"
_cell_formula_units_Z 14
_cell_length_a 8.097294
_cell_length_b 14.006180
_cell_length_c 8.566233
_cell_angle_alpha 73.011044
_cell_angle_beta 81.209232
_cell_angle_gamma 43.379763
_cell_volume 635.520640
_symmetry_space_group_name_H-M "P -1"
_symmetry_group_IT_number 2
_symmetry_cell_setting 'triclinic'
loop_
_space_group_symop_operation_xyz
x,y,z
-x,-y,-z
loop_
_atom_site_type_symbol
_atom_site_label
_atom_site_fract_x
_atom_site_fract_y
_atom_site_fract_z
Si Si1 0.261564 0.481391 0.546551
Si Si2 0.115145 0.325699 0.742308
Si Si3 0.665259 0.369108 0.326028
Si Si4 0.114640 0.053753 0.522636
Si Si5 0.902860 0.117721 0.831348
Si Si6 0.906338 0.270727 0.015683
Si Si7 0.362021 0.948629 0.241822
O O1 0.179290 0.414493 0.670438
O O2 0.458904 0.388492 0.422402
O O3 0.365957 0.509541 0.649216
O O4 0.036796 0.627004 0.416176
O O5 0.363304 0.156341 0.796326
O O6 0.967372 0.354216 0.901966
O O7 0.917989 0.220346 0.427097
O O8 0.709189 0.351127 0.143156
O O9 0.115578 0.048706 0.710359
O O10 0.345778 0.967695 0.422292
O O11 0.000000 0.000000 0.500000
O O12 0.707289 0.135691 0.758121
O O13 0.827937 0.244515 0.883809
O O14 0.000000 0.000000 0.000000
O O15 0.151448 0.109973 0.122597
#
# Coordination Sequence:
#
# PCOD9003612 Si02
#       7
#     2   2   2   2   2   2   2
#     4  10  23  40  60  80 112 159 195 229 274 343
#     4  11  22  38  57  86 120 147 184 237 295 338
#     4  10  21  41  61  81 108 153 204 231 271 338
#     4   9  16  31  58  84 108 143 188 237 278 326
#     4   9  17  31  54  86 115 145 185 227 280 340
#     4  10  21  37  61  89 114 144 190 245 289 329
#     4   9  19  36  59  85 116 149 184 235 292 340
#
# _framework density 22.02918
#
# number of rings (size 3 to 8) (size 9 to 14) (size 15 to 20)
#    0.000    2.286    0.000    3.857    0.000    2.286 
#    0.000   12.143    0.000    0.000    0.000    0.000 
#    0.000    0.000    0.000    0.000    0.000    0.000 
#
# Total GULP energy -78050.974379 kJ/mol
# GULP energy per Si atom -5575.069599 kJ/mol
# Density = 2.197904 g / cm^3
# Si number density = 22.029180 Si / 1000 Ang^3
#
#
#
# Elastic Constant Matrix: (Units=GPa)
#
#
# Indices 1 2 3 4 5 6 
#
# 1 50.4484 21.4319 43.4229 8.2108 -13.2067 12.5088
# 2 21.4319 56.5903 47.0060 9.4327 0.7079 -2.7665
# 3 43.4229 47.0060 163.3333 26.1863 -18.2946 19.6986
# 4 8.2108 9.4327 26.1863 45.5310 -3.2147 4.1246
# 5 -13.2067 0.7079 -18.2946 -3.2147 37.7463 -6.2608
# 6 12.5088 -2.7665 19.6986 4.1246 -6.2608 26.4276
#
#
#
# Elastic Compliance Matrix: (Units=1/GPa)
#
#
# Indices 1 2 3 4 5 6 
#
# 1 0.031888 -0.010006 -0.003271 -0.000175 0.007782 -0.011832
# 2 -0.010006 0.028527 -0.007441 -0.001329 -0.005746 0.012115
# 3 -0.003271 -0.007441 0.010710 -0.003278 0.002909 -0.006013
# 4 -0.000175 -0.001329 -0.003278 0.024293 0.000220 -0.001352
# 5 0.007782 -0.005746 0.002909 0.000220 0.030890 0.000830
# 6 -0.011832 0.012115 -0.006013 -0.001352 0.000830 0.049597
#
#
# Mechanical properties :
#
#
# Convention : Reuss Voigt Hill
#
# Bulk Modulus (GPa) = 33.68352 54.89929 44.29140
# Shear Modulus (GPa) = 22.00321 32.50840 27.25580
#
# Velocity S-wave (km/s) = 3.16384 3.84565 3.52129
# Velocity P-wave (km/s) = 5.35445 6.68535 6.05657
#
# Compressibility (1/GPa) = 0.02968811
#
# Stress axis : x y z
#
# Youngs Moduli (GPa) = 31.35958 35.05431 93.36725
#
# Poissons Ratio (x) = 0.35075 0.30544
# Poissons Ratio (y) = 0.31378 0.69479
# Poissons Ratio (z) = 0.10259 0.26085
#
# Static dielectric constant tensor:
#      x y z
#    x 1.884460 -0.002420 0.004830 
#    y -0.002420 1.841760 -0.012700 
#    z 0.004830 -0.012700 1.822750 
# 
# From -- ./inp_files/190667.got.cif
#   From: 2010.05.17/outbox.cif.g08.bks.cpg/sg2_96_cif.got.tgz:190667.got - 2010.06.03 11:33:40.
