data_PCOD9003660
_publ_section_title
;
Structure prediction by ZEFSAII (Michael W. Deem and Ramdas Pophale) SiO2 
 PCOD9003660
Probable space group: P -1
;
_chemical_formula_sum "Si O2"
_cell_formula_units_Z 16
_cell_length_a 21.134441
_cell_length_b 8.216235
_cell_length_c 5.712213
_cell_angle_alpha 57.311642
_cell_angle_beta 119.808873
_cell_angle_gamma 111.329334
_cell_volume 718.160872
_symmetry_space_group_name_H-M "P -1"
_symmetry_group_IT_number 2
_symmetry_cell_setting 'triclinic'
loop_
_space_group_symop_operation_xyz
x,y,z
-x,-y,-z
loop_
_atom_site_type_symbol
_atom_site_label
_atom_site_fract_x
_atom_site_fract_y
_atom_site_fract_z
Si Si1 0.411344 0.267120 0.583683
Si Si2 0.979380 0.897929 0.289430
Si Si3 0.665893 0.165235 0.281927
Si Si4 0.196157 0.686399 0.339208
Si Si5 0.706621 0.498768 0.712148
Si Si6 0.063727 0.589392 0.874619
Si Si7 0.846335 0.640304 0.108262
Si Si8 0.445746 0.572691 0.030415
O O1 0.361755 0.389138 0.561700
O O2 0.407368 0.381599 0.242494
O O3 0.496701 0.301350 0.784755
O O4 0.376990 0.044550 0.688868
O O5 0.892440 0.821820 0.177462
O O6 0.024913 0.713369 0.521360
O O7 0.000000 0.000000 0.500000
O O8 0.000000 0.000000 0.000000
O O9 0.744333 0.152439 0.558905
O O10 0.681841 0.306727 0.974751
O O11 0.613397 0.284314 0.252269
O O12 0.246624 0.564709 0.366935
O O13 0.161362 0.543647 0.588993
O O14 0.128355 0.727479 0.022514
O O15 0.764549 0.645204 0.858575
O O16 0.103560 0.419127 0.967012
O O17 0.000000 0.500000 0.000000
O O18 0.500000 0.500000 0.000000
#
# Coordination Sequence:
#
# PCOD9003660 Si02
#       8
#     2   2   2   2   2   2   2   2
#     4  10  21  38  60  87 127 162 208 263 315 384
#     4  12  27  41  63 100 135 164 220 290 343 402
#     4  10  21  38  60  94 123 162 215 263 317 391
#     4  10  21  39  66  86 120 167 221 265 328 396
#     4   9  21  40  59  85 124 168 211 262 327 390
#     4  11  22  42  70  88 121 179 223 264 338 413
#     4  10  22  42  64  86 124 170 217 267 332 404
#     4  10  21  37  61  91 124 167 204 256 321 384
#
# _framework density 22.279129000000001
#
# number of rings (size 3 to 8) (size 9 to 14) (size 15 to 20)
#    0.000    1.750    1.250    2.250    3.500    2.500 
#    4.500    0.000    0.000    0.000    0.000    0.000 
#    0.000    0.000    0.000    0.000    0.000    0.000 
#
# Total GULP energy -89336.082314 kJ/mol
# GULP energy per Si atom -5583.505145 kJ/mol
# Density = 2.222842 g / cm^3
# Si number density = 22.279129 Si / 1000 Ang^3
#
#
#
# Elastic Constant Matrix: (Units=GPa)
#
#
# Indices 1 2 3 4 5 6 
#
# 1 113.0198 28.8142 21.0635 -9.5887 -6.3383 9.0948
# 2 28.8142 135.4059 29.9816 0.0183 0.0215 28.6016
# 3 21.0635 29.9816 73.9396 3.5548 12.6699 18.0396
# 4 -9.5887 0.0183 3.5548 27.4403 5.2879 7.0087
# 5 -6.3383 0.0215 12.6699 5.2879 36.2406 11.9024
# 6 9.0948 28.6016 18.0396 7.0087 11.9024 38.6797
#
#
#
# Elastic Compliance Matrix: (Units=1/GPa)
#
#
# Indices 1 2 3 4 5 6 
#
# 1 0.010283 -0.001215 -0.002648 0.003874 0.002763 -0.001836
# 2 -0.001215 0.009593 -0.002419 0.001079 0.002670 -0.006697
# 3 -0.002648 -0.002419 0.017106 -0.001201 -0.005017 -0.003805
# 4 0.003874 0.001079 -0.001201 0.040368 -0.002240 -0.007773
# 5 0.002763 0.002670 -0.005017 -0.002240 0.033502 -0.010187
# 6 -0.001836 -0.006697 -0.003805 -0.007773 -0.010187 0.037555
#
#
# Mechanical properties :
#
#
# Convention : Reuss Voigt Hill
#
# Bulk Modulus (GPa) = 40.95543 53.56489 47.26016
# Shear Modulus (GPa) = 29.56651 36.63919 33.10285
#
# Velocity S-wave (km/s) = 3.64688 4.05971 3.85882
# Velocity P-wave (km/s) = 6.01297 6.78747 6.41193
#
# Compressibility (1/GPa) = 0.02441679
#
# Stress axis : x y z
#
# Youngs Moduli (GPa) = 97.25114 104.23834 58.45999
#
# Poissons Ratio (x) = 0.12663 0.15482
# Poissons Ratio (y) = 0.11814 0.14144
# Poissons Ratio (z) = 0.25755 0.25219
#
# Static dielectric constant tensor:
#      x y z
#    x 1.833950 -0.022850 -0.014580 
#    y -0.022850 1.896340 0.081000 
#    z -0.014580 0.081000 1.860090 
# 
# From -- ./inp_files/53353.got.cif
#   From: 2010.05.17/outbox.cif.g08.bks.cpg/sg2_27_cif.got.tgz:53353.got - 2010.06.03 11:33:40.
