data_PCOD9003942
_publ_section_title
;
Structure prediction by ZEFSAII (Michael W. Deem and Ramdas Pophale) SiO2 
 PCOD9003942
Probable space group: P -1
;
_chemical_formula_sum "Si O2"
_cell_formula_units_Z 14
_cell_length_a 12.580302
_cell_length_b 6.763569
_cell_length_c 23.861280
_cell_angle_alpha 125.498959
_cell_angle_beta 23.517090
_cell_angle_gamma 125.690385
_cell_volume 651.391332
_symmetry_space_group_name_H-M "P -1"
_symmetry_group_IT_number 2
_symmetry_cell_setting 'triclinic'
loop_
_space_group_symop_operation_xyz
x,y,z
-x,-y,-z
loop_
_atom_site_type_symbol
_atom_site_label
_atom_site_fract_x
_atom_site_fract_y
_atom_site_fract_z
Si Si1 0.815136 0.371327 0.855412
Si Si2 0.148419 0.115158 0.740597
Si Si3 0.821113 0.424585 0.390705
Si Si4 0.272676 0.095079 0.458157
Si Si5 0.336337 0.097843 0.301770
Si Si6 0.686139 0.377752 0.567995
Si Si7 0.693183 0.881529 0.004706
O O1 0.533718 0.207445 0.947517
O O2 0.992102 0.211282 0.779610
O O3 0.953902 0.473335 0.746701
O O4 0.769405 0.624853 0.949141
O O5 0.388965 0.325620 0.676104
O O6 0.263589 0.861939 0.629668
O O7 0.942409 0.042969 0.879612
O O8 0.887560 0.416913 0.423964
O O9 0.632707 0.638502 0.516176
O O10 0.299030 0.867890 0.446424
O O11 0.950445 0.070027 0.598943
O O12 0.404427 0.073130 0.330346
O O13 0.286050 0.379981 0.367923
O O14 0.557332 0.026664 0.141496
#
# Coordination Sequence:
#
# PCOD9003942 Si02
#       7
#     2   2   2   2   2   2   2
#     4  10  21  41  62  89 120 156 204 251 292 348
#     4  11  24  39  60  93 125 158 195 243 306 361
#     4  10  21  37  63  87 121 154 198 246 295 347
#     4  10  21  41  62  89 120 156 204 251 292 348
#     4  10  22  40  62  89 118 158 205 245 296 351
#     4  11  24  39  60  93 125 158 195 243 306 361
#     4  10  22  40  62  89 118 158 205 245 296 351
#
# _framework density 21.492455
#
# number of rings (size 3 to 8) (size 9 to 14) (size 15 to 20)
#    0.000    1.714    1.429    2.143    0.000    7.429 
#    0.000    1.429    0.000    0.000    0.000    0.000 
#    0.000    0.000    0.000    0.000    0.000    0.000 
#
# Total GULP energy -78156.745525 kJ/mol
# GULP energy per Si atom -5582.624680 kJ/mol
# Density = 2.144354 g / cm^3
# Si number density = 21.492455 Si / 1000 Ang^3
#
#
#
# Elastic Constant Matrix: (Units=GPa)
#
#
# Indices 1 2 3 4 5 6 
#
# 1 48.7230 36.8773 24.6816 8.4744 0.0759 -12.8311
# 2 36.8773 123.3994 46.6848 4.9127 10.2871 -12.2280
# 3 24.6816 46.6848 112.9617 5.2339 38.4803 3.0870
# 4 8.4744 4.9127 5.2339 34.5800 9.8419 -1.5863
# 5 0.0759 10.2871 38.4803 9.8419 29.0016 -0.9685
# 6 -12.8311 -12.2280 3.0870 -1.5863 -0.9685 43.7262
#
#
#
# Elastic Compliance Matrix: (Units=1/GPa)
#
#
# Indices 1 2 3 4 5 6 
#
# 1 0.037232 -0.006540 -0.013626 -0.012776 0.024975 0.010148
# 2 -0.006540 0.011510 -0.003606 0.000405 0.000635 0.001583
# 3 -0.013626 -0.003606 0.025248 0.009882 -0.035780 -0.007223
# 4 -0.012776 0.000405 0.009882 0.037779 -0.026161 -0.003542
# 5 0.024975 0.000635 -0.035780 -0.026161 0.090913 0.011097
# 6 0.010148 0.001583 -0.007223 -0.003542 0.011097 0.026917
#
#
# Mechanical properties :
#
#
# Convention : Reuss Voigt Hill
#
# Bulk Modulus (GPa) = 37.81128 55.73017 46.77073
# Shear Modulus (GPa) = 17.48507 33.25091 25.36799
#
# Velocity S-wave (km/s) = 2.85536 3.93758 3.43931
# Velocity P-wave (km/s) = 5.33871 6.83075 6.13029
#
# Compressibility (1/GPa) = 0.02644714
#
# Stress axis : x y z
#
# Youngs Moduli (GPa) = 26.85880 86.87884 39.60714
#
# Poissons Ratio (x) = 0.56814 0.53967
# Poissons Ratio (y) = 0.17564 0.14284
# Poissons Ratio (z) = 0.36597 0.31332
#
# Static dielectric constant tensor:
#      x y z
#    x 1.807590 -0.002150 0.001950 
#    y -0.002150 1.774250 0.026700 
#    z 0.001950 0.026700 1.782350 
# 
# From -- ./inp_files/67183.got.cif
#   From: 2010.05.17/outbox.cif.g08.bks.cpg/sg2_34_cif.got.tgz:67183.got - 2010.06.03 11:33:40.
