data_PCOD9003438
_publ_section_title
;
Structure prediction by ZEFSAII (Michael W. Deem and Ramdas Pophale) SiO2 
 PCOD9003438
Probable space group: P -1
;
_chemical_formula_sum "Si O2"
_cell_formula_units_Z 16
_cell_length_a 8.466213
_cell_length_b 6.241103
_cell_length_c 13.746665
_cell_angle_alpha 95.024841
_cell_angle_beta 67.279242
_cell_angle_gamma 96.324459
_cell_volume 665.105327
_symmetry_space_group_name_H-M "P -1"
_symmetry_group_IT_number 2
_symmetry_cell_setting 'triclinic'
loop_
_space_group_symop_operation_xyz
x,y,z
-x,-y,-z
loop_
_atom_site_type_symbol
_atom_site_label
_atom_site_fract_x
_atom_site_fract_y
_atom_site_fract_z
Si Si1 0.261188 0.374889 0.204179
Si Si2 0.742036 0.973210 0.311336
Si Si3 0.850845 0.244207 0.113425
Si Si4 0.497962 0.292813 0.423075
Si Si5 0.923897 0.233832 0.753560
Si Si6 0.806212 0.940624 0.951712
Si Si7 0.401348 0.434840 0.780116
Si Si8 0.169958 0.064197 0.397443
O O1 0.109233 0.520258 0.216700
O O2 0.304069 0.221396 0.098626
O O3 0.435421 0.524417 0.188015
O O4 0.184485 0.243375 0.312671
O O5 0.623293 0.801349 0.269588
O O6 0.884486 0.830510 0.316245
O O7 0.832073 0.142371 0.220936
O O8 0.635048 0.122675 0.410153
O O9 0.774548 0.475162 0.134740
O O10 0.047624 0.201608 0.042923
O O11 0.739539 0.079823 0.060770
O O12 0.500000 0.500000 0.500000
O O13 0.551486 0.397878 0.311391
O O14 0.318446 0.157481 0.438187
O O15 0.876962 0.116762 0.861636
O O16 0.812869 0.145317 0.683006
O O17 0.000000 0.000000 0.500000
#
# Coordination Sequence:
#
# PCOD9003438 Si02
#       8
#     2   2   2   2   2   2   2   2
#     4  10  21  39  60  86 125 161 199 252 311 364
#     4  10  21  39  64  88 122 160 204 253 306 364
#     4   9  19  37  60  89 118 159 209 253 298 363
#     4  10  23  43  64  89 121 158 206 257 309 365
#     4  10  21  39  61  89 122 163 201 251 308 366
#     4   9  19  37  60  86 122 159 205 255 301 358
#     4  10  21  37  60  87 121 161 199 252 310 364
#     4  10  23  43  62  90 118 160 206 256 306 364
#
# _framework density 24.056339999999999
#
# number of rings (size 3 to 8) (size 9 to 14) (size 15 to 20)
#    0.000    2.250    0.000    1.500    1.750    4.500 
#    4.500    5.000    0.000    0.000    0.000    0.000 
#    0.000    0.000    0.000    0.000    0.000    0.000 
#
# Total GULP energy -89240.966235 kJ/mol
# GULP energy per Si atom -5577.560390 kJ/mol
# Density = 2.400159 g / cm^3
# Si number density = 24.056340 Si / 1000 Ang^3
#
#
#
# Elastic Constant Matrix: (Units=GPa)
#
#
# Indices 1 2 3 4 5 6 
#
# 1 74.3823 25.5773 1.1734 13.5219 19.9726 8.6322
# 2 25.5773 78.8002 15.2224 20.5731 4.4436 5.1928
# 3 1.1734 15.2224 58.1162 7.4548 17.1213 -6.8680
# 4 13.5219 20.5731 7.4548 48.8684 7.3984 -3.4116
# 5 19.9726 4.4436 17.1213 7.3984 22.7291 7.0448
# 6 8.6322 5.1928 -6.8680 -3.4116 7.0448 35.4191
#
#
#
# Elastic Compliance Matrix: (Units=1/GPa)
#
#
# Indices 1 2 3 4 5 6 
#
# 1 0.022964 -0.007974 0.009907 -0.000243 -0.026876 0.002816
# 2 -0.007974 0.018271 -0.008523 -0.006681 0.013821 -0.005781
# 3 0.009907 -0.008523 0.030475 0.002226 -0.034376 0.011796
# 4 -0.000243 -0.006681 0.002226 0.024943 -0.010099 0.005882
# 5 -0.026876 0.013821 -0.034376 -0.010099 0.101303 -0.023264
# 6 0.002816 -0.005781 0.011796 0.005882 -0.023264 0.035876
#
#
# Mechanical properties :
#
#
# Convention : Reuss Voigt Hill
#
# Bulk Modulus (GPa) = 17.08533 32.80501 24.94517
# Shear Modulus (GPa) = 18.76021 32.69169 25.72595
#
# Velocity S-wave (km/s) = 2.79560 3.69041 3.27372
# Velocity P-wave (km/s) = 4.18786 5.64138 4.96806
#
# Compressibility (1/GPa) = 0.05852973
#
# Stress axis : x y z
#
# Youngs Moduli (GPa) = 43.54700 54.73203 32.81375
#
# Poissons Ratio (x) = 0.43643 -0.32507
# Poissons Ratio (y) = 0.34724 0.27966
# Poissons Ratio (z) = -0.43141 0.46646
#
# Static dielectric constant tensor:
#      x y z
#    x 2.008320 0.022420 -0.026140 
#    y 0.022420 1.898470 0.016060 
#    z -0.026140 0.016060 1.966760 
# 
# From -- ./inp_files/47793.got.cif
#   From: 2010.05.17/outbox.cif.g08.bks.cpg/sg2_24_cif.got.tgz:47793.got - 2010.06.03 11:33:40.
