data_PCOD9003634
_publ_section_title
;
Structure prediction by ZEFSAII (Michael W. Deem and Ramdas Pophale) SiO2 
 PCOD9003634
Probable space group: P -1
;
_chemical_formula_sum "Si O2"
_cell_formula_units_Z 16
_cell_length_a 6.358947
_cell_length_b 14.876256
_cell_length_c 11.020790
_cell_angle_alpha 49.701008
_cell_angle_beta 80.917571
_cell_angle_gamma 67.957084
_cell_volume 731.669149
_symmetry_space_group_name_H-M "P -1"
_symmetry_group_IT_number 2
_symmetry_cell_setting 'triclinic'
loop_
_space_group_symop_operation_xyz
x,y,z
-x,-y,-z
loop_
_atom_site_type_symbol
_atom_site_label
_atom_site_fract_x
_atom_site_fract_y
_atom_site_fract_z
Si Si1 0.964125 0.266437 0.147601
Si Si2 0.917332 0.485967 0.777344
Si Si3 0.857520 0.716232 0.257152
Si Si4 0.039193 0.903245 0.923326
Si Si5 0.333947 0.138691 0.422088
Si Si6 0.427120 0.674653 0.670495
Si Si7 0.624853 0.100809 0.898353
Si Si8 0.966164 0.277159 0.495622
O O1 0.750610 0.321382 0.210184
O O2 0.927570 0.159637 0.157037
O O3 0.193527 0.201558 0.260205
O O4 0.988162 0.379761 0.967047
O O5 0.642387 0.545283 0.750368
O O6 0.028622 0.416913 0.703656
O O7 0.996078 0.604703 0.680239
O O8 0.581406 0.770112 0.229590
O O9 0.955498 0.715541 0.382309
O O10 0.943251 0.811154 0.089124
O O11 0.842556 0.041874 0.839824
O O12 0.265572 0.896060 0.982105
O O13 0.474659 0.218228 0.395832
O O14 0.138953 0.149840 0.529494
O O15 0.500000 0.000000 0.500000
O O16 0.288517 0.706047 0.530360
O O17 0.500000 0.000000 0.000000
#
# Coordination Sequence:
#
# PCOD9003634 Si02
#       8
#     2   2   2   2   2   2   2   2
#     4  10  22  39  64  91 118 160 205 251 306 360
#     4  10  22  40  62  91 124 158 209 252 300 361
#     4  10  21  37  61  90 125 162 198 247 306 359
#     4   9  20  37  58  91 120 158 205 244 302 366
#     4  10  24  44  61  89 122 160 206 254 306 364
#     4  10  23  41  61  88 124 161 209 252 302 353
#     4   9  19  37  55  85 124 155 200 249 300 356
#     4  10  23  40  61  92 123 166 205 247 304 363
#
# _framework density 21.867806999999999
#
# number of rings (size 3 to 8) (size 9 to 14) (size 15 to 20)
#    0.000    2.250    0.000    0.750    1.750   15.000 
#    9.000    0.000    0.000    0.000    0.000    0.000 
#    0.000    0.000    0.000    0.000    0.000    0.000 
#
# Total GULP energy -89389.820229 kJ/mol
# GULP energy per Si atom -5586.863764 kJ/mol
# Density = 2.181803 g / cm^3
# Si number density = 21.867807 Si / 1000 Ang^3
#
#
#
# Elastic Constant Matrix: (Units=GPa)
#
#
# Indices 1 2 3 4 5 6 
#
# 1 124.8869 58.4510 48.6921 4.9435 44.9344 3.1598
# 2 58.4510 158.4780 55.7558 -7.2967 43.3373 -14.9765
# 3 48.6921 55.7558 77.5671 1.6507 35.5826 -18.1262
# 4 4.9435 -7.2967 1.6507 29.4827 2.5193 6.0032
# 5 44.9344 43.3373 35.5826 2.5193 40.7145 0.8606
# 6 3.1598 -14.9765 -18.1262 6.0032 0.8606 30.6205
#
#
#
# Elastic Compliance Matrix: (Units=1/GPa)
#
#
# Indices 1 2 3 4 5 6 
#
# 1 0.014109 -0.001335 -0.003992 -0.000753 -0.010529 -0.004029
# 2 -0.001335 0.010112 -0.002182 0.002796 -0.007629 0.003458
# 3 -0.003992 -0.002182 0.030790 -0.003697 -0.020350 0.018868
# 4 -0.000753 0.002796 -0.003697 0.036638 -0.001015 -0.007898
# 5 -0.010529 -0.007629 -0.020350 -0.001015 0.062493 -0.016248
# 6 -0.004029 0.003458 0.018868 -0.007898 -0.016248 0.047939
#
#
# Mechanical properties :
#
#
# Convention : Reuss Voigt Hill
#
# Bulk Modulus (GPa) = 25.00582 76.30331 50.65457
# Shear Modulus (GPa) = 21.69851 33.36576 27.53214
#
# Velocity S-wave (km/s) = 3.15343 3.91038 3.55213
# Velocity P-wave (km/s) = 4.97179 7.44022 6.32754
#
# Compressibility (1/GPa) = 0.03999069
#
# Stress axis : x y z
#
# Youngs Moduli (GPa) = 70.87758 98.89340 32.47822
#
# Poissons Ratio (x) = 0.13205 0.12966
# Poissons Ratio (y) = 0.09464 0.07088
# Poissons Ratio (z) = 0.28297 0.21582
#
# Static dielectric constant tensor:
#      x y z
#    x 1.808790 -0.015890 -0.019070 
#    y -0.015890 1.821790 -0.002870 
#    z -0.019070 -0.002870 1.823190 
# 
# From -- ./inp_files/365109.got.cif
#   From: 2010.05.17/outbox.cif.g08.bks.cpg/sg2_183_cif.got.tgz:365109.got - 2010.06.03 11:33:40.
