data_PCOD9003595
_publ_section_title
;
Structure prediction by ZEFSAII (Michael W. Deem and Ramdas Pophale) SiO2 
 PCOD9003595
Probable space group: P -1
;
_chemical_formula_sum "Si O2"
_cell_formula_units_Z 12
_cell_length_a 6.795752
_cell_length_b 14.022662
_cell_length_c 10.321950
_cell_angle_alpha 113.897432
_cell_angle_beta 115.560376
_cell_angle_gamma 35.871266
_cell_volume 517.091522
_symmetry_space_group_name_H-M "P -1"
_symmetry_group_IT_number 2
_symmetry_cell_setting 'triclinic'
loop_
_space_group_symop_operation_xyz
x,y,z
-x,-y,-z
loop_
_atom_site_type_symbol
_atom_site_label
_atom_site_fract_x
_atom_site_fract_y
_atom_site_fract_z
Si Si1 0.118787 0.660324 0.533075
Si Si2 0.280648 0.749985 0.034814
Si Si3 0.722857 0.917386 0.148937
Si Si4 0.411289 0.731056 0.789813
Si Si5 0.917701 0.642729 0.207079
Si Si6 0.146718 0.263906 0.233701
O O1 0.500000 0.500000 0.500000
O O2 0.138539 0.774319 0.644221
O O3 0.889284 0.705568 0.375190
O O4 0.030627 0.635126 0.628647
O O5 0.665604 0.637173 0.120155
O O6 0.056352 0.855257 0.157276
O O7 0.240382 0.827237 0.929162
O O8 0.134483 0.691273 0.911835
O O9 0.824926 0.767266 0.147891
O O10 0.456643 0.070414 0.253672
O O11 0.500000 0.000000 0.000000
O O12 0.641250 0.728603 0.779427
O O13 0.696791 0.539175 0.805280
#
# Coordination Sequence:
#
# PCOD9003595 Si02
#       6
#     2   2   2   2   2   2
#     4   9  22  41  62  87 121 157 195 244 297 351
#     4  10  21  37  61  87 119 155 197 244 292 345
#     4  10  23  39  58  88 123 158 196 241 296 353
#     4  10  22  40  63  88 120 157 197 245 294 350
#     4  11  23  38  60  91 119 155 201 245 293 348
#     4  10  22  40  61  87 119 158 198 241 296 351
#
# _framework density 23.206721999999999
#
# number of rings (size 3 to 8) (size 9 to 14) (size 15 to 20)
#    0.000    2.000    0.000    2.500    0.000   17.333 
#    0.000    1.667    0.000    0.000    0.000    0.000 
#    0.000    0.000    0.000    0.000    0.000    0.000 
#
# Total GULP energy -66866.951390 kJ/mol
# GULP energy per Si atom -5572.245949 kJ/mol
# Density = 2.315390 g / cm^3
# Si number density = 23.206722 Si / 1000 Ang^3
#
#
#
# Elastic Constant Matrix: (Units=GPa)
#
#
# Indices 1 2 3 4 5 6 
#
# 1 152.7206 17.2330 51.3595 -0.9949 -4.4337 -11.2189
# 2 17.2330 71.0572 11.5149 10.6503 -9.2247 13.8933
# 3 51.3595 11.5149 132.0956 2.7417 17.2558 -14.3992
# 4 -0.9949 10.6503 2.7417 26.5002 -10.2026 -13.5505
# 5 -4.4337 -9.2247 17.2558 -10.2026 31.8472 -0.6605
# 6 -11.2189 13.8933 -14.3992 -13.5505 -0.6605 31.4922
#
#
#
# Elastic Compliance Matrix: (Units=1/GPa)
#
#
# Indices 1 2 3 4 5 6 
#
# 1 0.008541 -0.003180 -0.003075 0.006560 0.004159 0.005950
# 2 -0.003180 0.022117 -0.002625 -0.018617 0.001005 -0.020080
# 3 -0.003075 -0.002625 0.010390 -0.000514 -0.006890 0.004448
# 4 0.006560 -0.018617 -0.000514 0.075757 0.020968 0.043352
# 5 0.004159 0.001005 -0.006890 0.020968 0.042883 0.007809
# 6 0.005950 -0.020080 0.004448 0.043352 0.007809 0.063584
#
#
# Mechanical properties :
#
#
# Convention : Reuss Voigt Hill
#
# Bulk Modulus (GPa) = 42.93954 57.34315 50.14135
# Shear Modulus (GPa) = 20.09689 36.35231 28.22460
#
# Velocity S-wave (km/s) = 2.94597 3.96214 3.49123
# Velocity P-wave (km/s) = 5.48770 6.75979 6.15669
#
# Compressibility (1/GPa) = 0.02328856
#
# Stress axis : x y z
#
# Youngs Moduli (GPa) = 117.07867 45.21444 96.24464
#
# Poissons Ratio (x) = 0.14378 0.29591
# Poissons Ratio (y) = 0.37230 0.25268
# Poissons Ratio (z) = 0.35997 0.11870
#
# Static dielectric constant tensor:
#      x y z
#    x 1.906070 0.016110 0.005620 
#    y 0.016110 1.980670 0.071800 
#    z 0.005620 0.071800 1.947500 
# 
# From -- ./inp_files/116959.got.cif
#   From: 2010.05.17/outbox.cif.g08.bks.cpg/sg2_59_cif.got.tgz:116959.got - 2010.06.03 11:33:40.
