data_PCOD9003835
_publ_section_title
;
Structure prediction by ZEFSAII (Michael W. Deem and Ramdas Pophale) SiO2 
 PCOD9003835
Probable space group: P -1
;
_chemical_formula_sum "Si O2"
_cell_formula_units_Z 14
_cell_length_a 9.855773
_cell_length_b 24.013311
_cell_length_c 5.590329
_cell_angle_alpha 107.426974
_cell_angle_beta 90.295950
_cell_angle_gamma 35.458918
_cell_volume 660.653455
_symmetry_space_group_name_H-M "P -1"
_symmetry_group_IT_number 2
_symmetry_cell_setting 'triclinic'
loop_
_space_group_symop_operation_xyz
x,y,z
-x,-y,-z
loop_
_atom_site_type_symbol
_atom_site_label
_atom_site_fract_x
_atom_site_fract_y
_atom_site_fract_z
Si Si1 0.561316 0.400599 0.620134
Si Si2 0.222279 0.644541 0.935898
Si Si3 0.758804 0.739069 0.947688
Si Si4 0.383717 0.135801 0.274447
Si Si5 0.775716 0.034957 0.550614
Si Si6 0.056197 0.512411 0.765467
Si Si7 0.700771 0.948116 0.635950
O O1 0.396190 0.521813 0.768602
O O2 0.723369 0.342216 0.297590
O O3 0.353154 0.424961 0.648236
O O4 0.694934 0.352497 0.820079
O O5 0.927433 0.729076 0.055312
O O6 0.779432 0.750123 0.683340
O O7 0.879107 0.635177 0.900954
O O8 0.455526 0.853522 0.147083
O O9 0.608081 0.079442 0.372348
O O10 0.209194 0.146292 0.380820
O O11 0.538191 0.043968 0.952216
O O12 0.879028 0.933841 0.512850
O O13 0.000000 0.000000 0.500000
O O14 0.000000 0.500000 0.500000
O O15 0.000000 0.500000 0.000000
O O16 0.500000 0.000000 0.500000
#
# Coordination Sequence:
#
# PCOD9003835 Si02
#       7
#     2   2   2   2   2   2   2
#     4   9  18  35  58  85 115 156 202 258 318 367
#     4   9  18  33  59  88 114 147 207 264 308 370
#     4  10  23  36  62  91 118 169 220 267 325 390
#     4   9  18  35  63  84 121 157 214 260 324 380
#     4  10  21  37  62  92 131 170 211 263 330 404
#     4  11  24  41  66  89 135 178 213 265 330 394
#     4   8  16  34  58  86 113 156 200 254 318 378
#
# _framework density 21.191137999999999
#
# number of rings (size 3 to 8) (size 9 to 14) (size 15 to 20)
#    0.000    2.571    0.000    0.857    4.000    4.571 
#    0.000    1.429   31.429    0.000    0.000    0.000 
#    0.000    0.000    0.000    0.000    0.000    0.000 
#
# Total GULP energy -77952.404809 kJ/mol
# GULP energy per Si atom -5568.028915 kJ/mol
# Density = 2.114291 g / cm^3
# Si number density = 21.191138 Si / 1000 Ang^3
#
#
#
# Elastic Constant Matrix: (Units=GPa)
#
#
# Indices 1 2 3 4 5 6 
#
# 1 205.4734 69.3237 64.2834 -24.3025 -23.0558 -5.0967
# 2 69.3237 97.8653 31.7660 -23.4729 -16.8081 14.1061
# 3 64.2834 31.7660 78.2069 -17.8629 -5.4368 4.0819
# 4 -24.3025 -23.4729 -17.8629 36.5648 -4.4891 -5.7225
# 5 -23.0558 -16.8081 -5.4368 -4.4891 30.7369 -5.8809
# 6 -5.0967 14.1061 4.0819 -5.7225 -5.8809 41.7578
#
#
#
# Elastic Compliance Matrix: (Units=1/GPa)
#
#
# Indices 1 2 3 4 5 6 
#
# 1 0.008469 -0.003699 -0.004887 0.001988 0.004457 0.003661
# 2 -0.003699 0.016884 -0.001343 0.007908 0.006609 -0.004009
# 3 -0.004887 -0.001343 0.018415 0.004573 -0.000746 -0.001422
# 4 0.001988 0.007908 0.004573 0.038234 0.013011 0.004196
# 5 0.004457 0.006609 -0.000746 0.013011 0.042435 0.006144
# 6 0.003661 -0.004009 -0.001422 0.004196 0.006144 0.027328
#
#
# Mechanical properties :
#
#
# Convention : Reuss Voigt Hill
#
# Bulk Modulus (GPa) = 41.81907 79.14354 60.48131
# Shear Modulus (GPa) = 27.84086 36.22340 32.03213
#
# Velocity S-wave (km/s) = 3.62857 4.13893 3.89212
# Velocity P-wave (km/s) = 6.11002 7.76335 6.98577
#
# Compressibility (1/GPa) = 0.02391253
#
# Stress axis : x y z
#
# Youngs Moduli (GPa) = 118.07077 59.22885 54.30302
#
# Poissons Ratio (x) = 0.21908 0.26535
# Poissons Ratio (y) = 0.43673 0.07290
# Poissons Ratio (z) = 0.57695 0.07952
#
# Static dielectric constant tensor:
#      x y z
#    x 1.761380 0.047730 -0.055110 
#    y 0.047730 1.842130 -0.057680 
#    z -0.055110 -0.057680 1.877440 
# 
# From -- ./inp_files/55041.got.cif
#   From: 2010.05.17/outbox.cif.g08.bks.cpg/sg2_28_cif.got.tgz:55041.got - 2010.06.03 11:33:40.
