data_PCOD9003899
_publ_section_title
;
Structure prediction by ZEFSAII (Michael W. Deem and Ramdas Pophale) SiO2 
 PCOD9003899
Probable space group: P -1
;
_chemical_formula_sum "Si O2"
_cell_formula_units_Z 16
_cell_length_a 8.199094
_cell_length_b 11.978427
_cell_length_c 21.941293
_cell_angle_alpha 27.593171
_cell_angle_beta 143.691136
_cell_angle_gamma 128.757671
_cell_volume 559.672413
_symmetry_space_group_name_H-M "P -1"
_symmetry_group_IT_number 2
_symmetry_cell_setting 'triclinic'
loop_
_space_group_symop_operation_xyz
x,y,z
-x,-y,-z
loop_
_atom_site_type_symbol
_atom_site_label
_atom_site_fract_x
_atom_site_fract_y
_atom_site_fract_z
Si Si1 0.537395 0.945437 0.445056
Si Si2 0.092593 0.032148 0.752411
Si Si3 0.391835 0.347783 0.614098
Si Si4 0.917420 0.359424 0.165379
Si Si5 0.664571 0.405405 0.295166
Si Si6 0.967980 0.298400 0.773566
Si Si7 0.284633 0.999077 0.662387
Si Si8 0.189343 0.780105 0.033957
O O1 0.455141 0.250542 0.284810
O O2 0.685480 0.928343 0.432385
O O3 0.256706 0.858413 0.402673
O O4 0.762474 0.789479 0.638086
O O5 0.182595 0.926019 0.897608
O O6 0.148388 0.790123 0.840517
O O7 0.234398 0.240024 0.671075
O O8 0.703381 0.385765 0.699676
O O9 0.186078 0.572636 0.399973
O O10 0.489752 0.102874 0.715643
O O11 0.713121 0.286590 0.189899
O O12 0.946691 0.635555 0.029802
O O13 0.775504 0.581244 0.197826
O O14 0.509836 0.574293 0.223825
O O15 0.967679 0.177046 0.505755
O O16 0.119445 0.998705 0.957256
#
# Coordination Sequence:
#
# PCOD9003899 Si02
#       8
#     2   2   2   2   2   2   2   2
#     4  11  21  40  71  96 119 163 213 257 309 370
#     4  11  23  40  65  95 126 159 208 262 317 358
#     4   9  21  44  69  86 122 166 213 261 294 371
#     4  10  21  37  62  97 127 160 199 261 319 363
#     4  10  21  38  65  86 131 161 203 257 301 369
#     4  10  22  43  65  86 122 171 216 244 308 366
#     4   9  20  40  68  96 117 165 214 256 307 366
#     4  12  24  39  62  97 131 165 198 260 316 371
#
# _framework density 28.588149000000001
#
# number of rings (size 3 to 8) (size 9 to 14) (size 15 to 20)
#    0.000    1.750    1.250    4.125    5.250    0.500 
#    4.500    2.500    2.750    0.000    0.000    0.000 
#    0.000    0.000    0.000    0.000    0.000    0.000 
#
# Total GULP energy -89577.903651 kJ/mol
# GULP energy per Si atom -5598.618978 kJ/mol
# Density = 2.852308 g / cm^3
# Si number density = 28.588149 Si / 1000 Ang^3
#
#
#
# Elastic Constant Matrix: (Units=GPa)
#
#
# Indices 1 2 3 4 5 6 
#
# 1 147.8023 51.9626 63.8622 -22.7524 -17.7556 37.5831
# 2 51.9626 78.6953 34.3627 -13.6462 -6.7736 28.0446
# 3 63.8622 34.3627 134.9278 -20.8977 -5.7941 14.3632
# 4 -22.7524 -13.6462 -20.8977 46.5791 6.3418 -9.4116
# 5 -17.7556 -6.7736 -5.7941 6.3418 50.1991 -11.1247
# 6 37.5831 28.0446 14.3632 -9.4116 -11.1247 62.0442
#
#
#
# Elastic Compliance Matrix: (Units=1/GPa)
#
#
# Indices 1 2 3 4 5 6 
#
# 1 0.011092 -0.004111 -0.003491 0.001681 0.001991 -0.003441
# 2 -0.004111 0.018354 -0.001963 0.001509 -0.000552 -0.005222
# 3 -0.003491 -0.001963 0.009806 0.002384 -0.000444 0.001014
# 4 0.001681 0.001509 0.002384 0.024265 -0.001745 0.001116
# 5 0.001991 -0.000552 -0.000444 -0.001745 0.021319 0.002704
# 6 -0.003441 -0.005222 0.001014 0.001116 0.002704 0.020981
#
#
# Mechanical properties :
#
#
# Convention : Reuss Voigt Hill
#
# Bulk Modulus (GPa) = 49.69501 73.53338 61.61420
# Shear Modulus (GPa) = 37.97854 45.84701 41.91278
#
# Velocity S-wave (km/s) = 3.64877 4.00898 3.83311
# Velocity P-wave (km/s) = 5.93062 6.87071 6.41790
#
# Compressibility (1/GPa) = 0.02012274
#
# Stress axis : x y z
#
# Youngs Moduli (GPa) = 90.15257 54.48539 101.98008
#
# Poissons Ratio (x) = 0.22398 0.35601
# Poissons Ratio (y) = 0.37060 0.20016
# Poissons Ratio (z) = 0.31472 0.10694
#
# Static dielectric constant tensor:
#      x y z
#    x 2.209910 0.049990 0.058260 
#    y 0.049990 2.300010 -0.029440 
#    z 0.058260 -0.029440 2.306060 
# 
# From -- ./inp_files/617307.got.cif
#   From: 2010.05.17/outbox.cif.g08.bks.cpg/sg2_309_cif.got.tgz:617307.got - 2010.06.03 11:33:40.
