data_PCOD9003445
_publ_section_title
;
Structure prediction by ZEFSAII (Michael W. Deem and Ramdas Pophale) SiO2 
 PCOD9003445
Probable space group: P -1
;
_chemical_formula_sum "Si O2"
_cell_formula_units_Z 16
_cell_length_a 8.577472
_cell_length_b 28.490927
_cell_length_c 28.422308
_cell_angle_alpha 10.145869
_cell_angle_beta 139.784413
_cell_angle_gamma 137.851194
_cell_volume 786.770249
_symmetry_space_group_name_H-M "P -1"
_symmetry_group_IT_number 2
_symmetry_cell_setting 'triclinic'
loop_
_space_group_symop_operation_xyz
x,y,z
-x,-y,-z
loop_
_atom_site_type_symbol
_atom_site_label
_atom_site_fract_x
_atom_site_fract_y
_atom_site_fract_z
Si Si1 0.612191 0.493475 0.288825
Si Si2 0.697973 0.742197 0.708315
Si Si3 0.033266 0.458310 0.493699
Si Si4 0.169268 0.068919 0.147490
Si Si5 0.242006 0.904493 0.048137
Si Si6 0.942632 0.537574 0.784700
Si Si7 0.059125 0.764676 0.687963
Si Si8 0.850934 0.016576 0.662826
O O1 0.787596 0.544413 0.322953
O O2 0.336922 0.507023 0.227998
O O3 0.705039 0.207243 0.571388
O O4 0.657573 0.706382 0.048930
O O5 0.420677 0.851940 0.538606
O O6 0.807684 0.755779 0.667566
O O7 0.854092 0.940394 0.578729
O O8 0.752636 0.443202 0.035411
O O9 0.000000 0.500000 0.500000
O O10 0.233300 0.637812 0.340324
O O11 0.105097 0.148663 0.804711
O O12 0.127946 0.050721 0.210997
O O13 0.916434 0.131387 0.999798
O O14 0.500000 0.000000 0.000000
O O15 0.037198 0.662464 0.731262
O O16 0.975410 0.759322 0.533747
O O17 0.087257 0.256443 0.082206
#
# Coordination Sequence:
#
# PCOD9003445 Si02
#       8
#     2   2   2   2   2   2   2   2
#     4  10  22  41  61  82 116 160 198 230 279 350
#     4  10  22  40  61  83 111 152 194 230 281 351
#     4  10  21  37  60  88 117 153 193 238 288 338
#     4  10  22  41  61  82 116 160 198 230 279 350
#     4  10  21  37  60  88 117 153 193 238 288 338
#     4  12  25  38  59  90 119 149 189 244 297 332
#     4  10  22  40  61  83 111 152 194 230 281 351
#     4  12  25  38  59  90 119 149 189 244 297 332
#
# _framework density 20.336307000000001
#
# number of rings (size 3 to 8) (size 9 to 14) (size 15 to 20)
#    0.000    1.500    0.000    4.500    0.000    8.000 
#    0.000    0.000    0.000    0.000    0.000    0.000 
#    0.000    0.000    0.000    0.000    0.000    0.000 
#
# Total GULP energy -89510.546398 kJ/mol
# GULP energy per Si atom -5594.409150 kJ/mol
# Density = 2.029002 g / cm^3
# Si number density = 20.336307 Si / 1000 Ang^3
#
#
#
# Elastic Constant Matrix: (Units=GPa)
#
#
# Indices 1 2 3 4 5 6 
#
# 1 131.5564 60.7023 32.5014 -7.7796 -18.0787 -12.3337
# 2 60.7023 56.4309 1.6872 -11.3840 -14.1826 -14.6200
# 3 32.5014 1.6872 93.7551 -16.5316 -15.5505 -4.8824
# 4 -7.7796 -11.3840 -16.5316 29.1630 7.5770 6.0271
# 5 -18.0787 -14.1826 -15.5505 7.5770 45.4674 1.3806
# 6 -12.3337 -14.6200 -4.8824 6.0271 1.3806 35.3487
#
#
#
# Elastic Compliance Matrix: (Units=1/GPa)
#
#
# Indices 1 2 3 4 5 6 
#
# 1 0.019349 -0.022961 -0.007893 -0.007538 -0.000835 -0.002517
# 2 -0.022961 0.050070 0.011670 0.015742 0.007513 0.011332
# 3 -0.007893 0.011670 0.015737 0.009786 0.004180 0.002415
# 4 -0.007538 0.015742 0.009786 0.045023 -0.002172 -0.002360
# 5 -0.000835 0.007513 0.004180 -0.002172 0.025713 0.002759
# 6 -0.002517 0.011332 0.002415 -0.002360 0.002759 0.032726
#
#
# Mechanical properties :
#
#
# Convention : Reuss Voigt Hill
#
# Bulk Modulus (GPa) = 21.37248 52.39157 36.88203
# Shear Modulus (GPa) = 20.61162 34.45260 27.53211
#
# Velocity S-wave (km/s) = 3.18707 4.12046 3.68345
# Velocity P-wave (km/s) = 4.90668 6.96104 6.02211
#
# Compressibility (1/GPa) = 0.04678914
#
# Stress axis : x y z
#
# Youngs Moduli (GPa) = 51.68174 19.97201 63.54481
#
# Poissons Ratio (x) = 0.45857 0.50158
# Poissons Ratio (y) = 1.18665 -0.74160
# Poissons Ratio (z) = 0.40794 -0.23308
#
# Static dielectric constant tensor:
#      x y z
#    x 1.693910 0.009740 -0.011130 
#    y 0.009740 1.708250 0.002120 
#    z -0.011130 0.002120 1.702430 
# 
# From -- ./inp_files/582343.got.cif
#   From: 2010.05.17/outbox.cif.g08.bks.cpg/sg2_292_cif.got.tgz:582343.got - 2010.06.03 11:33:40.
