data_PCOD9003783
_publ_section_title
;
Structure prediction by ZEFSAII (Michael W. Deem and Ramdas Pophale) SiO2 
 PCOD9003783
Probable space group: P -1
;
_chemical_formula_sum "Si O2"
_cell_formula_units_Z 16
_cell_length_a 11.633296
_cell_length_b 7.834734
_cell_length_c 8.909730
_cell_angle_alpha 122.363490
_cell_angle_beta 81.954172
_cell_angle_gamma 95.823971
_cell_volume 678.833234
_symmetry_space_group_name_H-M "P -1"
_symmetry_group_IT_number 2
_symmetry_cell_setting 'triclinic'
loop_
_space_group_symop_operation_xyz
x,y,z
-x,-y,-z
loop_
_atom_site_type_symbol
_atom_site_label
_atom_site_fract_x
_atom_site_fract_y
_atom_site_fract_z
Si Si1 0.407702 0.357297 0.036356
Si Si2 0.518588 0.979130 0.732339
Si Si3 0.817411 0.557405 0.047641
Si Si4 0.857947 0.187811 0.651806
Si Si5 0.063511 0.209418 0.105406
Si Si6 0.913701 0.562659 0.359278
Si Si7 0.630579 0.264796 0.582073
Si Si8 0.765545 0.817829 0.688257
O O1 0.379087 0.499572 0.253179
O O2 0.500000 0.500000 0.000000
O O3 0.460071 0.134953 0.931667
O O4 0.300840 0.341513 0.931186
O O5 0.566257 0.127603 0.658990
O O6 0.430274 0.811838 0.595976
O O7 0.632765 0.871396 0.720172
O O8 0.843512 0.533437 0.203505
O O9 0.817454 0.348663 0.859368
O O10 0.918390 0.691296 0.013266
O O11 0.764602 0.203592 0.542632
O O12 0.984459 0.265734 0.611430
O O13 0.836842 0.978478 0.643932
O O14 0.184828 0.174276 0.149460
O O15 0.985906 0.363545 0.284887
O O16 0.000000 0.000000 0.000000
O O17 0.814227 0.610823 0.517894
#
# Coordination Sequence:
#
# PCOD9003783 Si02
#       8
#     2   2   2   2   2   2   2   2
#     4   9  18  32  58  88 117 152 198 251 300 347
#     4   9  18  32  52  84 120 146 195 241 294 352
#     4  10  21  37  62  90 114 157 204 247 293 360
#     4   9  18  35  56  88 117 149 199 251 297 354
#     4  11  23  42  58  82 126 162 195 241 306 363
#     4  11  22  36  62  88 115 151 205 252 294 355
#     4   8  16  30  52  83 116 151 187 248 295 345
#     4  11  22  36  58  89 121 156 190 248 308 360
#
# _framework density 23.569855
#
# number of rings (size 3 to 8) (size 9 to 14) (size 15 to 20)
#    0.000    2.250    0.000    4.500    7.000    0.000 
#    0.000    0.625    0.000    6.750    0.000    0.000 
#    0.000    0.000    0.000    0.000    0.000    0.000 
#
# Total GULP energy -89413.224399 kJ/mol
# GULP energy per Si atom -5588.326525 kJ/mol
# Density = 2.351621 g / cm^3
# Si number density = 23.569855 Si / 1000 Ang^3
#
#
#
# Elastic Constant Matrix: (Units=GPa)
#
#
# Indices 1 2 3 4 5 6 
#
# 1 119.0169 22.3774 55.3991 4.1315 11.2590 -29.1470
# 2 22.3774 67.2872 27.7000 9.0652 6.9996 -20.8616
# 3 55.3991 27.7000 77.3845 -0.4564 16.6584 -14.8120
# 4 4.1315 9.0652 -0.4564 24.5118 1.2054 2.0998
# 5 11.2590 6.9996 16.6584 1.2054 40.1405 0.9248
# 6 -29.1470 -20.8616 -14.8120 2.0998 0.9248 35.6336
#
#
#
# Elastic Compliance Matrix: (Units=1/GPa)
#
#
# Indices 1 2 3 4 5 6 
#
# 1 0.015180 0.002895 -0.009778 -0.004658 -0.000803 0.010342
# 2 0.002895 0.022502 -0.007303 -0.009987 -0.001708 0.013139
# 3 -0.009778 -0.007303 0.023275 0.005301 -0.005738 -0.002763
# 4 -0.004658 -0.009987 0.005301 0.046260 -0.000307 -0.010171
# 5 -0.000803 -0.001708 -0.005738 -0.000307 0.027936 -0.004749
# 6 0.010342 0.013139 -0.002763 -0.010171 -0.004749 0.043789
#
#
# Mechanical properties :
#
#
# Convention : Reuss Voigt Hill
#
# Bulk Modulus (GPa) = 30.69149 52.73795 41.71472
# Shear Modulus (GPa) = 22.91719 30.60467 26.76093
#
# Velocity S-wave (km/s) = 3.12157 3.60733 3.37321
# Velocity P-wave (km/s) = 5.10314 6.30668 5.73656
#
# Compressibility (1/GPa) = 0.03258232
#
# Stress axis : x y z
#
# Youngs Moduli (GPa) = 65.87685 44.44001 42.96496
#
# Poissons Ratio (x) = -0.12863 0.42013
# Poissons Ratio (y) = -0.19068 0.31379
# Poissons Ratio (z) = 0.64417 0.32456
#
# Static dielectric constant tensor:
#      x y z
#    x 1.936770 0.003760 -0.078760 
#    y 0.003760 1.925750 0.043510 
#    z -0.078760 0.043510 1.953160 
# 
# From -- ./inp_files/245982.got.cif
#   From: 2010.05.17/outbox.cif.g08.bks.cpg/sg2_123_cif.got.tgz:245982.got - 2010.06.03 11:33:40.
