data_PCOD9003078
_publ_section_title
;
Structure prediction by ZEFSAII (Michael W. Deem and Ramdas Pophale) SiO2 
 PCOD9003078
Probable space group: P -1
;
_chemical_formula_sum "Si O2"
_cell_formula_units_Z 14
_cell_length_a 10.898514
_cell_length_b 26.517194
_cell_length_c 13.631152
_cell_angle_alpha 156.392388
_cell_angle_beta 147.353894
_cell_angle_gamma 21.759524
_cell_volume 583.760635
_symmetry_space_group_name_H-M "P -1"
_symmetry_group_IT_number 2
_symmetry_cell_setting 'triclinic'
loop_
_space_group_symop_operation_xyz
x,y,z
-x,-y,-z
loop_
_atom_site_type_symbol
_atom_site_label
_atom_site_fract_x
_atom_site_fract_y
_atom_site_fract_z
Si Si1 0.803695 0.683911 0.131673
Si Si2 0.603329 0.776247 0.947001
Si Si3 0.725666 0.566503 0.322783
Si Si4 0.889084 0.356620 0.248887
Si Si5 0.280122 0.665110 0.491718
Si Si6 0.659594 0.846201 0.509438
Si Si7 0.742777 0.194080 0.724989
O O1 0.544930 0.851742 0.331807
O O2 0.075791 0.683707 0.298537
O O3 0.662622 0.702705 0.966793
O O4 0.000000 0.500000 0.000000
O O5 0.323130 0.796946 0.752568
O O6 0.934886 0.621279 0.831973
O O7 0.502521 0.961821 0.217477
O O8 0.707704 0.516145 0.328645
O O9 0.423582 0.661275 0.216798
O O10 0.781853 0.695959 0.601418
O O11 0.645225 0.457860 0.358673
O O12 0.904225 0.215734 0.956257
O O13 0.047380 0.719302 0.523081
O O14 0.555740 0.769000 0.365432
O O15 0.000000 0.000000 0.500000
#
# Coordination Sequence:
#
# PCOD9003078 Si02
#       7
#     2   2   2   2   2   2   2
#     4  10  21  37  57  87 126 154 204 251 293 367
#     4  11  20  41  63  89 123 165 204 250 308 356
#     4  10  23  41  67  91 120 165 211 255 300 375
#     4  10  21  43  66  92 123 162 209 251 310 364
#     4   9  22  37  65  89 123 161 199 248 306 360
#     4  10  23  40  59  95 127 156 208 253 296 376
#     4  12  25  43  63  91 126 163 205 258 315 361
#
# _framework density 23.982430999999998
#
# number of rings (size 3 to 8) (size 9 to 14) (size 15 to 20)
#    0.857    0.857    0.000    4.714    0.000    2.286 
#    5.143    0.000    0.000    0.000    0.000    0.000 
#    0.000    0.000    0.000    0.000    0.000    0.000 
#
# Total GULP energy -78155.954031 kJ/mol
# GULP energy per Si atom -5582.568145 kJ/mol
# Density = 2.392785 g / cm^3
# Si number density = 23.982431 Si / 1000 Ang^3
#
#
#
# Elastic Constant Matrix: (Units=GPa)
#
#
# Indices 1 2 3 4 5 6 
#
# 1 85.7399 21.5669 20.5378 -0.6455 -6.0329 -7.1396
# 2 21.5669 32.0084 18.5957 -3.6644 0.5472 -7.6592
# 3 20.5378 18.5957 163.4758 -0.6967 -2.2264 -9.5517
# 4 -0.6455 -3.6644 -0.6967 22.9748 -0.3402 0.2595
# 5 -6.0329 0.5472 -2.2264 -0.3402 31.6012 -2.6377
# 6 -7.1396 -7.6592 -9.5517 0.2595 -2.6377 31.6226
#
#
#
# Elastic Compliance Matrix: (Units=1/GPa)
#
#
# Indices 1 2 3 4 5 6 
#
# 1 0.014440 -0.009260 -0.000663 -0.001060 0.002948 0.001072
# 2 -0.009260 0.041708 -0.003184 0.006188 -0.002078 0.006825
# 3 -0.000663 -0.003184 0.006634 -0.000331 0.000486 0.001126
# 4 -0.001060 0.006188 -0.000331 0.044467 0.000214 0.000812
# 5 0.002948 -0.002078 0.000486 0.000214 0.032532 0.003021
# 6 0.001072 0.006825 0.001126 0.000812 0.003021 0.034104
#
#
# Mechanical properties :
#
#
# Convention : Reuss Voigt Hill
#
# Bulk Modulus (GPa) = 27.34593 44.73609 36.04101
# Shear Modulus (GPa) = 23.55313 31.94130 27.74721
#
# Velocity S-wave (km/s) = 3.13725 3.65343 3.40513
# Velocity P-wave (km/s) = 4.95483 6.04077 5.52455
#
# Compressibility (1/GPa) = 0.03656851
#
# Stress axis : x y z
#
# Youngs Moduli (GPa) = 69.25316 23.97630 150.74845
#
# Poissons Ratio (x) = 0.22201 0.09988
# Poissons Ratio (y) = 0.64126 0.48001
# Poissons Ratio (z) = 0.04588 0.07634
#
# Static dielectric constant tensor:
#      x y z
#    x 1.936340 -0.025050 0.036220 
#    y -0.025050 1.910830 -0.005490 
#    z 0.036220 -0.005490 1.972490 
# 
# From -- ./inp_files/458354.got.cif
#   From: 2010.05.17/outbox.cif.g08.bks.cpg/sg2_230_cif.got.tgz:458354.got - 2010.06.03 11:33:40.
