data_PCOD9003261
_publ_section_title
;
Structure prediction by ZEFSAII (Michael W. Deem and Ramdas Pophale) SiO2 
 PCOD9003261
Probable space group: P -1
;
_chemical_formula_sum "Si O2"
_cell_formula_units_Z 16
_cell_length_a 17.148292
_cell_length_b 15.374011
_cell_length_c 5.436035
_cell_angle_alpha 111.798195
_cell_angle_beta 85.326919
_cell_angle_gamma 147.770851
_cell_volume 626.449761
_symmetry_space_group_name_H-M "P -1"
_symmetry_group_IT_number 2
_symmetry_cell_setting 'triclinic'
loop_
_space_group_symop_operation_xyz
x,y,z
-x,-y,-z
loop_
_atom_site_type_symbol
_atom_site_label
_atom_site_fract_x
_atom_site_fract_y
_atom_site_fract_z
Si Si1 0.698415 0.209408 0.660013
Si Si2 0.765192 0.420853 0.238219
Si Si3 0.237167 0.922723 0.448625
Si Si4 0.147138 0.042077 0.651332
Si Si5 0.460039 0.687660 0.494215
Si Si6 0.833049 0.658569 0.094723
Si Si7 0.021438 0.358304 0.190140
Si Si8 0.660347 0.734043 0.672311
O O1 0.826261 0.415610 0.707468
O O2 0.500000 0.000000 0.500000
O O3 0.750271 0.161937 0.504735
O O4 0.725336 0.276749 0.000180
O O5 0.636396 0.330887 0.365551
O O6 0.771352 0.510219 0.131113
O O7 0.950261 0.604320 0.489979
O O8 0.171356 0.955036 0.575907
O O9 0.425613 0.145192 0.562650
O O10 0.137742 0.789574 0.084125
O O11 0.255844 0.187368 0.537145
O O12 0.214546 0.149786 0.008908
O O13 0.953613 0.851068 0.424862
O O14 0.579460 0.753273 0.707416
O O15 0.324490 0.478520 0.170793
O O16 0.949284 0.722413 0.946376
O O17 0.500000 0.500000 0.500000
#
# Coordination Sequence:
#
# PCOD9003261 Si02
#       8
#     2   2   2   2   2   2   2   2
#     4  11  22  35  54  83 127 167 221 272 319 372
#     4  10  21  37  59  85 124 173 208 273 316 377
#     4  10  21  39  57  90 124 167 221 265 322 380
#     4  10  24  43  71  96 133 174 213 265 325 388
#     4  10  23  38  65  91 124 166 220 263 329 388
#     4   9  20  39  63  91 128 167 218 260 318 387
#     4   9  20  37  54  83 122 167 222 268 320 370
#     4  11  25  46  71 101 132 166 212 268 328 395
#
# _framework density 25.540755999999998
#
# number of rings (size 3 to 8) (size 9 to 14) (size 15 to 20)
#    0.000    2.000    0.000    3.000   12.250    2.500 
#    2.250    1.250    0.000    0.000    0.000    0.000 
#    0.000    0.000    0.000    0.000    0.000    0.000 
#
# Total GULP energy -89216.328696 kJ/mol
# GULP energy per Si atom -5576.020543 kJ/mol
# Density = 2.548262 g / cm^3
# Si number density = 25.540756 Si / 1000 Ang^3
#
#
#
# Elastic Constant Matrix: (Units=GPa)
#
#
# Indices 1 2 3 4 5 6 
#
# 1 75.7578 19.0635 -8.9121 6.8703 -13.0032 -1.0591
# 2 19.0635 93.8082 23.7769 20.5692 3.5624 -9.8523
# 3 -8.9121 23.7769 144.8178 11.2406 24.8611 -7.3200
# 4 6.8703 20.5692 11.2406 28.9960 2.2560 -4.4450
# 5 -13.0032 3.5624 24.8611 2.2560 24.9788 12.9487
# 6 -1.0591 -9.8523 -7.3200 -4.4450 12.9487 31.6590
#
#
#
# Elastic Compliance Matrix: (Units=1/GPa)
#
#
# Indices 1 2 3 4 5 6 
#
# 1 0.016609 -0.003734 -0.000863 -0.003097 0.013909 -0.006929
# 2 -0.003734 0.014008 -0.000817 -0.007567 -0.005065 0.005055
# 3 -0.000863 -0.000817 0.009832 -0.000773 -0.013990 0.007604
# 4 -0.003097 -0.007567 -0.000773 0.042341 -0.006729 0.006060
# 5 0.013909 -0.005065 -0.013990 -0.006729 0.082834 -0.039170
# 6 -0.006929 0.005055 0.007604 0.006060 -0.039170 0.051557
#
#
# Mechanical properties :
#
#
# Convention : Reuss Voigt Hill
#
# Bulk Modulus (GPa) = 33.75755 42.47116 38.11435
# Shear Modulus (GPa) = 21.01861 35.82380 28.42120
#
# Velocity S-wave (km/s) = 2.87181 3.74921 3.33945
# Velocity P-wave (km/s) = 4.92364 5.95038 5.46119
#
# Compressibility (1/GPa) = 0.02962300
#
# Stress axis : x y z
#
# Youngs Moduli (GPa) = 60.20695 71.38601 101.70374
#
# Poissons Ratio (x) = 0.26653 0.08772
# Poissons Ratio (y) = 0.22479 0.08314
# Poissons Ratio (z) = 0.05193 0.05835
#
# Static dielectric constant tensor:
#      x y z
#    x 2.080450 0.126910 -0.054090 
#    y 0.126910 2.275510 -0.182050 
#    z -0.054090 -0.182050 2.162500 
# 
# From -- ./inp_files/44698.got.cif
#   From: 2010.05.17/outbox.cif.g08.bks.cpg/sg2_23_cif.got.tgz:44698.got - 2010.06.03 11:33:40.
