data_PCOD9003360
_publ_section_title
;
Structure prediction by ZEFSAII (Michael W. Deem and Ramdas Pophale) SiO2 
 PCOD9003360
Probable space group: P -1
;
_chemical_formula_sum "Si O2"
_cell_formula_units_Z 16
_cell_length_a 7.828315
_cell_length_b 17.889677
_cell_length_c 8.129923
_cell_angle_alpha 136.494081
_cell_angle_beta 121.438310
_cell_angle_gamma 70.044366
_cell_volume 667.428553
_symmetry_space_group_name_H-M "P -1"
_symmetry_group_IT_number 2
_symmetry_cell_setting 'triclinic'
loop_
_space_group_symop_operation_xyz
x,y,z
-x,-y,-z
loop_
_atom_site_type_symbol
_atom_site_label
_atom_site_fract_x
_atom_site_fract_y
_atom_site_fract_z
Si Si1 0.037699 0.403812 0.991161
Si Si2 0.802018 0.936451 0.728043
Si Si3 0.818766 0.695283 0.410434
Si Si4 0.797381 0.136961 0.549021
Si Si5 0.148030 0.563233 0.549486
Si Si6 0.628731 0.337294 0.885605
Si Si7 0.420630 0.905635 0.935664
Si Si8 0.781269 0.886385 0.252476
O O1 0.193394 0.465327 0.293185
O O2 0.133365 0.318359 0.781874
O O3 0.000000 0.500000 0.000000
O O4 0.820462 0.374137 0.922970
O O5 0.796179 0.821983 0.637289
O O6 0.783885 0.909597 0.484438
O O7 0.644414 0.024263 0.831989
O O8 0.000000 0.000000 0.000000
O O9 0.006274 0.648342 0.525078
O O10 0.596502 0.637513 0.240483
O O11 0.641912 0.205901 0.678296
O O12 0.750723 0.153336 0.357469
O O13 0.020106 0.175782 0.781283
O O14 0.795556 0.008560 0.377974
O O15 0.000000 0.500000 0.500000
O O16 0.322080 0.619454 0.837909
O O17 0.588668 0.832625 0.976280
O O18 0.500000 0.000000 0.000000
#
# Coordination Sequence:
#
# PCOD9003360 Si02
#       8
#     2   2   2   2   2   2   2   2
#     4   9  21  43  66  97 129 161 211 276 337 397
#     4  12  24  40  62  96 137 177 225 274 326 383
#     4  11  24  43  68  96 136 176 218 277 333 393
#     4  10  21  37  59  91 123 175 220 263 318 374
#     4   9  22  43  69 100 126 166 218 277 339 407
#     4  11  23  41  69  97 132 170 225 264 337 407
#     4  10  21  38  58  85 122 173 226 256 318 384
#     4  10  21  38  59  83 130 178 216 273 312 373
#
# _framework density 23.972604
#
# number of rings (size 3 to 8) (size 9 to 14) (size 15 to 20)
#    0.000    1.750    1.250    2.625    1.750    6.000 
#    0.000    3.750    0.000    0.000    0.000    0.000 
#    0.000    0.000    0.000    0.000    0.000    0.000 
#
# Total GULP energy -89193.604626 kJ/mol
# GULP energy per Si atom -5574.600289 kJ/mol
# Density = 2.391804 g / cm^3
# Si number density = 23.972604 Si / 1000 Ang^3
#
#
#
# Elastic Constant Matrix: (Units=GPa)
#
#
# Indices 1 2 3 4 5 6 
#
# 1 64.9352 7.7225 13.5808 -6.1990 9.9764 -11.0224
# 2 7.7225 60.5001 27.5773 -19.3095 15.5201 -2.8343
# 3 13.5808 27.5773 101.8954 -10.7464 4.5078 -2.3937
# 4 -6.1990 -19.3095 -10.7464 38.8484 -4.3374 1.7546
# 5 9.9764 15.5201 4.5078 -4.3374 32.8488 -7.5496
# 6 -11.0224 -2.8343 -2.3937 1.7546 -7.5496 26.4659
#
#
#
# Elastic Compliance Matrix: (Units=1/GPa)
#
#
# Indices 1 2 3 4 5 6 
#
# 1 0.017507 0.000449 -0.001963 0.001796 -0.003643 0.006004
# 2 0.000449 0.024464 -0.005242 0.009722 -0.009957 -0.001152
# 3 -0.001963 -0.005242 0.011472 0.000427 0.001573 0.000079
# 4 0.001796 0.009722 0.000427 0.030864 -0.001254 -0.000576
# 5 -0.003643 -0.009957 0.001573 -0.001254 0.037808 0.008427
# 6 0.006004 -0.001152 0.000079 -0.000576 0.008427 0.042611
#
#
# Mechanical properties :
#
#
# Convention : Reuss Voigt Hill
#
# Bulk Modulus (GPa) = 25.04352 36.12131 30.58241
# Shear Modulus (GPa) = 26.10297 31.52930 28.81614
#
# Velocity S-wave (km/s) = 3.30338 3.63053 3.47081
# Velocity P-wave (km/s) = 5.00191 5.71619 5.37094
#
# Compressibility (1/GPa) = 0.03993049
#
# Stress axis : x y z
#
# Youngs Moduli (GPa) = 57.11877 40.87604 87.17123
#
# Poissons Ratio (x) = -0.01836 0.17115
# Poissons Ratio (y) = -0.02566 0.45697
# Poissons Ratio (z) = 0.11215 0.21428
#
# Static dielectric constant tensor:
#      x y z
#    x 2.110870 -0.073900 -0.027980 
#    y -0.073900 2.022370 0.045800 
#    z -0.027980 0.045800 2.506400 
# 
# From -- ./inp_files/224294.got.cif
#   From: 2010.05.17/outbox.cif.g08.bks.cpg/sg2_113_cif.got.tgz:224294.got - 2010.06.03 11:33:40.
