data_PCOD9003845
_publ_section_title
;
Structure prediction by ZEFSAII (Michael W. Deem and Ramdas Pophale) SiO2 
 PCOD9003845
Probable space group: P -1
;
_chemical_formula_sum "Si O2"
_cell_formula_units_Z 14
_cell_length_a 6.947251
_cell_length_b 25.034781
_cell_length_c 10.132415
_cell_angle_alpha 32.119463
_cell_angle_beta 69.776646
_cell_angle_gamma 47.067443
_cell_volume 551.905877
_symmetry_space_group_name_H-M "P -1"
_symmetry_group_IT_number 2
_symmetry_cell_setting 'triclinic'
loop_
_space_group_symop_operation_xyz
x,y,z
-x,-y,-z
loop_
_atom_site_type_symbol
_atom_site_label
_atom_site_fract_x
_atom_site_fract_y
_atom_site_fract_z
Si Si1 0.778884 0.120945 0.104618
Si Si2 0.173745 0.026800 0.829855
Si Si3 0.971815 0.329994 0.236422
Si Si4 0.578659 0.700081 0.914421
Si Si5 0.923775 0.785607 0.151888
Si Si6 0.497543 0.465397 0.851190
Si Si7 0.132233 0.388237 0.581915
O O1 0.866592 0.985101 0.292602
O O2 0.590671 0.189225 0.146760
O O3 0.514985 0.258169 0.770278
O O4 0.040964 0.108864 0.088443
O O5 0.013375 0.196419 0.539360
O O6 0.557595 0.894525 0.058126
O O7 0.000000 0.000000 0.000000
O O8 0.732114 0.473792 0.095893
O O9 0.806412 0.398575 0.987280
O O10 0.318220 0.253123 0.308196
O O11 0.387156 0.677289 0.954326
O O12 0.924519 0.510364 0.256338
O O13 0.940816 0.702820 0.196464
O O14 0.248622 0.627025 0.485619
O O15 0.000000 0.500000 0.500000
#
# Coordination Sequence:
#
# PCOD9003845 Si02
#       7
#     2   2   2   2   2   2   2
#     4  10  21  38  62  94 125 161 206 248 302 366
#     4  11  26  44  63  89 123 163 207 253 304 366
#     4  11  24  42  62  89 129 164 199 256 310 355
#     4  10  21  37  62  93 126 161 202 251 306 368
#     4  10  21  40  66  90 120 160 204 253 301 358
#     4  10  23  40  65  93 121 162 209 250 303 360
#     4   8  17  33  58  92 125 154 196 247 299 357
#
# _framework density 25.366641999999999
#
# number of rings (size 3 to 8) (size 9 to 14) (size 15 to 20)
#    0.000    2.000    0.000    2.143    0.000   19.429 
#    0.000    1.429    0.000    0.000    0.000    0.000 
#    0.000    0.000    0.000    0.000    0.000    0.000 
#
# Total GULP energy -78075.748086 kJ/mol
# GULP energy per Si atom -5576.839149 kJ/mol
# Density = 2.530891 g / cm^3
# Si number density = 25.366642 Si / 1000 Ang^3
#
#
#
# Elastic Constant Matrix: (Units=GPa)
#
#
# Indices 1 2 3 4 5 6 
#
# 1 114.3077 9.2318 2.5981 4.1360 -15.4168 -6.7351
# 2 9.2318 50.1022 -8.3830 -6.3398 -21.1426 6.5035
# 3 2.5981 -8.3830 99.2548 -14.7032 10.1169 -12.5570
# 4 4.1360 -6.3398 -14.7032 17.3056 -5.9673 -5.9133
# 5 -15.4168 -21.1426 10.1169 -5.9673 23.5347 -1.3281
# 6 -6.7351 6.5035 -12.5570 -5.9133 -1.3281 56.1374
#
#
#
# Elastic Compliance Matrix: (Units=1/GPa)
#
#
# Indices 1 2 3 4 5 6 
#
# 1 0.009812 0.001655 -0.000694 0.001002 0.008531 0.001137
# 2 0.001655 0.046534 0.004533 0.038358 0.050726 0.001062
# 3 -0.000694 0.004533 0.012967 0.014882 0.002037 0.003908
# 4 0.001002 0.038358 0.014882 0.107794 0.056710 0.011701
# 5 0.008531 0.050726 0.002037 0.056710 0.107384 0.004117
# 6 0.001137 0.001062 0.003908 0.011701 0.004117 0.020031
#
#
# Mechanical properties :
#
#
# Convention : Reuss Voigt Hill
#
# Bulk Modulus (GPa) = 12.45318 30.06204 21.25761
# Shear Modulus (GPa) = 15.61022 36.74341 26.17682
#
# Velocity S-wave (km/s) = 2.48338 3.81004 3.21587
# Velocity P-wave (km/s) = 3.62531 5.58855 4.71035
#
# Compressibility (1/GPa) = 0.08030076
#
# Stress axis : x y z
#
# Youngs Moduli (GPa) = 101.91838 21.48952 77.11645
#
# Poissons Ratio (x) = -0.03556 0.05354
# Poissons Ratio (y) = -0.16866 -0.34957
# Poissons Ratio (z) = 0.07076 -0.09741
#
# Static dielectric constant tensor:
#      x y z
#    x 2.007600 0.024540 0.023600 
#    y 0.024540 2.023670 -0.030220 
#    z 0.023600 -0.030220 2.162360 
# 
# From -- ./inp_files/65936.got.cif
#   From: 2010.05.17/outbox.cif.g08.bks.cpg/sg2_33_cif.got.tgz:65936.got - 2010.06.03 11:33:40.
