data_PCOD9003208
_publ_section_title
;
Structure prediction by ZEFSAII (Michael W. Deem and Ramdas Pophale) SiO2 
 PCOD9003208
Probable space group: P -1
;
_chemical_formula_sum "Si O2"
_cell_formula_units_Z 16
_cell_length_a 7.747800
_cell_length_b 15.763548
_cell_length_c 11.992678
_cell_angle_alpha 27.346209
_cell_angle_beta 94.377173
_cell_angle_gamma 102.489142
_cell_volume 634.651204
_symmetry_space_group_name_H-M "P -1"
_symmetry_group_IT_number 2
_symmetry_cell_setting 'triclinic'
loop_
_space_group_symop_operation_xyz
x,y,z
-x,-y,-z
loop_
_atom_site_type_symbol
_atom_site_label
_atom_site_fract_x
_atom_site_fract_y
_atom_site_fract_z
Si Si1 0.535306 0.273195 0.627311
Si Si2 0.626026 0.131739 0.015493
Si Si3 0.760114 0.879387 0.664276
Si Si4 0.037539 0.733356 0.715438
Si Si5 0.026317 0.219701 0.012461
Si Si6 0.535779 0.390946 0.898146
Si Si7 0.136047 0.215877 0.776774
Si Si8 0.952871 0.586182 0.665058
O O1 0.561554 0.459805 0.332086
O O2 0.340018 0.240932 0.716694
O O3 0.508162 0.080384 0.777342
O O4 0.662839 0.262785 0.750718
O O5 0.814756 0.111850 0.094756
O O6 0.545949 0.240180 0.977571
O O7 0.861436 0.791946 0.678589
O O8 0.563653 0.730606 0.858204
O O9 0.798052 0.112585 0.385184
O O10 0.872829 0.881379 0.781641
O O11 0.068681 0.747271 0.567333
O O12 0.000000 0.500000 0.000000
O O13 0.024304 0.406436 0.864754
O O14 0.128099 0.264143 0.848339
O O15 0.745757 0.517252 0.781539
O O16 0.062438 0.346993 0.538538
O O17 0.000000 0.000000 0.000000
#
# Coordination Sequence:
#
# PCOD9003208 Si02
#       8
#     2   2   2   2   2   2   2   2
#     4  10  21  38  58  87 135 180 207 256 312 375
#     4  10  21  37  58  90 135 173 211 253 311 376
#     4  11  25  43  72  95 126 165 214 269 320 381
#     4  11  24  48  70  95 123 164 217 269 323 379
#     4  11  21  39  63  96 130 168 214 260 315 379
#     4  10  23  41  61  95 126 168 208 268 316 378
#     4  11  20  35  60  97 130 171 215 258 309 378
#     4  10  23  41  66  92 133 170 213 263 321 377
#
# _framework density 25.210699000000002
#
# number of rings (size 3 to 8) (size 9 to 14) (size 15 to 20)
#    0.000    1.500    2.500    2.250    1.750    4.500 
#    0.000    0.625    0.000    0.000    0.000    0.000 
#    0.000    0.000    0.000    0.000    0.000    0.000 
#
# Total GULP energy -89556.196136 kJ/mol
# GULP energy per Si atom -5597.262258 kJ/mol
# Density = 2.515332 g / cm^3
# Si number density = 25.210699 Si / 1000 Ang^3
#
#
#
# Elastic Constant Matrix: (Units=GPa)
#
#
# Indices 1 2 3 4 5 6 
#
# 1 46.0396 -14.2725 17.6467 8.3702 -6.7080 5.4687
# 2 -14.2725 129.9970 17.7457 -13.2856 1.5969 -6.5442
# 3 17.6467 17.7457 93.3279 -13.0290 -3.8285 -17.7617
# 4 8.3702 -13.2856 -13.0290 35.9737 -3.2218 2.0093
# 5 -6.7080 1.5969 -3.8285 -3.2218 39.6378 10.3185
# 6 5.4687 -6.5442 -17.7617 2.0093 10.3185 18.8666
#
#
#
# Elastic Compliance Matrix: (Units=1/GPa)
#
#
# Indices 1 2 3 4 5 6 
#
# 1 0.033548 0.003099 -0.012523 -0.008890 0.010138 -0.025037
# 2 0.003099 0.008470 -0.001966 0.001713 0.000153 -0.000077
# 3 -0.012523 -0.001966 0.018543 0.007137 -0.005577 0.022696
# 4 -0.008890 0.001713 0.007137 0.032742 0.000129 0.006333
# 5 0.010138 0.000153 -0.005577 0.000129 0.033268 -0.026344
# 6 -0.025037 -0.000077 0.022696 0.006333 -0.026344 0.095334
#
#
# Mechanical properties :
#
#
# Convention : Reuss Voigt Hill
#
# Bulk Modulus (GPa) = 26.46657 34.62270 30.54463
# Shear Modulus (GPa) = 19.43411 35.44525 27.43968
#
# Velocity S-wave (km/s) = 2.77946 3.75368 3.30269
# Velocity P-wave (km/s) = 4.56306 5.70526 5.16582
#
# Compressibility (1/GPa) = 0.03778351
#
# Stress axis : x y z
#
# Youngs Moduli (GPa) = 29.80760 118.05754 53.92757
#
# Poissons Ratio (x) = -0.36590 0.67533
# Poissons Ratio (y) = -0.09238 0.10601
# Poissons Ratio (z) = 0.37328 0.23208
#
# Static dielectric constant tensor:
#      x y z
#    x 2.052990 0.070330 0.094810 
#    y 0.070330 1.955600 0.097200 
#    z 0.094810 0.097200 2.498540 
# 
# From -- ./inp_files/313844.got.cif
#   From: 2010.05.17/outbox.cif.g08.bks.cpg/sg2_157_cif.got.tgz:313844.got - 2010.06.03 11:33:40.
