data_PCOD9003352
_publ_section_title
;
Structure prediction by ZEFSAII (Michael W. Deem and Ramdas Pophale) SiO2 
 PCOD9003352
Probable space group: P -1
;
_chemical_formula_sum "Si O2"
_cell_formula_units_Z 16
_cell_length_a 12.066346
_cell_length_b 20.069988
_cell_length_c 6.772464
_cell_angle_alpha 128.664930
_cell_angle_beta 79.768033
_cell_angle_gamma 137.461829
_cell_volume 731.171017
_symmetry_space_group_name_H-M "P -1"
_symmetry_group_IT_number 2
_symmetry_cell_setting 'triclinic'
loop_
_space_group_symop_operation_xyz
x,y,z
-x,-y,-z
loop_
_atom_site_type_symbol
_atom_site_label
_atom_site_fract_x
_atom_site_fract_y
_atom_site_fract_z
Si Si1 0.119863 0.407792 0.254602
Si Si2 0.479301 0.747773 0.861976
Si Si3 0.118937 0.501304 0.069019
Si Si4 0.200563 0.139815 0.308656
Si Si5 0.578145 0.176477 0.328445
Si Si6 0.055803 0.220272 0.648351
Si Si7 0.277527 0.056364 0.474542
Si Si8 0.084542 0.752637 0.588575
O O1 0.291046 0.570528 0.592732
O O2 0.020914 0.413838 0.145375
O O3 0.986548 0.285008 0.235616
O O4 0.169948 0.363533 0.001768
O O5 0.634426 0.791168 0.762760
O O6 0.447752 0.818656 0.886304
O O7 0.564326 0.817931 0.179968
O O8 0.322727 0.671372 0.359873
O O9 0.000000 0.500000 0.000000
O O10 0.094075 0.409007 0.757545
O O11 0.214227 0.092958 0.416807
O O12 0.199151 0.237981 0.549579
O O13 0.000000 0.000000 0.000000
O O14 0.381273 0.051817 0.286135
O O15 0.722777 0.188161 0.358083
O O16 0.920573 0.170719 0.416265
O O17 0.904874 0.087367 0.606566
#
# Coordination Sequence:
#
# PCOD9003352 Si02
#       8
#     2   2   2   2   2   2   2   2
#     4  10  22  38  60  93 131 163 199 249 314 361
#     4  10  22  40  66  96 120 161 208 254 304 364
#     4   8  16  33  56  86 120 165 208 244 287 356
#     4  11  24  44  71  89 116 157 215 262 307 369
#     4   9  20  36  60  93 127 162 210 249 294 365
#     4  11  25  40  63  92 124 165 207 253 310 368
#     4  11  23  41  67  91 119 161 214 257 303 364
#     4  10  21  37  59  90 134 169 198 248 306 366
#
# _framework density 21.882705000000001
#
# number of rings (size 3 to 8) (size 9 to 14) (size 15 to 20)
#    0.000    2.000    1.250    1.125    1.750    9.500 
#    0.000    2.500    0.000    0.000    0.000    0.000 
#    0.000    0.000    0.000    0.000    0.000    0.000 
#
# Total GULP energy -89210.761303 kJ/mol
# GULP energy per Si atom -5575.672581 kJ/mol
# Density = 2.183290 g / cm^3
# Si number density = 21.882705 Si / 1000 Ang^3
#
#
#
# Elastic Constant Matrix: (Units=GPa)
#
#
# Indices 1 2 3 4 5 6 
#
# 1 98.9186 32.9143 13.2084 -24.1777 10.9434 -18.9178
# 2 32.9143 98.8626 19.7496 -31.0171 10.9019 -11.0075
# 3 13.2084 19.7496 87.8407 -16.8357 19.8044 -20.9215
# 4 -24.1777 -31.0171 -16.8357 36.9078 -4.1291 6.2221
# 5 10.9434 10.9019 19.8044 -4.1291 32.7935 -5.9180
# 6 -18.9178 -11.0075 -20.9215 6.2221 -5.9180 25.8900
#
#
#
# Elastic Compliance Matrix: (Units=1/GPa)
#
#
# Indices 1 2 3 4 5 6 
#
# 1 0.014181 -0.001590 0.002522 0.007188 -0.003148 0.009277
# 2 -0.001590 0.014427 0.000050 0.010493 -0.002634 0.001889
# 3 0.002522 0.000050 0.016954 0.006473 -0.008088 0.012160
# 4 0.007188 0.010493 0.006473 0.042502 -0.003745 0.003873
# 5 -0.003148 -0.002634 -0.008088 -0.003745 0.036713 -0.000663
# 6 0.009277 0.001889 0.012160 0.003873 -0.000663 0.054951
#
#
# Mechanical properties :
#
#
# Convention : Reuss Voigt Hill
#
# Bulk Modulus (GPa) = 21.04103 46.37404 33.70753
# Shear Modulus (GPa) = 25.82577 33.76823 29.79700
#
# Velocity S-wave (km/s) = 3.43912 3.93255 3.69408
# Velocity P-wave (km/s) = 5.04046 6.46978 5.79933
#
# Compressibility (1/GPa) = 0.04752620
#
# Stress axis : x y z
#
# Youngs Moduli (GPa) = 70.51763 69.31413 58.98291
#
# Poissons Ratio (x) = 0.11021 -0.14875
# Poissons Ratio (y) = 0.11212 -0.00296
# Poissons Ratio (z) = -0.17784 -0.00347
#
# Static dielectric constant tensor:
#      x y z
#    x 1.748370 0.018670 -0.018750 
#    y 0.018670 1.774650 0.049890 
#    z -0.018750 0.049890 1.928580 
# 
# From -- ./inp_files/81586.got.cif
#   From: 2010.05.17/outbox.cif.g08.bks.cpg/sg2_41_cif.got.tgz:81586.got - 2010.06.03 11:33:40.
