data_PCOD9003682
_publ_section_title
;
Structure prediction by ZEFSAII (Michael W. Deem and Ramdas Pophale) SiO2 
 PCOD9003682
Probable space group: P -1
;
_chemical_formula_sum "Si O2"
_cell_formula_units_Z 16
_cell_length_a 9.532749
_cell_length_b 11.769633
_cell_length_c 8.474174
_cell_angle_alpha 69.456893
_cell_angle_beta 70.957361
_cell_angle_gamma 62.134810
_cell_volume 771.816010
_symmetry_space_group_name_H-M "P -1"
_symmetry_group_IT_number 2
_symmetry_cell_setting 'triclinic'
loop_
_space_group_symop_operation_xyz
x,y,z
-x,-y,-z
loop_
_atom_site_type_symbol
_atom_site_label
_atom_site_fract_x
_atom_site_fract_y
_atom_site_fract_z
Si Si1 0.064623 0.746194 0.726007
Si Si2 0.290921 0.100100 0.125197
Si Si3 0.415256 0.146809 0.389246
Si Si4 0.094560 0.387950 0.393884
Si Si5 0.504674 0.205621 0.830230
Si Si6 0.576793 0.296425 0.425920
Si Si7 0.853421 0.477688 0.985540
Si Si8 0.507138 0.553906 0.146658
O O1 0.229078 0.755670 0.605669
O O2 0.892938 0.862597 0.770505
O O3 0.020117 0.660229 0.649458
O O4 0.109201 0.673193 0.916189
O O5 0.378958 0.128165 0.231768
O O6 0.372341 0.947131 0.128506
O O7 0.334218 0.191072 0.938301
O O8 0.241519 0.254416 0.465230
O O9 0.536578 0.217386 0.338569
O O10 0.500000 0.000000 0.500000
O O11 0.168879 0.462833 0.208473
O O12 0.000000 0.500000 0.500000
O O13 0.504546 0.261890 0.627302
O O14 0.581238 0.291345 0.864246
O O15 0.495661 0.450635 0.329386
O O16 0.687965 0.548314 0.104246
O O17 0.000000 0.500000 0.000000
O O18 0.500000 0.500000 0.000000
#
# Coordination Sequence:
#
# PCOD9003682 Si02
#       8
#     2   2   2   2   2   2   2   2
#     4   9  21  40  61  90 124 168 206 256 325 373
#     4  10  22  43  65  88 126 176 214 252 316 393
#     4  11  22  43  63  90 127 174 213 258 324 395
#     4  10  21  37  61  92 126 169 215 260 309 381
#     4  11  22  38  63  94 122 162 218 260 306 382
#     4  11  23  38  66  96 124 161 215 270 322 371
#     4   9  18  36  59  81 118 162 201 242 307 377
#     4  11  22  38  61  89 126 161 199 264 324 370
#
# _framework density 20.730328
#
# number of rings (size 3 to 8) (size 9 to 14) (size 15 to 20)
#    0.000    1.750    1.250    4.125    0.000    6.500 
#    0.000    0.000    0.000    4.500    0.000    0.000 
#    0.000    0.000    0.000    0.000    0.000    0.000 
#
# Total GULP energy -89078.146616 kJ/mol
# GULP energy per Si atom -5567.384163 kJ/mol
# Density = 2.068315 g / cm^3
# Si number density = 20.730328 Si / 1000 Ang^3
#
#
#
# Elastic Constant Matrix: (Units=GPa)
#
#
# Indices 1 2 3 4 5 6 
#
# 1 97.3119 34.1949 20.3905 -0.0069 -8.1949 0.7140
# 2 34.1949 137.3690 31.3192 -9.2920 0.2244 19.8466
# 3 20.3905 31.3192 108.5844 -15.8011 -10.5214 0.3564
# 4 -0.0069 -9.2920 -15.8011 21.7959 -0.7682 -5.6568
# 5 -8.1949 0.2244 -10.5214 -0.7682 20.0408 -5.2261
# 6 0.7140 19.8466 0.3564 -5.6568 -5.2261 24.9759
#
#
#
# Elastic Compliance Matrix: (Units=1/GPa)
#
#
# Indices 1 2 3 4 5 6 
#
# 1 0.012065 -0.003321 -0.000973 -0.001114 0.005239 0.003152
# 2 -0.003321 0.010035 -0.002794 -0.000274 -0.005297 -0.009010
# 3 -0.000973 -0.002794 0.012351 0.009583 0.008030 0.005923
# 4 -0.001114 -0.000274 0.009583 0.057056 0.010751 0.015285
# 5 0.005239 -0.005297 0.008030 0.010751 0.061762 0.019304
# 6 0.003152 -0.009010 0.005923 0.015285 0.019304 0.054525
#
#
# Mechanical properties :
#
#
# Convention : Reuss Voigt Hill
#
# Bulk Modulus (GPa) = 49.32055 57.23049 53.27552
# Shear Modulus (GPa) = 21.86001 30.51989 26.18995
#
# Velocity S-wave (km/s) = 3.25082 3.84113 3.55824
# Velocity P-wave (km/s) = 6.15902 6.88037 6.52966
#
# Compressibility (1/GPa) = 0.02027553
#
# Stress axis : x y z
#
# Youngs Moduli (GPa) = 82.88464 99.64823 80.96415
#
# Poissons Ratio (x) = 0.33091 0.07875
# Poissons Ratio (y) = 0.27525 0.22625
# Poissons Ratio (z) = 0.08062 0.27847
#
# Static dielectric constant tensor:
#      x y z
#    x 1.768050 -0.054500 0.021860 
#    y -0.054500 1.914220 0.022970 
#    z 0.021860 0.022970 1.754180 
# 
# From -- ./inp_files/184945.got.cif
#   From: 2010.05.17/outbox.cif.g08.bks.cpg/sg2_93_cif.got.tgz:184945.got - 2010.06.03 11:33:40.
