data_PCOD9003316
_publ_section_title
;
Structure prediction by ZEFSAII (Michael W. Deem and Ramdas Pophale) SiO2 
 PCOD9003316
Probable space group: P -1
;
_chemical_formula_sum "Si O2"
_cell_formula_units_Z 16
_cell_length_a 9.279650
_cell_length_b 13.876229
_cell_length_c 17.789411
_cell_angle_alpha 23.286227
_cell_angle_beta 83.541187
_cell_angle_gamma 71.787859
_cell_volume 761.578478
_symmetry_space_group_name_H-M "P -1"
_symmetry_group_IT_number 2
_symmetry_cell_setting 'triclinic'
loop_
_space_group_symop_operation_xyz
x,y,z
-x,-y,-z
loop_
_atom_site_type_symbol
_atom_site_label
_atom_site_fract_x
_atom_site_fract_y
_atom_site_fract_z
Si Si1 0.562734 0.245771 0.982133
Si Si2 0.003534 0.320008 0.296684
Si Si3 0.305315 0.689008 0.454029
Si Si4 0.673746 0.299697 0.785684
Si Si5 0.858056 0.983652 0.629060
Si Si6 0.805986 0.591152 0.460319
Si Si7 0.717034 0.875580 0.974227
Si Si8 0.382916 0.879588 0.574394
O O1 0.675059 0.289574 0.882335
O O2 0.415094 0.224884 0.961427
O O3 0.469848 0.538809 0.826589
O O4 0.683325 0.934421 0.235689
O O5 0.897048 0.193287 0.428959
O O6 0.907121 0.635785 0.108490
O O7 0.008166 0.313922 0.208948
O O8 0.199103 0.094024 0.470485
O O9 0.477266 0.501594 0.625386
O O10 0.160040 0.924901 0.349817
O O11 0.252522 0.496029 0.550123
O O12 0.343364 0.855701 0.269607
O O13 0.780633 0.415434 0.654611
O O14 0.724875 0.986538 0.975988
O O15 0.674482 0.059703 0.553713
O O16 0.000000 0.500000 0.500000
O O17 0.500000 0.000000 0.500000
#
# Coordination Sequence:
#
# PCOD9003316 Si02
#       8
#     2   2   2   2   2   2   2   2
#     4  12  21  39  71  83 121 173 196 252 319 354
#     4   9  18  36  56  86 120 151 207 251 284 361
#     4  11  20  38  63  91 121 160 207 260 291 367
#     4  11  21  39  64  99 115 156 221 243 297 379
#     4   9  18  36  57  83 117 150 209 249 288 350
#     4  11  26  42  56  96 137 154 197 256 311 372
#     4  11  19  33  66  93 119 159 203 261 303 351
#     4  10  21  37  59  88 122 155 207 256 298 363
#
# _framework density 21.008997000000001
#
# number of rings (size 3 to 8) (size 9 to 14) (size 15 to 20)
#    0.750    0.750    5.000    1.125    1.750    3.000 
#    2.250    0.000    0.000    1.500    0.000    0.000 
#    0.000    0.000    0.000    0.000    0.000    0.000 
#
# Total GULP energy -89123.988778 kJ/mol
# GULP energy per Si atom -5570.249299 kJ/mol
# Density = 2.096118 g / cm^3
# Si number density = 21.008997 Si / 1000 Ang^3
#
#
#
# Elastic Constant Matrix: (Units=GPa)
#
#
# Indices 1 2 3 4 5 6 
#
# 1 112.3576 13.6628 38.7360 -7.8695 -13.3970 -5.7511
# 2 13.6628 59.8332 13.4535 -13.7474 -0.1890 -18.1518
# 3 38.7360 13.4535 92.8769 -31.0736 -1.8063 -4.8307
# 4 -7.8695 -13.7474 -31.0736 37.7763 -14.5820 0.4369
# 5 -13.3970 -0.1890 -1.8063 -14.5820 24.1415 -4.3452
# 6 -5.7511 -18.1518 -4.8307 0.4369 -4.3452 21.4662
#
#
#
# Elastic Compliance Matrix: (Units=1/GPa)
#
#
# Indices 1 2 3 4 5 6 
#
# 1 0.011521 0.000033 -0.003510 0.002767 0.008521 0.003993
# 2 0.000033 0.029711 0.004955 0.021979 0.019242 0.029695
# 3 -0.003510 0.004955 0.020341 0.023820 0.015901 0.010561
# 4 0.002767 0.021979 0.023820 0.075604 0.055339 0.034350
# 5 0.008521 0.019242 0.015901 0.055339 0.087901 0.038799
# 6 0.003993 0.029695 0.010561 0.034350 0.038799 0.082296
#
#
# Mechanical properties :
#
#
# Convention : Reuss Voigt Hill
#
# Bulk Modulus (GPa) = 15.49747 44.08580 29.79164
# Shear Modulus (GPa) = 15.34083 29.95783 22.64933
#
# Velocity S-wave (km/s) = 2.70516 3.78028 3.28697
# Velocity P-wave (km/s) = 4.14123 6.33118 5.34947
#
# Compressibility (1/GPa) = 0.06452666
#
# Stress axis : x y z
#
# Youngs Moduli (GPa) = 86.80110 33.65764 49.16152
#
# Poissons Ratio (x) = -0.00110 0.17258
# Poissons Ratio (y) = -0.00283 -0.24359
# Poissons Ratio (z) = 0.30471 -0.16677
#
# Static dielectric constant tensor:
#      x y z
#    x 1.776840 0.007500 -0.000850 
#    y 0.007500 1.820040 -0.042680 
#    z -0.000850 -0.042680 1.823470 
# 
# From -- ./inp_files/590409.got.cif
#   From: 2010.05.17/outbox.cif.g08.bks.cpg/sg2_296_cif.got.tgz:590409.got - 2010.06.03 11:33:40.
