data_PCOD9003988
_publ_section_title
;
Structure prediction by ZEFSAII (Michael W. Deem and Ramdas Pophale) SiO2 
 PCOD9003988
Probable space group: P -1
;
_chemical_formula_sum "Si O2"
_cell_formula_units_Z 16
_cell_length_a 8.334961
_cell_length_b 12.763546
_cell_length_c 16.568576
_cell_angle_alpha 56.527546
_cell_angle_beta 129.886493
_cell_angle_gamma 83.006691
_cell_volume 755.330487
_symmetry_space_group_name_H-M "P -1"
_symmetry_group_IT_number 2
_symmetry_cell_setting 'triclinic'
loop_
_space_group_symop_operation_xyz
x,y,z
-x,-y,-z
loop_
_atom_site_type_symbol
_atom_site_label
_atom_site_fract_x
_atom_site_fract_y
_atom_site_fract_z
Si Si1 0.888400 0.064698 0.698345
Si Si2 0.915207 0.545658 0.358299
Si Si3 0.832168 0.650890 0.644541
Si Si4 0.227553 0.981421 0.687110
Si Si5 0.199442 0.722642 0.719901
Si Si6 0.134291 0.702896 0.289821
Si Si7 0.927425 0.712747 0.051253
Si Si8 0.674927 0.350239 0.933297
O O1 0.525218 0.201224 0.508455
O O2 0.909888 0.143693 0.749286
O O3 0.047168 0.070671 0.674895
O O4 0.072991 0.854159 0.859601
O O5 0.585906 0.623734 0.203008
O O6 0.000000 0.500000 0.500000
O O7 0.131848 0.381922 0.428016
O O8 0.937942 0.681412 0.281228
O O9 0.984914 0.712422 0.695304
O O10 0.019241 0.451784 0.828453
O O11 0.274133 0.812279 0.756649
O O12 0.567040 0.891753 0.836801
O O13 0.006604 0.136474 0.481695
O O14 0.498873 0.516324 0.870054
O O15 0.500000 0.500000 0.500000
O O16 0.029556 0.751715 0.143025
O O17 0.153327 0.641437 0.080657
#
# Coordination Sequence:
#
# PCOD9003988 Si02
#       8
#     2   2   2   2   2   2   2   2
#     4  12  24  41  66  99 130 173 214 261 321 388
#     4  10  21  37  63  92 125 177 210 262 321 371
#     4  10  22  40  67  94 131 165 217 263 319 384
#     4  11  25  43  71  94 126 171 217 270 326 381
#     4  10  24  47  66  96 128 166 218 273 326 379
#     4  11  22  41  65  96 135 170 213 261 316 386
#     4  11  23  43  66  97 131 175 213 268 315 381
#     4  11  25  41  64  94 133 170 217 266 318 383
#
# _framework density 21.182782
#
# number of rings (size 3 to 8) (size 9 to 14) (size 15 to 20)
#    0.000    1.250    2.500    4.500    3.500    5.500 
#    0.000    0.000    0.000    0.000    0.000    0.000 
#    0.000    0.000    0.000    0.000    0.000    0.000 
#
# Total GULP energy -89485.449124 kJ/mol
# GULP energy per Si atom -5592.840570 kJ/mol
# Density = 2.113457 g / cm^3
# Si number density = 21.182782 Si / 1000 Ang^3
#
#
#
# Elastic Constant Matrix: (Units=GPa)
#
#
# Indices 1 2 3 4 5 6 
#
# 1 -509.7596 -119.6484 -426.5642 -154.6733 -97.1686 356.9356
# 2 -119.6484 35.7757 -61.6709 -42.7284 -12.7592 85.3155
# 3 -426.5642 -61.6709 -232.7946 -119.0903 -69.4094 249.0116
# 4 -154.6733 -42.7284 -119.0903 -10.1673 -28.6917 90.9746
# 5 -97.1686 -12.7592 -69.4094 -28.6917 10.7467 67.1552
# 6 356.9356 85.3155 249.0116 90.9746 67.1552 -195.2431
#
#
#
# Elastic Compliance Matrix: (Units=1/GPa)
#
#
# Indices 1 2 3 4 5 6 
#
# 1 0.009042 -0.003250 -0.000451 -0.003224 -0.004783 0.011388
# 2 -0.003250 0.023461 -0.011101 0.002601 -0.003912 -0.009981
# 3 -0.000451 -0.011101 0.018798 0.001193 -0.003331 0.017711
# 4 -0.003224 0.002601 0.001193 0.032707 -0.001921 0.011344
# 5 -0.004783 -0.003912 -0.003331 -0.001921 0.036827 -0.002930
# 6 0.011388 -0.009981 0.017711 0.011344 -0.002930 0.038201
#
#
# Mechanical properties :
#
#
# Convention : Reuss Voigt Hill
#
# Bulk Modulus (GPa) = 46.08748 -213.61617 -83.76434
# Shear Modulus (GPa) = 25.52682 -45.52574 -9.99946
#
# Velocity S-wave (km/s) = 3.47518 -4.64096 -2.17504
# Velocity P-wave (km/s) = 6.15685 11.39215 6.77770
#
# Compressibility (1/GPa) = 0.02169786
#
# Stress axis : x y z
#
# Youngs Moduli (GPa) = 110.59660 42.62414 53.19650
#
# Poissons Ratio (x) = 0.13853 0.02397
# Poissons Ratio (y) = 0.35945 0.59053
# Poissons Ratio (z) = 0.04983 0.47317
#
# Static dielectric constant tensor:
#      x y z
#    x 1.759530 -0.002720 -0.011420 
#    y -0.002720 1.761500 0.006970 
#    z -0.011420 0.006970 1.746610 
# 
# From -- ./inp_files/299572.got.cif
#   From: 2010.05.17/outbox.cif.g08.bks.cpg/sg2_150_cif.got.tgz:299572.got - 2010.06.03 11:33:40.
