data_PCOD9003288
_publ_section_title
;
Structure prediction by ZEFSAII (Michael W. Deem and Ramdas Pophale) SiO2 
 PCOD9003288
Probable space group: P -1
;
_chemical_formula_sum "Si O2"
_cell_formula_units_Z 14
_cell_length_a 10.331827
_cell_length_b 6.618860
_cell_length_c 24.253809
_cell_angle_alpha 46.019370
_cell_angle_beta 146.984579
_cell_angle_gamma 132.201237
_cell_volume 633.135202
_symmetry_space_group_name_H-M "P -1"
_symmetry_group_IT_number 2
_symmetry_cell_setting 'triclinic'
loop_
_space_group_symop_operation_xyz
x,y,z
-x,-y,-z
loop_
_atom_site_type_symbol
_atom_site_label
_atom_site_fract_x
_atom_site_fract_y
_atom_site_fract_z
Si Si1 0.901620 0.712785 0.725518
Si Si2 0.800421 0.143882 0.292239
Si Si3 0.641130 0.462100 0.391839
Si Si4 0.972267 0.066657 0.883480
Si Si5 0.069688 0.690650 0.576470
Si Si6 0.329748 0.234640 0.073201
Si Si7 0.221631 0.852141 0.913097
O O1 0.631252 0.680270 0.659367
O O2 0.940511 0.386427 0.800714
O O3 0.954313 0.831516 0.660094
O O4 0.106496 0.898265 0.804224
O O5 0.843800 0.342521 0.324440
O O6 0.615666 0.269583 0.163943
O O7 0.683307 0.805410 0.326552
O O8 0.727530 0.313422 0.396961
O O9 0.831858 0.471782 0.508582
O O10 0.739311 0.905351 0.865355
O O11 0.037239 0.925184 0.878258
O O12 0.191498 0.055302 0.006923
O O13 0.000000 0.000000 0.500000
O O14 0.229410 0.519328 0.981760
O O15 0.500000 0.000000 0.000000
#
# Coordination Sequence:
#
# PCOD9003288 Si02
#       7
#     2   2   2   2   2   2   2
#     4  11  24  39  64  94 124 163 209 252 303 367
#     4  11  22  39  64  93 121 163 203 254 307 362
#     4  10  22  44  64  90 124 156 202 256 309 372
#     4  10  21  39  57  86 126 167 205 253 299 356
#     4   9  22  43  67  90 122 158 197 256 314 367
#     4  10  21  37  59  87 121 167 210 249 298 360
#     4  11  23  37  55  90 130 167 208 253 300 356
#
# _framework density 22.112179000000001
#
# number of rings (size 3 to 8) (size 9 to 14) (size 15 to 20)
#    0.000    1.714    1.429    2.143    2.000    6.286 
#    0.000    6.429    0.000    0.000    0.000    0.000 
#    0.000    0.000    0.000    0.000    0.000    0.000 
#
# Total GULP energy -78164.013848 kJ/mol
# GULP energy per Si atom -5583.143846 kJ/mol
# Density = 2.206185 g / cm^3
# Si number density = 22.112179 Si / 1000 Ang^3
#
#
#
# Elastic Constant Matrix: (Units=GPa)
#
#
# Indices 1 2 3 4 5 6 
#
# 1 156.6315 38.7359 41.6306 33.8912 10.2119 -22.2604
# 2 38.7359 52.5983 11.9243 10.5177 0.0341 -14.4250
# 3 41.6306 11.9243 58.0216 20.7807 17.9439 -9.1818
# 4 33.8912 10.5177 20.7807 28.4432 -4.3956 3.3558
# 5 10.2119 0.0341 17.9439 -4.3956 30.7745 5.7732
# 6 -22.2604 -14.4250 -9.1818 3.3558 5.7732 41.6604
#
#
#
# Elastic Compliance Matrix: (Units=1/GPa)
#
#
# Indices 1 2 3 4 5 6 
#
# 1 0.012324 -0.003732 0.002764 -0.017879 -0.009885 0.008712
# 2 -0.003732 0.025126 0.002914 -0.008484 -0.003292 0.008488
# 3 0.002764 0.002914 0.047686 -0.047997 -0.039778 0.022374
# 4 -0.017879 -0.008484 -0.047997 0.108123 0.056810 -0.039652
# 5 -0.009885 -0.003292 -0.039778 0.056810 0.072684 -0.029837
# 6 0.008712 0.008488 0.022374 -0.039652 -0.029837 0.043858
#
#
# Mechanical properties :
#
#
# Convention : Reuss Voigt Hill
#
# Bulk Modulus (GPa) = 11.23250 50.20364 30.71807
# Shear Modulus (GPa) = 14.89934 31.83967 23.36951
#
# Velocity S-wave (km/s) = 2.59860 3.79874 3.25447
# Velocity P-wave (km/s) = 3.75425 6.48027 5.29567
#
# Compressibility (1/GPa) = 0.08902738
#
# Stress axis : x y z
#
# Youngs Moduli (GPa) = 81.14272 39.79951 20.97043
#
# Poissons Ratio (x) = 0.14852 -0.05796
# Poissons Ratio (y) = 0.30279 -0.06110
# Poissons Ratio (z) = -0.22425 -0.11596
#
# Static dielectric constant tensor:
#      x y z
#    x 1.840170 0.020240 -0.012310 
#    y 0.020240 1.842070 0.012300 
#    z -0.012310 0.012300 1.899940 
# 
# From -- ./inp_files/35438.got.cif
#   From: 2010.05.17/outbox.cif.g08.bks.cpg/sg2_18_cif.got.tgz:35438.got - 2010.06.03 11:33:40.
