data_PCOD9003350
_publ_section_title
;
Structure prediction by ZEFSAII (Michael W. Deem and Ramdas Pophale) SiO2 
 PCOD9003350
Probable space group: P -1
;
_chemical_formula_sum "Si O2"
_cell_formula_units_Z 16
_cell_length_a 14.736637
_cell_length_b 12.813077
_cell_length_c 16.361018
_cell_angle_alpha 155.082061
_cell_angle_beta 141.062437
_cell_angle_gamma 53.546180
_cell_volume 742.311725
_symmetry_space_group_name_H-M "P -1"
_symmetry_group_IT_number 2
_symmetry_cell_setting 'triclinic'
loop_
_space_group_symop_operation_xyz
x,y,z
-x,-y,-z
loop_
_atom_site_type_symbol
_atom_site_label
_atom_site_fract_x
_atom_site_fract_y
_atom_site_fract_z
Si Si1 0.659516 0.761244 0.313114
Si Si2 0.866409 0.562852 0.565272
Si Si3 0.343424 0.024964 0.372231
Si Si4 0.319663 0.178354 0.981242
Si Si5 0.532017 0.180015 0.456422
Si Si6 0.547927 0.055976 0.946552
Si Si7 0.994762 0.142432 0.975010
Si Si8 0.998059 0.135559 0.381098
O O1 0.674258 0.772160 0.429296
O O2 0.820709 0.765378 0.394536
O O3 0.634362 0.019258 0.445068
O O4 0.500000 0.500000 0.000000
O O5 0.971351 0.390465 0.507579
O O6 0.940768 0.848277 0.772920
O O7 0.692718 0.355186 0.267334
O O8 0.871048 0.639575 0.719399
O O9 0.387578 0.106574 0.367826
O O10 0.500000 0.000000 0.500000
O O11 0.162714 0.794256 0.086243
O O12 0.366357 0.498068 0.238979
O O13 0.406796 0.119430 0.079475
O O14 0.390656 0.085207 0.887166
O O15 0.133637 0.000626 0.738902
O O16 0.470284 0.072102 0.246436
O O17 0.035002 0.091066 0.874870
#
# Coordination Sequence:
#
# PCOD9003350 Si02
#       8
#     2   2   2   2   2   2   2   2
#     4  10  24  42  67  97 126 159 213 265 321 382
#     4  10  22  36  59  91 125 165 208 262 320 368
#     4   9  21  39  62  95 122 162 207 259 316 375
#     4  10  23  42  63  91 130 166 221 251 311 372
#     4  11  23  40  70  90 125 175 207 261 316 371
#     4  10  23  41  64  96 127 165 217 263 303 379
#     4  10  21  37  59  90 129 163 207 258 321 381
#     4  10  23  41  60  89 128 165 203 266 312 373
#
# _framework density 21.554286000000001
#
# number of rings (size 3 to 8) (size 9 to 14) (size 15 to 20)
#    0.000    2.000    0.000    1.500    8.750    9.500 
#    0.000    0.625    0.000    0.000    0.000    0.000 
#    0.000    0.000    0.000    0.000    0.000    0.000 
#
# Total GULP energy -89336.879576 kJ/mol
# GULP energy per Si atom -5583.554973 kJ/mol
# Density = 2.150523 g / cm^3
# Si number density = 21.554286 Si / 1000 Ang^3
#
#
#
# Elastic Constant Matrix: (Units=GPa)
#
#
# Indices 1 2 3 4 5 6 
#
# 1 98.8685 18.0274 35.9115 -3.0364 2.0127 -15.0926
# 2 18.0274 71.0946 16.0332 17.0236 8.8590 -15.3828
# 3 35.9115 16.0332 63.2754 2.3842 -0.5659 -7.0424
# 4 -3.0364 17.0236 2.3842 32.3973 2.8573 0.7266
# 5 2.0127 8.8590 -0.5659 2.8573 31.5517 -14.2271
# 6 -15.0926 -15.3828 -7.0424 0.7266 -14.2271 35.6701
#
#
#
# Elastic Compliance Matrix: (Units=1/GPa)
#
#
# Indices 1 2 3 4 5 6 
#
# 1 0.013618 -0.001764 -0.006921 0.002527 0.001085 0.004016
# 2 -0.001764 0.019145 -0.002749 -0.010045 -0.001425 0.006603
# 3 -0.006921 -0.002749 0.020566 -0.000912 0.002011 0.000767
# 4 0.002527 -0.010045 -0.000912 0.036849 -0.003152 -0.005451
# 5 0.001085 -0.001425 0.002011 -0.003152 0.039607 0.016103
# 6 0.004016 0.006603 0.000767 -0.005451 0.016103 0.039267
#
#
# Mechanical properties :
#
#
# Convention : Reuss Voigt Hill
#
# Bulk Modulus (GPa) = 32.82794 41.46476 37.14635
# Shear Modulus (GPa) = 24.74339 30.80825 27.77582
#
# Velocity S-wave (km/s) = 3.39183 3.78475 3.59366
# Velocity P-wave (km/s) = 5.53197 6.19502 5.87286
#
# Compressibility (1/GPa) = 0.03046186
#
# Stress axis : x y z
#
# Youngs Moduli (GPa) = 73.43009 52.23381 48.62371
#
# Poissons Ratio (x) = 0.09212 0.33651
# Poissons Ratio (y) = 0.12950 0.13369
# Poissons Ratio (z) = 0.50818 0.14361
#
# Static dielectric constant tensor:
#      x y z
#    x 1.805230 -0.023960 0.004040 
#    y -0.023960 1.863730 -0.036580 
#    z 0.004040 -0.036580 1.815870 
# 
# From -- ./inp_files/574072.got.cif
#   From: 2010.05.17/outbox.cif.g08.bks.cpg/sg2_288_cif.got.tgz:574072.got - 2010.06.03 11:33:40.
