data_PCOD9003458
_publ_section_title
;
Structure prediction by ZEFSAII (Michael W. Deem and Ramdas Pophale) SiO2 
 PCOD9003458
Probable space group: P -1
;
_chemical_formula_sum "Si O2"
_cell_formula_units_Z 10
_cell_length_a 9.608708
_cell_length_b 9.420035
_cell_length_c 7.101974
_cell_angle_alpha 78.427186
_cell_angle_beta 48.711041
_cell_angle_gamma 109.353442
_cell_volume 367.474072
_symmetry_space_group_name_H-M "P -1"
_symmetry_group_IT_number 2
_symmetry_cell_setting 'triclinic'
loop_
_space_group_symop_operation_xyz
x,y,z
-x,-y,-z
loop_
_atom_site_type_symbol
_atom_site_label
_atom_site_fract_x
_atom_site_fract_y
_atom_site_fract_z
Si Si1 0.670465 0.737008 0.986393
Si Si2 0.638035 0.266023 0.262654
Si Si3 0.958973 0.313244 0.301102
Si Si4 0.281574 0.311750 0.487711
Si Si5 0.760437 0.105333 0.918614
O O1 0.690157 0.722925 0.746775
O O2 0.906111 0.771037 0.844570
O O3 0.675113 0.907128 0.981962
O O4 0.437528 0.533809 0.314054
O O5 0.783356 0.285395 0.307602
O O6 0.401801 0.242778 0.517107
O O7 0.589214 0.112116 0.203238
O O8 0.820699 0.465627 0.940086
O O9 0.830519 0.228773 0.636904
O O10 0.005820 0.206723 0.788958
#
# Coordination Sequence:
#
# PCOD9003458 Si02
#       5
#     2   2   2   2   2
#     4   9  19  37  60  86 119 153 195 244 288 348
#     4  10  21  37  60  89 119 152 198 244 288 351
#     4   9  19  38  58  85 124 152 188 250 292 340
#     4   9  19  39  60  85 121 155 193 243 292 350
#     4  11  21  39  65  85 114 162 195 236 301 344
#
# _framework density 27.212807000000002
#
# number of rings (size 3 to 8) (size 9 to 14) (size 15 to 20)
#    0.000    2.400    0.000    4.200    0.000    1.600 
#    0.000   21.000    0.000    4.800    0.000    0.000 
#    0.000    0.000    0.000    0.000    0.000    0.000 
#
# Total GULP energy -56220.799162 kJ/mol
# GULP energy per Si atom -5622.079916 kJ/mol
# Density = 2.715087 g / cm^3
# Si number density = 27.212807 Si / 1000 Ang^3
#
#
#
# Elastic Constant Matrix: (Units=GPa)
#
#
# Indices 1 2 3 4 5 6 
#
# 1 179.1076 40.4515 29.5731 2.7750 -6.8363 -12.8071
# 2 40.4515 93.6471 31.4721 9.8529 19.3656 -10.4718
# 3 29.5731 31.4721 101.0971 -10.0005 2.7882 -7.8295
# 4 2.7750 9.8529 -10.0005 23.8033 0.3753 0.0509
# 5 -6.8363 19.3656 2.7882 0.3753 35.8383 13.5934
# 6 -12.8071 -10.4718 -7.8295 0.0509 13.5934 23.7122
#
#
#
# Elastic Compliance Matrix: (Units=1/GPa)
#
#
# Indices 1 2 3 4 5 6 
#
# 1 0.006573 -0.003088 -0.001027 0.000034 0.002941 0.000162
# 2 -0.003088 0.019565 -0.004515 -0.009409 -0.016354 0.014877
# 3 -0.001027 -0.004515 0.012366 0.007169 0.000806 0.001057
# 4 0.000034 -0.009409 0.007169 0.048830 0.006048 -0.005342
# 5 0.002941 -0.016354 0.000806 0.006048 0.050113 -0.034109
# 6 0.000162 0.014877 0.001057 -0.005342 -0.034109 0.068744
#
#
# Mechanical properties :
#
#
# Convention : Reuss Voigt Hill
#
# Bulk Modulus (GPa) = 47.06911 64.09392 55.58152
# Shear Modulus (GPa) = 21.68886 34.82777 28.25831
#
# Velocity S-wave (km/s) = 2.82620 3.58135 3.22595
# Velocity P-wave (km/s) = 5.29000 6.38008 5.86044
#
# Compressibility (1/GPa) = 0.02124535
#
# Stress axis : x y z
#
# Youngs Moduli (GPa) = 152.12639 51.11116 80.86532
#
# Poissons Ratio (x) = 0.15783 0.08304
# Poissons Ratio (y) = 0.46976 0.36511
# Poissons Ratio (z) = 0.15621 0.23077
#
# Static dielectric constant tensor:
#      x y z
#    x 2.127030 -0.025290 0.014090 
#    y -0.025290 2.059290 -0.012360 
#    z 0.014090 -0.012360 2.090990 
# 
# From -- ./inp_files/144008.got.cif
#   From: 2010.05.17/outbox.cif.g08.bks.cpg/sg2_73_cif.got.tgz:144008.got - 2010.06.03 11:33:40.
