data_PCOD9003995
_publ_section_title
;
Structure prediction by ZEFSAII (Michael W. Deem and Ramdas Pophale) SiO2 
 PCOD9003995
Probable space group: P -1
;
_chemical_formula_sum "Si O2"
_cell_formula_units_Z 12
_cell_length_a 12.070152
_cell_length_b 10.252451
_cell_length_c 9.355881
_cell_angle_alpha 149.653254
_cell_angle_beta 50.304145
_cell_angle_gamma 115.070425
_cell_volume 425.202041
_symmetry_space_group_name_H-M "P -1"
_symmetry_group_IT_number 2
_symmetry_cell_setting 'triclinic'
loop_
_space_group_symop_operation_xyz
x,y,z
-x,-y,-z
loop_
_atom_site_type_symbol
_atom_site_label
_atom_site_fract_x
_atom_site_fract_y
_atom_site_fract_z
Si Si1 0.606055 0.756600 0.035799
Si Si2 0.108746 0.646465 0.478055
Si Si3 0.175324 0.943550 0.977695
Si Si4 0.431739 0.595363 0.799178
Si Si5 0.304504 0.137629 0.565870
Si Si6 0.985288 0.240501 0.851679
O O1 0.724818 0.583394 0.892680
O O2 0.564669 0.545712 0.762655
O O3 0.692330 0.923877 0.027253
O O4 0.433950 0.955702 0.395202
O O5 0.000000 0.500000 0.500000
O O6 0.148188 0.839427 0.745439
O O7 0.987679 0.818733 0.625852
O O8 0.166125 0.725311 0.898084
O O9 0.500000 0.500000 0.500000
O O10 0.330622 0.413259 0.757194
O O11 0.344872 0.919768 0.192710
O O12 0.130700 0.180593 0.782296
O O13 0.000000 0.000000 0.500000
O O14 0.000000 0.500000 0.000000
#
# Coordination Sequence:
#
# PCOD9003995 Si02
#       6
#     2   2   2   2   2   2
#     4   9  21  36  69  94 132 162 228 273 331 369
#     4   9  19  39  69  99 128 168 228 285 326 384
#     4  10  22  42  67 100 132 174 226 274 334 393
#     4  10  21  37  63  92 131 173 224 274 318 380
#     4  10  23  40  59  92 132 169 220 267 323 400
#     4  12  29  45  65  94 144 184 215 265 345 411
#
# _framework density 28.221876999999999
#
# number of rings (size 3 to 8) (size 9 to 14) (size 15 to 20)
#    1.000    1.000    0.000    2.500    7.000    2.667 
#    0.000    0.833    0.000   10.000    0.000    0.000 
#    0.000    0.000    0.000    0.000    0.000    0.000 
#
# Total GULP energy -67122.326554 kJ/mol
# GULP energy per Si atom -5593.527213 kJ/mol
# Density = 2.815764 g / cm^3
# Si number density = 28.221877 Si / 1000 Ang^3
#
#
#
# Elastic Constant Matrix: (Units=GPa)
#
#
# Indices 1 2 3 4 5 6 
#
# 1 131.2543 24.0169 22.5324 2.5704 -14.4453 29.8483
# 2 24.0169 166.6979 14.8476 22.9955 13.2356 30.4646
# 3 22.5324 14.8476 118.5760 2.1346 -6.2599 12.7997
# 4 2.5704 22.9955 2.1346 38.5730 18.8979 10.7192
# 5 -14.4453 13.2356 -6.2599 18.8979 60.2194 2.3202
# 6 29.8483 30.4646 12.7997 10.7192 2.3202 57.3304
#
#
#
# Elastic Compliance Matrix: (Units=1/GPa)
#
#
# Indices 1 2 3 4 5 6 
#
# 1 0.009158 -0.000611 -0.001070 -0.000200 0.002447 -0.004266
# 2 -0.000611 0.007109 -0.000458 -0.003070 -0.000687 -0.002756
# 3 -0.001070 -0.000458 0.008872 -0.000260 0.000893 -0.001168
# 4 -0.000200 -0.003070 -0.000260 0.033743 -0.009831 -0.004118
# 5 0.002447 -0.000687 0.000893 -0.009831 0.020526 -0.000101
# 6 -0.004266 -0.002756 -0.001168 -0.004118 -0.000101 0.022163
#
#
# Mechanical properties :
#
#
# Convention : Reuss Voigt Hill
#
# Bulk Modulus (GPa) = 47.93738 59.92469 53.93103
# Shear Modulus (GPa) = 44.32522 54.89998 49.61260
#
# Velocity S-wave (km/s) = 3.96738 4.41534 4.19734
# Velocity P-wave (km/s) = 6.16519 6.87555 6.53003
#
# Compressibility (1/GPa) = 0.02086055
#
# Stress axis : x y z
#
# Youngs Moduli (GPa) = 109.19833 140.66030 112.71447
#
# Poissons Ratio (x) = 0.08597 0.12065
# Poissons Ratio (y) = 0.06674 0.05158
# Poissons Ratio (z) = 0.11689 0.06437
#
# Static dielectric constant tensor:
#      x y z
#    x 2.310480 -0.134520 -0.093070 
#    y -0.134520 2.125430 0.102900 
#    z -0.093070 0.102900 2.463340 
# 
# From -- ./inp_files/424652.got.cif
#   From: 2010.05.17/outbox.cif.g08.bks.cpg/sg2_213_cif.got.tgz:424652.got - 2010.06.03 11:33:40.
