data_PCOD9003217
_publ_section_title
;
Structure prediction by ZEFSAII (Michael W. Deem and Ramdas Pophale) SiO2 
 PCOD9003217
Probable space group: P -1
;
_chemical_formula_sum "Si O2"
_cell_formula_units_Z 16
_cell_length_a 18.614974
_cell_length_b 5.210298
_cell_length_c 25.178002
_cell_angle_alpha 102.705470
_cell_angle_beta 18.476715
_cell_angle_gamma 94.697970
_cell_volume 688.656637
_symmetry_space_group_name_H-M "P -1"
_symmetry_group_IT_number 2
_symmetry_cell_setting 'triclinic'
loop_
_space_group_symop_operation_xyz
x,y,z
-x,-y,-z
loop_
_atom_site_type_symbol
_atom_site_label
_atom_site_fract_x
_atom_site_fract_y
_atom_site_fract_z
Si Si1 0.898453 0.143610 0.854894
Si Si2 0.019786 0.570403 0.325242
Si Si3 0.841167 0.755655 0.968868
Si Si4 0.535141 0.930382 0.034855
Si Si5 0.994628 0.693812 0.561079
Si Si6 0.101400 0.667946 0.894762
Si Si7 0.639419 0.337733 0.538687
Si Si8 0.639223 0.151342 0.643098
O O1 0.911356 0.958180 0.890285
O O2 0.171412 0.975079 0.629291
O O3 0.848088 0.469740 0.920991
O O4 0.690377 0.091206 0.962136
O O5 0.819434 0.499895 0.429177
O O6 0.025911 0.445222 0.374266
O O7 0.904380 0.908673 0.428129
O O8 0.284395 0.407825 0.105337
O O9 0.006386 0.661669 0.901567
O O10 0.560841 0.941432 0.195109
O O11 0.260503 0.021359 0.254178
O O12 0.500000 0.000000 0.000000
O O13 0.000000 0.500000 0.500000
O O14 0.265116 0.695969 0.373104
O O15 0.401002 0.513190 0.678907
O O16 0.000000 0.500000 0.000000
O O17 0.000000 0.000000 0.000000
O O18 0.534735 0.319097 0.669927
#
# Coordination Sequence:
#
# PCOD9003217 Si02
#       8
#     2   2   2   2   2   2   2   2
#     4  11  27  47  69 104 145 183 225 291 356 403
#     4   9  21  39  62  92 127 175 231 278 342 408
#     4  12  27  45  71 105 144 180 227 293 357 401
#     4   9  20  44  64  93 137 182 236 281 338 418
#     4  10  21  37  58  92 131 170 229 286 347 402
#     4  12  25  45  75 107 137 181 237 284 338 423
#     4  10  24  44  70  96 135 181 230 277 340 420
#     4  11  23  40  69  93 131 182 232 281 342 420
#
# _framework density 23.233640000000001
#
# number of rings (size 3 to 8) (size 9 to 14) (size 15 to 20)
#    0.000    1.500    1.250    3.000    8.750    2.000 
#    4.500    0.000    0.000    0.000    0.000    0.000 
#    0.000    0.000    0.000    0.000    0.000    0.000 
#
# Total GULP energy -89453.990386 kJ/mol
# GULP energy per Si atom -5590.874399 kJ/mol
# Density = 2.318076 g / cm^3
# Si number density = 23.233640 Si / 1000 Ang^3
#
#
#
# Elastic Constant Matrix: (Units=GPa)
#
#
# Indices 1 2 3 4 5 6 
#
# 1 134.8592 21.6305 39.1866 -4.3160 -16.7300 9.2210
# 2 21.6305 69.0090 0.9404 5.5948 10.2997 -9.9383
# 3 39.1866 0.9404 115.5278 3.3455 -13.1168 1.3828
# 4 -4.3160 5.5948 3.3455 25.4794 -2.6327 10.2199
# 5 -16.7300 10.2997 -13.1168 -2.6327 28.5966 1.1065
# 6 9.2210 -9.9383 1.3828 10.2199 1.1065 28.0642
#
#
#
# Elastic Compliance Matrix: (Units=1/GPa)
#
#
# Indices 1 2 3 4 5 6 
#
# 1 0.011435 -0.006969 -0.002933 0.008626 0.009019 -0.009577
# 2 -0.006969 0.022043 0.000865 -0.013788 -0.013493 0.015606
# 3 -0.002933 0.000865 0.009950 -0.002386 0.002257 0.001560
# 4 0.008626 -0.013788 -0.002386 0.057291 0.015317 -0.029066
# 5 0.009019 -0.013493 0.002257 0.015317 0.048144 -0.015329
# 6 -0.009577 0.015606 0.001560 -0.029066 -0.015329 0.055418
#
#
# Mechanical properties :
#
#
# Convention : Reuss Voigt Hill
#
# Bulk Modulus (GPa) = 39.44186 49.21234 44.32710
# Shear Modulus (GPa) = 21.66313 33.60395 27.63354
#
# Velocity S-wave (km/s) = 3.05684 3.80722 3.45247
# Velocity P-wave (km/s) = 5.42882 6.36820 5.91718
#
# Compressibility (1/GPa) = 0.02535378
#
# Stress axis : x y z
#
# Youngs Moduli (GPa) = 87.45071 45.36656 100.49833
#
# Poissons Ratio (x) = 0.31616 0.29477
# Poissons Ratio (y) = 0.60945 -0.08693
# Poissons Ratio (z) = 0.25650 -0.03924
#
# Static dielectric constant tensor:
#      x y z
#    x 1.903390 0.009900 0.008840 
#    y 0.009900 1.904210 0.066620 
#    z 0.008840 0.066620 1.875560 
# 
# From -- ./inp_files/552838.got.cif
#   From: 2010.05.17/outbox.cif.g08.bks.cpg/sg2_277_cif.got.tgz:552838.got - 2010.06.03 11:33:40.
