data_PCOD9003526
_publ_section_title
;
Structure prediction by ZEFSAII (Michael W. Deem and Ramdas Pophale) SiO2 
 PCOD9003526
Probable space group: P -1
;
_chemical_formula_sum "Si O2"
_cell_formula_units_Z 14
_cell_length_a 5.223962
_cell_length_b 13.229094
_cell_length_c 11.544475
_cell_angle_alpha 81.853734
_cell_angle_beta 115.008950
_cell_angle_gamma 122.890545
_cell_volume 603.062709
_symmetry_space_group_name_H-M "P -1"
_symmetry_group_IT_number 2
_symmetry_cell_setting 'triclinic'
loop_
_space_group_symop_operation_xyz
x,y,z
-x,-y,-z
loop_
_atom_site_type_symbol
_atom_site_label
_atom_site_fract_x
_atom_site_fract_y
_atom_site_fract_z
Si Si1 0.131087 0.515826 0.361101
Si Si2 0.255186 0.321043 0.389645
Si Si3 0.018114 0.797656 0.873170
Si Si4 0.647807 0.780507 0.036764
Si Si5 0.688322 0.625717 0.252689
Si Si6 0.112081 0.899418 0.313655
Si Si7 0.144495 0.950356 0.657219
O O1 0.040440 0.378668 0.376598
O O2 0.377563 0.591003 0.502890
O O3 0.373592 0.566081 0.287032
O O4 0.857603 0.549165 0.288522
O O5 0.225675 0.306319 0.247847
O O6 0.092968 0.183014 0.420445
O O7 0.304825 0.776286 0.972825
O O8 0.190164 0.914896 0.803119
O O9 0.807117 0.801281 0.937585
O O10 0.600433 0.659950 0.106922
O O11 0.914776 0.883753 0.158007
O O12 0.962735 0.758906 0.336634
O O13 0.501176 0.973210 0.348665
O O14 0.022530 0.972493 0.371624
#
# Coordination Sequence:
#
# PCOD9003526 Si02
#       7
#     2   2   2   2   2   2   2
#     4  11  22  48  64  86 119 166 206 262 289 366
#     4   9  26  40  69  90 118 158 215 252 312 335
#     4  10  21  37  60  93 124 152 205 254 294 357
#     4  10  21  38  60  91 126 162 195 236 311 372
#     4  10  24  39  67  88 122 168 204 234 310 370
#     4  10  21  38  60  91 126 162 195 236 311 372
#     4  10  21  37  60  93 124 152 205 254 294 357
#
# _framework density 23.214832000000001
#
# number of rings (size 3 to 8) (size 9 to 14) (size 15 to 20)
#    1.714    0.286    0.000    3.429    0.000   10.286 
#    0.000    8.571    0.000    0.000    0.000    0.000 
#    0.000    0.000    0.000    0.000    0.000    0.000 
#
# Total GULP energy -78252.836802 kJ/mol
# GULP energy per Si atom -5589.488343 kJ/mol
# Density = 2.316199 g / cm^3
# Si number density = 23.214832 Si / 1000 Ang^3
#
#
#
# Elastic Constant Matrix: (Units=GPa)
#
#
# Indices 1 2 3 4 5 6 
#
# 1 93.3424 31.7019 18.9424 -3.1420 -48.5011 0.2881
# 2 31.7019 95.2760 32.1487 -10.5479 -44.5847 -10.9043
# 3 18.9424 32.1487 66.0983 3.6759 14.8145 -5.5325
# 4 -3.1420 -10.5479 3.6759 34.4174 -11.8823 2.0730
# 5 -48.5011 -44.5847 14.8145 -11.8823 3.6142 8.2447
# 6 0.2881 -10.9043 -5.5325 2.0730 8.2447 30.7915
#
#
#
# Elastic Compliance Matrix: (Units=1/GPa)
#
#
# Indices 1 2 3 4 5 6 
#
# 1 0.008816 -0.007932 0.003210 -0.004483 -0.007292 -0.000061
# 2 -0.007932 0.009428 0.000247 -0.001286 -0.008888 0.005924
# 3 0.003210 0.000247 0.011471 0.002868 0.010627 -0.000920
# 4 -0.004483 -0.001286 0.002868 0.024452 -0.009925 0.001113
# 5 -0.007292 -0.008888 0.010627 -0.009925 -0.015028 0.003522
# 6 -0.000061 0.005924 -0.000920 0.001113 0.003522 0.033391
#
#
# Mechanical properties :
#
#
# Convention : Reuss Voigt Hill
#
# Bulk Modulus (GPa) = 48.15874 46.70029 47.42952
# Shear Modulus (GPa) = 56.55895 25.22619 40.89257
#
# Velocity S-wave (km/s) = 4.94127 3.30000 4.20156
# Velocity P-wave (km/s) = 7.30375 5.88899 6.63419
#
# Compressibility (1/GPa) = 0.02076466
#
# Stress axis : x y z
#
# Youngs Moduli (GPa) = 113.42547 106.06294 87.17847
#
# Poissons Ratio (x) = 0.84128 -0.27982
# Poissons Ratio (y) = 0.89968 -0.02151
# Poissons Ratio (z) = -0.36407 -0.02617
#
# Static dielectric constant tensor:
#      x y z
#    x 1.804950 0.009680 -0.012420 
#    y 0.009680 1.898370 -0.017200 
#    z -0.012420 -0.017200 1.910650 
# 
# From -- ./inp_files/363075.got.cif
#   From: 2010.05.17/outbox.cif.g08.bks.cpg/sg2_182_cif.got.tgz:363075.got - 2010.06.03 11:33:40.
