data_PCOD9003878
_publ_section_title
;
Structure prediction by ZEFSAII (Michael W. Deem and Ramdas Pophale) SiO2 
 PCOD9003878
Probable space group: P -1
;
_chemical_formula_sum "Si O2"
_cell_formula_units_Z 14
_cell_length_a 8.750365
_cell_length_b 10.911568
_cell_length_c 11.613118
_cell_angle_alpha 103.373207
_cell_angle_beta 31.956379
_cell_angle_gamma 108.988406
_cell_volume 552.710457
_symmetry_space_group_name_H-M "P -1"
_symmetry_group_IT_number 2
_symmetry_cell_setting 'triclinic'
loop_
_space_group_symop_operation_xyz
x,y,z
-x,-y,-z
loop_
_atom_site_type_symbol
_atom_site_label
_atom_site_fract_x
_atom_site_fract_y
_atom_site_fract_z
Si Si1 0.782341 0.667931 0.246723
Si Si2 0.463461 0.767067 0.895139
Si Si3 0.296352 0.597456 0.176452
Si Si4 0.377916 0.989026 0.862485
Si Si5 0.656110 0.600979 0.560070
Si Si6 0.347802 0.760775 0.395646
Si Si7 0.808614 0.096784 0.281093
O O1 0.657799 0.679899 0.457863
O O2 0.630915 0.519162 0.277354
O O3 0.657154 0.756455 0.258373
O O4 0.134069 0.703960 0.040038
O O5 0.520073 0.915519 0.852249
O O6 0.678472 0.694946 0.674978
O O7 0.429148 0.724732 0.039993
O O8 0.286100 0.638141 0.324216
O O9 0.951251 0.546912 0.349763
O O10 0.500000 0.500000 0.000000
O O11 0.258362 0.893907 0.809097
O O12 0.606527 0.113218 0.687312
O O13 0.090938 0.035612 0.099478
O O14 0.143987 0.778948 0.637772
O O15 0.500000 0.000000 0.500000
#
# Coordination Sequence:
#
# PCOD9003878 Si02
#       7
#     2   2   2   2   2   2   2
#     4  10  21  38  65  96 119 158 216 265 312 370
#     4  11  22  41  64  91 128 163 207 261 316 378
#     4  11  27  45  61  90 128 168 216 262 312 378
#     4  10  21  37  62  95 128 162 203 259 311 369
#     4  10  23  42  65  89 122 167 211 266 321 363
#     4  11  23  39  64  94 128 168 208 253 312 378
#     4   9  18  35  59  92 127 159 203 252 305 366
#
# _framework density 25.329719000000001
#
# number of rings (size 3 to 8) (size 9 to 14) (size 15 to 20)
#    0.000    1.714    0.000    4.714    0.000   10.857 
#    0.000    1.429    0.000    0.000    0.000    0.000 
#    0.000    0.000    0.000    0.000    0.000    0.000 
#
# Total GULP energy -78349.579865 kJ/mol
# GULP energy per Si atom -5596.398562 kJ/mol
# Density = 2.527207 g / cm^3
# Si number density = 25.329719 Si / 1000 Ang^3
#
#
#
# Elastic Constant Matrix: (Units=GPa)
#
#
# Indices 1 2 3 4 5 6 
#
# 1 91.7002 30.4433 26.3618 14.1888 16.5696 -3.6385
# 2 30.4433 75.1194 30.3655 7.9210 12.9539 -9.8245
# 3 26.3618 30.3655 84.6503 26.2447 3.8952 2.9506
# 4 14.1888 7.9210 26.2447 52.8244 7.0367 11.9163
# 5 16.5696 12.9539 3.8952 7.0367 48.8533 4.4992
# 6 -3.6385 -9.8245 2.9506 11.9163 4.4992 43.7082
#
#
#
# Elastic Compliance Matrix: (Units=1/GPa)
#
#
# Indices 1 2 3 4 5 6 
#
# 1 0.013730 -0.003705 -0.002262 -0.001859 -0.003347 0.001314
# 2 -0.003705 0.018183 -0.005510 0.000496 -0.003601 0.004386
# 3 -0.002262 -0.005510 0.016561 -0.006859 0.001977 -0.000878
# 4 -0.001859 0.000496 -0.006859 0.024378 -0.001910 -0.006030
# 5 -0.003347 -0.003601 0.001977 -0.001910 0.022959 -0.003064
# 6 0.001314 0.004386 -0.000878 -0.006030 -0.003064 0.025993
#
#
# Mechanical properties :
#
#
# Convention : Reuss Voigt Hill
#
# Bulk Modulus (GPa) = 39.18513 47.31236 43.24875
# Shear Modulus (GPa) = 32.62340 40.03047 36.32693
#
# Velocity S-wave (km/s) = 3.59269 3.97971 3.79114
# Velocity P-wave (km/s) = 5.71958 6.31162 6.02288
#
# Compressibility (1/GPa) = 0.02551988
#
# Stress axis : x y z
#
# Youngs Moduli (GPa) = 72.83323 54.99630 60.38444
#
# Poissons Ratio (x) = 0.20374 0.13661
# Poissons Ratio (y) = 0.26982 0.33271
# Poissons Ratio (z) = 0.16477 0.30303
#
# Static dielectric constant tensor:
#      x y z
#    x 1.991560 0.037710 0.020170 
#    y 0.037710 2.069180 0.017850 
#    z 0.020170 0.017850 1.961600 
# 
# From -- ./inp_files/392661.got.cif
#   From: 2010.05.17/outbox.cif.g08.bks.cpg/sg2_197_cif.got.tgz:392661.got - 2010.06.03 11:33:40.
