data_PCOD9003482
_publ_section_title
;
Structure prediction by ZEFSAII (Michael W. Deem and Ramdas Pophale) SiO2 
 PCOD9003482
Probable space group: P -1
;
_chemical_formula_sum "Si O2"
_cell_formula_units_Z 16
_cell_length_a 25.706539
_cell_length_b 8.538319
_cell_length_c 8.844493
_cell_angle_alpha 69.111346
_cell_angle_beta 39.613816
_cell_angle_gamma 40.139591
_cell_volume 658.194815
_symmetry_space_group_name_H-M "P -1"
_symmetry_group_IT_number 2
_symmetry_cell_setting 'triclinic'
loop_
_space_group_symop_operation_xyz
x,y,z
-x,-y,-z
loop_
_atom_site_type_symbol
_atom_site_label
_atom_site_fract_x
_atom_site_fract_y
_atom_site_fract_z
Si Si1 0.742516 0.628504 0.659257
Si Si2 0.622892 0.046407 0.253183
Si Si3 0.674405 0.595445 0.234061
Si Si4 0.864544 0.802484 0.989287
Si Si5 0.851871 0.823775 0.352299
Si Si6 0.360362 0.679766 0.093101
Si Si7 0.836675 0.161542 0.762382
Si Si8 0.558491 0.766498 0.768261
O O1 0.807739 0.702575 0.479773
O O2 0.859580 0.295885 0.572326
O O3 0.669707 0.686662 0.647648
O O4 0.599310 0.885221 0.995938
O O5 0.703824 0.744620 0.116301
O O6 0.472431 0.222369 0.578871
O O7 0.716775 0.977115 0.194582
O O8 0.591899 0.231439 0.126034
O O9 0.637583 0.616423 0.483063
O O10 0.794887 0.299830 0.972962
O O11 0.984944 0.457270 0.857927
O O12 0.916745 0.853414 0.732351
O O13 0.841265 0.908143 0.175874
O O14 0.756468 0.077149 0.602206
O O15 0.291457 0.693108 0.104767
O O16 0.464592 0.373941 0.047907
#
# Coordination Sequence:
#
# PCOD9003482 Si02
#       8
#     2   2   2   2   2   2   2   2
#     4  10  21  38  60  88 120 151 191 237 287 344
#     4  10  22  38  58  87 118 153 192 236 288 340
#     4  11  20  36  60  85 118 153 189 234 290 345
#     4  10  24  41  60  85 114 152 197 241 287 339
#     4  11  22  41  63  83 113 155 197 239 287 340
#     4  10  22  38  59  87 118 153 193 236 287 342
#     4  10  22  38  58  89 119 151 193 236 286 343
#     4  10  21  37  60  90 120 152 188 235 290 344
#
# _framework density 24.308910000000001
#
# number of rings (size 3 to 8) (size 9 to 14) (size 15 to 20)
#    0.000    1.750    0.000    4.500    0.000    9.500 
#    0.000    2.500    0.000    9.000    0.000    0.000 
#    0.000    0.000    0.000    0.000    0.000    0.000 
#
# Total GULP energy -89322.718271 kJ/mol
# GULP energy per Si atom -5582.669892 kJ/mol
# Density = 2.425358 g / cm^3
# Si number density = 24.308910 Si / 1000 Ang^3
#
#
#
# Elastic Constant Matrix: (Units=GPa)
#
#
# Indices 1 2 3 4 5 6 
#
# 1 87.4200 31.4237 18.4295 -4.3732 10.4070 -16.8975
# 2 31.4237 115.3330 8.4340 -27.0939 -3.3003 -2.7713
# 3 18.4295 8.4340 37.5009 -3.7315 7.1985 -6.0860
# 4 -4.3732 -27.0939 -3.7315 29.4780 10.0861 2.2602
# 5 10.4070 -3.3003 7.1985 10.0861 25.7117 -0.1276
# 6 -16.8975 -2.7713 -6.0860 2.2602 -0.1276 40.1640
#
#
#
# Elastic Compliance Matrix: (Units=1/GPa)
#
#
# Indices 1 2 3 4 5 6 
#
# 1 0.015592 -0.004070 -0.004929 -0.000718 -0.005144 0.005556
# 2 -0.004070 0.012348 0.000375 0.011361 -0.001337 -0.001447
# 3 -0.004929 0.000375 0.031883 0.006721 -0.009508 0.002375
# 4 -0.000718 0.011361 0.006721 0.052293 -0.020653 -0.001508
# 5 -0.005144 -0.001337 -0.009508 -0.020653 0.051555 -0.002371
# 6 0.005556 -0.001447 0.002375 -0.001508 -0.002371 0.027573
#
#
# Mechanical properties :
#
#
# Convention : Reuss Voigt Hill
#
# Bulk Modulus (GPa) = 23.48797 39.64761 31.56779
# Shear Modulus (GPa) = 22.45346 31.20185 26.82765
#
# Velocity S-wave (km/s) = 3.04249 3.58656 3.32567
# Velocity P-wave (km/s) = 4.69315 5.78762 5.26888
#
# Compressibility (1/GPa) = 0.04257498
#
# Stress axis : x y z
#
# Youngs Moduli (GPa) = 64.13731 80.98514 31.36442
#
# Poissons Ratio (x) = 0.32960 0.15461
# Poissons Ratio (y) = 0.26103 -0.01177
# Poissons Ratio (z) = 0.31615 -0.03040
#
# Static dielectric constant tensor:
#      x y z
#    x 1.924610 -0.006130 -0.003820 
#    y -0.006130 2.024850 0.010210 
#    z -0.003820 0.010210 1.924800 
# 
# From -- ./inp_files/356598.got.cif
#   From: 2010.05.17/outbox.cif.g08.bks.cpg/sg2_179_cif.got.tgz:356598.got - 2010.06.03 11:33:40.
