data_PCOD9003343
_publ_section_title
;
Structure prediction by ZEFSAII (Michael W. Deem and Ramdas Pophale) SiO2 
 PCOD9003343
Probable space group: P -1
;
_chemical_formula_sum "Si O2"
_cell_formula_units_Z 16
_cell_length_a 25.436374
_cell_length_b 25.657797
_cell_length_c 5.212898
_cell_angle_alpha 99.570605
_cell_angle_beta 100.529512
_cell_angle_gamma 11.041997
_cell_volume 639.085357
_symmetry_space_group_name_H-M "P -1"
_symmetry_group_IT_number 2
_symmetry_cell_setting 'triclinic'
loop_
_space_group_symop_operation_xyz
x,y,z
-x,-y,-z
loop_
_atom_site_type_symbol
_atom_site_label
_atom_site_fract_x
_atom_site_fract_y
_atom_site_fract_z
Si Si1 0.239541 0.191249 0.023986
Si Si2 0.405021 0.852468 0.740857
Si Si3 0.086899 0.599076 0.412244
Si Si4 0.607830 0.203354 0.809423
Si Si5 0.439139 0.923227 0.337171
Si Si6 0.739224 0.719894 0.699317
Si Si7 0.221003 0.739564 0.499983
Si Si8 0.825538 0.286031 0.062032
O O1 0.195541 0.281311 0.269619
O O2 0.263701 0.108013 0.079155
O O3 0.987751 0.446355 0.818359
O O4 0.509061 0.940013 0.893211
O O5 0.479712 0.738057 0.489347
O O6 0.672195 0.633138 0.786965
O O7 0.099174 0.169206 0.643099
O O8 0.375725 0.855628 0.997059
O O9 0.323948 0.350121 0.630518
O O10 0.809928 0.839877 0.486928
O O11 0.405074 0.445667 0.917544
O O12 0.896239 0.952598 0.826137
O O13 0.612932 0.809292 0.429071
O O14 0.500000 0.500000 0.500000
O O15 0.224113 0.708208 0.752398
O O16 0.166872 0.749698 0.235417
O O17 0.000000 0.000000 0.500000
#
# Coordination Sequence:
#
# PCOD9003343 Si02
#       8
#     2   2   2   2   2   2   2   2
#     4  10  21  37  59  90 122 161 210 260 317 378
#     4  11  24  47  65 100 125 175 210 296 355 396
#     4  10  24  43  61  92 124 159 223 251 358 424
#     4  12  24  45  74  94 136 164 239 292 332 398
#     4  11  21  42  61  89 124 170 207 263 318 414
#     4  10  21  37  59  90 122 161 210 260 317 378
#     4  12  24  42  64  99 152 186 224 274 329 394
#     4  12  24  41  68 104 126 190 234 274 333 392
#
# _framework density 25.035777
#
# number of rings (size 3 to 8) (size 9 to 14) (size 15 to 20)
#    0.000    1.000    0.000    7.125    0.000    0.000 
#   22.500    5.000    0.000    0.000    0.000    0.000 
#    0.000    0.000    0.000    0.000    0.000    0.000 
#
# Total GULP energy -89263.452364 kJ/mol
# GULP energy per Si atom -5578.965773 kJ/mol
# Density = 2.497879 g / cm^3
# Si number density = 25.035777 Si / 1000 Ang^3
#
#
#
# Elastic Constant Matrix: (Units=GPa)
#
#
# Indices 1 2 3 4 5 6 
#
# 1 65.7891 36.0989 9.0758 -6.2453 -16.1847 1.7338
# 2 36.0989 225.6202 -5.8280 -7.8649 -10.2726 10.6545
# 3 9.0758 -5.8280 71.7596 1.6717 -3.6013 5.1114
# 4 -6.2453 -7.8649 1.6717 27.6760 1.0365 -7.1363
# 5 -16.1847 -10.2726 -3.6013 1.0365 63.5146 -2.6101
# 6 1.7338 10.6545 5.1114 -7.1363 -2.6101 66.0871
#
#
#
# Elastic Compliance Matrix: (Units=1/GPa)
#
#
# Indices 1 2 3 4 5 6 
#
# 1 0.018354 -0.002724 -0.002470 0.003543 0.004067 0.000692
# 2 -0.002724 0.004947 0.000791 0.000553 0.000112 -0.000723
# 3 -0.002470 0.000791 0.014458 -0.001562 0.000289 -0.001338
# 4 0.003543 0.000553 -0.001562 0.038220 0.000448 0.004084
# 5 0.004067 0.000112 0.000289 0.000448 0.016831 0.000566
# 6 0.000692 -0.000723 -0.001338 0.004084 0.000566 0.015797
#
#
# Mechanical properties :
#
#
# Convention : Reuss Voigt Hill
#
# Bulk Modulus (GPa) = 34.54082 49.09581 41.81831
# Shear Modulus (GPa) = 39.34959 53.04368 46.19664
#
# Velocity S-wave (km/s) = 3.96881 4.60794 4.30027
# Velocity P-wave (km/s) = 5.90157 6.92558 6.43398
#
# Compressibility (1/GPa) = 0.02895126
#
# Stress axis : x y z
#
# Youngs Moduli (GPa) = 54.48281 202.13964 69.16464
#
# Poissons Ratio (x) = 0.55073 0.17086
# Poissons Ratio (y) = 0.14844 -0.05468
# Poissons Ratio (z) = 0.13459 -0.15981
#
# Static dielectric constant tensor:
#      x y z
#    x 2.098250 -0.054340 0.085260 
#    y -0.054340 1.981810 -0.135830 
#    z 0.085260 -0.135830 2.170900 
# 
# From -- ./inp_files/127760.got.cif
#   From: 2010.05.17/outbox.cif.g08.bks.cpg/sg2_64_cif.got.tgz:127760.got - 2010.06.03 11:33:40.
