data_PCOD9003269
_publ_section_title
;
Structure prediction by ZEFSAII (Michael W. Deem and Ramdas Pophale) SiO2 
 PCOD9003269
Probable space group: P -1
;
_chemical_formula_sum "Si O2"
_cell_formula_units_Z 10
_cell_length_a 20.339899
_cell_length_b 5.192874
_cell_length_c 18.226802
_cell_angle_alpha 88.463834
_cell_angle_beta 165.546331
_cell_angle_gamma 98.997106
_cell_volume 409.490413
_symmetry_space_group_name_H-M "P -1"
_symmetry_group_IT_number 2
_symmetry_cell_setting 'triclinic'
loop_
_space_group_symop_operation_xyz
x,y,z
-x,-y,-z
loop_
_atom_site_type_symbol
_atom_site_label
_atom_site_fract_x
_atom_site_fract_y
_atom_site_fract_z
Si Si1 0.178475 0.824733 0.391979
Si Si2 0.417218 0.575178 0.830165
Si Si3 0.878180 0.194449 0.325282
Si Si4 0.130391 0.319996 0.099490
Si Si5 0.592233 0.528615 0.863623
O O1 0.385261 0.673611 0.620476
O O2 0.406630 0.183709 0.639841
O O3 0.989788 0.732000 0.113122
O O4 0.924322 0.709528 0.182899
O O5 0.593898 0.535523 0.954123
O O6 0.053684 0.321183 0.436741
O O7 0.500000 0.500000 0.000000
O O8 0.000000 0.500000 0.500000
O O9 0.519045 0.928276 0.934917
O O10 0.000000 0.000000 0.500000
O O11 0.500000 0.500000 0.500000
O O12 0.000000 0.500000 0.000000
O O13 0.000000 0.000000 0.000000
#
# Coordination Sequence:
#
# PCOD9003269 Si02
#       5
#     2   2   2   2   2
#     4  12  26  48  70 106 145 184 231 284 356 426
#     4  10  23  42  65  95 130 181 240 290 340 406
#     4  10  21  37  59  86 120 159 216 289 340 388
#     4  12  25  45  76 108 141 184 231 284 342 420
#     4  12  27  46  71 101 146 192 231 293 356 412
#
# _framework density 24.420596
#
# number of rings (size 3 to 8) (size 9 to 14) (size 15 to 20)
#    0.000    0.800    0.000    7.200    0.000    9.600 
#    0.000    0.000    0.000    0.000    0.000    0.000 
#    0.000    0.000    0.000    0.000    0.000    0.000 
#
# Total GULP energy -56017.480735 kJ/mol
# GULP energy per Si atom -5601.748074 kJ/mol
# Density = 2.436501 g / cm^3
# Si number density = 24.420596 Si / 1000 Ang^3
#
#
#
# Elastic Constant Matrix: (Units=GPa)
#
#
# Indices 1 2 3 4 5 6 
#
# 1 116.5241 49.3184 34.6082 1.1488 5.7319 1.2513
# 2 49.3184 200.5731 77.1955 24.3284 21.6731 -15.1546
# 3 34.6082 77.1955 139.2296 10.2915 14.7749 1.9813
# 4 1.1488 24.3284 10.2915 65.4788 12.9914 3.0776
# 5 5.7319 21.6731 14.7749 12.9914 71.3773 4.2055
# 6 1.2513 -15.1546 1.9813 3.0776 4.2055 45.5768
#
#
#
# Elastic Compliance Matrix: (Units=1/GPa)
#
#
# Indices 1 2 3 4 5 6 
#
# 1 0.009866 -0.002086 -0.001347 0.000855 0.000021 -0.000966
# 2 -0.002086 0.007383 -0.003337 -0.002085 -0.001175 0.002906
# 3 -0.001347 -0.003337 0.009468 -0.000009 -0.000754 -0.001414
# 4 0.000855 -0.002085 -0.000009 0.016577 -0.002355 -0.001618
# 5 0.000021 -0.001175 -0.000754 -0.002355 0.015043 -0.001588
# 6 -0.000966 0.002906 -0.001414 -0.001618 -0.001588 0.023251
#
#
# Mechanical properties :
#
#
# Convention : Reuss Voigt Hill
#
# Bulk Modulus (GPa) = 75.90039 86.50789 81.20414
# Shear Modulus (GPa) = 50.24033 56.16690 53.20361
#
# Velocity S-wave (km/s) = 4.54066 4.80101 4.67265
# Velocity P-wave (km/s) = 7.65755 8.13843 7.90165
#
# Compressibility (1/GPa) = 0.01317516
#
# Stress axis : x y z
#
# Youngs Moduli (GPa) = 101.35811 135.45314 105.61541
#
# Poissons Ratio (x) = 0.28260 0.14230
# Poissons Ratio (y) = 0.21147 0.35246
# Poissons Ratio (z) = 0.13656 0.45203
#
# Static dielectric constant tensor:
#      x y z
#    x 2.052580 -0.073740 0.154160 
#    y -0.073740 2.008880 -0.112040 
#    z 0.154160 -0.112040 2.242200 
# 
# From -- ./inp_files/535911.got.cif
#   From: 2010.05.17/outbox.cif.g08.bks.cpg/sg2_268_cif.got.tgz:535911.got - 2010.06.03 11:33:40.
