data_PCOD9003598
_publ_section_title
;
Structure prediction by ZEFSAII (Michael W. Deem and Ramdas Pophale) SiO2 
 PCOD9003598
Probable space group: P -1
;
_chemical_formula_sum "Si O2"
_cell_formula_units_Z 16
_cell_length_a 8.578383
_cell_length_b 13.986031
_cell_length_c 14.933630
_cell_angle_alpha 147.387825
_cell_angle_beta 120.843023
_cell_angle_gamma 54.393059
_cell_volume 784.077810
_symmetry_space_group_name_H-M "P -1"
_symmetry_group_IT_number 2
_symmetry_cell_setting 'triclinic'
loop_
_space_group_symop_operation_xyz
x,y,z
-x,-y,-z
loop_
_atom_site_type_symbol
_atom_site_label
_atom_site_fract_x
_atom_site_fract_y
_atom_site_fract_z
Si Si1 0.457286 0.373338 0.018070
Si Si2 0.379396 0.861097 0.863960
Si Si3 0.057534 0.671857 0.429778
Si Si4 0.427619 0.537053 0.334057
Si Si5 0.011980 0.981823 0.213329
Si Si6 0.269661 0.983815 0.120052
Si Si7 0.811300 0.449834 0.080701
Si Si8 0.800429 0.586143 0.561184
O O1 0.406259 0.480469 0.181345
O O2 0.639052 0.424673 0.071461
O O3 0.289019 0.436132 0.946119
O O4 0.532163 0.150069 0.883548
O O5 0.524520 0.652381 0.741700
O O6 0.214761 0.921090 0.789562
O O7 0.500000 0.000000 0.000000
O O8 0.272032 0.882713 0.945945
O O9 0.228787 0.680383 0.422218
O O10 0.162189 0.548654 0.448672
O O11 0.933462 0.878427 0.591731
O O12 0.933483 0.557512 0.254940
O O13 0.619138 0.588944 0.449195
O O14 0.113513 0.985944 0.150785
O O15 0.064948 0.762823 0.078366
O O16 0.240049 0.197473 0.256279
O O17 0.000000 0.500000 0.500000
#
# Coordination Sequence:
#
# PCOD9003598 Si02
#       8
#     2   2   2   2   2   2   2   2
#     4   9  22  44  65  85 118 160 212 262 297 362
#     4  11  21  36  59  87 122 162 197 249 309 369
#     4  12  24  39  62  94 128 163 198 254 309 374
#     4  11  23  38  59  91 129 156 198 253 310 368
#     4  11  22  39  60  91 123 159 207 248 305 368
#     4  10  21  37  61  88 116 163 201 250 306 361
#     4  10  22  45  66  87 118 164 213 258 305 352
#     4  12  21  37  60  93 127 156 197 251 305 367
#
# _framework density 20.406137000000001
#
# number of rings (size 3 to 8) (size 9 to 14) (size 15 to 20)
#    0.000    1.250    2.500    3.750    1.750    2.500 
#    2.250    2.500    0.000    0.000    0.000    0.000 
#    0.000    0.000    0.000    0.000    0.000    0.000 
#
# Total GULP energy -89316.985864 kJ/mol
# GULP energy per Si atom -5582.311617 kJ/mol
# Density = 2.035969 g / cm^3
# Si number density = 20.406137 Si / 1000 Ang^3
#
#
#
# Elastic Constant Matrix: (Units=GPa)
#
#
# Indices 1 2 3 4 5 6 
#
# 1 64.5022 6.6742 23.3457 -9.6341 -17.7491 -12.9082
# 2 6.6742 89.8359 39.1725 3.1494 -7.2512 -1.6770
# 3 23.3457 39.1725 95.5248 4.1715 -3.2253 -18.8728
# 4 -9.6341 3.1494 4.1715 25.9926 -0.3083 -0.6196
# 5 -17.7491 -7.2512 -3.2253 -0.3083 30.4027 1.5639
# 6 -12.9082 -1.6770 -18.8728 -0.6196 1.5639 9.6346
#
#
#
# Elastic Compliance Matrix: (Units=1/GPa)
#
#
# Indices 1 2 3 4 5 6 
#
# 1 0.028847 -0.001104 0.001079 0.011756 0.014809 0.038923
# 2 -0.001104 0.015211 -0.009293 -0.001146 0.002890 -0.017578
# 3 0.001079 -0.009293 0.022860 -0.001093 -0.001476 0.044778
# 4 0.011756 -0.001146 -0.001093 0.043580 0.006133 0.015217
# 5 0.014809 0.002890 -0.001476 0.006133 0.041561 0.011102
# 6 0.038923 -0.017578 0.044778 0.015217 0.011102 0.239771
#
#
# Mechanical properties :
#
#
# Convention : Reuss Voigt Hill
#
# Bulk Modulus (GPa) = 20.71136 43.13865 31.92500
# Shear Modulus (GPa) = 11.72168 25.25069 18.48618
#
# Velocity S-wave (km/s) = 2.39930 3.52150 3.01310
# Velocity P-wave (km/s) = 4.22459 6.14170 5.27104
#
# Compressibility (1/GPa) = 0.04828269
#
# Stress axis : x y z
#
# Youngs Moduli (GPa) = 34.66531 65.74198 43.74404
#
# Poissons Ratio (x) = 0.07258 -0.04721
# Poissons Ratio (y) = 0.03827 0.40652
# Poissons Ratio (z) = -0.03741 0.61095
#
# Static dielectric constant tensor:
#      x y z
#    x 1.800800 -0.014790 -0.036280 
#    y -0.014790 1.711200 0.032880 
#    z -0.036280 0.032880 1.809500 
# 
# From -- ./inp_files/208297.got.cif
#   From: 2010.05.17/outbox.cif.g08.bks.cpg/sg2_105_cif.got.tgz:208297.got - 2010.06.03 11:33:40.
