data_PCOD9003802
_publ_section_title
;
Structure prediction by ZEFSAII (Michael W. Deem and Ramdas Pophale) SiO2 
 PCOD9003802
Probable space group: P -1
;
_chemical_formula_sum "Si O2"
_cell_formula_units_Z 16
_cell_length_a 7.931046
_cell_length_b 20.068923
_cell_length_c 9.170617
_cell_angle_alpha 140.158641
_cell_angle_beta 47.157328
_cell_angle_gamma 126.653763
_cell_volume 676.912717
_symmetry_space_group_name_H-M "P -1"
_symmetry_group_IT_number 2
_symmetry_cell_setting 'triclinic'
loop_
_space_group_symop_operation_xyz
x,y,z
-x,-y,-z
loop_
_atom_site_type_symbol
_atom_site_label
_atom_site_fract_x
_atom_site_fract_y
_atom_site_fract_z
Si Si1 0.075810 0.089700 0.770654
Si Si2 0.267535 0.443839 0.961528
Si Si3 0.721157 0.906308 0.778374
Si Si4 0.456019 0.573260 0.511997
Si Si5 0.550144 0.108651 0.355675
Si Si6 0.950680 0.594928 0.513137
Si Si7 0.943084 0.799839 0.726108
Si Si8 0.894818 0.286699 0.091018
O O1 0.077886 0.024719 0.320982
O O2 0.331632 0.095674 0.567677
O O3 0.932852 0.167360 0.895680
O O4 0.103595 0.130389 0.989713
O O5 0.119106 0.344521 0.965534
O O6 0.097976 0.531286 0.215342
O O7 0.500000 0.500000 0.000000
O O8 0.346374 0.415012 0.706541
O O9 0.533222 0.849182 0.679247
O O10 0.835159 0.836020 0.704464
O O11 0.614618 0.994788 0.082380
O O12 0.500000 0.500000 0.500000
O O13 0.235682 0.489972 0.438021
O O14 0.336028 0.677764 0.784156
O O15 0.775108 0.180028 0.411110
O O16 0.091857 0.664646 0.672134
O O17 0.845085 0.680313 0.623147
#
# Coordination Sequence:
#
# PCOD9003802 Si02
#       8
#     2   2   2   2   2   2   2   2
#     4  10  21  38  64  89 122 155 206 248 296 362
#     4  11  19  36  68  80 114 165 196 234 304 357
#     4  10  22  42  60  91 125 156 203 254 293 359
#     4  11  23  41  58  89 125 152 194 255 305 345
#     4  10  21  39  64  83 119 166 198 241 316 347
#     4  10  21  39  59  92 121 153 205 245 285 367
#     4  10  23  40  61  92 127 155 203 254 292 357
#     4  10  21  37  62  91 116 156 205 244 287 365
#
# _framework density 23.636725999999999
#
# number of rings (size 3 to 8) (size 9 to 14) (size 15 to 20)
#    0.000    1.750    2.500    2.625    1.750    5.000 
#   13.500    0.000    0.000    0.000    0.000    0.000 
#    0.000    0.000    0.000    0.000    0.000    0.000 
#
# Total GULP energy -89493.695246 kJ/mol
# GULP energy per Si atom -5593.355953 kJ/mol
# Density = 2.358293 g / cm^3
# Si number density = 23.636726 Si / 1000 Ang^3
#
#
#
# Elastic Constant Matrix: (Units=GPa)
#
#
# Indices 1 2 3 4 5 6 
#
# 1 100.3446 55.6472 26.0751 -4.2669 -7.3352 -34.1004
# 2 55.6472 133.8417 41.8440 -14.5841 -10.9482 -24.5838
# 3 26.0751 41.8440 115.5008 -35.8220 -14.7695 -1.1943
# 4 -4.2669 -14.5841 -35.8220 37.1066 8.6159 -6.4628
# 5 -7.3352 -10.9482 -14.7695 8.6159 24.9775 3.3524
# 6 -34.1004 -24.5838 -1.1943 -6.4628 3.3524 47.4450
#
#
#
# Elastic Compliance Matrix: (Units=1/GPa)
#
#
# Indices 1 2 3 4 5 6 
#
# 1 0.016023 -0.004360 -0.001973 -0.000303 0.000507 0.009131
# 2 -0.004360 0.010716 -0.002168 0.001783 0.001181 0.002524
# 3 -0.001973 -0.002168 0.013783 0.011434 0.002788 -0.000834
# 4 -0.000303 0.001783 0.011434 0.041754 -0.007921 0.007241
# 5 0.000507 0.001181 0.002788 -0.007921 0.045520 -0.003249
# 6 0.009131 0.002524 -0.000834 0.007241 -0.003249 0.030142
#
#
# Mechanical properties :
#
#
# Convention : Reuss Voigt Hill
#
# Bulk Modulus (GPa) = 42.51339 66.31330 54.41335
# Shear Modulus (GPa) = 27.35537 36.98054 32.16795
#
# Velocity S-wave (km/s) = 3.40564 3.95971 3.69308
# Velocity P-wave (km/s) = 5.78703 7.00156 6.42307
#
# Compressibility (1/GPa) = 0.02352200
#
# Stress axis : x y z
#
# Youngs Moduli (GPa) = 62.41046 93.31449 72.55382
#
# Poissons Ratio (x) = 0.40681 0.14311
# Poissons Ratio (y) = 0.27208 0.15730
# Poissons Ratio (z) = 0.12311 0.20231
#
# Static dielectric constant tensor:
#      x y z
#    x 2.045370 0.048150 -0.016570 
#    y 0.048150 1.929910 0.020480 
#    z -0.016570 0.020480 1.884630 
# 
# From -- ./inp_files/222391.got.cif
#   From: 2010.05.17/outbox.cif.g08.bks.cpg/sg2_112_cif.got.tgz:222391.got - 2010.06.03 11:33:40.
