data_PCOD9003214
_publ_section_title
;
Structure prediction by ZEFSAII (Michael W. Deem and Ramdas Pophale) SiO2 
 PCOD9003214
Probable space group: P -1
;
_chemical_formula_sum "Si O2"
_cell_formula_units_Z 16
_cell_length_a 9.296401
_cell_length_b 10.764120
_cell_length_c 18.157018
_cell_angle_alpha 30.325190
_cell_angle_beta 65.185515
_cell_angle_gamma 58.244178
_cell_volume 777.508972
_symmetry_space_group_name_H-M "P -1"
_symmetry_group_IT_number 2
_symmetry_cell_setting 'triclinic'
loop_
_space_group_symop_operation_xyz
x,y,z
-x,-y,-z
loop_
_atom_site_type_symbol
_atom_site_label
_atom_site_fract_x
_atom_site_fract_y
_atom_site_fract_z
Si Si1 0.922566 0.766871 0.428467
Si Si2 0.576293 0.696158 0.587035
Si Si3 0.385852 0.361258 0.773649
Si Si4 0.647062 0.812421 0.978100
Si Si5 0.991040 0.243102 0.087876
Si Si6 0.042551 0.721846 0.590817
Si Si7 0.314803 0.234820 0.325193
Si Si8 0.656207 0.595095 0.923557
O O1 0.730899 0.778286 0.482426
O O2 0.000000 0.500000 0.500000
O O3 0.021982 0.747907 0.493969
O O4 0.935997 0.026526 0.253902
O O5 0.538013 0.466847 0.670879
O O6 0.612621 0.617703 0.705311
O O7 0.399084 0.940216 0.490396
O O8 0.222584 0.518176 0.681095
O O9 0.468773 0.050750 0.902656
O O10 0.337356 0.395154 0.853487
O O11 0.648987 0.716467 0.943566
O O12 0.815619 0.886775 0.914547
O O13 0.842194 0.367125 0.997218
O O14 0.000000 0.500000 0.000000
O O15 0.886198 0.639170 0.690992
O O16 0.000000 0.000000 0.500000
O O17 0.363114 0.221993 0.236652
O O18 0.500000 0.500000 0.000000
#
# Coordination Sequence:
#
# PCOD9003214 Si02
#       8
#     2   2   2   2   2   2   2   2
#     4  11  25  44  64  96 134 170 210 268 339 381
#     4  10  21  39  63  85 128 168 203 263 321 380
#     4  11  22  41  62  90 126 167 215 265 322 385
#     4  10  24  39  61  90 127 169 211 261 326 382
#     4  10  23  40  65  92 127 170 217 262 318 390
#     4  11  24  38  67  95 123 168 224 271 312 386
#     4  10  21  37  58  92 117 159 214 259 315 371
#     4  11  22  37  62  92 122 161 213 264 312 381
#
# _framework density 20.578541999999999
#
# number of rings (size 3 to 8) (size 9 to 14) (size 15 to 20)
#    0.000    1.500    1.250    3.000    7.000    2.000 
#    0.000    1.875    0.000    8.250    0.000    0.000 
#    0.000    0.000    0.000    0.000    0.000    0.000 
#
# Total GULP energy -89144.450856 kJ/mol
# GULP energy per Si atom -5571.528179 kJ/mol
# Density = 2.053170 g / cm^3
# Si number density = 20.578542 Si / 1000 Ang^3
#
#
#
# Elastic Constant Matrix: (Units=GPa)
#
#
# Indices 1 2 3 4 5 6 
#
# 1 143.7112 25.9663 54.0535 2.8962 20.8645 -9.0819
# 2 25.9663 71.2374 25.7960 4.0606 13.6003 -0.0530
# 3 54.0535 25.7960 100.0142 11.5190 12.6405 3.5915
# 4 2.8962 4.0606 11.5190 32.8683 -4.6734 6.2936
# 5 20.8645 13.6003 12.6405 -4.6734 34.4170 -1.1044
# 6 -9.0819 -0.0530 3.5915 6.2936 -1.1044 28.9960
#
#
#
# Elastic Compliance Matrix: (Units=1/GPa)
#
#
# Indices 1 2 3 4 5 6 
#
# 1 0.009630 -0.001151 -0.004538 -0.000305 -0.003646 0.003504
# 2 -0.001151 0.016535 -0.002818 -0.001706 -0.005026 0.000198
# 3 -0.004538 -0.002818 0.013955 -0.003956 -0.001874 -0.002368
# 4 -0.000305 -0.001706 -0.003956 0.034311 0.006753 -0.006799
# 5 -0.003646 -0.005026 -0.001874 0.006753 0.034823 -0.001058
# 6 0.003504 0.000198 -0.002368 -0.006799 -0.001058 0.037314
#
#
# Mechanical properties :
#
#
# Convention : Reuss Voigt Hill
#
# Bulk Modulus (GPa) = 43.27730 58.51047 50.89389
# Shear Modulus (GPa) = 29.19156 33.19940 31.19548
#
# Velocity S-wave (km/s) = 3.77044 4.02095 3.89771
# Velocity P-wave (km/s) = 6.32700 7.07473 6.71129
#
# Compressibility (1/GPa) = 0.02310680
#
# Stress axis : x y z
#
# Youngs Moduli (GPa) = 103.84317 60.47943 71.65755
#
# Poissons Ratio (x) = 0.06961 0.32515
# Poissons Ratio (y) = 0.11953 0.20192
# Poissons Ratio (z) = 0.47120 0.17042
#
# Static dielectric constant tensor:
#      x y z
#    x 1.778970 0.023770 -0.047420 
#    y 0.023770 1.820730 -0.016420 
#    z -0.047420 -0.016420 1.663000 
# 
# From -- ./inp_files/318206.got.cif
#   From: 2010.05.17/outbox.cif.g08.bks.cpg/sg2_160_cif.got.tgz:318206.got - 2010.06.03 11:33:40.
