data_PCOD9003123
_publ_section_title
;
Structure prediction by ZEFSAII (Michael W. Deem and Ramdas Pophale) SiO2 
 PCOD9003123
Probable space group: P -1
;
_chemical_formula_sum "Si O2"
_cell_formula_units_Z 16
_cell_length_a 7.370578
_cell_length_b 18.736161
_cell_length_c 13.202203
_cell_angle_alpha 27.705077
_cell_angle_beta 88.232388
_cell_angle_gamma 106.214033
_cell_volume 636.759147
_symmetry_space_group_name_H-M "P -1"
_symmetry_group_IT_number 2
_symmetry_cell_setting 'triclinic'
loop_
_space_group_symop_operation_xyz
x,y,z
-x,-y,-z
loop_
_atom_site_type_symbol
_atom_site_label
_atom_site_fract_x
_atom_site_fract_y
_atom_site_fract_z
Si Si1 0.184666 0.128828 0.425083
Si Si2 0.639122 0.979373 0.300506
Si Si3 0.391562 0.316217 0.590167
Si Si4 0.060820 0.607315 0.028667
Si Si5 0.858955 0.203458 0.421463
Si Si6 0.541040 0.466702 0.191920
Si Si7 0.915337 0.470740 0.420653
Si Si8 0.911110 0.152258 0.880422
O O1 0.247613 0.991430 0.630032
O O2 0.024900 0.146284 0.481755
O O3 0.415807 0.358155 0.096126
O O4 0.000000 0.000000 0.500000
O O5 0.407395 0.956903 0.326266
O O6 0.566017 0.756587 0.563887
O O7 0.831917 0.133082 0.021420
O O8 0.412110 0.430071 0.345363
O O9 0.664046 0.424943 0.478658
O O10 0.198430 0.285018 0.706441
O O11 0.248377 0.081822 0.856080
O O12 0.998804 0.405807 0.233166
O O13 0.812685 0.564795 0.085131
O O14 0.095351 0.605150 0.152899
O O15 0.194377 0.758961 0.738386
O O16 0.844820 0.251925 0.680614
O O17 0.000000 0.500000 0.500000
#
# Coordination Sequence:
#
# PCOD9003123 Si02
#       8
#     2   2   2   2   2   2   2   2
#     4  11  23  36  57  91 122 150 188 247 318 370
#     4  10  21  37  58  84 115 158 205 246 294 358
#     4   9  20  40  62  84 117 160 209 258 294 353
#     4   8  17  36  62  87 112 153 205 247 295 358
#     4   9  19  38  61  84 115 154 199 251 294 352
#     4   8  17  37  61  83 112 153 203 249 295 360
#     4  11  23  38  61  93 126 160 199 255 319 371
#     4  10  22  38  60  88 118 163 214 252 295 357
#
# _framework density 25.12724
#
# number of rings (size 3 to 8) (size 9 to 14) (size 15 to 20)
#    0.000    2.500    0.000    2.250    0.000    9.000 
#    0.000    2.500    0.000    0.000    0.000    0.000 
#    0.000    0.000    0.000    0.000    0.000    0.000 
#
# Total GULP energy -89220.806361 kJ/mol
# GULP energy per Si atom -5576.300398 kJ/mol
# Density = 2.507005 g / cm^3
# Si number density = 25.127240 Si / 1000 Ang^3
#
#
#
# Elastic Constant Matrix: (Units=GPa)
#
#
# Indices 1 2 3 4 5 6 
#
# 1 100.0321 7.4391 43.5745 13.6407 -23.6512 -2.5529
# 2 7.4391 92.3381 12.2119 18.9252 -7.3113 -7.0567
# 3 43.5745 12.2119 122.6860 29.8254 0.1439 -1.0216
# 4 13.6407 18.9252 29.8254 32.2638 -5.2104 -4.1036
# 5 -23.6512 -7.3113 0.1439 -5.2104 50.2283 2.9901
# 6 -2.5529 -7.0567 -1.0216 -4.1036 2.9901 30.5177
#
#
#
# Elastic Compliance Matrix: (Units=1/GPa)
#
#
# Indices 1 2 3 4 5 6 
#
# 1 0.013636 0.000138 -0.004775 -0.000356 0.006398 0.000338
# 2 0.000138 0.012502 0.000545 -0.007504 0.000997 0.001814
# 3 -0.004775 0.000545 0.012293 -0.010303 -0.003218 -0.000932
# 4 -0.000356 -0.007504 -0.010303 0.046086 0.003327 0.003761
# 5 0.006398 0.000997 -0.003218 0.003327 0.023492 -0.001196
# 6 0.000338 0.001814 -0.000932 0.003761 -0.001196 0.033807
#
#
# Mechanical properties :
#
#
# Convention : Reuss Voigt Hill
#
# Bulk Modulus (GPa) = 33.06094 49.05636 41.05865
# Shear Modulus (GPa) = 31.23335 39.39067 35.31201
#
# Velocity S-wave (km/s) = 3.52946 3.96365 3.75284
# Velocity P-wave (km/s) = 5.45852 6.36498 5.92909
#
# Compressibility (1/GPa) = 0.03024717
#
# Stress axis : x y z
#
# Youngs Moduli (GPa) = 73.33286 79.98665 81.34429
#
# Poissons Ratio (x) = -0.01106 0.38844
# Poissons Ratio (y) = -0.01014 -0.04430
# Poissons Ratio (z) = 0.35018 -0.04356
#
# Static dielectric constant tensor:
#      x y z
#    x 2.123640 -0.079190 0.147500 
#    y -0.079190 2.369660 -0.108480 
#    z 0.147500 -0.108480 2.108180 
# 
# From -- ./inp_files/401827.got.cif
#   From: 2010.05.17/outbox.cif.g08.bks.cpg/sg2_201_cif.got.tgz:401827.got - 2010.06.03 11:33:40.
