data_PCOD9003997
_publ_section_title
;
Structure prediction by ZEFSAII (Michael W. Deem and Ramdas Pophale) SiO2 
 PCOD9003997
Probable space group: P -1
;
_chemical_formula_sum "Si O2"
_cell_formula_units_Z 16
_cell_length_a 8.748095
_cell_length_b 12.760836
_cell_length_c 15.022989
_cell_angle_alpha 33.231428
_cell_angle_beta 69.744301
_cell_angle_gamma 84.792700
_cell_volume 795.139119
_symmetry_space_group_name_H-M "P -1"
_symmetry_group_IT_number 2
_symmetry_cell_setting 'triclinic'
loop_
_space_group_symop_operation_xyz
x,y,z
-x,-y,-z
loop_
_atom_site_type_symbol
_atom_site_label
_atom_site_fract_x
_atom_site_fract_y
_atom_site_fract_z
Si Si1 0.471791 0.196357 0.314109
Si Si2 0.629434 0.032079 0.682591
Si Si3 0.253102 0.040680 0.712385
Si Si4 0.578921 0.878052 0.000900
Si Si5 0.308750 0.422069 0.326173
Si Si6 0.031660 0.557260 0.698778
Si Si7 0.922035 0.853434 0.037707
Si Si8 0.849586 0.373079 0.054083
O O1 0.378133 0.313397 0.310543
O O2 0.663164 0.368973 0.126995
O O3 0.500000 0.000000 0.500000
O O4 0.377822 0.117455 0.293702
O O5 0.428517 0.022705 0.729311
O O6 0.786195 0.245345 0.470545
O O7 0.655992 0.986491 0.812883
O O8 0.307537 0.278137 0.510892
O O9 0.192138 0.872947 0.763832
O O10 0.076887 0.957995 0.862213
O O11 0.430082 0.658872 0.154869
O O12 0.736327 0.843828 0.045771
O O13 0.500000 0.000000 0.000000
O O14 0.110169 0.398210 0.364175
O O15 0.083043 0.373947 0.781435
O O16 0.921837 0.469756 0.874549
O O17 0.000000 0.000000 0.000000
O O18 0.000000 0.500000 0.000000
#
# Coordination Sequence:
#
# PCOD9003997 Si02
#       8
#     2   2   2   2   2   2   2   2
#     4  11  22  41  69 100 141 183 221 279 334 405
#     4  11  23  45  68  99 142 175 233 274 342 400
#     4  10  22  40  67  98 131 177 217 279 330 403
#     4  12  27  46  72 101 133 176 231 286 341 404
#     4  12  24  43  68 101 139 178 229 275 338 402
#     4  11  25  41  64  98 134 179 225 275 332 402
#     4  11  24  46  70  95 133 174 225 285 342 398
#     4  10  21  37  63  92 136 174 225 268 333 395
#
# _framework density 20.122264999999999
#
# number of rings (size 3 to 8) (size 9 to 14) (size 15 to 20)
#    0.000    1.000    2.500    6.000    3.500    3.500 
#    0.000    5.000    0.000    0.000    0.000    0.000 
#    0.000    0.000    0.000    0.000    0.000    0.000 
#
# Total GULP energy -89202.385994 kJ/mol
# GULP energy per Si atom -5575.149125 kJ/mol
# Density = 2.007647 g / cm^3
# Si number density = 20.122265 Si / 1000 Ang^3
#
#
#
# Elastic Constant Matrix: (Units=GPa)
#
#
# Indices 1 2 3 4 5 6 
#
# 1 104.9062 51.2955 4.8679 -26.5159 -12.1066 -7.5626
# 2 51.2955 96.6734 13.3389 -11.4452 5.7362 -7.8793
# 3 4.8679 13.3389 62.2132 -10.9456 -13.7638 -5.5237
# 4 -26.5159 -11.4452 -10.9456 17.9779 -2.0193 0.8485
# 5 -12.1066 5.7362 -13.7638 -2.0193 39.0845 3.3227
# 6 -7.5626 -7.8793 -5.5237 0.8485 3.3227 33.6584
#
#
#
# Elastic Compliance Matrix: (Units=1/GPa)
#
#
# Indices 1 2 3 4 5 6 
#
# 1 0.027416 -0.011974 0.011558 0.041552 0.016245 0.002602
# 2 -0.011974 0.016855 -0.006751 -0.012151 -0.009305 0.001372
# 3 0.011558 -0.006751 0.025383 0.029724 0.014793 0.002972
# 4 0.041552 -0.012151 0.029724 0.130567 0.031444 0.004974
# 5 0.016245 -0.009305 0.014793 0.031444 0.038879 -0.000731
# 6 0.002602 0.001372 0.002972 0.004974 -0.000731 0.031051
#
#
# Mechanical properties :
#
#
# Convention : Reuss Voigt Hill
#
# Bulk Modulus (GPa) = 18.07738 44.75527 31.41632
# Shear Modulus (GPa) = 16.50570 31.09688 23.80129
#
# Velocity S-wave (km/s) = 2.86714 3.93542 3.44297
# Velocity P-wave (km/s) = 4.46810 6.55286 5.60820
#
# Compressibility (1/GPa) = 0.05531777
#
# Stress axis : x y z
#
# Youngs Moduli (GPa) = 36.47523 59.33094 39.39628
#
# Poissons Ratio (x) = 0.71044 -0.45533
# Poissons Ratio (y) = 0.43676 0.26598
# Poissons Ratio (z) = -0.42157 0.40057
#
# Static dielectric constant tensor:
#      x y z
#    x 1.718980 -0.014080 0.026300 
#    y -0.014080 1.661590 -0.001900 
#    z 0.026300 -0.001900 1.740990 
# 
# From -- ./inp_files/499660.got.cif
#   From: 2010.05.17/outbox.cif.g08.bks.cpg/sg2_250_cif.got.tgz:499660.got - 2010.06.03 11:33:40.
