data_PCOD9003377
_publ_section_title
;
Structure prediction by ZEFSAII (Michael W. Deem and Ramdas Pophale) SiO2 
 PCOD9003377
Probable space group: P -1
;
_chemical_formula_sum "Si O2"
_cell_formula_units_Z 14
_cell_length_a 14.775932
_cell_length_b 26.450479
_cell_length_c 15.025812
_cell_angle_alpha 159.859109
_cell_angle_beta 28.828874
_cell_angle_gamma 160.136876
_cell_volume 685.848686
_symmetry_space_group_name_H-M "P -1"
_symmetry_group_IT_number 2
_symmetry_cell_setting 'triclinic'
loop_
_space_group_symop_operation_xyz
x,y,z
-x,-y,-z
loop_
_atom_site_type_symbol
_atom_site_label
_atom_site_fract_x
_atom_site_fract_y
_atom_site_fract_z
Si Si1 0.062346 0.648222 0.615259
Si Si2 0.113428 0.164023 0.096025
Si Si3 0.009887 0.025947 0.305245
Si Si4 0.269194 0.464476 0.866336
Si Si5 0.435297 0.058721 0.063973
Si Si6 0.563319 0.581013 0.978916
Si Si7 0.057784 0.480580 0.679831
O O1 0.096412 0.589425 0.395859
O O2 0.000000 0.500000 0.500000
O O3 0.798099 0.605276 0.776420
O O4 0.330140 0.881794 0.792637
O O5 0.069420 0.311682 0.401392
O O6 0.434739 0.332439 0.087534
O O7 0.973365 0.029029 0.901451
O O8 0.000000 0.000000 0.000000
O O9 0.182514 0.028405 0.232884
O O10 0.119770 0.251384 0.590716
O O11 0.704468 0.819268 0.250799
O O12 0.326598 0.441643 0.880921
O O13 0.088409 0.508617 0.101072
O O14 0.665884 0.286545 0.199808
O O15 0.500000 0.000000 0.000000
O O16 0.500000 0.500000 0.000000
#
# Coordination Sequence:
#
# PCOD9003377 Si02
#       7
#     2   2   2   2   2   2   2
#     4  11  20  36  60  89 133 179 214 255 317 375
#     4  11  25  49  73  91 125 171 220 285 339 382
#     4  10  22  45  61  95 136 170 218 270 322 391
#     4  11  24  42  65  96 131 166 221 272 331 392
#     4  11  21  35  64  94 129 178 212 248 318 390
#     4  10  21  37  59  92 134 179 218 261 312 386
#     4  12  23  42  65  95 132 171 215 271 318 396
#
# _framework density 20.412666000000002
#
# number of rings (size 3 to 8) (size 9 to 14) (size 15 to 20)
#    0.000    1.143    7.143    0.857    2.000    5.143 
#    0.000    0.714    0.000    0.000    0.000    0.000 
#    0.000    0.000    0.000    0.000    0.000    0.000 
#
# Total GULP energy -78011.600799 kJ/mol
# GULP energy per Si atom -5572.257200 kJ/mol
# Density = 2.036621 g / cm^3
# Si number density = 20.412666 Si / 1000 Ang^3
#
#
#
# Elastic Constant Matrix: (Units=GPa)
#
#
# Indices 1 2 3 4 5 6 
#
# 1 67.6829 34.0758 39.8008 10.2721 -8.8058 -18.6432
# 2 34.0758 66.2468 64.6839 10.6730 -4.9562 -2.9927
# 3 39.8008 64.6839 169.5821 19.9339 -2.4810 0.5543
# 4 10.2721 10.6730 19.9339 41.8543 5.6184 -2.7333
# 5 -8.8058 -4.9562 -2.4810 5.6184 27.9462 10.2271
# 6 -18.6432 -2.9927 0.5543 -2.7333 10.2271 34.1797
#
#
#
# Elastic Compliance Matrix: (Units=1/GPa)
#
#
# Indices 1 2 3 4 5 6 
#
# 1 0.024657 -0.009944 -0.001749 -0.002171 0.001951 0.011850
# 2 -0.009944 0.028674 -0.008370 -0.001519 0.002892 -0.003764
# 3 -0.001749 -0.008370 0.009768 -0.002224 0.000022 -0.002030
# 4 -0.002171 -0.001519 -0.002224 0.027126 -0.007782 0.003217
# 5 0.001951 0.002892 0.000022 -0.007782 0.042923 -0.012149
# 6 0.011850 -0.003764 -0.002030 0.003217 -0.012149 0.039316
#
#
# Mechanical properties :
#
#
# Convention : Reuss Voigt Hill
#
# Bulk Modulus (GPa) = 43.53038 64.51475 54.02256
# Shear Modulus (GPa) = 22.70168 31.79279 27.24724
#
# Velocity S-wave (km/s) = 3.33849 3.95080 3.65748
# Velocity P-wave (km/s) = 6.01932 7.24470 6.66025
#
# Compressibility (1/GPa) = 0.02297246
#
# Stress axis : x y z
#
# Youngs Moduli (GPa) = 40.55642 34.87520 102.37225
#
# Poissons Ratio (x) = 0.34681 0.17904
# Poissons Ratio (y) = 0.40331 0.85685
# Poissons Ratio (z) = 0.07093 0.29190
#
# Static dielectric constant tensor:
#      x y z
#    x 1.759690 0.028870 -0.023990 
#    y 0.028870 1.754650 -0.031960 
#    z -0.023990 -0.031960 1.785180 
# 
# From -- ./inp_files/535668.got.cif
#   From: 2010.05.17/outbox.cif.g08.bks.cpg/sg2_268_cif.got.tgz:535668.got - 2010.06.03 11:33:40.
