data_PCOD9003671
_publ_section_title
;
Structure prediction by ZEFSAII (Michael W. Deem and Ramdas Pophale) SiO2 
 PCOD9003671
Probable space group: P -1
;
_chemical_formula_sum "Si O2"
_cell_formula_units_Z 12
_cell_length_a 13.830800
_cell_length_b 7.651376
_cell_length_c 17.490106
_cell_angle_alpha 90.960525
_cell_angle_beta 25.712702
_cell_angle_gamma 109.802703
_cell_volume 534.558683
_symmetry_space_group_name_H-M "P -1"
_symmetry_group_IT_number 2
_symmetry_cell_setting 'triclinic'
loop_
_space_group_symop_operation_xyz
x,y,z
-x,-y,-z
loop_
_atom_site_type_symbol
_atom_site_label
_atom_site_fract_x
_atom_site_fract_y
_atom_site_fract_z
Si Si1 0.972315 0.624890 0.847900
Si Si2 0.231935 0.265305 0.883065
Si Si3 0.214000 0.432931 0.745977
Si Si4 0.231020 0.035695 0.395964
Si Si5 0.466814 0.157278 0.827822
Si Si6 0.790807 0.750354 0.847957
O O1 0.998043 0.805241 0.884941
O O2 0.597639 0.331818 0.127078
O O3 0.971299 0.697467 0.764364
O O4 0.212598 0.622473 0.711318
O O5 0.284388 0.452274 0.786342
O O6 0.528376 0.335952 0.717041
O O7 0.000000 0.000000 0.000000
O O8 0.500000 0.500000 0.500000
O O9 0.862963 0.138501 0.969586
O O10 0.265224 0.844526 0.356240
O O11 0.068283 0.982399 0.593523
O O12 0.000000 0.000000 0.500000
O O13 0.369027 0.206277 0.975880
O O14 0.500000 0.500000 0.000000
#
# Coordination Sequence:
#
# PCOD9003671 Si02
#       6
#     2   2   2   2   2   2
#     4  10  22  42  61  91 126 159 207 254 302 371
#     4   9  19  40  60  83 123 159 197 254 303 357
#     4  10  21  37  61  92 118 161 205 248 309 361
#     4  11  23  42  64  91 124 167 204 256 313 358
#     4   9  23  42  60  92 126 157 209 254 304 373
#     4  11  23  43  64  91 126 163 207 256 310 367
#
# _framework density 22.448425
#
# number of rings (size 3 to 8) (size 9 to 14) (size 15 to 20)
#    0.000    2.000    1.667    0.500    4.667    1.333 
#    0.000    2.500    0.000    0.000    0.000    0.000 
#    0.000    0.000    0.000    0.000    0.000    0.000 
#
# Total GULP energy -66916.687274 kJ/mol
# GULP energy per Si atom -5576.390606 kJ/mol
# Density = 2.239733 g / cm^3
# Si number density = 22.448425 Si / 1000 Ang^3
#
#
#
# Elastic Constant Matrix: (Units=GPa)
#
#
# Indices 1 2 3 4 5 6 
#
# 1 217.7342 51.0012 46.9242 28.0874 0.6405 -24.4489
# 2 51.0012 78.5936 0.9747 24.7061 -15.6113 -2.7845
# 3 46.9242 0.9747 61.0072 10.6363 -7.9609 -8.0651
# 4 28.0874 24.7061 10.6363 34.4243 -13.4981 -5.1006
# 5 0.6405 -15.6113 -7.9609 -13.4981 32.9676 14.3022
# 6 -24.4489 -2.7845 -8.0651 -5.1006 14.3022 36.9548
#
#
#
# Elastic Compliance Matrix: (Units=1/GPa)
#
#
# Indices 1 2 3 4 5 6 
#
# 1 0.008495 -0.005918 -0.006122 -0.003198 -0.008687 0.006759
# 2 -0.005918 0.021262 0.006366 -0.009129 0.010732 -0.006337
# 3 -0.006122 0.006366 0.022384 -0.003683 0.008030 -0.002301
# 4 -0.003198 -0.009129 -0.003683 0.044547 0.014405 -0.003034
# 5 -0.008687 0.010732 0.008030 0.014405 0.052806 -0.021635
# 6 0.006759 -0.006337 -0.002301 -0.003034 -0.021635 0.038507
#
#
# Mechanical properties :
#
#
# Convention : Reuss Voigt Hill
#
# Bulk Modulus (GPa) = 24.51345 61.68168 43.09757
# Shear Modulus (GPa) = 23.48004 38.09833 30.78919
#
# Velocity S-wave (km/s) = 3.23763 4.12412 3.70746
# Velocity P-wave (km/s) = 4.99199 7.08622 6.12921
#
# Compressibility (1/GPa) = 0.04079393
#
# Stress axis : x y z
#
# Youngs Moduli (GPa) = 117.71120 47.03250 44.67398
#
# Poissons Ratio (x) = 0.27833 0.27351
# Poissons Ratio (y) = 0.69660 -0.28441
# Poissons Ratio (z) = 0.72066 -0.29942
#
# Static dielectric constant tensor:
#      x y z
#    x 1.456650 -0.084470 -0.074420 
#    y -0.084470 1.982720 -0.000700 
#    z -0.074420 -0.000700 1.825650 
# 
# From -- ./inp_files/22261.got.cif
#   From: 2010.05.17/outbox.cif.g08.bks.cpg/sg2_12_cif.got.tgz:22261.got - 2010.06.03 11:33:40.
