data_PCOD9003428
_publ_section_title
;
Structure prediction by ZEFSAII (Michael W. Deem and Ramdas Pophale) SiO2 
 PCOD9003428
Probable space group: P -1
;
_chemical_formula_sum "Si O2"
_cell_formula_units_Z 14
_cell_length_a 15.999818
_cell_length_b 9.569421
_cell_length_c 20.566843
_cell_angle_alpha 27.164197
_cell_angle_beta 24.571331
_cell_angle_gamma 29.249567
_cell_volume 563.522786
_symmetry_space_group_name_H-M "P -1"
_symmetry_group_IT_number 2
_symmetry_cell_setting 'triclinic'
loop_
_space_group_symop_operation_xyz
x,y,z
-x,-y,-z
loop_
_atom_site_type_symbol
_atom_site_label
_atom_site_fract_x
_atom_site_fract_y
_atom_site_fract_z
Si Si1 0.192661 0.201424 0.895829
Si Si2 0.723216 0.308858 0.047440
Si Si3 0.540302 0.799969 0.411452
Si Si4 0.779179 0.751074 0.933020
Si Si5 0.271877 0.746653 0.145885
Si Si6 0.809197 0.824458 0.415753
Si Si7 0.509687 0.530225 0.673227
O O1 0.366713 0.279634 0.693589
O O2 0.275939 0.029638 0.975418
O O3 0.873096 0.066785 0.989242
O O4 0.995279 0.524766 0.908063
O O5 0.789319 0.578755 0.927069
O O6 0.665299 0.049298 0.242013
O O7 0.502799 0.479174 0.093979
O O8 0.583726 0.513224 0.552296
O O9 0.297271 0.035337 0.496807
O O10 0.565932 0.725838 0.128282
O O11 0.769042 0.108345 0.812229
O O12 0.060927 0.672815 0.304855
O O13 0.689988 0.608811 0.554159
O O14 0.711055 0.162878 0.305162
#
# Coordination Sequence:
#
# PCOD9003428 Si02
#       7
#     2   2   2   2   2   2   2
#     4  10  21  37  60  87 109 155 197 235 271 347
#     4  10  22  38  59  84 118 153 192 229 289 346
#     4   8  18  34  59  81 107 144 199 228 265 331
#     4  12  21  39  61  87 114 152 193 239 285 337
#     4  12  24  35  58  92 122 142 185 248 297 325
#     4   9  17  34  55  84 111 148 190 233 273 338
#     4   9  16  36  56  88 108 151 194 237 270 344
#
# _framework density 24.843716000000001
#
# number of rings (size 3 to 8) (size 9 to 14) (size 15 to 20)
#    1.714    0.286    2.857    1.714    0.000    0.571 
#    0.000    2.857    0.000    0.000    0.000    6.000 
#    0.000    0.000    0.000    0.000    0.000    0.000 
#
# Total GULP energy -77987.643742 kJ/mol
# GULP energy per Si atom -5570.545982 kJ/mol
# Density = 2.478717 g / cm^3
# Si number density = 24.843716 Si / 1000 Ang^3
#
#
#
# Elastic Constant Matrix: (Units=GPa)
#
#
# Indices 1 2 3 4 5 6 
#
# 1 105.2105 9.9332 34.7186 4.0028 2.7429 3.1995
# 2 9.9332 61.1849 3.9798 18.3013 2.3274 -9.9112
# 3 34.7186 3.9798 73.2580 23.2576 -0.1368 -11.2017
# 4 4.0028 18.3013 23.2576 21.2487 0.8964 -3.4392
# 5 2.7429 2.3274 -0.1368 0.8964 42.8317 1.7533
# 6 3.1995 -9.9112 -11.2017 -3.4392 1.7533 41.8172
#
#
#
# Elastic Compliance Matrix: (Units=1/GPa)
#
#
# Indices 1 2 3 4 5 6 
#
# 1 0.013509 -0.006650 -0.011511 0.015094 -0.000675 -0.004423
# 2 -0.006650 0.029765 0.015517 -0.039970 -0.000652 0.008460
# 3 -0.011511 0.015517 0.035000 -0.047917 0.000601 0.009968
# 4 0.015094 -0.039970 -0.047917 0.129067 -0.001125 -0.012802
# 5 -0.000675 -0.000652 0.000601 -0.001125 0.023493 -0.001019
# 6 -0.004423 0.008460 0.009968 -0.012802 -0.001019 0.027917
#
#
# Mechanical properties :
#
#
# Convention : Reuss Voigt Hill
#
# Bulk Modulus (GPa) = 13.70119 37.43517 25.56818
# Shear Modulus (GPa) = 17.33893 33.91431 25.62662
#
# Velocity S-wave (km/s) = 2.64468 3.69874 3.21520
# Velocity P-wave (km/s) = 3.85392 5.77425 4.90890
#
# Compressibility (1/GPa) = 0.07298636
#
# Stress axis : x y z
#
# Youngs Moduli (GPa) = 74.02568 33.59630 28.57115
#
# Poissons Ratio (x) = 0.22342 0.32887
# Poissons Ratio (y) = 0.49228 -0.44333
# Poissons Ratio (z) = 0.85207 -0.52130
#
# Static dielectric constant tensor:
#      x y z
#    x 2.036800 0.016980 0.017820 
#    y 0.016980 1.955570 -0.078810 
#    z 0.017820 -0.078810 2.043550 
# 
# From -- ./inp_files/613044.got.cif
#   From: 2010.05.17/outbox.cif.g08.bks.cpg/sg2_307_cif.got.tgz:613044.got - 2010.06.03 11:33:40.
