data_PCOD9003071
_publ_section_title
;
Structure prediction by ZEFSAII (Michael W. Deem and Ramdas Pophale) SiO2 
 PCOD9003071
Probable space group: P -1
;
_chemical_formula_sum "Si O2"
_cell_formula_units_Z 16
_cell_length_a 5.316604
_cell_length_b 23.731857
_cell_length_c 16.459982
_cell_angle_alpha 22.374978
_cell_angle_beta 62.735411
_cell_angle_gamma 68.902683
_cell_volume 690.190016
_symmetry_space_group_name_H-M "P -1"
_symmetry_group_IT_number 2
_symmetry_cell_setting 'triclinic'
loop_
_space_group_symop_operation_xyz
x,y,z
-x,-y,-z
loop_
_atom_site_type_symbol
_atom_site_label
_atom_site_fract_x
_atom_site_fract_y
_atom_site_fract_z
Si Si1 0.479531 0.184206 0.510424
Si Si2 0.300630 0.615996 0.293893
Si Si3 0.104580 0.719901 0.526131
Si Si4 0.298109 0.175908 0.279073
Si Si5 0.138654 0.697129 0.044940
Si Si6 0.258018 0.608325 0.488388
Si Si7 0.901194 0.415816 0.042587
Si Si8 0.818926 0.944893 0.721607
O O1 0.139061 0.177282 0.574989
O O2 0.609116 0.300796 0.262834
O O3 0.653750 0.243274 0.488556
O O4 0.587390 0.030066 0.681169
O O5 0.282597 0.722175 0.078818
O O6 0.325303 0.685750 0.287551
O O7 0.516344 0.503849 0.391526
O O8 0.000000 0.500000 0.500000
O O9 0.253834 0.714427 0.424159
O O10 0.918814 0.552069 0.795843
O O11 0.252718 0.086077 0.320936
O O12 0.132708 0.315511 0.115454
O O13 0.637909 0.241391 0.141804
O O14 0.128547 0.063381 0.520702
O O15 0.036576 0.517395 0.296332
O O16 0.883339 0.791119 0.954295
O O17 0.000000 0.500000 0.000000
#
# Coordination Sequence:
#
# PCOD9003071 Si02
#       8
#     2   2   2   2   2   2   2   2
#     4  10  24  38  57  84 120 170 202 253 293 360
#     4   9  20  37  60  91 119 147 189 254 321 365
#     4  11  22  38  61  85 122 159 203 249 313 362
#     4  10  21  37  57  86 122 164 205 252 296 351
#     4  11  20  34  63  87 119 155 198 255 305 361
#     4  10  22  37  60  95 118 148 197 254 318 372
#     4   9  19  36  55  86 121 157 206 247 306 359
#     4  10  22  39  54  85 122 164 216 243 288 357
#
# _framework density 23.182023000000001
#
# number of rings (size 3 to 8) (size 9 to 14) (size 15 to 20)
#    0.000    2.000    0.000    3.000    8.750    0.000 
#   15.750    0.000    0.000    1.500    0.000    0.000 
#    0.000    0.000    0.000    0.000    0.000    0.000 
#
# Total GULP energy -89391.410037 kJ/mol
# GULP energy per Si atom -5586.963127 kJ/mol
# Density = 2.312926 g / cm^3
# Si number density = 23.182023 Si / 1000 Ang^3
#
#
#
# Elastic Constant Matrix: (Units=GPa)
#
#
# Indices 1 2 3 4 5 6 
#
# 1 52.0732 20.1805 0.4152 10.9588 10.8117 0.4292
# 2 20.1805 141.2405 8.0389 6.8708 13.3005 5.3638
# 3 0.4152 8.0389 39.5093 1.4304 2.5121 -0.2990
# 4 10.9588 6.8708 1.4304 28.8935 0.7173 0.1429
# 5 10.8117 13.3005 2.5121 0.7173 36.2942 3.5652
# 6 0.4292 5.3638 -0.2990 0.1429 3.5652 32.0951
#
#
#
# Elastic Compliance Matrix: (Units=1/GPa)
#
#
# Indices 1 2 3 4 5 6 
#
# 1 0.023067 -0.002425 0.000929 -0.008074 -0.005967 0.000804
# 2 -0.002425 0.007766 -0.001412 -0.000805 -0.001906 -0.001063
# 3 0.000929 -0.001412 0.025739 -0.001255 -0.001579 0.000644
# 4 -0.008074 -0.000805 -0.001255 0.037876 0.002055 -0.000166
# 5 -0.005967 -0.001906 -0.001579 0.002055 0.030392 -0.003002
# 6 0.000804 -0.001063 0.000644 -0.000166 -0.003002 0.031664
#
#
# Mechanical properties :
#
#
# Convention : Reuss Voigt Hill
#
# Bulk Modulus (GPa) = 19.70229 32.23247 25.96738
# Shear Modulus (GPa) = 27.89568 33.06912 30.48240
#
# Velocity S-wave (km/s) = 3.47267 3.78100 3.63011
# Velocity P-wave (km/s) = 4.95950 5.74417 5.36620
#
# Compressibility (1/GPa) = 0.05075553
#
# Stress axis : x y z
#
# Youngs Moduli (GPa) = 43.35115 128.76796 38.85184
#
# Poissons Ratio (x) = 0.31221 -0.03608
# Poissons Ratio (y) = 0.10511 0.05487
# Poissons Ratio (z) = -0.04026 0.18187
#
# Static dielectric constant tensor:
#      x y z
#    x 1.971720 0.014950 -0.061520 
#    y 0.014950 1.860450 0.039880 
#    z -0.061520 0.039880 1.902170 
# 
# From -- ./inp_files/97935.got.cif
#   From: 2010.05.17/outbox.cif.g08.bks.cpg/sg2_49_cif.got.tgz:97935.got - 2010.06.03 11:33:40.
