data_PCOD9003248
_publ_section_title
;
Structure prediction by ZEFSAII (Michael W. Deem and Ramdas Pophale) SiO2 
 PCOD9003248
Probable space group: P -1
;
_chemical_formula_sum "Si O2"
_cell_formula_units_Z 15
_cell_length_a 8.624954
_cell_length_b 12.696880
_cell_length_c 7.636935
_cell_angle_alpha 93.876058
_cell_angle_beta 76.825249
_cell_angle_gamma 128.414000
_cell_volume 635.034504
_symmetry_space_group_name_H-M "P -1"
_symmetry_group_IT_number 2
_symmetry_cell_setting 'triclinic'
loop_
_space_group_symop_operation_xyz
x,y,z
-x,-y,-z
loop_
_atom_site_type_symbol
_atom_site_label
_atom_site_fract_x
_atom_site_fract_y
_atom_site_fract_z
Si Si1 0.000000 0.500000 0.000000
Si Si2 0.813700 0.704172 0.535983
Si Si3 0.261432 0.132480 0.604918
Si Si4 0.072962 0.621835 0.364998
Si Si5 0.609575 0.149773 0.418270
Si Si6 0.307454 0.296488 0.915382
Si Si7 0.420641 0.580919 0.816785
Si Si8 0.923459 0.147124 0.187276
O O1 0.883864 0.408642 0.839671
O O2 0.221464 0.569833 0.851564
O O3 0.884577 0.844698 0.450800
O O4 0.573761 0.617808 0.622218
O O5 0.898537 0.640829 0.400209
O O6 0.918516 0.737052 0.701496
O O7 0.427337 0.154768 0.430250
O O8 0.372861 0.252873 0.731559
O O9 0.163409 0.995547 0.721792
O O10 0.256815 0.751933 0.442238
O O11 0.000000 0.500000 0.500000
O O12 0.751240 0.166118 0.225928
O O13 0.500000 0.000000 0.500000
O O14 0.343350 0.434675 0.888639
O O15 0.431335 0.314210 0.056606
O O16 0.063961 0.181706 0.990283
#
# Coordination Sequence:
#
# PCOD9003248 Si02
#       8
#     1   2   2   2   2   2   2   2
#     4  12  26  40  62 100 132 166 222 270 330 392
#     4  10  23  41  60  91 128 165 216 262 327 389
#     4  11  20  35  64  90 119 162 216 263 316 382
#     4  11  26  43  68  97 134 176 218 274 335 397
#     4   9  21  40  65  92 125 171 219 263 328 391
#     4  10  21  37  59  84 124 162 208 258 321 379
#     4  10  24  39  58  89 128 167 206 266 321 391
#     4   9  20  39  59  87 122 166 210 260 320 385
#
# _framework density 23.620764000000001
#
# number of rings (size 3 to 8) (size 9 to 14) (size 15 to 20)
#    0.000    1.867    0.000    2.400   11.200    1.067 
#    0.000    0.000    0.000    0.800    0.000    0.000 
#    0.000    0.000    0.000    0.000    0.000    0.000 
#
# Total GULP energy -83514.826283 kJ/mol
# GULP energy per Si atom -5567.655086 kJ/mol
# Density = 2.356700 g / cm^3
# Si number density = 23.620764 Si / 1000 Ang^3
#
#
#
# Elastic Constant Matrix: (Units=GPa)
#
#
# Indices 1 2 3 4 5 6 
#
# 1 62.8984 24.4242 16.4705 -6.4223 -28.9742 -16.6560
# 2 24.4242 86.5675 18.5080 -2.9703 -9.2003 -4.4776
# 3 16.4705 18.5080 87.6338 4.6100 -18.0893 -9.0140
# 4 -6.4223 -2.9703 4.6100 30.5076 10.7781 -0.7982
# 5 -28.9742 -9.2003 -18.0893 10.7781 43.4055 8.6064
# 6 -16.6560 -4.4776 -9.0140 -0.7982 8.6064 35.2957
#
#
#
# Elastic Compliance Matrix: (Units=1/GPa)
#
#
# Indices 1 2 3 4 5 6 
#
# 1 0.027460 -0.005687 0.000115 -0.000045 0.015501 0.008485
# 2 -0.005687 0.013430 -0.002351 0.001145 -0.002002 -0.001066
# 3 0.000115 -0.002351 0.013511 -0.004305 0.005949 0.001659
# 4 -0.000045 0.001145 -0.004305 0.037650 -0.011460 0.002670
# 5 0.015501 -0.002002 0.005949 -0.011460 0.038498 -0.001066
# 6 0.008485 -0.001066 0.001659 0.002670 -0.001066 0.032945
#
#
# Mechanical properties :
#
#
# Convention : Reuss Voigt Hill
#
# Bulk Modulus (GPa) = 25.93673 39.54500 32.74087
# Shear Modulus (GPa) = 26.01563 33.68824 29.85194
#
# Velocity S-wave (km/s) = 3.32232 3.78062 3.55885
# Velocity P-wave (km/s) = 5.07162 5.98627 5.54783
#
# Compressibility (1/GPa) = 0.03855536
#
# Stress axis : x y z
#
# Youngs Moduli (GPa) = 36.41636 74.45881 74.01336
#
# Poissons Ratio (x) = 0.42348 -0.00852
# Poissons Ratio (y) = 0.20711 0.17399
# Poissons Ratio (z) = -0.00419 0.17503
#
# Static dielectric constant tensor:
#      x y z
#    x 1.946430 0.005450 -0.080620 
#    y 0.005450 1.910900 -0.038070 
#    z -0.080620 -0.038070 1.799650 
# 
# From -- ./inp_files/189048.got.cif
#   From: 2010.05.17/outbox.cif.g08.bks.cpg/sg2_95_cif.got.tgz:189048.got - 2010.06.03 11:33:40.
