data_PCOD9003251
_publ_section_title
;
Structure prediction by ZEFSAII (Michael W. Deem and Ramdas Pophale) SiO2 
 PCOD9003251
Probable space group: P -1
;
_chemical_formula_sum "Si O2"
_cell_formula_units_Z 16
_cell_length_a 12.823300
_cell_length_b 9.068895
_cell_length_c 7.443647
_cell_angle_alpha 130.912214
_cell_angle_beta 83.035406
_cell_angle_gamma 96.507333
_cell_volume 648.688914
_symmetry_space_group_name_H-M "P -1"
_symmetry_group_IT_number 2
_symmetry_cell_setting 'triclinic'
loop_
_space_group_symop_operation_xyz
x,y,z
-x,-y,-z
loop_
_atom_site_type_symbol
_atom_site_label
_atom_site_fract_x
_atom_site_fract_y
_atom_site_fract_z
Si Si1 0.651656 0.194040 0.428292
Si Si2 0.419835 0.400221 0.192865
Si Si3 0.578326 0.897317 0.722385
Si Si4 0.152921 0.037133 0.853529
Si Si5 0.041487 0.287035 0.356399
Si Si6 0.355026 0.389724 0.797845
Si Si7 0.278823 0.782419 0.148539
Si Si8 0.116309 0.084838 0.502014
O O1 0.643999 0.423117 0.566153
O O2 0.742262 0.077250 0.222840
O O3 0.466340 0.499296 0.800726
O O4 0.678125 0.200851 0.641449
O O5 0.425445 0.231742 0.202398
O O6 0.630089 0.662662 0.038011
O O7 0.463628 0.900719 0.660843
O O8 0.652571 0.791095 0.478790
O O9 0.631725 0.109634 0.904181
O O10 0.058602 0.869229 0.745130
O O11 0.162907 0.124494 0.720597
O O12 0.121233 0.207864 0.128415
O O13 0.101397 0.262016 0.511974
O O14 0.000000 0.500000 0.500000
O O15 0.270526 0.554248 0.927888
O O16 0.176190 0.906863 0.256484
O O17 0.000000 0.000000 0.500000
#
# Coordination Sequence:
#
# PCOD9003251 Si02
#       8
#     2   2   2   2   2   2   2   2
#     4   9  18  36  57  79 116 156 182 227 285 332
#     4   9  19  34  55  82 114 154 196 226 270 336
#     4  11  21  36  57  84 117 151 192 235 274 329
#     4   9  20  40  60  81 116 151 183 231 289 339
#     4  10  21  38  62  88 110 142 190 240 286 337
#     4   9  19  38  55  77 118 157 186 231 281 322
#     4  10  21  37  59  85 112 149 195 232 277 342
#     4   9  20  41  61  82 114 148 186 234 288 342
#
# _framework density 24.665133999999998
#
# number of rings (size 3 to 8) (size 9 to 14) (size 15 to 20)
#    0.000    2.500    0.000    2.625    0.000    4.000 
#    0.000   20.000    0.000    0.000    0.000    0.000 
#    0.000    0.000    0.000    0.000    0.000    0.000 
#
# Total GULP energy -89647.298788 kJ/mol
# GULP energy per Si atom -5602.956174 kJ/mol
# Density = 2.460900 g / cm^3
# Si number density = 24.665134 Si / 1000 Ang^3
#
#
#
# Elastic Constant Matrix: (Units=GPa)
#
#
# Indices 1 2 3 4 5 6 
#
# 1 87.2737 20.9537 41.4806 6.9825 -21.7831 -13.7845
# 2 20.9537 111.8283 70.2479 14.5777 -15.5076 -17.0824
# 3 41.4806 70.2479 158.4877 13.0408 -30.9042 -11.4873
# 4 6.9825 14.5777 13.0408 39.1987 -6.1062 -9.1585
# 5 -21.7831 -15.5076 -30.9042 -6.1062 45.3726 5.6585
# 6 -13.7845 -17.0824 -11.4873 -9.1585 5.6585 28.6203
#
#
#
# Elastic Compliance Matrix: (Units=1/GPa)
#
#
# Indices 1 2 3 4 5 6 
#
# 1 0.014654 0.000417 -0.002734 0.000115 0.004667 0.005323
# 2 0.000417 0.013391 -0.005472 -0.001967 0.000119 0.005344
# 3 -0.002734 -0.005472 0.010140 -0.000597 0.003826 -0.001460
# 4 0.000115 -0.001967 -0.000597 0.028436 0.001885 0.007369
# 5 0.004667 0.000119 0.003826 0.001885 0.027298 -0.000940
# 6 0.005323 0.005344 -0.001460 0.007369 -0.000940 0.042652
#
#
# Mechanical properties :
#
#
# Convention : Reuss Voigt Hill
#
# Bulk Modulus (GPa) = 44.23449 69.21712 56.72581
# Shear Modulus (GPa) = 31.31205 37.63215 34.47210
#
# Velocity S-wave (km/s) = 3.56685 3.91029 3.74251
# Velocity P-wave (km/s) = 5.91068 6.96497 6.45937
#
# Compressibility (1/GPa) = 0.02260679
#
# Stress axis : x y z
#
# Youngs Moduli (GPa) = 68.24088 74.67818 98.62142
#
# Poissons Ratio (x) = -0.03113 0.26959
# Poissons Ratio (y) = -0.02845 0.53967
# Poissons Ratio (z) = 0.18654 0.40865
#
# Static dielectric constant tensor:
#      x y z
#    x 1.979200 0.004130 0.012160 
#    y 0.004130 1.936540 -0.022260 
#    z 0.012160 -0.022260 1.969020 
# 
# From -- ./inp_files/299696.got.cif
#   From: 2010.05.17/outbox.cif.g08.bks.cpg/sg2_150_cif.got.tgz:299696.got - 2010.06.03 11:33:40.
