data_PCOD9003851
_publ_section_title
;
Structure prediction by ZEFSAII (Michael W. Deem and Ramdas Pophale) SiO2 
 PCOD9003851
Probable space group: P -1
;
_chemical_formula_sum "Si O2"
_cell_formula_units_Z 16
_cell_length_a 15.344624
_cell_length_b 28.235458
_cell_length_c 9.374329
_cell_angle_alpha 133.728646
_cell_angle_beta 44.443598
_cell_angle_gamma 166.059439
_cell_volume 685.110348
_symmetry_space_group_name_H-M "P -1"
_symmetry_group_IT_number 2
_symmetry_cell_setting 'triclinic'
loop_
_space_group_symop_operation_xyz
x,y,z
-x,-y,-z
loop_
_atom_site_type_symbol
_atom_site_label
_atom_site_fract_x
_atom_site_fract_y
_atom_site_fract_z
Si Si1 0.741393 0.793122 0.213446
Si Si2 0.873414 0.437466 0.179016
Si Si3 0.554477 0.217005 0.532096
Si Si4 0.005596 0.385244 0.085235
Si Si5 0.407361 0.877695 0.523837
Si Si6 0.210009 0.919118 0.806260
Si Si7 0.454866 0.600525 0.448778
Si Si8 0.413824 0.463875 0.692605
O O1 0.704532 0.854235 0.381891
O O2 0.428478 0.619839 0.102273
O O3 0.598070 0.686880 0.303338
O O4 0.110697 0.936929 0.040036
O O5 0.541853 0.325589 0.333659
O O6 0.153951 0.604083 0.323672
O O7 0.831166 0.341748 0.073975
O O8 0.000000 0.500000 0.000000
O O9 0.380330 0.070882 0.521508
O O10 0.780474 0.294074 0.300228
O O11 0.080383 0.347654 0.879918
O O12 0.404041 0.952850 0.726007
O O13 0.976248 0.639098 0.538790
O O14 0.566726 0.955552 0.339281
O O15 0.802085 0.685970 0.761768
O O16 0.661713 0.644189 0.375126
O O17 0.500000 0.500000 0.500000
#
# Coordination Sequence:
#
# PCOD9003851 Si02
#       8
#     2   2   2   2   2   2   2   2
#     4  10  17  30  50  79  98 123 171 217 247 284
#     4  10  17  28  46  73 105 132 159 204 259 295
#     4  10  18  31  51  75 102 130 172 213 251 296
#     4  10  17  30  48  72 104 128 165 214 247 292
#     4   9  18  32  49  76 103 130 166 211 253 301
#     4   9  20  32  50  75 104 131 164 210 257 297
#     4  10  18  31  52  77 101 128 172 210 253 296
#     4  10  21  32  49  77 107 130 167 211 259 302
#
# _framework density 23.353902999999999
#
# number of rings (size 3 to 8) (size 9 to 14) (size 15 to 20)
#    0.000    2.250    3.750    1.500    1.750    2.000 
#    0.000    0.000    0.000    0.750    6.500    4.375 
#    0.000    0.000    0.000    0.000    0.000    0.000 
#
# Total GULP energy -89173.065857 kJ/mol
# GULP energy per Si atom -5573.316616 kJ/mol
# Density = 2.330075 g / cm^3
# Si number density = 23.353903 Si / 1000 Ang^3
#
#
#
# Elastic Constant Matrix: (Units=GPa)
#
#
# Indices 1 2 3 4 5 6 
#
# 1 327.3072 70.0659 186.9578 34.5904 14.8747 -49.7959
# 2 70.0659 97.6255 45.9923 -9.2188 18.5467 14.7631
# 3 186.9578 45.9923 228.1218 5.8908 16.1824 13.0202
# 4 34.5904 -9.2188 5.8908 18.4612 16.4281 26.8458
# 5 14.8747 18.5467 16.1824 16.4281 91.1912 19.2777
# 6 -49.7959 14.7631 13.0202 26.8458 19.2777 5.7910
#
#
#
# Elastic Compliance Matrix: (Units=1/GPa)
#
#
# Indices 1 2 3 4 5 6 
#
# 1 0.002296 0.000757 -0.001825 0.006078 0.000080 -0.006527
# 2 0.000757 0.010331 -0.002822 -0.002392 -0.002659 0.006463
# 3 -0.001825 -0.002822 0.006374 -0.005733 -0.000065 0.003966
# 4 0.006078 -0.002392 -0.005733 0.015496 -0.007279 0.023653
# 5 0.000080 -0.002659 -0.000065 -0.007279 0.013749 -0.004410
# 6 -0.006527 0.006463 0.003966 0.023653 -0.004410 -0.003807
#
#
# Mechanical properties :
#
#
# Convention : Reuss Voigt Hill
#
# Bulk Modulus (GPa) = 89.10351 139.89850 114.50100
# Shear Modulus (GPa) = 89.35060 46.42458 67.88759
#
# Velocity S-wave (km/s) = 6.19213 4.46339 5.39742
# Velocity P-wave (km/s) = 9.45302 9.30571 9.37966
#
# Compressibility (1/GPa) = 0.01122290
#
# Stress axis : x y z
#
# Youngs Moduli (GPa) = 435.47620 96.79556 156.87711
#
# Poissons Ratio (x) = -0.07332 0.28627
# Poissons Ratio (y) = -0.32985 0.44273
# Poissons Ratio (z) = 0.79465 0.27317
#
# Static dielectric constant tensor:
#      x y z
#    x 1.937060 0.002240 -0.077720 
#    y 0.002240 1.891800 -0.025030 
#    z -0.077720 -0.025030 1.768090 
# 
# From -- ./inp_files/267348.got.cif
#   From: 2010.05.17/outbox.cif.g08.bks.cpg/sg2_134_cif.got.tgz:267348.got - 2010.06.03 11:33:40.
