data_PCOD9003235
_publ_section_title
;
Structure prediction by ZEFSAII (Michael W. Deem and Ramdas Pophale) SiO2 
 PCOD9003235
Probable space group: P -1
;
_chemical_formula_sum "Si O2"
_cell_formula_units_Z 14
_cell_length_a 13.393018
_cell_length_b 13.325385
_cell_length_c 12.943707
_cell_angle_alpha 51.362514
_cell_angle_beta 148.472174
_cell_angle_gamma 147.079902
_cell_volume 621.813093
_symmetry_space_group_name_H-M "P -1"
_symmetry_group_IT_number 2
_symmetry_cell_setting 'triclinic'
loop_
_space_group_symop_operation_xyz
x,y,z
-x,-y,-z
loop_
_atom_site_type_symbol
_atom_site_label
_atom_site_fract_x
_atom_site_fract_y
_atom_site_fract_z
Si Si1 0.296551 0.986095 0.705929
Si Si2 0.806092 0.360891 0.795345
Si Si3 0.252606 0.747780 0.667966
Si Si4 0.294475 0.883002 0.296422
Si Si5 0.688275 0.508580 0.752636
Si Si6 0.087551 0.150782 0.371667
Si Si7 0.799126 0.578965 0.192765
O O1 0.212703 0.807595 0.699162
O O2 0.209932 0.959635 0.765592
O O3 0.623072 0.186880 0.831912
O O4 0.122322 0.016090 0.476482
O O5 0.686630 0.249357 0.653775
O O6 0.770690 0.484422 0.729439
O O7 0.135799 0.482461 0.015093
O O8 0.243587 0.590834 0.769035
O O9 0.007703 0.672012 0.418456
O O10 0.567031 0.949769 0.770954
O O11 0.976335 0.738928 0.154683
O O12 0.500000 0.000000 0.500000
O O13 0.345706 0.317596 0.574559
O O14 0.816845 0.716322 0.726746
O O15 0.500000 0.500000 0.000000
#
# Coordination Sequence:
#
# PCOD9003235 Si02
#       7
#     2   2   2   2   2   2   2
#     4   9  18  34  52  75 107 144 175 220 274 326
#     4   9  18  33  53  76 109 141 180 222 269 329
#     4   9  20  39  56  81 115 144 185 237 282 335
#     4   9  19  37  59  81 111 150 183 231 289 333
#     4   9  18  32  50  80 109 140 180 222 264 326
#     4   9  18  32  52  77 109 142 178 218 269 329
#     4  10  21  37  59  83 108 145 191 235 283 338
#
# _framework density 22.514804000000002
#
# number of rings (size 3 to 8) (size 9 to 14) (size 15 to 20)
#    0.000    2.857    0.000    0.000    2.000    2.286 
#    5.143    0.000    3.143    0.000    0.000    0.000 
#    0.000    0.000    0.000    0.000    0.000    0.000 
#
# Total GULP energy -78010.474267 kJ/mol
# GULP energy per Si atom -5572.176733 kJ/mol
# Density = 2.246356 g / cm^3
# Si number density = 22.514804 Si / 1000 Ang^3
#
#
#
# Elastic Constant Matrix: (Units=GPa)
#
#
# Indices 1 2 3 4 5 6 
#
# 1 75.0244 23.2512 27.7076 13.0425 4.0193 -9.6992
# 2 23.2512 77.1495 24.7018 2.1165 11.5510 -7.8811
# 3 27.7076 24.7018 69.6781 7.0680 20.8790 -2.5608
# 4 13.0425 2.1165 7.0680 23.6680 4.1961 7.7442
# 5 4.0193 11.5510 20.8790 4.1961 26.3842 14.6790
# 6 -9.6992 -7.8811 -2.5608 7.7442 14.6790 41.2311
#
#
#
# Elastic Compliance Matrix: (Units=1/GPa)
#
#
# Indices 1 2 3 4 5 6 
#
# 1 0.018731 -0.003417 -0.005726 -0.010183 0.002293 0.004494
# 2 -0.003417 0.016267 -0.001955 0.000827 -0.007874 0.004832
# 3 -0.005726 -0.001955 0.024346 -0.002730 -0.021539 0.007972
# 4 -0.010183 0.000827 -0.002730 0.052478 0.002278 -0.013075
# 5 0.002293 -0.007874 -0.021539 0.002278 0.073824 -0.029014
# 6 0.004494 0.004832 0.007972 -0.013075 -0.029014 0.039515
#
#
# Mechanical properties :
#
#
# Convention : Reuss Voigt Hill
#
# Bulk Modulus (GPa) = 26.91905 41.46371 34.19138
# Shear Modulus (GPa) = 19.24999 28.00276 23.62637
#
# Velocity S-wave (km/s) = 2.92720 3.53051 3.24291
# Velocity P-wave (km/s) = 4.83805 5.92246 5.40751
#
# Compressibility (1/GPa) = 0.03714842
#
# Stress axis : x y z
#
# Youngs Moduli (GPa) = 53.38718 61.47248 41.07455
#
# Poissons Ratio (x) = 0.21003 0.23520
# Poissons Ratio (y) = 0.18240 0.08031
# Poissons Ratio (z) = 0.30571 0.12019
#
# Static dielectric constant tensor:
#      x y z
#    x 1.867490 0.034340 -0.020700 
#    y 0.034340 1.900250 -0.011060 
#    z -0.020700 -0.011060 1.859890 
# 
# From -- ./inp_files/214244.got.cif
#   From: 2010.05.17/outbox.cif.g08.bks.cpg/sg2_108_cif.got.tgz:214244.got - 2010.06.03 11:33:40.
