data_PCOD9003542
_publ_section_title
;
Structure prediction by ZEFSAII (Michael W. Deem and Ramdas Pophale) SiO2 
 PCOD9003542
Probable space group: P -1
;
_chemical_formula_sum "Si O2"
_cell_formula_units_Z 16
_cell_length_a 24.879958
_cell_length_b 25.530754
_cell_length_c 5.592350
_cell_angle_alpha 61.237068
_cell_angle_beta 117.884342
_cell_angle_gamma 168.567155
_cell_volume 617.094477
_symmetry_space_group_name_H-M "P -1"
_symmetry_group_IT_number 2
_symmetry_cell_setting 'triclinic'
loop_
_space_group_symop_operation_xyz
x,y,z
-x,-y,-z
loop_
_atom_site_type_symbol
_atom_site_label
_atom_site_fract_x
_atom_site_fract_y
_atom_site_fract_z
Si Si1 0.813253 0.501558 0.684659
Si Si2 0.146678 0.297942 0.881948
Si Si3 0.729590 0.277717 0.980268
Si Si4 0.937447 0.594857 0.232387
Si Si5 0.168776 0.080261 0.553747
Si Si6 0.492926 0.069021 0.442176
Si Si7 0.341064 0.386218 0.723026
Si Si8 0.368763 0.169594 0.404081
O O1 0.784157 0.401374 0.838689
O O2 0.940600 0.633755 0.398876
O O3 0.536136 0.273758 0.619875
O O4 0.966404 0.659232 0.906633
O O5 0.238589 0.344473 0.753136
O O6 0.418074 0.594207 0.854557
O O7 0.907220 0.108998 0.692335
O O8 0.004845 0.119930 0.169466
O O9 0.535021 0.086382 0.762745
O O10 0.631990 0.169979 0.282860
O O11 0.000000 0.500000 0.000000
O O12 0.652769 0.286265 0.307144
O O13 0.183861 0.784405 0.351758
O O14 0.431318 0.371666 0.520496
O O15 0.284140 0.137574 0.497571
O O16 0.942502 0.906034 0.338215
O O17 0.500000 0.500000 0.000000
#
# Coordination Sequence:
#
# PCOD9003542 Si02
#       8
#     2   2   2   2   2   2   2   2
#     4  10  23  42  62  95 125 166 216 270 326 396
#     4  10  22  40  61  88 124 166 212 259 322 375
#     4  10  21  41  66  93 127 166 210 266 330 395
#     4  10  22  40  63  90 124 157 207 260 318 382
#     4  10  21  39  60  87 126 165 210 258 318 374
#     4  10  21  40  62  88 123 160 201 253 318 390
#     4  10  21  37  60  94 127 163 209 259 309 381
#     4  10  23  39  60  87 121 162 213 268 317 385
#
# _framework density 25.927956999999999
#
# number of rings (size 3 to 8) (size 9 to 14) (size 15 to 20)
#    0.000    2.000    0.000    2.250    1.750    5.000 
#    2.250   15.000    0.000    0.000    0.000    0.000 
#    0.000    0.000    0.000    0.000    0.000    0.000 
#
# Total GULP energy -89464.026399 kJ/mol
# GULP energy per Si atom -5591.501650 kJ/mol
# Density = 2.586894 g / cm^3
# Si number density = 25.927957 Si / 1000 Ang^3
#
#
#
# Elastic Constant Matrix: (Units=GPa)
#
#
# Indices 1 2 3 4 5 6 
#
# 1 69.5689 49.3898 36.1032 -1.0823 2.0896 8.4770
# 2 49.3898 146.0002 45.5275 10.4699 1.5044 31.4955
# 3 36.1032 45.5275 144.0425 5.8779 -28.6382 16.8539
# 4 -1.0823 10.4699 5.8779 59.1148 11.6334 12.1860
# 5 2.0896 1.5044 -28.6382 11.6334 37.0316 3.3251
# 6 8.4770 31.4955 16.8539 12.1860 3.3251 41.5593
#
#
#
# Elastic Compliance Matrix: (Units=1/GPa)
#
#
# Indices 1 2 3 4 5 6 
#
# 1 0.021305 -0.006271 -0.004844 0.002687 -0.005721 0.002041
# 2 -0.006271 0.010692 -0.001097 -0.000586 -0.000189 -0.006192
# 3 -0.004844 -0.001097 0.010831 -0.002324 0.009663 -0.002665
# 4 0.002687 -0.000586 -0.002324 0.019713 -0.007729 -0.004324
# 5 -0.005721 -0.000189 0.009663 -0.007729 0.037536 -0.003346
# 6 0.002041 -0.006192 -0.002665 -0.004324 -0.003346 0.030955
#
#
# Mechanical properties :
#
#
# Convention : Reuss Voigt Hill
#
# Bulk Modulus (GPa) = 54.33150 69.07252 61.70201
# Shear Modulus (GPa) = 30.94264 42.78055 36.86159
#
# Velocity S-wave (km/s) = 3.45832 4.06640 3.77462
# Velocity P-wave (km/s) = 6.07840 6.98180 6.54570
#
# Compressibility (1/GPa) = 0.01840553
#
# Stress axis : x y z
#
# Youngs Moduli (GPa) = 46.93799 93.52411 92.32746
#
# Poissons Ratio (x) = 0.58645 0.44721
# Poissons Ratio (y) = 0.29433 0.10128
# Poissons Ratio (z) = 0.22736 0.10259
#
# Static dielectric constant tensor:
#      x y z
#    x 2.062850 -0.053990 0.045490 
#    y -0.053990 2.016100 -0.003510 
#    z 0.045490 -0.003510 2.175210 
# 
# From -- ./inp_files/114781.got.cif
#   From: 2010.05.17/outbox.cif.g08.bks.cpg/sg2_58_cif.got.tgz:114781.got - 2010.06.03 11:33:40.
