data_PCOD9003917
_publ_section_title
;
Structure prediction by ZEFSAII (Michael W. Deem and Ramdas Pophale) SiO2 
 PCOD9003917
Probable space group: P -1
;
_chemical_formula_sum "Si O2"
_cell_formula_units_Z 12
_cell_length_a 8.416530
_cell_length_b 10.169508
_cell_length_c 5.426283
_cell_angle_alpha 92.036617
_cell_angle_beta 95.992226
_cell_angle_gamma 106.306625
_cell_volume 442.302960
_symmetry_space_group_name_H-M "P -1"
_symmetry_group_IT_number 2
_symmetry_cell_setting 'triclinic'
loop_
_space_group_symop_operation_xyz
x,y,z
-x,-y,-z
loop_
_atom_site_type_symbol
_atom_site_label
_atom_site_fract_x
_atom_site_fract_y
_atom_site_fract_z
Si Si1 0.045830 0.166706 0.546083
Si Si2 0.593821 0.165269 0.722428
Si Si3 0.685109 0.570607 0.426656
Si Si4 0.955548 0.837151 0.945055
Si Si5 0.392819 0.122594 0.190188
Si Si6 0.804379 0.465182 0.927881
O O1 0.239027 0.263458 0.589044
O O2 0.995389 0.215576 0.797857
O O3 0.961724 0.199571 0.287535
O O4 0.000000 0.000000 0.500000
O O5 0.526658 0.181883 0.435343
O O6 0.707478 0.308980 0.844485
O O7 0.669230 0.035146 0.731949
O O8 0.459902 0.122954 0.922450
O O9 0.500000 0.500000 0.500000
O O10 0.788984 0.540025 0.672312
O O11 0.282405 0.491439 0.837497
O O12 0.757645 0.809381 0.865587
O O13 0.000000 0.000000 0.000000
O O14 0.000000 0.500000 0.000000
#
# Coordination Sequence:
#
# PCOD9003917 Si02
#       6
#     2   2   2   2   2   2
#     4  10  23  41  65 102 137 185 235 296 360 426
#     4  10  23  41  67  98 132 186 228 295 347 425
#     4  12  28  48  75 112 148 196 249 307 369 447
#     4  10  21  37  63 100 136 177 222 297 354 422
#     4  10  21  39  66 100 135 171 238 287 354 415
#     4  12  28  50  76 105 150 199 246 299 372 448
#
# _framework density 27.130725999999999
#
# number of rings (size 3 to 8) (size 9 to 14) (size 15 to 20)
#    0.000    1.333    0.000    4.000    7.000    5.333 
#    0.000    3.333    0.000    0.000    0.000    0.000 
#    0.000    0.000    0.000    0.000    0.000    0.000 
#
# Total GULP energy -66921.821215 kJ/mol
# GULP energy per Si atom -5576.818435 kJ/mol
# Density = 2.706898 g / cm^3
# Si number density = 27.130726 Si / 1000 Ang^3
#
#
#
# Elastic Constant Matrix: (Units=GPa)
#
#
# Indices 1 2 3 4 5 6 
#
# 1 60.7452 9.0794 32.5943 18.4777 -2.4264 2.4933
# 2 9.0794 184.4734 9.4201 27.4190 3.1342 10.2389
# 3 32.5943 9.4201 285.1632 11.5743 -30.1940 -9.2294
# 4 18.4777 27.4190 11.5743 37.7215 -2.3789 1.3399
# 5 -2.4264 3.1342 -30.1940 -2.3789 39.9988 6.4464
# 6 2.4933 10.2389 -9.2294 1.3399 6.4464 36.1371
#
#
#
# Elastic Compliance Matrix: (Units=1/GPa)
#
#
# Indices 1 2 3 4 5 6 
#
# 1 0.020534 0.000670 -0.002097 -0.009888 -0.000712 -0.001648
# 2 0.000670 0.006203 -0.000206 -0.004758 -0.000631 -0.001567
# 3 -0.002097 -0.000206 0.004076 0.000080 0.002852 0.000732
# 4 -0.009888 -0.004758 0.000080 0.034889 0.001839 0.000429
# 5 -0.000712 -0.000631 0.002852 0.001839 0.027929 -0.004094
# 6 -0.001648 -0.001567 0.000732 0.000429 -0.004094 0.029132
#
#
# Mechanical properties :
#
#
# Convention : Reuss Voigt Hill
#
# Bulk Modulus (GPa) = 36.30064 70.28548 53.29306
# Shear Modulus (GPa) = 36.97926 54.72402 45.85164
#
# Velocity S-wave (km/s) = 3.69589 4.49603 4.11545
# Velocity P-wave (km/s) = 5.62332 7.27426 6.50141
#
# Compressibility (1/GPa) = 0.02754772
#
# Stress axis : x y z
#
# Youngs Moduli (GPa) = 48.69925 161.20384 245.35848
#
# Poissons Ratio (x) = -0.10797 0.51441
# Poissons Ratio (y) = -0.03262 0.05052
# Poissons Ratio (z) = 0.10210 0.03320
#
# Static dielectric constant tensor:
#      x y z
#    x 2.337910 -0.049020 -0.286260 
#    y -0.049020 2.178020 0.034870 
#    z -0.286260 0.034870 2.527040 
# 
# From -- ./inp_files/27345.got.cif
#   From: 2010.05.17/outbox.cif.g08.bks.cpg/sg2_14_cif.got.tgz:27345.got - 2010.06.03 11:33:40.
