data_PCOD9003927
_publ_section_title
;
Structure prediction by ZEFSAII (Michael W. Deem and Ramdas Pophale) SiO2 
 PCOD9003927
Probable space group: P -1
;
_chemical_formula_sum "Si O2"
_cell_formula_units_Z 16
_cell_length_a 10.638439
_cell_length_b 17.489356
_cell_length_c 11.872581
_cell_angle_alpha 27.371110
_cell_angle_beta 37.645895
_cell_angle_gamma 43.310461
_cell_volume 617.940962
_symmetry_space_group_name_H-M "P -1"
_symmetry_group_IT_number 2
_symmetry_cell_setting 'triclinic'
loop_
_space_group_symop_operation_xyz
x,y,z
-x,-y,-z
loop_
_atom_site_type_symbol
_atom_site_label
_atom_site_fract_x
_atom_site_fract_y
_atom_site_fract_z
Si Si1 0.092535 0.151451 0.366431
Si Si2 0.728373 0.909142 0.930172
Si Si3 0.343491 0.849299 0.658947
Si Si4 0.607470 0.446351 0.117351
Si Si5 0.933341 0.238143 0.849875
Si Si6 0.991848 0.379913 0.326727
Si Si7 0.272159 0.466126 0.513923
Si Si8 0.222649 0.097226 0.671211
O O1 0.193886 0.149814 0.173733
O O2 0.023841 0.326293 0.244770
O O3 0.272855 0.042815 0.447851
O O4 0.830589 0.508432 0.900976
O O5 0.896589 0.041551 0.661206
O O6 0.741237 0.730591 0.217205
O O7 0.500000 0.000000 0.000000
O O8 0.371339 0.755033 0.644376
O O9 0.556615 0.837990 0.589206
O O10 0.161713 0.758341 0.964648
O O11 0.469678 0.499194 0.254552
O O12 0.500000 0.500000 0.000000
O O13 0.902300 0.418809 0.580796
O O14 0.157736 0.153671 0.770286
O O15 0.792926 0.097924 0.078786
O O16 0.772400 0.459106 0.426493
O O17 0.052255 0.201901 0.579558
#
# Coordination Sequence:
#
# PCOD9003927 Si02
#       8
#     2   2   2   2   2   2   2   2
#     4  11  27  48  79 103 135 194 245 302 353 428
#     4  11  27  56  77 101 135 187 251 307 367 420
#     4  12  22  40  69 101 144 191 234 276 351 429
#     4  12  24  40  63 107 149 195 229 276 352 424
#     4  10  21  37  63 103 146 182 233 278 353 422
#     4  11  24  45  70 108 152 186 236 289 354 428
#     4  11  25  45  71 102 146 187 237 302 354 422
#     4  10  21  37  63 103 151 190 220 278 348 435
#
# _framework density 25.892441000000002
#
# number of rings (size 3 to 8) (size 9 to 14) (size 15 to 20)
#    0.000    1.000    3.750    1.875    1.750    6.000 
#    0.000    1.250    0.000    0.000    0.000    0.000 
#    0.000    0.000    0.000    0.000    0.000    0.000 
#
# Total GULP energy -89363.506824 kJ/mol
# GULP energy per Si atom -5585.219177 kJ/mol
# Density = 2.583351 g / cm^3
# Si number density = 25.892441 Si / 1000 Ang^3
#
#
#
# Elastic Constant Matrix: (Units=GPa)
#
#
# Indices 1 2 3 4 5 6 
#
# 1 51.7252 45.0943 30.9550 3.6794 -7.8749 15.4932
# 2 45.0943 197.3499 57.6960 20.7947 -4.7947 32.8819
# 3 30.9550 57.6960 131.2252 -0.9453 -10.8156 -4.9351
# 4 3.6794 20.7947 -0.9453 63.7645 -1.1143 -1.5428
# 5 -7.8749 -4.7947 -10.8156 -1.1143 13.8729 0.7303
# 6 15.4932 32.8819 -4.9351 -1.5428 0.7303 39.1956
#
#
#
# Elastic Compliance Matrix: (Units=1/GPa)
#
#
# Indices 1 2 3 4 5 6 
#
# 1 0.030241 -0.003408 -0.004979 -0.000729 0.012573 -0.009984
# 2 -0.003408 0.007934 -0.003041 -0.002601 -0.001469 -0.005767
# 3 -0.004979 -0.003041 0.010719 0.001655 0.004304 0.005854
# 4 -0.000729 -0.002601 0.001655 0.016698 0.001144 0.003315
# 5 0.012573 -0.001469 0.004304 0.001144 0.082407 -0.004686
# 6 -0.009984 -0.005767 0.005854 0.003315 -0.004686 0.035252
#
#
# Mechanical properties :
#
#
# Convention : Reuss Voigt Hill
#
# Bulk Modulus (GPa) = 38.40801 71.97679 55.19240
# Shear Modulus (GPa) = 23.27875 39.80359 31.54117
#
# Velocity S-wave (km/s) = 3.00168 3.92505 3.49400
# Velocity P-wave (km/s) = 5.18453 6.95702 6.13512
#
# Compressibility (1/GPa) = 0.02603623
#
# Stress axis : x y z
#
# Youngs Moduli (GPa) = 33.06762 126.03472 93.29205
#
# Poissons Ratio (x) = 0.42958 0.46455
# Poissons Ratio (y) = 0.11271 0.28372
# Poissons Ratio (z) = 0.16466 0.38329
#
# Static dielectric constant tensor:
#      x y z
#    x 2.111870 0.062830 0.161670 
#    y 0.062830 2.145150 0.031760 
#    z 0.161670 0.031760 2.084700 
# 
# From -- ./inp_files/505284.got.cif
#   From: 2010.05.17/outbox.cif.g08.bks.cpg/sg2_253_cif.got.tgz:505284.got - 2010.06.03 11:33:40.
