data_PCOD9003204
_publ_section_title
;
Structure prediction by ZEFSAII (Michael W. Deem and Ramdas Pophale) SiO2 
 PCOD9003204
Probable space group: P -1
;
_chemical_formula_sum "Si O2"
_cell_formula_units_Z 11
_cell_length_a 14.104281
_cell_length_b 11.861324
_cell_length_c 7.431158
_cell_angle_alpha 37.441694
_cell_angle_beta 59.063404
_cell_angle_gamma 35.170776
_cell_volume 401.740280
_symmetry_space_group_name_H-M "P -1"
_symmetry_group_IT_number 2
_symmetry_cell_setting 'triclinic'
loop_
_space_group_symop_operation_xyz
x,y,z
-x,-y,-z
loop_
_atom_site_type_symbol
_atom_site_label
_atom_site_fract_x
_atom_site_fract_y
_atom_site_fract_z
Si Si1 0.655031 0.572889 0.785842
Si Si2 0.838609 0.215171 0.745056
Si Si3 0.270745 0.201964 0.321116
Si Si4 0.117564 0.063266 0.493506
Si Si5 0.330579 0.861212 0.189457
Si Si6 0.500000 0.000000 0.000000
O O1 0.682639 0.541465 0.579058
O O2 0.761769 0.587966 0.774255
O O3 0.448142 0.868291 0.650584
O O4 0.729997 0.277020 0.148754
O O5 0.771506 0.097941 0.928108
O O6 0.931555 0.197894 0.511844
O O7 0.000000 0.000000 0.000000
O O8 0.119200 0.248910 0.374096
O O9 0.343388 0.169299 0.097002
O O10 0.187428 0.019841 0.285507
O O11 0.500000 0.500000 0.500000
O O12 0.408770 0.959963 0.006254
#
# Coordination Sequence:
#
# PCOD9003204 Si02
#       6
#     2   2   2   2   2   1
#     4  10  21  37  58  90 123 162 204 249 305 364
#     4  10  22  39  62  92 128 163 196 250 317 368
#     4  10  21  37  61  88 122 161 208 254 297 362
#     4  10  21  38  60  88 122 160 202 251 308 362
#     4  11  22  41  66  89 121 163 210 254 296 362
#     4  10  22  38  60  90 116 156 208 252 296 348
#
# _framework density 27.380873999999999
#
# number of rings (size 3 to 8) (size 9 to 14) (size 15 to 20)
#    0.000    1.818    0.000    4.364    0.000    8.000 
#    0.000    5.455    0.000   19.636    0.000    0.000 
#    0.000    0.000    0.000    0.000    0.000    0.000 
#
# Total GULP energy -61424.280500 kJ/mol
# GULP energy per Si atom -5584.025500 kJ/mol
# Density = 2.731855 g / cm^3
# Si number density = 27.380874 Si / 1000 Ang^3
#
#
#
# Elastic Constant Matrix: (Units=GPa)
#
#
# Indices 1 2 3 4 5 6 
#
# 1 266.7571 39.0778 39.2749 4.4262 -52.4193 10.2577
# 2 39.0778 92.3487 22.1292 17.2415 -15.1955 9.3688
# 3 39.2749 22.1292 71.3220 -8.4803 -16.0256 -2.9382
# 4 4.4262 17.2415 -8.4803 37.1465 -9.5893 3.5168
# 5 -52.4193 -15.1955 -16.0256 -9.5893 49.9333 0.2120
# 6 10.2577 9.3688 -2.9382 3.5168 0.2120 48.3653
#
#
#
# Elastic Compliance Matrix: (Units=1/GPa)
#
#
# Indices 1 2 3 4 5 6 
#
# 1 0.005059 -0.001120 -0.001305 0.000939 0.004736 -0.001024
# 2 -0.001120 0.014011 -0.004618 -0.007150 0.000242 -0.002238
# 3 -0.001305 -0.004618 0.018129 0.007427 0.004462 0.001713
# 4 0.000939 -0.007150 0.007427 0.033893 0.007706 -0.000861
# 5 0.004736 0.000242 0.004462 0.007706 0.027991 -0.001463
# 6 -0.001024 -0.002238 0.001713 -0.000861 -0.001463 0.021500
#
#
# Mechanical properties :
#
#
# Convention : Reuss Voigt Hill
#
# Bulk Modulus (GPa) = 43.26690 70.15464 56.71077
# Shear Modulus (GPa) = 35.11876 49.08542 42.10209
#
# Velocity S-wave (km/s) = 3.58523 4.23861 3.92554
# Velocity P-wave (km/s) = 5.74236 7.04498 6.42676
#
# Compressibility (1/GPa) = 0.02311236
#
# Stress axis : x y z
#
# Youngs Moduli (GPa) = 197.64865 71.37284 55.16122
#
# Poissons Ratio (x) = 0.07996 0.07198
# Poissons Ratio (y) = 0.22143 0.25475
# Poissons Ratio (z) = 0.25790 0.32962
#
# Static dielectric constant tensor:
#      x y z
#    x 2.133550 0.074410 0.157360 
#    y 0.074410 2.193680 0.104450 
#    z 0.157360 0.104450 2.919550 
# 
# From -- ./inp_files/160418.got.cif
#   From: 2010.05.17/outbox.cif.g08.bks.cpg/sg2_81_cif.got.tgz:160418.got - 2010.06.03 11:33:40.
