data_PCOD9003097
_publ_section_title
;
Structure prediction by ZEFSAII (Michael W. Deem and Ramdas Pophale) SiO2 
 PCOD9003097
Probable space group: P -1
;
_chemical_formula_sum "Si O2"
_cell_formula_units_Z 16
_cell_length_a 10.494225
_cell_length_b 11.374052
_cell_length_c 8.915864
_cell_angle_alpha 99.538060
_cell_angle_beta 39.808620
_cell_angle_gamma 106.881537
_cell_volume 649.110687
_symmetry_space_group_name_H-M "P -1"
_symmetry_group_IT_number 2
_symmetry_cell_setting 'triclinic'
loop_
_space_group_symop_operation_xyz
x,y,z
-x,-y,-z
loop_
_atom_site_type_symbol
_atom_site_label
_atom_site_fract_x
_atom_site_fract_y
_atom_site_fract_z
Si Si1 0.853816 0.471067 0.271157
Si Si2 0.295304 0.733059 0.835083
Si Si3 0.682422 0.867056 0.684423
Si Si4 0.958979 0.702231 0.375845
Si Si5 0.826973 0.575768 0.783960
Si Si6 0.528677 0.313670 0.891581
Si Si7 0.593611 0.080416 0.668528
Si Si8 0.195863 0.951425 0.838737
O O1 0.678068 0.365367 0.333226
O O2 0.797221 0.592490 0.408658
O O3 0.996761 0.434059 0.261717
O O4 0.000000 0.500000 0.000000
O O5 0.519903 0.813733 0.688658
O O6 0.155314 0.811388 0.899705
O O7 0.171320 0.702338 0.098810
O O8 0.894515 0.830313 0.454205
O O9 0.677233 0.009971 0.714071
O O10 0.583545 0.782897 0.897609
O O11 0.930582 0.651583 0.559868
O O12 0.686353 0.440607 0.830703
O O13 0.657631 0.643893 0.011121
O O14 0.635185 0.225991 0.683068
O O15 0.698827 0.047996 0.417118
O O16 0.350484 0.029154 0.840480
O O17 0.000000 0.000000 0.000000
#
# Coordination Sequence:
#
# PCOD9003097 Si02
#       8
#     2   2   2   2   2   2   2   2
#     4  10  21  37  57  91 124 165 205 256 312 370
#     4  10  22  39  61  91 128 163 208 263 314 372
#     4  10  21  41  62  91 126 163 213 261 312 378
#     4  10  21  39  64  87 127 168 205 263 317 364
#     4  10  22  39  63  95 129 164 216 257 311 380
#     4  10  21  39  65  92 126 171 208 264 315 370
#     4  10  22  40  64  92 124 167 213 258 316 372
#     4  10  22  40  61  92 127 164 209 262 313 375
#
# _framework density 24.649107999999998
#
# number of rings (size 3 to 8) (size 9 to 14) (size 15 to 20)
#    0.000    2.000    0.000    3.000    3.500    0.500 
#    4.500    0.000    0.000    8.250    0.000    0.000 
#    0.000    0.000    0.000    0.000    0.000    0.000 
#
# Total GULP energy -89350.900687 kJ/mol
# GULP energy per Si atom -5584.431293 kJ/mol
# Density = 2.459301 g / cm^3
# Si number density = 24.649108 Si / 1000 Ang^3
#
#
#
# Elastic Constant Matrix: (Units=GPa)
#
#
# Indices 1 2 3 4 5 6 
#
# 1 74.1747 30.6265 27.8579 9.4192 -7.8174 -15.2953
# 2 30.6265 104.2569 25.6008 16.9292 -7.1828 -18.2246
# 3 27.8579 25.6008 71.5712 2.2123 3.9190 -8.7638
# 4 9.4192 16.9292 2.2123 37.3765 -12.0611 4.3655
# 5 -7.8174 -7.1828 3.9190 -12.0611 29.0116 -0.7858
# 6 -15.2953 -18.2246 -8.7638 4.3655 -0.7858 42.9328
#
#
#
# Elastic Compliance Matrix: (Units=1/GPa)
#
#
# Indices 1 2 3 4 5 6 
#
# 1 0.018416 -0.002486 -0.005877 -0.002318 0.004302 0.004620
# 2 -0.002486 0.012724 -0.002921 -0.005219 0.000826 0.004465
# 3 -0.005877 -0.002921 0.017563 0.000277 -0.004560 0.000140
# 4 -0.002318 -0.005219 0.000277 0.034338 0.012152 -0.006254
# 5 0.004302 0.000826 -0.004560 0.012152 0.041514 0.000477
# 6 0.004620 0.004465 0.000140 -0.006254 0.000477 0.027507
#
#
# Mechanical properties :
#
#
# Convention : Reuss Voigt Hill
#
# Bulk Modulus (GPa) = 38.26324 46.46368 42.36346
# Shear Modulus (GPa) = 27.27157 32.92536 30.09846
#
# Velocity S-wave (km/s) = 3.32986 3.65877 3.49818
# Velocity P-wave (km/s) = 5.50825 6.06134 5.79140
#
# Compressibility (1/GPa) = 0.02613474
#
# Stress axis : x y z
#
# Youngs Moduli (GPa) = 54.30050 78.59084 56.93892
#
# Poissons Ratio (x) = 0.19540 0.33463
# Poissons Ratio (y) = 0.13501 0.16631
# Poissons Ratio (z) = 0.31912 0.22955
#
# Static dielectric constant tensor:
#      x y z
#    x 1.988780 0.067300 0.018820 
#    y 0.067300 2.139180 -0.026220 
#    z 0.018820 -0.026220 2.004850 
# 
# From -- ./inp_files/258799.got.cif
#   From: 2010.05.17/outbox.cif.g08.bks.cpg/sg2_130_cif.got.tgz:258799.got - 2010.06.03 11:33:40.
