data_PCOD9003589
_publ_section_title
;
Structure prediction by ZEFSAII (Michael W. Deem and Ramdas Pophale) SiO2 
 PCOD9003589
Probable space group: P -1
;
_chemical_formula_sum "Si O2"
_cell_formula_units_Z 16
_cell_length_a 8.010278
_cell_length_b 26.085256
_cell_length_c 6.742853
_cell_angle_alpha 60.742778
_cell_angle_beta 100.117029
_cell_angle_gamma 144.190350
_cell_volume 648.507389
_symmetry_space_group_name_H-M "P -1"
_symmetry_group_IT_number 2
_symmetry_cell_setting 'triclinic'
loop_
_space_group_symop_operation_xyz
x,y,z
-x,-y,-z
loop_
_atom_site_type_symbol
_atom_site_label
_atom_site_fract_x
_atom_site_fract_y
_atom_site_fract_z
Si Si1 0.285247 0.139593 0.235370
Si Si2 0.730440 0.118293 0.739499
Si Si3 0.206355 0.809297 0.811985
Si Si4 0.431538 0.433209 0.945161
Si Si5 0.242736 0.254358 0.879621
Si Si6 0.817465 0.514846 0.522177
Si Si7 0.219260 0.549015 0.766418
Si Si8 0.761704 0.935792 0.252607
O O1 0.492432 0.145515 0.185532
O O2 0.373177 0.230254 0.019580
O O3 0.289184 0.135326 0.483211
O O4 0.941634 0.030651 0.269153
O O5 0.738352 0.134347 0.477114
O O6 0.567024 0.131455 0.754719
O O7 0.084140 0.208064 0.717777
O O8 0.500000 0.000000 0.000000
O O9 0.927242 0.678930 0.983106
O O10 0.063053 0.812647 0.933839
O O11 0.488136 0.388919 0.163134
O O12 0.500000 0.500000 0.000000
O O13 0.676941 0.517713 0.654525
O O14 0.519579 0.382217 0.723533
O O15 0.857306 0.525101 0.272352
O O16 0.141570 0.583554 0.551316
O O17 0.000000 0.500000 0.000000
O O18 0.000000 0.000000 0.000000
#
# Coordination Sequence:
#
# PCOD9003589 Si02
#       8
#     2   2   2   2   2   2   2   2
#     4  10  22  38  59  87 119 159 201 254 305 366
#     4  11  22  38  60  88 119 160 206 247 307 369
#     4  10  24  41  58  91 127 155 207 262 301 370
#     4  10  21  37  61  86 122 161 198 254 317 365
#     4  11  22  38  64  87 122 163 202 252 312 364
#     4   9  20  37  60  90 117 155 205 254 304 373
#     4   9  18  37  61  84 116 152 198 250 300 367
#     4  10  21  39  57  84 121 154 205 255 300 366
#
# _framework density 24.672039999999999
#
# number of rings (size 3 to 8) (size 9 to 14) (size 15 to 20)
#    0.000    2.000    1.250    1.500    3.500    1.000 
#    0.000    0.000   11.000    0.000    0.000    0.000 
#    0.000    0.000    0.000    0.000    0.000    0.000 
#
# Total GULP energy -89092.978430 kJ/mol
# GULP energy per Si atom -5568.311152 kJ/mol
# Density = 2.461589 g / cm^3
# Si number density = 24.672040 Si / 1000 Ang^3
#
#
#
# Elastic Constant Matrix: (Units=GPa)
#
#
# Indices 1 2 3 4 5 6 
#
# 1 81.5067 12.9002 72.4425 7.5013 4.7000 7.9347
# 2 12.9002 32.2621 1.6990 5.8754 5.7286 6.9329
# 3 72.4425 1.6990 133.4421 23.5561 -12.2103 0.2852
# 4 7.5013 5.8754 23.5561 34.2434 -1.1441 0.5965
# 5 4.7000 5.7286 -12.2103 -1.1441 54.0117 13.2243
# 6 7.9347 6.9329 0.2852 0.5965 13.2243 37.6589
#
#
#
# Elastic Compliance Matrix: (Units=1/GPa)
#
#
# Indices 1 2 3 4 5 6 
#
# 1 0.029411 -0.010809 -0.017545 0.007373 -0.004592 -0.002578
# 2 -0.010809 0.037594 0.006891 -0.008767 -0.000612 -0.004342
# 3 -0.017545 0.006891 0.019197 -0.010401 0.004722 0.000789
# 4 0.007373 -0.008767 -0.010401 0.036203 -0.001302 0.000023
# 5 -0.004592 -0.000612 0.004722 -0.001302 0.021617 -0.006526
# 6 -0.002578 -0.004342 0.000789 0.000023 -0.006526 0.030182
#
#
# Mechanical properties :
#
#
# Convention : Reuss Voigt Hill
#
# Bulk Modulus (GPa) = 23.10845 46.81047 34.95946
# Shear Modulus (GPa) = 21.59307 35.86075 28.72691
#
# Velocity S-wave (km/s) = 2.96159 3.81661 3.41596
# Velocity P-wave (km/s) = 4.59144 6.19970 5.45516
#
# Compressibility (1/GPa) = 0.04327421
#
# Stress axis : x y z
#
# Youngs Moduli (GPa) = 34.00115 26.60016 52.09064
#
# Poissons Ratio (x) = 0.28753 0.91393
# Poissons Ratio (y) = 0.36753 -0.35893
# Poissons Ratio (z) = 0.59655 -0.18329
#
# Static dielectric constant tensor:
#      x y z
#    x 2.136670 -0.002750 -0.001400 
#    y -0.002750 1.948640 0.020960 
#    z -0.001400 0.020960 2.091820 
# 
# From -- ./inp_files/56819.got.cif
#   From: 2010.05.17/outbox.cif.g08.bks.cpg/sg2_29_cif.got.tgz:56819.got - 2010.06.03 11:33:40.
