data_PCOD9003161
_publ_section_title
;
Structure prediction by ZEFSAII (Michael W. Deem and Ramdas Pophale) SiO2 
 PCOD9003161
Probable space group: P -1
;
_chemical_formula_sum "Si O2"
_cell_formula_units_Z 16
_cell_length_a 20.793827
_cell_length_b 8.724082
_cell_length_c 17.649390
_cell_angle_alpha 125.016682
_cell_angle_beta 20.071998
_cell_angle_gamma 134.423565
_cell_volume 737.680236
_symmetry_space_group_name_H-M "P -1"
_symmetry_group_IT_number 2
_symmetry_cell_setting 'triclinic'
loop_
_space_group_symop_operation_xyz
x,y,z
-x,-y,-z
loop_
_atom_site_type_symbol
_atom_site_label
_atom_site_fract_x
_atom_site_fract_y
_atom_site_fract_z
Si Si1 0.942302 0.807618 0.566995
Si Si2 0.249911 0.676965 0.629816
Si Si3 0.221209 0.588868 0.075072
Si Si4 0.442760 0.200624 0.531430
Si Si5 0.722809 0.376517 0.576659
Si Si6 0.734728 0.512149 0.159300
Si Si7 0.640334 0.923459 0.995815
Si Si8 0.751714 0.312135 0.759742
O O1 0.794984 0.575484 0.614754
O O2 0.184640 0.864172 0.340954
O O3 0.799216 0.830533 0.796390
O O4 0.000000 0.000000 0.500000
O O5 0.372136 0.678205 0.570886
O O6 0.303486 0.580055 0.469266
O O7 0.342953 0.936336 0.576695
O O8 0.980317 0.552392 0.905568
O O9 0.300830 0.622169 0.083100
O O10 0.953011 0.383432 0.320248
O O11 0.333970 0.542640 0.868745
O O12 0.237515 0.814892 0.091109
O O13 0.563552 0.311738 0.349320
O O14 0.263633 0.267705 0.759186
O O15 0.503157 0.147545 0.788389
O O16 0.451680 0.781211 0.099064
O O17 0.000000 0.500000 0.500000
#
# Coordination Sequence:
#
# PCOD9003161 Si02
#       8
#     2   2   2   2   2   2   2   2
#     4  11  22  39  58  84 116 156 198 234 283 340
#     4  10  21  39  62  85 119 148 187 242 287 342
#     4  10  21  37  58  87 114 151 196 235 282 340
#     4  10  21  39  62  90 110 152 194 225 301 356
#     4  10  21  37  58  87 114 151 196 235 282 340
#     4  10  21  39  62  85 119 148 187 242 287 342
#     4  12  21  39  60  78 120 162 186 241 289 324
#     4  11  22  39  58  84 116 156 198 234 283 340
#
# _framework density 21.689616000000001
#
# number of rings (size 3 to 8) (size 9 to 14) (size 15 to 20)
#    0.000    1.500    5.000    2.250    0.000    1.000 
#    0.000    0.000    0.000    0.000    0.000    0.000 
#    0.000    0.000    0.000    0.000    0.000    0.000 
#
# Total GULP energy -89226.850592 kJ/mol
# GULP energy per Si atom -5576.678162 kJ/mol
# Density = 2.164025 g / cm^3
# Si number density = 21.689616 Si / 1000 Ang^3
#
#
#
# Elastic Constant Matrix: (Units=GPa)
#
#
# Indices 1 2 3 4 5 6 
#
# 1 84.8762 -0.6590 34.7729 3.5548 21.1121 10.0737
# 2 -0.6590 36.5894 6.6752 2.1453 15.8552 2.5823
# 3 34.7729 6.6752 81.2758 1.2823 32.8615 8.5747
# 4 3.5548 2.1453 1.2823 20.7389 -0.6945 3.1561
# 5 21.1121 15.8552 32.8615 -0.6945 42.4060 -2.1460
# 6 10.0737 2.5823 8.5747 3.1561 -2.1460 27.3191
#
#
#
# Elastic Compliance Matrix: (Units=1/GPa)
#
#
# Indices 1 2 3 4 5 6 
#
# 1 0.015811 0.004512 -0.003700 -0.002365 -0.007002 -0.005372
# 2 0.004512 0.035639 0.003540 -0.004222 -0.018744 -0.007128
# 3 -0.003700 0.003540 0.020734 -0.000532 -0.015895 -0.006665
# 4 -0.002365 -0.004222 -0.000532 0.049832 0.003781 -0.004022
# 5 -0.007002 -0.018744 -0.015895 0.003781 0.047093 0.012605
# 6 -0.005372 -0.007128 -0.006665 -0.004022 0.012605 0.042806
#
#
# Mechanical properties :
#
#
# Convention : Reuss Voigt Hill
#
# Bulk Modulus (GPa) = 12.36282 31.59106 21.97694
# Shear Modulus (GPa) = 21.72263 28.88963 25.30613
#
# Velocity S-wave (km/s) = 3.16812 3.65356 3.41946
# Velocity P-wave (km/s) = 4.36977 5.69163 5.07393
#
# Compressibility (1/GPa) = 0.08088767
#
# Stress axis : x y z
#
# Youngs Moduli (GPa) = 63.24693 28.05931 48.22900
#
# Poissons Ratio (x) = -0.12659 0.17845
# Poissons Ratio (y) = -0.28535 -0.17073
# Poissons Ratio (z) = 0.23402 -0.09933
#
# Static dielectric constant tensor:
#      x y z
#    x 1.880410 -0.046350 -0.016210 
#    y -0.046350 1.920310 0.075050 
#    z -0.016210 0.075050 1.893120 
# 
# From -- ./inp_files/349863.got.cif
#   From: 2010.05.17/outbox.cif.g08.bks.cpg/sg2_175_cif.got.tgz:349863.got - 2010.06.03 11:33:40.
