data_PCOD9003933
_publ_section_title
;
Structure prediction by ZEFSAII (Michael W. Deem and Ramdas Pophale) SiO2 
 PCOD9003933
Probable space group: P -1
;
_chemical_formula_sum "Si O2"
_cell_formula_units_Z 16
_cell_length_a 8.757736
_cell_length_b 13.864638
_cell_length_c 16.853595
_cell_angle_alpha 126.815608
_cell_angle_beta 52.197568
_cell_angle_gamma 150.474149
_cell_volume 785.353604
_symmetry_space_group_name_H-M "P -1"
_symmetry_group_IT_number 2
_symmetry_cell_setting 'triclinic'
loop_
_space_group_symop_operation_xyz
x,y,z
-x,-y,-z
loop_
_atom_site_type_symbol
_atom_site_label
_atom_site_fract_x
_atom_site_fract_y
_atom_site_fract_z
Si Si1 0.692832 0.950393 0.217945
Si Si2 0.283796 0.956995 0.113901
Si Si3 0.174238 0.839220 0.268118
Si Si4 0.950663 0.623554 0.729417
Si Si5 0.861541 0.859432 0.692558
Si Si6 0.531864 0.446992 0.627007
Si Si7 0.584655 0.804367 0.595046
Si Si8 0.615758 0.651246 0.101384
O O1 0.900587 0.165783 0.223015
O O2 0.803535 0.991104 0.294692
O O3 0.327492 0.800533 0.241739
O O4 0.734506 0.835988 0.116083
O O5 0.330367 0.931973 0.176548
O O6 0.918385 0.754369 0.105118
O O7 0.311898 0.117130 0.192298
O O8 0.500000 0.000000 0.000000
O O9 0.802088 0.670112 0.290561
O O10 0.276528 0.996824 0.373692
O O11 0.762812 0.507995 0.650269
O O12 0.686633 0.480858 0.810433
O O13 0.236372 0.670141 0.672450
O O14 0.697103 0.649248 0.642625
O O15 0.831145 0.885886 0.624871
O O16 0.461341 0.315275 0.516885
O O17 0.500000 0.500000 0.000000
#
# Coordination Sequence:
#
# PCOD9003933 Si02
#       8
#     2   2   2   2   2   2   2   2
#     4   9  22  42  59  86 126 159 194 258 301 351
#     4  10  22  42  62  87 121 160 197 252 310 356
#     4  10  21  39  61  88 123 156 200 252 299 359
#     4  10  22  41  62  88 125 160 201 252 304 363
#     4   9  21  39  59  85 123 155 201 252 298 360
#     4  11  20  38  60  91 119 158 207 248 300 362
#     4  10  21  37  63  85 121 165 196 249 308 353
#     4  11  24  40  64  90 119 161 205 249 307 365
#
# _framework density 20.372987999999999
#
# number of rings (size 3 to 8) (size 9 to 14) (size 15 to 20)
#    0.000    2.000    1.250    1.125    7.000    0.500 
#    4.500    1.875    0.000    0.000    0.000    0.000 
#    0.000    0.000    0.000    0.000    0.000    0.000 
#
# Total GULP energy -89126.164102 kJ/mol
# GULP energy per Si atom -5570.385256 kJ/mol
# Density = 2.032662 g / cm^3
# Si number density = 20.372988 Si / 1000 Ang^3
#
#
#
# Elastic Constant Matrix: (Units=GPa)
#
#
# Indices 1 2 3 4 5 6 
#
# 1 112.2990 17.1659 35.9197 3.7461 -3.8947 20.2082
# 2 17.1659 51.8191 22.7771 0.1257 1.3568 15.2425
# 3 35.9197 22.7771 98.9613 16.7978 8.3806 -0.2308
# 4 3.7461 0.1257 16.7978 42.4954 8.2057 -3.9524
# 5 -3.8947 1.3568 8.3806 8.2057 12.7836 0.9299
# 6 20.2082 15.2425 -0.2308 -3.9524 0.9299 31.1960
#
#
#
# Elastic Compliance Matrix: (Units=1/GPa)
#
#
# Indices 1 2 3 4 5 6 
#
# 1 0.012394 0.000491 -0.005103 -0.001576 0.008719 -0.008766
# 2 0.000491 0.025697 -0.006437 0.000833 0.002045 -0.012877
# 3 -0.005103 -0.006437 0.014732 -0.003003 -0.009071 0.006450
# 4 -0.001576 0.000833 -0.003003 0.028642 -0.017330 0.004737
# 5 0.008719 0.002045 -0.009071 -0.017330 0.098596 -0.011849
# 6 -0.008766 -0.012877 0.006450 0.004737 -0.011849 0.045027
#
#
# Mechanical properties :
#
#
# Convention : Reuss Voigt Hill
#
# Bulk Modulus (GPa) = 32.54702 46.08941 39.31822
# Shear Modulus (GPa) = 19.42288 29.77611 24.59949
#
# Velocity S-wave (km/s) = 3.09101 3.82717 3.47862
# Velocity P-wave (km/s) = 5.36184 6.49627 5.95613
#
# Compressibility (1/GPa) = 0.03072478
#
# Stress axis : x y z
#
# Youngs Moduli (GPa) = 80.68166 38.91533 67.88034
#
# Poissons Ratio (x) = -0.01912 0.34641
# Poissons Ratio (y) = -0.03965 0.43697
# Poissons Ratio (z) = 0.41173 0.25051
#
# Static dielectric constant tensor:
#      x y z
#    x 1.743180 0.009740 -0.009450 
#    y 0.009740 1.760890 -0.006290 
#    z -0.009450 -0.006290 1.718520 
# 
# From -- ./inp_files/178775.got.cif
#   From: 2010.05.17/outbox.cif.g08.bks.cpg/sg2_90_cif.got.tgz:178775.got - 2010.06.03 11:33:40.
