data_PCOD9003605
_publ_section_title
;
Structure prediction by ZEFSAII (Michael W. Deem and Ramdas Pophale) SiO2 
 PCOD9003605
Probable space group: P -1
;
_chemical_formula_sum "Si O2"
_cell_formula_units_Z 12
_cell_length_a 18.918406
_cell_length_b 16.297013
_cell_length_c 8.475896
_cell_angle_alpha 151.482976
_cell_angle_beta 139.664107
_cell_angle_gamma 21.378116
_cell_volume 430.631458
_symmetry_space_group_name_H-M "P -1"
_symmetry_group_IT_number 2
_symmetry_cell_setting 'triclinic'
loop_
_space_group_symop_operation_xyz
x,y,z
-x,-y,-z
loop_
_atom_site_type_symbol
_atom_site_label
_atom_site_fract_x
_atom_site_fract_y
_atom_site_fract_z
Si Si1 0.246516 0.018369 0.934906
Si Si2 0.641210 0.671257 0.104103
Si Si3 0.345130 0.072718 0.686277
Si Si4 0.193018 0.413447 0.322369
Si Si5 0.050121 0.980495 0.371174
Si Si6 0.171590 0.978574 0.091596
O O1 0.148837 0.807469 0.710691
O O2 0.174581 0.988855 0.621963
O O3 0.169377 0.064398 0.054210
O O4 0.492880 0.722588 0.864582
O O5 0.743561 0.656351 0.120921
O O6 0.500000 0.000000 0.500000
O O7 0.166483 0.311328 0.246393
O O8 0.335585 0.891848 0.298997
O O9 0.583160 0.800236 0.650495
O O10 0.216834 0.273910 0.966146
O O11 0.995036 0.789361 0.657580
O O12 0.217357 0.607549 0.997308
O O13 0.000000 0.000000 0.500000
#
# Coordination Sequence:
#
# PCOD9003605 Si02
#       6
#     2   2   2   2   2   2
#     4  10  21  37  61  88 121 156 198 248 302 356
#     4  11  20  38  66  90 115 160 207 251 290 357
#     4  10  22  37  61  91 117 154 209 249 300 348
#     4  10  22  39  61  87 124 155 200 256 299 352
#     4  10  23  36  57  92 127 156 196 252 302 352
#     4  11  21  36  61  88 116 163 203 244 290 364
#
# _framework density 27.866053999999998
#
# number of rings (size 3 to 8) (size 9 to 14) (size 15 to 20)
#    0.000    1.667    1.667    3.500    4.667    0.000 
#    0.000    0.833    3.667    6.000    0.000    0.000 
#    0.000    0.000    0.000    0.000    0.000    0.000 
#
# Total GULP energy -66967.198813 kJ/mol
# GULP energy per Si atom -5580.599901 kJ/mol
# Density = 2.780263 g / cm^3
# Si number density = 27.866054 Si / 1000 Ang^3
#
#
#
# Elastic Constant Matrix: (Units=GPa)
#
#
# Indices 1 2 3 4 5 6 
#
# 1 115.9179 21.9810 11.2606 -9.1267 -5.3615 -32.9763
# 2 21.9810 76.1949 34.3889 -17.4553 15.5064 -26.7878
# 3 11.2606 34.3889 180.3836 -46.8756 17.3857 -29.5214
# 4 -9.1267 -17.4553 -46.8756 60.1902 -26.1575 4.3568
# 5 -5.3615 15.5064 17.3857 -26.1575 52.6308 0.3328
# 6 -32.9763 -26.7878 -29.5214 4.3568 0.3328 44.8175
#
#
#
# Elastic Compliance Matrix: (Units=1/GPa)
#
#
# Indices 1 2 3 4 5 6 
#
# 1 0.011410 -0.000685 0.001377 0.003003 0.002347 0.008583
# 2 -0.000685 0.018512 -0.000972 0.001930 -0.004305 0.009765
# 3 0.001377 -0.000972 0.007993 0.006131 0.000801 0.005096
# 4 0.003003 0.001930 0.006131 0.026856 0.011030 0.004709
# 5 0.002347 -0.004305 0.000801 0.011030 0.025735 -0.001582
# 6 0.008583 0.009765 0.005096 0.004709 -0.001582 0.037375
#
#
# Mechanical properties :
#
#
# Convention : Reuss Voigt Hill
#
# Bulk Modulus (GPa) = 26.77030 56.41752 41.59391
# Shear Modulus (GPa) = 35.48801 51.85209 43.67005
#
# Velocity S-wave (km/s) = 3.57251 4.31833 3.96301
# Velocity P-wave (km/s) = 5.16186 6.71967 5.99161
#
# Compressibility (1/GPa) = 0.03735483
#
# Stress axis : x y z
#
# Youngs Moduli (GPa) = 87.64438 54.01960 125.10859
#
# Poissons Ratio (x) = 0.03702 -0.17230
# Poissons Ratio (y) = 0.06006 0.12158
# Poissons Ratio (z) = -0.12070 0.05250
#
# Static dielectric constant tensor:
#      x y z
#    x 2.217080 0.092950 -0.008350 
#    y 0.092950 2.519310 0.082810 
#    z -0.008350 0.082810 2.274640 
# 
# From -- ./inp_files/319647.got.cif
#   From: 2010.05.17/outbox.cif.g08.bks.cpg/sg2_160_cif.got.tgz:319647.got - 2010.06.03 11:33:40.
