data_PCOD9003746
_publ_section_title
;
Structure prediction by ZEFSAII (Michael W. Deem and Ramdas Pophale) SiO2 
 PCOD9003746
Probable space group: P -1
;
_chemical_formula_sum "Si O2"
_cell_formula_units_Z 14
_cell_length_a 14.405806
_cell_length_b 15.281018
_cell_length_c 17.280590
_cell_angle_alpha 24.374653
_cell_angle_beta 155.181313
_cell_angle_gamma 138.932740
_cell_volume 597.965048
_symmetry_space_group_name_H-M "P -1"
_symmetry_group_IT_number 2
_symmetry_cell_setting 'triclinic'
loop_
_space_group_symop_operation_xyz
x,y,z
-x,-y,-z
loop_
_atom_site_type_symbol
_atom_site_label
_atom_site_fract_x
_atom_site_fract_y
_atom_site_fract_z
Si Si1 0.659954 0.081954 0.501090
Si Si2 0.492949 0.883910 0.810210
Si Si3 0.001749 0.279150 0.635196
Si Si4 0.032594 0.320356 0.284546
Si Si5 0.019869 0.790195 0.886996
Si Si6 0.604280 0.221885 0.015155
Si Si7 0.130219 0.217972 0.606926
O O1 0.768037 0.230771 0.512021
O O2 0.500000 0.000000 0.500000
O O3 0.517071 0.199099 0.218714
O O4 0.903457 0.871108 0.819576
O O5 0.231768 0.106170 0.436367
O O6 0.489134 0.730393 0.004942
O O7 0.735987 0.922458 0.977834
O O8 0.005248 0.307938 0.522151
O O9 0.000000 0.500000 0.500000
O O10 0.230738 0.056299 0.639629
O O11 0.974131 0.338962 0.317216
O O12 0.785267 0.342532 0.037940
O O13 0.127484 0.515198 0.180711
O O14 0.165600 0.946246 0.852063
O O15 0.373822 0.259843 0.757648
#
# Coordination Sequence:
#
# PCOD9003746 Si02
#       7
#     2   2   2   2   2   2   2
#     4   9  20  38  55  84 118 146 192 242 284 343
#     4   9  20  41  55  83 125 149 190 244 283 352
#     4  10  21  37  62  84 110 162 190 235 303 337
#     4  11  21  39  61  89 116 156 200 234 294 346
#     4   9  21  40  59  82 121 160 182 243 299 329
#     4  10  21  38  62  87 118 153 197 245 282 348
#     4  10  21  43  55  86 126 146 199 245 282 353
#
# _framework density 23.412739999999999
#
# number of rings (size 3 to 8) (size 9 to 14) (size 15 to 20)
#    0.857    1.429    1.429    0.429    0.000    5.714 
#    7.714    0.000    0.000    0.000    0.000    0.000 
#    0.000    0.000    0.000    0.000    0.000    0.000 
#
# Total GULP energy -78036.021813 kJ/mol
# GULP energy per Si atom -5574.001558 kJ/mol
# Density = 2.335945 g / cm^3
# Si number density = 23.412740 Si / 1000 Ang^3
#
#
#
# Elastic Constant Matrix: (Units=GPa)
#
#
# Indices 1 2 3 4 5 6 
#
# 1 72.6617 49.3956 8.3747 6.1882 -5.3339 -3.5557
# 2 49.3956 153.6954 25.7026 14.5504 -15.7589 -1.4358
# 3 8.3747 25.7026 23.0500 11.8876 -1.1126 -4.1810
# 4 6.1882 14.5504 11.8876 43.3011 -2.0124 4.6200
# 5 -5.3339 -15.7589 -1.1126 -2.0124 17.0625 5.0560
# 6 -3.5557 -1.4358 -4.1810 4.6200 5.0560 30.4431
#
#
#
# Elastic Compliance Matrix: (Units=1/GPa)
#
#
# Indices 1 2 3 4 5 6 
#
# 1 0.017754 -0.005793 0.000952 -0.001109 -0.000516 0.002185
# 2 -0.005793 0.010929 -0.010669 0.000825 0.008629 -0.003185
# 3 0.000952 -0.010669 0.065155 -0.016325 -0.011046 0.012868
# 4 -0.001109 0.000825 -0.016325 0.028483 0.004925 -0.007473
# 5 -0.000516 0.008629 -0.011046 0.004925 0.070305 -0.013594
# 6 0.002185 -0.003185 0.012868 -0.007473 -0.013594 0.038112
#
#
# Mechanical properties :
#
#
# Convention : Reuss Voigt Hill
#
# Bulk Modulus (GPa) = 15.91859 46.26142 31.09001
# Shear Modulus (GPa) = 17.68678 29.22361 23.45520
#
# Velocity S-wave (km/s) = 2.75150 3.53681 3.16858
# Velocity P-wave (km/s) = 4.11196 6.03992 5.16667
#
# Compressibility (1/GPa) = 0.06281962
#
# Stress axis : x y z
#
# Youngs Moduli (GPa) = 56.32527 91.49895 15.34803
#
# Poissons Ratio (x) = 0.53002 -0.01462
# Poissons Ratio (y) = 0.32627 0.16375
# Poissons Ratio (z) = -0.05364 0.97620
#
# Static dielectric constant tensor:
#      x y z
#    x 1.956900 -0.036240 0.048490 
#    y -0.036240 1.911910 -0.004480 
#    z 0.048490 -0.004480 1.928840 
# 
# From -- ./inp_files/600400.got.cif
#   From: 2010.05.17/outbox.cif.g08.bks.cpg/sg2_301_cif.got.tgz:600400.got - 2010.06.03 11:33:40.
