data_PCOD9003608
_publ_section_title
;
Structure prediction by ZEFSAII (Michael W. Deem and Ramdas Pophale) SiO2 
 PCOD9003608
Probable space group: P -1
;
_chemical_formula_sum "Si O2"
_cell_formula_units_Z 15
_cell_length_a 16.681202
_cell_length_b 7.073440
_cell_length_c 5.373777
_cell_angle_alpha 116.237940
_cell_angle_beta 97.581901
_cell_angle_gamma 75.775031
_cell_volume 551.103115
_symmetry_space_group_name_H-M "P -1"
_symmetry_group_IT_number 2
_symmetry_cell_setting 'triclinic'
loop_
_space_group_symop_operation_xyz
x,y,z
-x,-y,-z
loop_
_atom_site_type_symbol
_atom_site_label
_atom_site_fract_x
_atom_site_fract_y
_atom_site_fract_z
Si Si1 0.573918 0.226506 0.103824
Si Si2 0.600577 0.671310 0.120179
Si Si3 0.921056 0.162022 0.847816
Si Si4 0.827050 0.186467 0.335156
Si Si5 0.866337 0.778890 0.413506
Si Si6 0.670798 0.342609 0.601146
Si Si7 0.000000 0.500000 0.000000
Si Si8 0.700218 0.917977 0.668298
O O1 0.485526 0.200307 0.953524
O O2 0.645277 0.018571 0.942120
O O3 0.585156 0.448660 0.104632
O O4 0.586057 0.286442 0.431173
O O5 0.641656 0.805659 0.408135
O O6 0.659595 0.570893 0.858204
O O7 0.875410 0.267425 0.634883
O O8 0.929374 0.910047 0.642740
O O9 0.868668 0.195916 0.095832
O O10 0.004738 0.246319 0.921361
O O11 0.734570 0.323904 0.390241
O O12 0.824799 0.940657 0.269529
O O13 0.793031 0.774347 0.580662
O O14 0.919977 0.564301 0.195523
O O15 0.709508 0.147422 0.684201
#
# Coordination Sequence:
#
# PCOD9003608 Si02
#       8
#     2   2   2   2   2   2   1   2
#     4  10  21  38  59  89 129 168 209 267 329 374
#     4  10  22  36  59  93 126 164 215 269 318 385
#     4  10  23  46  64  99 127 175 208 276 316 401
#     4   9  22  43  69  88 139 167 220 258 332 374
#     4   9  23  42  62  95 128 170 215 272 325 390
#     4  10  21  37  61  88 124 172 207 271 315 386
#     4  12  24  42  72  98 132 168 220 266 334 388
#     4  10  21  38  62  87 125 165 219 258 326 385
#
# _framework density 27.218136000000001
#
# number of rings (size 3 to 8) (size 9 to 14) (size 15 to 20)
#    0.800    1.333    0.000    2.000    3.733    2.667 
#    2.400    0.000    0.000    0.000    0.000    0.000 
#    0.000    0.000    0.000    0.000    0.000    0.000 
#
# Total GULP energy -83627.493099 kJ/mol
# GULP energy per Si atom -5575.166207 kJ/mol
# Density = 2.715619 g / cm^3
# Si number density = 27.218136 Si / 1000 Ang^3
#
#
#
# Elastic Constant Matrix: (Units=GPa)
#
#
# Indices 1 2 3 4 5 6 
#
# 1 68.2843 30.5067 23.4257 9.7126 -16.0217 -7.4183
# 2 30.5067 71.0150 28.9884 12.9163 4.9151 4.1294
# 3 23.4257 28.9884 149.9751 4.1735 -13.8193 -0.2867
# 4 9.7126 12.9163 4.1735 34.3306 -4.6842 2.8135
# 5 -16.0217 4.9151 -13.8193 -4.6842 45.1123 4.6729
# 6 -7.4183 4.1294 -0.2867 2.8135 4.6729 33.4990
#
#
#
# Elastic Compliance Matrix: (Units=1/GPa)
#
#
# Indices 1 2 3 4 5 6 
#
# 1 0.021838 -0.009569 -0.000778 -0.001829 0.007845 0.005068
# 2 -0.009569 0.021122 -0.003073 -0.005531 -0.006871 -0.003326
# 3 -0.000778 -0.003073 0.007589 0.000804 0.002482 -0.000142
# 4 -0.001829 -0.005531 0.000804 0.032401 0.003872 -0.002978
# 5 0.007845 -0.006871 0.002482 0.003872 0.027018 -0.001489
# 6 0.005068 -0.003326 -0.000142 -0.002978 -0.001489 0.031840
#
#
# Mechanical properties :
#
#
# Convention : Reuss Voigt Hill
#
# Bulk Modulus (GPa) = 42.17914 50.56843 46.37378
# Shear Modulus (GPa) = 28.32032 36.34531 32.33281
#
# Velocity S-wave (km/s) = 3.22917 3.65819 3.45035
# Velocity P-wave (km/s) = 5.42529 6.03841 5.74004
#
# Compressibility (1/GPa) = 0.02370840
#
# Stress axis : x y z
#
# Youngs Moduli (GPa) = 45.79215 47.34511 131.76290
#
# Poissons Ratio (x) = 0.45303 0.10252
# Poissons Ratio (y) = 0.43817 0.40497
# Poissons Ratio (z) = 0.03563 0.14551
#
# Static dielectric constant tensor:
#      x y z
#    x 2.284380 0.013640 0.166740 
#    y 0.013640 2.115840 -0.089390 
#    z 0.166740 -0.089390 2.290130 
# 
# From -- ./inp_files/105923.got.cif
#   From: 2010.05.17/outbox.cif.g08.bks.cpg/sg2_53_cif.got.tgz:105923.got - 2010.06.03 11:33:40.
