data_PCOD9003683
_publ_section_title
;
Structure prediction by ZEFSAII (Michael W. Deem and Ramdas Pophale) SiO2 
 PCOD9003683
Probable space group: P -1
;
_chemical_formula_sum "Si O2"
_cell_formula_units_Z 11
_cell_length_a 5.261531
_cell_length_b 15.621270
_cell_length_c 9.391844
_cell_angle_alpha 145.442492
_cell_angle_beta 63.968242
_cell_angle_gamma 109.442182
_cell_volume 392.825670
_symmetry_space_group_name_H-M "P -1"
_symmetry_group_IT_number 2
_symmetry_cell_setting 'triclinic'
loop_
_space_group_symop_operation_xyz
x,y,z
-x,-y,-z
loop_
_atom_site_type_symbol
_atom_site_label
_atom_site_fract_x
_atom_site_fract_y
_atom_site_fract_z
Si Si1 0.000000 0.000000 0.000000
Si Si2 0.520480 0.148415 0.944097
Si Si3 0.745126 0.390726 0.942198
Si Si4 0.095395 0.113050 0.450203
Si Si5 0.576752 0.328032 0.577967
Si Si6 0.021442 0.680293 0.761897
O O1 0.321064 0.070944 0.004815
O O2 0.981408 0.034093 0.229566
O O3 0.726035 0.271388 0.131660
O O4 0.286095 0.237797 0.024563
O O5 0.729009 0.005229 0.655628
O O6 0.630035 0.349964 0.760233
O O7 0.872117 0.230343 0.745049
O O8 0.520413 0.506780 0.231810
O O9 0.000000 0.500000 0.000000
O O10 0.320443 0.225300 0.488695
O O11 0.856112 0.257515 0.335359
O O12 0.000000 0.500000 0.500000
#
# Coordination Sequence:
#
# PCOD9003683 Si02
#       6
#     1   2   2   2   2   2
#     4  12  20  34  62  98 128 156 188 282 320 366
#     4  12  23  38  60  93 126 160 206 260 318 364
#     4   9  20  36  58  92 125 162 196 263 319 373
#     4  11  20  34  62  95 127 152 202 265 330 365
#     4  10  21  37  61  92 127 162 207 250 321 370
#     4  12  26  42  61  88 130 175 212 251 302 383
#
# _framework density 28.002244000000001
#
# number of rings (size 3 to 8) (size 9 to 14) (size 15 to 20)
#    0.000    1.091    3.636    4.364    2.545    0.000 
#    0.000    0.000    0.000    2.182    0.000    0.000 
#    0.000    0.000    0.000    0.000    0.000    0.000 
#
# Total GULP energy -61328.441681 kJ/mol
# GULP energy per Si atom -5575.312880 kJ/mol
# Density = 2.793851 g / cm^3
# Si number density = 28.002244 Si / 1000 Ang^3
#
#
#
# Elastic Constant Matrix: (Units=GPa)
#
#
# Indices 1 2 3 4 5 6 
#
# 1 164.3799 33.6129 85.6504 13.8837 -3.0205 32.4963
# 2 33.6129 79.9156 31.1774 21.9653 -7.0265 8.3435
# 3 85.6504 31.1774 184.4036 16.1811 -26.1717 27.8880
# 4 13.8837 21.9653 16.1811 52.0747 10.7573 -9.4725
# 5 -3.0205 -7.0265 -26.1717 10.7573 88.8454 1.6566
# 6 32.4963 8.3435 27.8880 -9.4725 1.6566 35.4637
#
#
#
# Elastic Compliance Matrix: (Units=1/GPa)
#
#
# Indices 1 2 3 4 5 6 
#
# 1 0.009400 -0.001596 -0.003001 -0.001996 -0.000330 -0.006397
# 2 -0.001596 0.015962 -0.000415 -0.007333 0.002049 -0.004021
# 3 -0.003001 -0.000415 0.008221 -0.002969 0.002731 -0.004539
# 4 -0.001996 -0.007333 -0.002969 0.027236 -0.005070 0.013401
# 5 -0.000330 0.002049 0.002731 -0.005070 0.012905 -0.004285
# 6 -0.006397 -0.004021 -0.004539 0.013401 -0.004285 0.042354
#
#
# Mechanical properties :
#
#
# Convention : Reuss Voigt Hill
#
# Bulk Modulus (GPa) = 42.44413 81.06451 61.75432
# Shear Modulus (GPa) = 37.32609 53.82731 45.57670
#
# Velocity S-wave (km/s) = 3.65494 4.38910 4.03874
# Velocity P-wave (km/s) = 5.74472 7.39579 6.62192
#
# Compressibility (1/GPa) = 0.02356039
#
# Stress axis : x y z
#
# Youngs Moduli (GPa) = 106.37930 62.64969 121.63462
#
# Poissons Ratio (x) = 0.09997 0.36498
# Poissons Ratio (y) = 0.16974 0.05051
# Poissons Ratio (z) = 0.31921 0.02601
#
# Static dielectric constant tensor:
#      x y z
#    x 2.176130 0.036790 -0.112360 
#    y 0.036790 1.963140 -0.152270 
#    z -0.112360 -0.152270 1.754470 
# 
# From -- ./inp_files/123893.got.cif
#   From: 2010.05.17/outbox.cif.g08.bks.cpg/sg2_62_cif.got.tgz:123893.got - 2010.06.03 11:33:40.
