data_PCOD9003758
_publ_section_title
;
Structure prediction by ZEFSAII (Michael W. Deem and Ramdas Pophale) SiO2 
 PCOD9003758
Probable space group: P -1
;
_chemical_formula_sum "Si O2"
_cell_formula_units_Z 16
_cell_length_a 18.373163
_cell_length_b 11.602063
_cell_length_c 5.597429
_cell_angle_alpha 123.506990
_cell_angle_beta 50.353057
_cell_angle_gamma 127.388168
_cell_volume 703.058909
_symmetry_space_group_name_H-M "P -1"
_symmetry_group_IT_number 2
_symmetry_cell_setting 'triclinic'
loop_
_space_group_symop_operation_xyz
x,y,z
-x,-y,-z
loop_
_atom_site_type_symbol
_atom_site_label
_atom_site_fract_x
_atom_site_fract_y
_atom_site_fract_z
Si Si1 0.143677 0.125352 0.116746
Si Si2 0.138762 0.330243 0.020198
Si Si3 0.926380 0.150810 0.729176
Si Si4 0.423471 0.022225 0.377326
Si Si5 0.242886 0.857140 0.290614
Si Si6 0.388316 0.762156 0.536417
Si Si7 0.761491 0.567670 0.576703
Si Si8 0.054846 0.652502 0.704940
O O1 0.159858 0.181608 0.872583
O O2 0.235417 0.263372 0.213589
O O3 0.034039 0.138918 0.428365
O O4 0.127454 0.966985 0.078651
O O5 0.174652 0.426333 0.302387
O O6 0.017881 0.267274 0.152343
O O7 0.189026 0.420783 0.778211
O O8 0.839524 0.116352 0.673903
O O9 0.949901 0.319479 0.971559
O O10 0.320724 0.004418 0.433104
O O11 0.392717 0.877901 0.449345
O O12 0.494322 0.173797 0.538679
O O13 0.500000 0.000000 0.000000
O O14 0.172324 0.729896 0.472913
O O15 0.312539 0.791158 0.919315
O O16 0.338983 0.585839 0.376844
O O17 0.000000 0.500000 0.500000
#
# Coordination Sequence:
#
# PCOD9003758 Si02
#       8
#     2   2   2   2   2   2   2   2
#     4   9  22  38  58  82 119 170 221 249 298 351
#     4  10  21  39  55  89 120 165 209 249 297 362
#     4  11  22  39  55  84 121 170 209 263 291 361
#     4   9  21  38  59  88 116 158 197 253 313 386
#     4  11  22  35  57  86 121 159 200 251 316 363
#     4  10  21  38  61  87 123 152 203 252 320 375
#     4  10  21  37  62  87 120 159 206 258 299 365
#     4  12  24  34  54  86 127 163 203 248 308 367
#
# _framework density 22.757694000000001
#
# number of rings (size 3 to 8) (size 9 to 14) (size 15 to 20)
#    0.750    1.000    2.500    1.500    7.000    2.000 
#    0.000    0.000    0.000    0.750    0.000   13.125 
#    0.000    0.000    0.000    0.000    0.000    0.000 
#
# Total GULP energy -89087.263518 kJ/mol
# GULP energy per Si atom -5567.953970 kJ/mol
# Density = 2.270590 g / cm^3
# Si number density = 22.757694 Si / 1000 Ang^3
#
#
#
# Elastic Constant Matrix: (Units=GPa)
#
#
# Indices 1 2 3 4 5 6 
#
# 1 104.4836 51.1109 14.6261 6.7120 24.5424 38.0706
# 2 51.1109 148.4283 14.5486 7.1573 10.7971 36.0893
# 3 14.6261 14.5486 64.8023 -6.3646 13.1699 6.6324
# 4 6.7120 7.1573 -6.3646 31.2428 1.1890 4.3882
# 5 24.5424 10.7971 13.1699 1.1890 26.6398 2.0617
# 6 38.0706 36.0893 6.6324 4.3882 2.0617 41.3868
#
#
#
# Elastic Compliance Matrix: (Units=1/GPa)
#
#
# Indices 1 2 3 4 5 6 
#
# 1 0.020395 -0.001845 0.000895 -0.000826 -0.017182 -0.016352
# 2 -0.001845 0.009006 -0.000898 -0.000989 -0.001009 -0.005857
# 3 0.000895 -0.000898 0.018075 0.004466 -0.009368 -0.002944
# 4 -0.000826 -0.000989 0.004466 0.033770 -0.002355 -0.002557
# 5 -0.017182 -0.001009 -0.009368 -0.002355 0.057307 0.015581
# 6 -0.016352 -0.005857 -0.002944 -0.002557 0.015581 0.044278
#
#
# Mechanical properties :
#
#
# Convention : Reuss Voigt Hill
#
# Bulk Modulus (GPa) = 22.84141 53.14283 37.99212
# Shear Modulus (GPa) = 24.86087 35.68245 30.27166
#
# Velocity S-wave (km/s) = 3.30876 3.96400 3.65111
# Velocity P-wave (km/s) = 4.96546 6.65983 5.87406
#
# Compressibility (1/GPa) = 0.04378013
#
# Stress axis : x y z
#
# Youngs Moduli (GPa) = 49.03081 111.04028 55.32545
#
# Poissons Ratio (x) = 0.20490 -0.04954
# Poissons Ratio (y) = 0.09048 0.04969
# Poissons Ratio (z) = -0.04390 0.09972
#
# Static dielectric constant tensor:
#      x y z
#    x 1.882110 -0.005970 0.066480 
#    y -0.005970 1.910430 0.039790 
#    z 0.066480 0.039790 2.000060 
# 
# From -- ./inp_files/109231.got.cif
#   From: 2010.05.17/outbox.cif.g08.bks.cpg/sg2_55_cif.got.tgz:109231.got - 2010.06.03 11:33:40.
