data_PCOD9003658
_publ_section_title
;
Structure prediction by ZEFSAII (Michael W. Deem and Ramdas Pophale) SiO2 
 PCOD9003658
Probable space group: P -1
;
_chemical_formula_sum "Si O2"
_cell_formula_units_Z 16
_cell_length_a 9.260577
_cell_length_b 12.429282
_cell_length_c 23.491015
_cell_angle_alpha 160.677803
_cell_angle_beta 42.637172
_cell_angle_gamma 134.990694
_cell_volume 605.013986
_symmetry_space_group_name_H-M "P -1"
_symmetry_group_IT_number 2
_symmetry_cell_setting 'triclinic'
loop_
_space_group_symop_operation_xyz
x,y,z
-x,-y,-z
loop_
_atom_site_type_symbol
_atom_site_label
_atom_site_fract_x
_atom_site_fract_y
_atom_site_fract_z
Si Si1 0.846918 0.932632 0.958725
Si Si2 0.617788 0.784704 0.695783
Si Si3 0.234943 0.445681 0.962281
Si Si4 0.512259 0.310756 0.193420
Si Si5 0.790096 0.367345 0.339423
Si Si6 0.039679 0.014148 0.568012
Si Si7 0.319697 0.699135 0.247071
Si Si8 0.800334 0.693729 0.227051
O O1 0.695410 0.626291 0.871656
O O2 0.003992 0.839101 0.816412
O O3 0.723830 0.243284 0.134260
O O4 0.000000 0.000000 0.000000
O O5 0.640913 0.682022 0.704510
O O6 0.715505 0.506033 0.489917
O O7 0.392906 0.790406 0.727564
O O8 0.709183 0.161194 0.856844
O O9 0.450349 0.287041 0.843848
O O10 0.988348 0.434079 0.047715
O O11 0.230281 0.288641 0.822014
O O12 0.576892 0.595759 0.274005
O O13 0.500000 0.000000 0.000000
O O14 0.892787 0.686458 0.437049
O O15 0.875186 0.287239 0.734836
O O16 0.250197 0.979283 0.451079
O O17 0.106327 0.018890 0.616537
#
# Coordination Sequence:
#
# PCOD9003658 Si02
#       8
#     2   2   2   2   2   2   2   2
#     4  11  19  37  63  92 122 162 211 253 311 369
#     4  11  21  41  65  90 126 166 209 255 314 368
#     4  11  22  44  63  89 126 167 211 252 316 374
#     4  12  23  40  65  93 122 164 214 257 306 374
#     4  10  22  39  64  92 126 167 203 263 310 366
#     4  10  22  38  61  95 126 155 211 257 315 361
#     4  10  21  37  61  91 124 163 204 262 305 373
#     4  11  24  40  64  90 127 166 204 262 311 373
#
# _framework density 26.445668000000001
#
# number of rings (size 3 to 8) (size 9 to 14) (size 15 to 20)
#    0.000    1.250    5.000    0.750    3.500    1.000 
#    4.500    0.625    0.000    0.000    0.000    0.000 
#    0.000    0.000    0.000    0.000    0.000    0.000 
#
# Total GULP energy -89199.666238 kJ/mol
# GULP energy per Si atom -5574.979140 kJ/mol
# Density = 2.638548 g / cm^3
# Si number density = 26.445668 Si / 1000 Ang^3
#
#
#
# Elastic Constant Matrix: (Units=GPa)
#
#
# Indices 1 2 3 4 5 6 
#
# 1 55.6670 3.8579 23.5182 4.1350 21.3928 0.5590
# 2 3.8579 35.0500 6.6244 -6.0863 4.1182 -3.4650
# 3 23.5182 6.6244 83.8201 -23.5673 23.6026 -4.2978
# 4 4.1350 -6.0863 -23.5673 47.3693 6.2336 2.4458
# 5 21.3928 4.1182 23.6026 6.2336 60.3390 -7.8719
# 6 0.5590 -3.4650 -4.2978 2.4458 -7.8719 29.4683
#
#
#
# Elastic Compliance Matrix: (Units=1/GPa)
#
#
# Indices 1 2 3 4 5 6 
#
# 1 0.023202 -0.001768 -0.006194 -0.004463 -0.005570 -0.002669
# 2 -0.001768 0.029888 -0.000242 0.003906 -0.001353 0.002827
# 3 -0.006194 -0.000242 0.018309 0.010391 -0.005984 0.000298
# 4 -0.004463 0.003906 0.010391 0.028042 -0.005886 -0.001840
# 5 -0.005570 -0.001353 -0.005984 -0.005886 0.022309 0.005522
# 6 -0.002669 0.002827 0.000298 -0.001840 0.005522 0.035989
#
#
# Mechanical properties :
#
#
# Convention : Reuss Voigt Hill
#
# Bulk Modulus (GPa) = 18.18422 26.94866 22.56644
# Shear Modulus (GPa) = 25.97732 36.80443 31.39088
#
# Velocity S-wave (km/s) = 3.13755 3.73460 3.44902
# Velocity P-wave (km/s) = 4.47399 5.36736 4.94091
#
# Compressibility (1/GPa) = 0.05499274
#
# Stress axis : x y z
#
# Youngs Moduli (GPa) = 43.09981 33.45858 54.61762
#
# Poissons Ratio (x) = 0.05914 0.33828
# Poissons Ratio (y) = 0.07618 0.01320
# Poissons Ratio (z) = 0.26695 0.00809
#
# Static dielectric constant tensor:
#      x y z
#    x 2.070270 0.028560 -0.044720 
#    y 0.028560 2.252220 -0.047040 
#    z -0.044720 -0.047040 2.152940 
# 
# From -- ./inp_files/608098.got.cif
#   From: 2010.05.17/outbox.cif.g08.bks.cpg/sg2_305_cif.got.tgz:608098.got - 2010.06.03 11:33:40.
