data_PCOD9003387
_publ_section_title
;
Structure prediction by ZEFSAII (Michael W. Deem and Ramdas Pophale) SiO2 
 PCOD9003387
Probable space group: P -1
;
_chemical_formula_sum "Si O2"
_cell_formula_units_Z 16
_cell_length_a 21.193359
_cell_length_b 7.364144
_cell_length_c 9.256383
_cell_angle_alpha 125.238938
_cell_angle_beta 146.213622
_cell_angle_gamma 64.499072
_cell_volume 652.321068
_symmetry_space_group_name_H-M "P -1"
_symmetry_group_IT_number 2
_symmetry_cell_setting 'triclinic'
loop_
_space_group_symop_operation_xyz
x,y,z
-x,-y,-z
loop_
_atom_site_type_symbol
_atom_site_label
_atom_site_fract_x
_atom_site_fract_y
_atom_site_fract_z
Si Si1 0.720612 0.664674 0.711669
Si Si2 0.869721 0.447006 0.693574
Si Si3 0.128313 0.929739 0.689140
Si Si4 0.342203 0.047274 0.554121
Si Si5 0.609005 0.379092 0.699953
Si Si6 0.865115 0.493705 0.280542
Si Si7 0.874638 0.868944 0.684252
Si Si8 0.521028 0.540192 0.885005
O O1 0.804214 0.493939 0.734395
O O2 0.691683 0.811677 0.584413
O O3 0.602278 0.517711 0.446700
O O4 0.783966 0.851674 0.020415
O O5 0.851785 0.201498 0.480670
O O6 0.851827 0.642619 0.634894
O O7 0.000000 0.500000 0.000000
O O8 0.146369 0.735282 0.750747
O O9 0.000000 0.000000 0.500000
O O10 0.223304 0.983407 0.383082
O O11 0.407251 0.860709 0.516789
O O12 0.419520 0.207901 0.883746
O O13 0.500000 0.500000 0.500000
O O14 0.600286 0.396749 0.869409
O O15 0.741475 0.462396 0.950166
O O16 0.863637 0.745144 0.454521
O O17 0.000000 0.500000 0.500000
O O18 0.000000 0.000000 0.000000
O O19 0.500000 0.500000 0.000000
#
# Coordination Sequence:
#
# PCOD9003387 Si02
#       8
#     2   2   2   2   2   2   2   2
#     4  10  21  38  65  93 129 175 228 277 358 413
#     4  10  21  37  59  95 133 166 220 290 340 414
#     4  11  22  38  67  98 137 174 228 292 355 413
#     4  10  21  43  69  91 138 183 232 293 354 417
#     4  12  26  46  71 104 145 189 243 295 355 433
#     4  11  24  44  71 101 142 185 236 291 362 435
#     4  10  21  39  67  97 130 182 230 281 357 425
#     4  10  24  44  69  99 134 182 241 286 355 427
#
# _framework density 24.527799000000002
#
# number of rings (size 3 to 8) (size 9 to 14) (size 15 to 20)
#    0.000    1.500    3.750    0.750    3.500    4.500 
#    2.250    0.000    0.000    0.000    0.000    0.000 
#    0.000    0.000    0.000    0.000    0.000    0.000 
#
# Total GULP energy -89212.330276 kJ/mol
# GULP energy per Si atom -5575.770642 kJ/mol
# Density = 2.447197 g / cm^3
# Si number density = 24.527799 Si / 1000 Ang^3
#
#
#
# Elastic Constant Matrix: (Units=GPa)
#
#
# Indices 1 2 3 4 5 6 
#
# 1 114.3289 54.0034 55.6580 14.6720 8.7970 -42.8607
# 2 54.0034 145.3171 55.2451 9.3848 -4.4502 -35.1730
# 3 55.6580 55.2451 211.5225 16.1526 0.0121 -39.0153
# 4 14.6720 9.3848 16.1526 48.0875 -15.1869 -8.2141
# 5 8.7970 -4.4502 0.0121 -15.1869 38.5556 2.5951
# 6 -42.8607 -35.1730 -39.0153 -8.2141 2.5951 57.8751
#
#
#
# Elastic Compliance Matrix: (Units=1/GPa)
#
#
# Indices 1 2 3 4 5 6 
#
# 1 0.014707 -0.002971 -0.001339 -0.003936 -0.005779 0.007884
# 2 -0.002971 0.009056 -0.001159 0.000513 0.001756 0.002516
# 3 -0.001339 -0.001159 0.005857 -0.001099 -0.000405 0.002115
# 4 -0.003936 0.000513 -0.001099 0.025742 0.011110 -0.000189
# 5 -0.005779 0.001756 -0.000405 0.011110 0.032059 -0.003347
# 6 0.007884 0.002516 0.002115 -0.000189 -0.003347 0.026195
#
#
# Mechanical properties :
#
#
# Convention : Reuss Voigt Hill
#
# Bulk Modulus (GPa) = 53.52518 88.99795 71.26157
# Shear Modulus (GPa) = 38.23182 49.32111 43.77646
#
# Velocity S-wave (km/s) = 3.95234 4.48909 4.22924
# Velocity P-wave (km/s) = 6.53434 7.95189 7.27771
#
# Compressibility (1/GPa) = 0.01868279
#
# Stress axis : x y z
#
# Youngs Moduli (GPa) = 67.99297 110.42659 170.74997
#
# Poissons Ratio (x) = 0.32809 0.22860
# Poissons Ratio (y) = 0.20202 0.19782
# Poissons Ratio (z) = 0.09103 0.12793
#
# Static dielectric constant tensor:
#      x y z
#    x 2.182970 0.053570 -0.102770 
#    y 0.053570 1.922950 -0.044830 
#    z -0.102770 -0.044830 1.994020 
# 
# From -- ./inp_files/474363.got.cif
#   From: 2010.05.17/outbox.cif.g08.bks.cpg/sg2_238_cif.got.tgz:474363.got - 2010.06.03 11:33:40.
