data_PCOD9003662
_publ_section_title
;
Structure prediction by ZEFSAII (Michael W. Deem and Ramdas Pophale) SiO2 
 PCOD9003662
Probable space group: P -1
;
_chemical_formula_sum "Si O2"
_cell_formula_units_Z 14
_cell_length_a 7.439530
_cell_length_b 12.332760
_cell_length_c 8.053670
_cell_angle_alpha 116.519926
_cell_angle_beta 108.185975
_cell_angle_gamma 85.024212
_cell_volume 626.942268
_symmetry_space_group_name_H-M "P -1"
_symmetry_group_IT_number 2
_symmetry_cell_setting 'triclinic'
loop_
_space_group_symop_operation_xyz
x,y,z
-x,-y,-z
loop_
_atom_site_type_symbol
_atom_site_label
_atom_site_fract_x
_atom_site_fract_y
_atom_site_fract_z
Si Si1 0.733861 0.160503 0.696429
Si Si2 0.403583 0.019041 0.704908
Si Si3 0.492608 0.153370 0.120009
Si Si4 0.098177 0.874029 0.933694
Si Si5 0.397960 0.423266 0.272112
Si Si6 0.011128 0.609552 0.708574
Si Si7 0.206834 0.565901 0.061272
O O1 0.531243 0.109175 0.683536
O O2 0.750973 0.301753 0.749254
O O3 0.757607 0.060627 0.493029
O O4 0.878183 0.155540 0.885651
O O5 0.523605 0.911512 0.750241
O O6 0.348823 0.100305 0.900668
O O7 0.694702 0.116896 0.082981
O O8 0.489870 0.295623 0.212773
O O9 0.014030 0.748743 0.740242
O O10 0.000000 0.000000 0.000000
O O11 0.500000 0.500000 0.500000
O O12 0.182852 0.400892 0.254032
O O13 0.370050 0.485958 0.128223
O O14 0.000000 0.500000 0.500000
O O15 0.184794 0.590543 0.874237
O O16 0.000000 0.500000 0.000000
#
# Coordination Sequence:
#
# PCOD9003662 Si02
#       7
#     2   2   2   2   2   2   2
#     4   9  18  37  60  87 120 162 200 254 302 370
#     4   9  19  35  59  87 128 147 201 251 313 353
#     4  10  21  37  61  91 125 157 207 255 306 371
#     4  10  22  40  61  87 127 164 204 252 316 375
#     4  11  22  38  66  93 123 164 211 257 310 366
#     4  10  22  41  63  90 126 167 209 254 316 378
#     4   9  20  40  62  87 128 165 208 254 311 373
#
# _framework density 22.330604000000001
#
# number of rings (size 3 to 8) (size 9 to 14) (size 15 to 20)
#    0.000    2.286    0.000    1.714    6.000    1.143 
#    2.571   12.143    0.000    0.000    0.000    0.000 
#    0.000    0.000    0.000    0.000    0.000    0.000 
#
# Total GULP energy -77946.675729 kJ/mol
# GULP energy per Si atom -5567.619695 kJ/mol
# Density = 2.227978 g / cm^3
# Si number density = 22.330604 Si / 1000 Ang^3
#
#
#
# Elastic Constant Matrix: (Units=GPa)
#
#
# Indices 1 2 3 4 5 6 
#
# 1 64.4517 32.9913 5.4298 6.5980 1.1984 -6.9403
# 2 32.9913 163.4037 54.7863 35.4708 -1.7092 -16.9707
# 3 5.4298 54.7863 129.9776 38.4062 -0.9780 -4.6402
# 4 6.5980 35.4708 38.4062 46.3521 0.1767 -0.7082
# 5 1.1984 -1.7092 -0.9780 0.1767 23.7247 6.2863
# 6 -6.9403 -16.9707 -4.6402 -0.7082 6.2863 34.5458
#
#
#
# Elastic Compliance Matrix: (Units=1/GPa)
#
#
# Indices 1 2 3 4 5 6 
#
# 1 0.017575 -0.003545 0.000996 -0.000574 -0.001686 0.002218
# 2 -0.003545 0.008863 -0.002160 -0.004437 -0.000108 0.003280
# 3 0.000996 -0.002160 0.010766 -0.007404 0.000187 0.000399
# 4 -0.000574 -0.004437 -0.007404 0.031146 -0.000132 -0.002627
# 5 -0.001686 -0.000108 0.000187 -0.000132 0.044479 -0.008463
# 6 0.002218 0.003280 0.000399 -0.002627 -0.008463 0.032544
#
#
# Mechanical properties :
#
#
# Convention : Reuss Voigt Hill
#
# Bulk Modulus (GPa) = 35.99019 60.47200 48.23110
# Shear Modulus (GPa) = 30.47815 38.56621 34.52218
#
# Velocity S-wave (km/s) = 3.69841 4.16030 3.93613
# Velocity P-wave (km/s) = 5.86427 7.08636 6.50408
#
# Compressibility (1/GPa) = 0.02778535
#
# Stress axis : x y z
#
# Youngs Moduli (GPa) = 56.89847 112.83464 92.88614
#
# Poissons Ratio (x) = 0.40001 -0.09253
# Poissons Ratio (y) = 0.20171 0.20065
# Poissons Ratio (z) = -0.05668 0.24374
#
# Static dielectric constant tensor:
#      x y z
#    x 1.870420 0.033150 -0.011380 
#    y 0.033150 1.923380 -0.051490 
#    z -0.011380 -0.051490 1.877960 
# 
# From -- ./inp_files/190387.got.cif
#   From: 2010.05.17/outbox.cif.g08.bks.cpg/sg2_96_cif.got.tgz:190387.got - 2010.06.03 11:33:40.
