data_PCOD9003138
_publ_section_title
;
Structure prediction by ZEFSAII (Michael W. Deem and Ramdas Pophale) SiO2 
 PCOD9003138
Probable space group: P -1
;
_chemical_formula_sum "Si O2"
_cell_formula_units_Z 16
_cell_length_a 9.665152
_cell_length_b 11.371206
_cell_length_c 8.567408
_cell_angle_alpha 89.385594
_cell_angle_beta 51.464292
_cell_angle_gamma 83.038391
_cell_volume 728.555806
_symmetry_space_group_name_H-M "P -1"
_symmetry_group_IT_number 2
_symmetry_cell_setting 'triclinic'
loop_
_space_group_symop_operation_xyz
x,y,z
-x,-y,-z
loop_
_atom_site_type_symbol
_atom_site_label
_atom_site_fract_x
_atom_site_fract_y
_atom_site_fract_z
Si Si1 0.070449 0.770935 0.078829
Si Si2 0.998120 0.234948 0.352277
Si Si3 0.960351 0.606945 0.401903
Si Si4 0.325443 0.802064 0.604586
Si Si5 0.524094 0.073695 0.750439
Si Si6 0.775527 0.712032 0.070304
Si Si7 0.367096 0.406581 0.581265
Si Si8 0.780419 0.022532 0.865247
O O1 0.104365 0.877516 0.166243
O O2 0.082697 0.648128 0.172625
O O3 0.877969 0.780047 0.128873
O O4 0.202964 0.788319 0.841169
O O5 0.049499 0.276117 0.484024
O O6 0.790021 0.246496 0.454633
O O7 0.090069 0.101720 0.246897
O O8 0.090170 0.315083 0.165169
O O9 0.776639 0.583482 0.452914
O O10 0.000000 0.500000 0.500000
O O11 0.380359 0.920995 0.484729
O O12 0.510051 0.720537 0.513627
O O13 0.403680 0.203444 0.856162
O O14 0.673415 0.050749 0.779379
O O15 0.374409 0.989651 0.895911
O O16 0.734515 0.594614 0.183430
O O17 0.500000 0.500000 0.500000
#
# Coordination Sequence:
#
# PCOD9003138 Si02
#       8
#     2   2   2   2   2   2   2   2
#     4  10  22  39  59  87 119 155 198 236 284 349
#     4  10  21  39  61  85 116 158 197 234 288 344
#     4  11  24  42  62  85 115 151 195 246 296 347
#     4  10  21  37  58  85 118 156 194 237 288 344
#     4   9  19  35  55  84 120 156 188 234 287 333
#     4   8  19  38  58  83 119 155 192 237 285 348
#     4  10  21  39  61  85 113 149 196 247 294 344
#     4  10  21  37  59  88 122 157 194 238 283 342
#
# _framework density 21.961254
#
# number of rings (size 3 to 8) (size 9 to 14) (size 15 to 20)
#    0.000    2.250    0.000    1.500    0.000   12.000 
#    0.000    8.750    0.000    0.000    0.000    0.000 
#    0.000    0.000    0.000    0.000    0.000    0.000 
#
# Total GULP energy -89158.063758 kJ/mol
# GULP energy per Si atom -5572.378985 kJ/mol
# Density = 2.191127 g / cm^3
# Si number density = 21.961254 Si / 1000 Ang^3
#
#
#
# Elastic Constant Matrix: (Units=GPa)
#
#
# Indices 1 2 3 4 5 6 
#
# 1 117.7180 44.0716 50.3526 -20.8901 2.6225 -8.5826
# 2 44.0716 71.4765 55.1852 -32.7797 12.5890 5.9543
# 3 50.3526 55.1852 117.0107 -48.3514 -2.2987 1.0125
# 4 -20.8901 -32.7797 -48.3514 37.1145 -8.1980 1.0253
# 5 2.6225 12.5890 -2.2987 -8.1980 18.2465 -4.2314
# 6 -8.5826 5.9543 1.0125 1.0253 -4.2314 38.8385
#
#
#
# Elastic Compliance Matrix: (Units=1/GPa)
#
#
# Indices 1 2 3 4 5 6 
#
# 1 0.012309 -0.007516 -0.003115 -0.003330 0.002529 0.004317
# 2 -0.007516 0.035348 -0.009964 0.009278 -0.022604 -0.009528
# 3 -0.003115 -0.009964 0.028222 0.031822 0.025653 0.002058
# 4 -0.003330 0.009278 0.031822 0.082447 0.034811 -0.001372
# 5 0.002529 -0.022604 0.025653 0.034811 0.091793 0.012437
# 6 0.004317 -0.009528 0.002058 -0.001372 0.012437 0.029500
#
#
# Mechanical properties :
#
#
# Convention : Reuss Voigt Hill
#
# Bulk Modulus (GPa) = 28.82925 67.26934 48.04930
# Shear Modulus (GPa) = 15.04326 29.27962 22.16144
#
# Velocity S-wave (km/s) = 2.62007 3.65532 3.18010
# Velocity P-wave (km/s) = 4.72323 6.96509 5.95069
#
# Compressibility (1/GPa) = 0.03468699
#
# Stress axis : x y z
#
# Youngs Moduli (GPa) = 81.24133 28.28982 35.43343
#
# Poissons Ratio (x) = 0.21263 0.11039
# Poissons Ratio (y) = 0.61063 0.35307
# Poissons Ratio (z) = 0.25311 0.28189
#
# Static dielectric constant tensor:
#      x y z
#    x 1.764060 -0.017700 0.019390 
#    y -0.017700 1.854770 -0.046330 
#    z 0.019390 -0.046330 1.907470 
# 
# From -- ./inp_files/187289.got.cif
#   From: 2010.05.17/outbox.cif.g08.bks.cpg/sg2_94_cif.got.tgz:187289.got - 2010.06.03 11:33:40.
