data_PCOD9003253
_publ_section_title
;
Structure prediction by ZEFSAII (Michael W. Deem and Ramdas Pophale) SiO2 
 PCOD9003253
Probable space group: P -1
;
_chemical_formula_sum "Si O2"
_cell_formula_units_Z 16
_cell_length_a 8.640891
_cell_length_b 7.934130
_cell_length_c 22.486609
_cell_angle_alpha 61.377777
_cell_angle_beta 59.265252
_cell_angle_gamma 35.830675
_cell_volume 769.266740
_symmetry_space_group_name_H-M "P -1"
_symmetry_group_IT_number 2
_symmetry_cell_setting 'triclinic'
loop_
_space_group_symop_operation_xyz
x,y,z
-x,-y,-z
loop_
_atom_site_type_symbol
_atom_site_label
_atom_site_fract_x
_atom_site_fract_y
_atom_site_fract_z
Si Si1 0.761166 0.747780 0.420783
Si Si2 0.666592 0.596872 0.579643
Si Si3 0.436826 0.753124 0.307292
Si Si4 0.299798 0.502459 0.165728
Si Si5 0.116232 0.954950 0.920171
Si Si6 0.989690 0.351622 0.078897
Si Si7 0.414848 0.807035 0.163845
Si Si8 0.993928 0.598170 0.691382
O O1 0.656539 0.669346 0.500449
O O2 0.022829 0.634137 0.420385
O O3 0.870183 0.575785 0.367376
O O4 0.524787 0.094952 0.401428
O O5 0.568517 0.462344 0.634506
O O6 0.355451 0.837566 0.239755
O O7 0.744808 0.577918 0.287680
O O8 0.203754 0.060878 0.334700
O O9 0.568302 0.249554 0.116647
O O10 0.351158 0.652771 0.170426
O O11 0.203516 0.407716 0.242373
O O12 0.060404 0.739328 0.126929
O O13 0.065372 0.804105 0.917481
O O14 0.000000 0.000000 0.000000
O O15 0.731122 0.598226 0.128747
O O16 0.248458 0.103958 0.111290
O O17 0.000000 0.500000 0.000000
#
# Coordination Sequence:
#
# PCOD9003253 Si02
#       8
#     2   2   2   2   2   2   2   2
#     4  10  22  42  67  92 123 170 216 251 303 378
#     4  10  22  42  67  92 123 170 216 251 303 378
#     4  12  25  39  61  95 128 161 204 263 321 359
#     4  10  22  40  59  82 117 160 202 241 297 373
#     4  10  21  37  59  85 112 150 197 248 302 359
#     4  10  21  37  59  85 112 150 197 248 302 359
#     4  10  22  40  59  82 117 160 202 241 297 373
#     4  12  25  39  61  95 128 161 204 263 321 359
#
# _framework density 20.799026000000001
#
# number of rings (size 3 to 8) (size 9 to 14) (size 15 to 20)
#    0.000    1.500    0.000    4.500    0.000    7.000 
#    0.000    0.000    0.000    0.000    0.000    0.000 
#    0.000    0.000    0.000    0.000    0.000    0.000 
#
# Total GULP energy -89448.726700 kJ/mol
# GULP energy per Si atom -5590.545419 kJ/mol
# Density = 2.075169 g / cm^3
# Si number density = 20.799026 Si / 1000 Ang^3
#
#
#
# Elastic Constant Matrix: (Units=GPa)
#
#
# Indices 1 2 3 4 5 6 
#
# 1 15.5045 -8.0322 15.1025 35.1092 63.2809 -15.1064
# 2 -8.0322 94.7881 20.6995 57.2562 89.1584 -18.2055
# 3 15.1025 20.6995 106.6553 42.7857 50.2622 16.9412
# 4 35.1092 57.2562 42.7857 -40.2229 -147.5495 31.0555
# 5 63.2809 89.1584 50.2622 -147.5495 -268.0555 55.7170
# 6 -15.1064 -18.2055 16.9412 31.0555 55.7170 7.4736
#
#
#
# Elastic Compliance Matrix: (Units=1/GPa)
#
#
# Indices 1 2 3 4 5 6 
#
# 1 0.055775 0.000591 -0.023409 0.007769 0.012845 0.039196
# 2 0.000591 0.009387 -0.004712 -0.000202 0.003877 0.006677
# 3 -0.023409 -0.004712 0.025927 -0.008092 -0.005971 -0.039421
# 4 0.007769 -0.000202 -0.008092 0.027254 -0.012283 0.011879
# 5 0.012845 0.003877 -0.005971 -0.012283 0.010596 0.020991
# 6 0.039196 0.006677 -0.039421 0.011879 0.020991 0.112805
#
#
# Mechanical properties :
#
#
# Convention : Reuss Voigt Hill
#
# Bulk Modulus (GPa) = 27.75427 30.27639 29.01533
# Shear Modulus (GPa) = 16.19101 -47.54909 -15.67904
#
# Velocity S-wave (km/s) = 2.79310 -4.78653 -2.74858
# Velocity P-wave (km/s) = 4.87595 3.99494 1.97678
#
# Compressibility (1/GPa) = 0.03603049
#
# Stress axis : x y z
#
# Youngs Moduli (GPa) = 17.92903 106.53580 38.56928
#
# Poissons Ratio (x) = -0.06298 0.90285
# Poissons Ratio (y) = -0.01060 0.18174
# Poissons Ratio (z) = 0.41969 0.50200
#
# Static dielectric constant tensor:
#      x y z
#    x 1.755530 0.022320 0.016420 
#    y 0.022320 1.766310 0.019380 
#    z 0.016420 0.019380 1.739220 
# 
# From -- ./inp_files/351973.got.cif
#   From: 2010.05.17/outbox.cif.g08.bks.cpg/sg2_176_cif.got.tgz:351973.got - 2010.06.03 11:33:40.
