data_PCOD9003018
_publ_section_title
;
Structure prediction by ZEFSAII (Michael W. Deem and Ramdas Pophale) SiO2 
 PCOD9003018
Probable space group: P -1
;
_chemical_formula_sum "Si O2"
_cell_formula_units_Z 16
_cell_length_a 24.952016
_cell_length_b 25.691405
_cell_length_c 7.100614
_cell_angle_alpha 134.616785
_cell_angle_beta 132.910092
_cell_angle_gamma 11.534081
_cell_volume 647.003264
_symmetry_space_group_name_H-M "P -1"
_symmetry_group_IT_number 2
_symmetry_cell_setting 'triclinic'
loop_
_space_group_symop_operation_xyz
x,y,z
-x,-y,-z
loop_
_atom_site_type_symbol
_atom_site_label
_atom_site_fract_x
_atom_site_fract_y
_atom_site_fract_z
Si Si1 0.817051 0.638228 0.659785
Si Si2 0.025686 0.140834 0.470129
Si Si3 0.613070 0.309617 0.311840
Si Si4 0.941740 0.372968 0.441317
Si Si5 0.915387 0.239270 0.902493
Si Si6 0.485024 0.600441 0.252879
Si Si7 0.362367 0.172503 0.845638
Si Si8 0.640730 0.038666 0.292517
O O1 0.906520 0.467686 0.434965
O O2 0.079073 0.435466 0.734836
O O3 0.557296 0.915839 0.633860
O O4 0.727310 0.734669 0.911031
O O5 0.759164 0.381674 0.325379
O O6 0.955110 0.202523 0.678311
O O7 0.233864 0.876616 0.250097
O O8 0.172851 0.075922 0.627644
O O9 0.500000 0.500000 0.500000
O O10 0.574306 0.332596 0.498181
O O11 0.402407 0.464374 0.083450
O O12 0.916521 0.990784 0.197061
O O13 0.643631 0.656919 0.539908
O O14 0.173713 0.174322 0.638492
O O15 0.017555 0.218650 0.168245
O O16 0.500000 0.500000 0.000000
O O17 0.544600 0.069113 0.993972
#
# Coordination Sequence:
#
# PCOD9003018 Si02
#       8
#     2   2   2   2   2   2   2   2
#     4   9  16  28  47  73 105 136 169 216 266 304
#     4  10  22  39  55  76 110 144 170 208 269 323
#     4  10  21  37  57  79 103 136 175 214 261 314
#     4  11  21  33  54  83 107 136 182 224 258 306
#     4  10  22  39  55  76 110 144 170 208 269 323
#     4  10  21  37  57  79 103 136 175 214 261 314
#     4   9  16  28  47  73 105 136 169 216 266 304
#     4  11  21  33  54  83 107 136 182 224 258 306
#
# _framework density 24.729395
#
# number of rings (size 3 to 8) (size 9 to 14) (size 15 to 20)
#    0.000    2.000    0.000    6.000    0.000    3.000 
#    0.000    0.000    0.000    1.500    0.000    0.000 
#    0.000    4.000    0.000    0.000    0.000    0.000 
#
# Total GULP energy -89456.627713 kJ/mol
# GULP energy per Si atom -5591.039232 kJ/mol
# Density = 2.467311 g / cm^3
# Si number density = 24.729395 Si / 1000 Ang^3
#
#
#
# Elastic Constant Matrix: (Units=GPa)
#
#
# Indices 1 2 3 4 5 6 
#
# 1 41.1496 8.4897 7.0146 -2.4545 2.2098 -2.7332
# 2 8.4897 130.1223 12.9557 -4.8916 -5.7980 6.4834
# 3 7.0146 12.9557 68.2375 -3.6250 11.6934 7.4588
# 4 -2.4545 -4.8916 -3.6250 42.5052 2.6229 10.0740
# 5 2.2098 -5.7980 11.6934 2.6229 43.6783 2.1648
# 6 -2.7332 6.4834 7.4588 10.0740 2.1648 36.4552
#
#
#
# Elastic Compliance Matrix: (Units=1/GPa)
#
#
# Indices 1 2 3 4 5 6 
#
# 1 0.025288 -0.001566 -0.002383 0.000529 -0.001009 0.002576
# 2 -0.001566 0.008117 -0.001413 0.001017 0.001555 -0.001645
# 3 -0.002383 -0.001413 0.016444 0.002240 -0.004423 -0.003648
# 4 0.000529 0.001017 0.002240 0.025774 -0.001661 -0.007623
# 5 -0.001009 0.001555 -0.004423 -0.001661 0.024458 -0.000441
# 6 0.002576 -0.001645 -0.003648 -0.007623 -0.000441 0.030796
#
#
# Mechanical properties :
#
#
# Convention : Reuss Voigt Hill
#
# Bulk Modulus (GPa) = 25.55893 32.93661 29.24777
# Shear Modulus (GPa) = 32.33277 38.59771 35.46524
#
# Velocity S-wave (km/s) = 3.61981 3.95499 3.79110
# Velocity P-wave (km/s) = 5.27528 5.84838 5.56921
#
# Compressibility (1/GPa) = 0.03912527
#
# Stress axis : x y z
#
# Youngs Moduli (GPa) = 39.54506 123.19124 60.81412
#
# Poissons Ratio (x) = 0.19292 0.14491
# Poissons Ratio (y) = 0.06193 0.08592
# Poissons Ratio (z) = 0.09423 0.17405
#
# Static dielectric constant tensor:
#      x y z
#    x 2.047980 -0.030690 -0.012260 
#    y -0.030690 2.086000 0.014590 
#    z -0.012260 0.014590 1.976500 
# 
# From -- ./inp_files/358035.got.cif
#   From: 2010.05.17/outbox.cif.g08.bks.cpg/sg2_180_cif.got.tgz:358035.got - 2010.06.03 11:33:40.
