data_PCOD9003806
_publ_section_title
;
Structure prediction by ZEFSAII (Michael W. Deem and Ramdas Pophale) SiO2 
 PCOD9003806
Probable space group: P -1
;
_chemical_formula_sum "Si O2"
_cell_formula_units_Z 12
_cell_length_a 8.828326
_cell_length_b 15.830119
_cell_length_c 15.968051
_cell_angle_alpha 151.278589
_cell_angle_beta 45.205846
_cell_angle_gamma 145.613093
_cell_volume 604.155415
_symmetry_space_group_name_H-M "P -1"
_symmetry_group_IT_number 2
_symmetry_cell_setting 'triclinic'
loop_
_space_group_symop_operation_xyz
x,y,z
-x,-y,-z
loop_
_atom_site_type_symbol
_atom_site_label
_atom_site_fract_x
_atom_site_fract_y
_atom_site_fract_z
Si Si1 0.803665 0.075756 0.938983
Si Si2 0.633577 0.433989 0.134153
Si Si3 0.103722 0.356042 0.222915
Si Si4 0.599321 0.600107 0.639624
Si Si5 0.654628 0.273367 0.432105
Si Si6 0.868065 0.166045 0.797331
O O1 0.885981 0.131120 0.858335
O O2 0.791929 0.865121 0.787572
O O3 0.993023 0.275641 0.103101
O O4 0.500000 0.000000 0.000000
O O5 0.330864 0.325354 0.128186
O O6 0.632028 0.455780 0.253995
O O7 0.842373 0.671595 0.216568
O O8 0.729193 0.287545 0.948765
O O9 0.250365 0.612750 0.415078
O O10 0.842772 0.223115 0.270358
O O11 0.500000 0.500000 0.500000
O O12 0.701653 0.471793 0.529786
O O13 0.344584 0.069631 0.368027
#
# Coordination Sequence:
#
# PCOD9003806 Si02
#       6
#     2   2   2   2   2   2
#     4  12  21  39  65  89 119 161 208 248 294 358
#     4  10  24  39  64  90 125 160 202 243 310 359
#     4  10  22  38  61  91 121 159 203 253 292 360
#     4  11  20  36  62  94 115 157 205 248 292 360
#     4  10  21  37  62  91 121 157 203 249 301 353
#     4  11  22  42  64  90 124 163 196 250 305 362
#
# _framework density 19.862439999999999
#
# number of rings (size 3 to 8) (size 9 to 14) (size 15 to 20)
#    0.000    1.333    5.000    0.000    0.000   10.667 
#    0.000    0.000    0.000    3.000    0.000    0.000 
#    0.000    0.000    0.000    0.000    0.000    0.000 
#
# Total GULP energy -66933.330248 kJ/mol
# GULP energy per Si atom -5577.777521 kJ/mol
# Density = 1.981723 g / cm^3
# Si number density = 19.862440 Si / 1000 Ang^3
#
#
#
# Elastic Constant Matrix: (Units=GPa)
#
#
# Indices 1 2 3 4 5 6 
#
# 1 77.0802 36.5379 43.9585 11.9486 17.1497 9.8242
# 2 36.5379 95.2777 33.3791 14.3393 12.2901 -17.7921
# 3 43.9585 33.3791 92.0918 10.4101 27.7456 1.2938
# 4 11.9486 14.3393 10.4101 25.7373 1.5120 -2.3157
# 5 17.1497 12.2901 27.7456 1.5120 58.6279 -7.1640
# 6 9.8242 -17.7921 1.2938 -2.3157 -7.1640 20.2859
#
#
#
# Elastic Compliance Matrix: (Units=1/GPa)
#
#
# Indices 1 2 3 4 5 6 
#
# 1 0.027374 -0.011522 -0.006176 -0.005764 -0.005651 -0.025623
# 2 -0.011522 0.020582 -0.003073 -0.002858 0.003612 0.024777
# 3 -0.006176 -0.003073 0.017001 -0.002231 -0.005920 -0.003134
# 4 -0.005764 -0.002858 -0.002231 0.044439 0.002996 0.006558
# 5 -0.005651 0.003612 -0.005920 0.002996 0.022456 0.014554
# 6 -0.025623 0.024777 -0.003134 0.006558 0.014554 0.089524
#
#
# Mechanical properties :
#
#
# Convention : Reuss Voigt Hill
#
# Bulk Modulus (GPa) = 42.71020 54.68897 48.69958
# Shear Modulus (GPa) = 18.46910 30.96850 24.71880
#
# Velocity S-wave (km/s) = 3.05265 3.95289 3.53157
# Velocity P-wave (km/s) = 5.82877 6.95898 6.41880
#
# Compressibility (1/GPa) = 0.02341361
#
# Stress axis : x y z
#
# Youngs Moduli (GPa) = 36.53083 48.58611 58.82171
#
# Poissons Ratio (x) = 0.55982 0.36329
# Poissons Ratio (y) = 0.42092 0.18078
# Poissons Ratio (z) = 0.22562 0.14932
#
# Static dielectric constant tensor:
#      x y z
#    x 1.736400 0.007570 -0.019730 
#    y 0.007570 1.693640 0.005350 
#    z -0.019730 0.005350 1.771400 
# 
# From -- ./inp_files/151248.got.cif
#   From: 2010.05.17/outbox.cif.g08.bks.cpg/sg2_76_cif.got.tgz:151248.got - 2010.06.03 11:33:40.
