data_PCOD9003520
_publ_section_title
;
Structure prediction by ZEFSAII (Michael W. Deem and Ramdas Pophale) SiO2 
 PCOD9003520
Probable space group: P -1
;
_chemical_formula_sum "Si O2"
_cell_formula_units_Z 16
_cell_length_a 13.021501
_cell_length_b 5.062095
_cell_length_c 24.988849
_cell_angle_alpha 77.055372
_cell_angle_beta 156.306577
_cell_angle_gamma 101.684179
_cell_volume 645.066677
_symmetry_space_group_name_H-M "P -1"
_symmetry_group_IT_number 2
_symmetry_cell_setting 'triclinic'
loop_
_space_group_symop_operation_xyz
x,y,z
-x,-y,-z
loop_
_atom_site_type_symbol
_atom_site_label
_atom_site_fract_x
_atom_site_fract_y
_atom_site_fract_z
Si Si1 0.167926 0.723650 0.042609
Si Si2 0.439232 0.810490 0.553022
Si Si3 0.752587 0.590370 0.146266
Si Si4 0.769902 0.344375 0.705360
Si Si5 0.281108 0.409181 0.702405
Si Si6 0.769249 0.646917 0.446346
Si Si7 0.883152 0.013314 0.271694
Si Si8 0.730555 0.098730 0.799556
O O1 0.416631 0.586833 0.140783
O O2 0.259162 0.892107 0.131187
O O3 0.000000 0.500000 0.000000
O O4 0.956609 0.890469 0.901534
O O5 0.579960 0.594469 0.591675
O O6 0.346123 0.610821 0.565641
O O7 0.177811 0.945623 0.402065
O O8 0.633746 0.054907 0.645187
O O9 0.724714 0.855694 0.157491
O O10 0.975998 0.635811 0.208073
O O11 0.834557 0.332076 0.233240
O O12 0.500000 0.500000 0.000000
O O13 0.817402 0.350623 0.792314
O O14 0.261465 0.388399 0.629954
O O15 0.186430 0.143149 0.700199
O O16 0.069859 0.642648 0.603262
O O17 0.578210 0.896073 0.358109
#
# Coordination Sequence:
#
# PCOD9003520 Si02
#       8
#     2   2   2   2   2   2   2   2
#     4  10  21  37  60  92 128 172 224 269 326 407
#     4  10  22  42  72 104 132 165 222 279 341 407
#     4  12  28  47  67  94 135 178 232 277 332 399
#     4  11  24  41  70  97 130 179 215 284 343 389
#     4   9  19  38  65  93 132 175 209 271 334 397
#     4   8  17  39  63  97 134 165 214 265 336 402
#     4  11  25  47  69  99 132 174 227 283 332 399
#     4   9  21  37  60  89 128 165 220 270 328 400
#
# _framework density 24.803636000000001
#
# number of rings (size 3 to 8) (size 9 to 14) (size 15 to 20)
#    0.000    2.000    0.000    1.875    7.000    4.000 
#    4.500    0.625    0.000    0.000    0.000    0.000 
#    0.000    0.000    0.000    0.000    0.000    0.000 
#
# Total GULP energy -89285.956119 kJ/mol
# GULP energy per Si atom -5580.372257 kJ/mol
# Density = 2.474718 g / cm^3
# Si number density = 24.803636 Si / 1000 Ang^3
#
#
#
# Elastic Constant Matrix: (Units=GPa)
#
#
# Indices 1 2 3 4 5 6 
#
# 1 86.9740 11.2738 34.0957 13.9263 10.4785 12.0927
# 2 11.2738 58.1082 52.7884 -0.4450 7.5323 -11.5946
# 3 34.0957 52.7884 187.6583 -25.0980 42.8616 -3.6654
# 4 13.9263 -0.4450 -25.0980 39.6994 1.1111 -3.2988
# 5 10.4785 7.5323 42.8616 1.1111 43.8580 1.9425
# 6 12.0927 -11.5946 -3.6654 -3.2988 1.9425 29.5393
#
#
#
# Elastic Compliance Matrix: (Units=1/GPa)
#
#
# Indices 1 2 3 4 5 6 
#
# 1 0.015741 -0.001218 -0.004114 -0.008872 0.001070 -0.008494
# 2 -0.001218 0.026374 -0.008374 -0.003914 0.003640 0.009135
# 3 -0.004114 -0.008374 0.011861 0.009240 -0.009472 0.001524
# 4 -0.008872 -0.003914 0.009240 0.034942 -0.007461 0.007635
# 5 0.001070 0.003640 -0.009472 -0.007461 0.031503 -0.003090
# 6 -0.008494 0.009135 0.001524 0.007635 -0.003090 0.042161
#
#
# Mechanical properties :
#
#
# Convention : Reuss Voigt Hill
#
# Bulk Modulus (GPa) = 37.64579 58.78403 48.21491
# Shear Modulus (GPa) = 25.14471 38.25820 31.70145
#
# Velocity S-wave (km/s) = 3.18740 3.93166 3.57893
# Velocity P-wave (km/s) = 5.36251 6.66046 6.04642
#
# Compressibility (1/GPa) = 0.02656340
#
# Stress axis : x y z
#
# Youngs Moduli (GPa) = 63.52779 37.91610 84.31026
#
# Poissons Ratio (x) = 0.04617 0.34689
# Poissons Ratio (y) = 0.07736 0.70603
# Poissons Ratio (z) = 0.26138 0.31752
#
# Static dielectric constant tensor:
#      x y z
#    x 1.821960 -0.111910 0.244430 
#    y -0.111910 2.142500 -0.069330 
#    z 0.244430 -0.069330 1.667160 
# 
# From -- ./inp_files/623328.got.cif
#   From: 2010.05.17/outbox.cif.g08.bks.cpg/sg2_312_cif.got.tgz:623328.got - 2010.06.03 11:33:40.
