data_PCOD9003862
_publ_section_title
;
Structure prediction by ZEFSAII (Michael W. Deem and Ramdas Pophale) SiO2 
 PCOD9003862
Probable space group: P -1
;
_chemical_formula_sum "Si O2"
_cell_formula_units_Z 16
_cell_length_a 9.114828
_cell_length_b 19.430171
_cell_length_c 12.558594
_cell_angle_alpha 38.000543
_cell_angle_beta 77.066467
_cell_angle_gamma 46.846651
_cell_volume 711.802473
_symmetry_space_group_name_H-M "P -1"
_symmetry_group_IT_number 2
_symmetry_cell_setting 'triclinic'
loop_
_space_group_symop_operation_xyz
x,y,z
-x,-y,-z
loop_
_atom_site_type_symbol
_atom_site_label
_atom_site_fract_x
_atom_site_fract_y
_atom_site_fract_z
Si Si1 0.903076 0.315867 0.531862
Si Si2 0.138628 0.095278 0.160675
Si Si3 0.453875 0.117955 0.066207
Si Si4 0.254341 0.424235 0.572912
Si Si5 0.741481 0.601459 0.055403
Si Si6 0.598065 0.498644 0.879936
Si Si7 0.715619 0.209125 0.609412
Si Si8 0.356941 0.295000 0.288775
O O1 0.835376 0.416645 0.532059
O O2 0.720432 0.500231 0.249483
O O3 0.846050 0.219548 0.652944
O O4 0.231625 0.127010 0.682283
O O5 0.239281 0.152403 0.030535
O O6 0.136375 0.000023 0.188202
O O7 0.379854 0.916494 0.428600
O O8 0.838560 0.286225 0.033710
O O9 0.460687 0.213696 0.862921
O O10 0.350338 0.242032 0.040360
O O11 0.410993 0.367441 0.512272
O O12 0.000000 0.500000 0.500000
O O13 0.072490 0.401498 0.213143
O O14 0.576040 0.720682 0.826350
O O15 0.332270 0.696284 0.608854
O O16 0.725777 0.536592 0.848654
O O17 0.500000 0.500000 0.000000
#
# Coordination Sequence:
#
# PCOD9003862 Si02
#       8
#     2   2   2   2   2   2   2   2
#     4  11  24  43  66  96 133 164 216 264 326 381
#     4  11  23  41  66  95 130 170 222 259 314 390
#     4  11  23  41  68  96 126 169 219 266 317 383
#     4  11  25  44  70  95 127 168 215 269 320 381
#     4  10  21  38  63  94 130 166 213 269 318 372
#     4  11  24  42  65  92 135 174 213 262 322 379
#     4  11  26  43  66  96 133 171 210 266 324 381
#     4  10  21  37  62  94 127 170 217 263 317 373
#
# _framework density 22.478147
#
# number of rings (size 3 to 8) (size 9 to 14) (size 15 to 20)
#    0.000    1.250    2.500    2.625    3.500   11.000 
#    0.000    0.000    0.000    0.000    0.000    0.000 
#    0.000    0.000    0.000    0.000    0.000    0.000 
#
# Total GULP energy -89438.412550 kJ/mol
# GULP energy per Si atom -5589.900784 kJ/mol
# Density = 2.242699 g / cm^3
# Si number density = 22.478147 Si / 1000 Ang^3
#
#
#
# Elastic Constant Matrix: (Units=GPa)
#
#
# Indices 1 2 3 4 5 6 
#
# 1 96.8588 21.6971 -3.8995 -16.7557 -20.5707 21.5322
# 2 21.6971 79.0893 14.2375 -11.1554 -26.2001 7.9463
# 3 -3.8995 14.2375 53.9377 -5.1313 -11.1807 5.8375
# 4 -16.7557 -11.1554 -5.1313 31.7908 8.7501 2.2980
# 5 -20.5707 -26.2001 -11.1807 8.7501 21.6569 -12.5627
# 6 21.5322 7.9463 5.8375 2.2980 -12.5627 37.9608
#
#
#
# Elastic Compliance Matrix: (Units=1/GPa)
#
#
# Indices 1 2 3 4 5 6 
#
# 1 0.015249 0.000090 0.004592 0.006266 0.010858 -0.006160
# 2 0.000090 0.021921 -0.000236 -0.000939 0.029981 0.005375
# 3 0.004592 -0.000236 0.022157 0.002258 0.013693 -0.001568
# 4 0.006266 -0.000939 0.002258 0.040385 -0.017206 -0.011844
# 5 0.010858 0.029981 0.013693 -0.017206 0.122457 0.027027
# 6 -0.006160 0.005375 -0.001568 -0.011844 0.027027 0.038614
#
#
# Mechanical properties :
#
#
# Convention : Reuss Voigt Hill
#
# Bulk Modulus (GPa) = 14.65875 32.66176 23.66025
# Shear Modulus (GPa) = 18.20621 31.47175 24.83898
#
# Velocity S-wave (km/s) = 2.84905 3.74586 3.32780
# Velocity P-wave (km/s) = 4.16633 5.76807 5.03135
#
# Compressibility (1/GPa) = 0.06821866
#
# Stress axis : x y z
#
# Youngs Moduli (GPa) = 65.57984 45.61824 45.13194
#
# Poissons Ratio (x) = -0.00410 -0.20726
# Poissons Ratio (y) = -0.00589 0.01066
# Poissons Ratio (z) = -0.30116 0.01078
#
# Static dielectric constant tensor:
#      x y z
#    x 1.850600 0.014210 0.000930 
#    y 0.014210 1.797090 0.045260 
#    z 0.000930 0.045260 1.873910 
# 
# From -- ./inp_files/37922.got.cif
#   From: 2010.05.17/outbox.cif.g08.bks.cpg/sg2_19_cif.got.tgz:37922.got - 2010.06.03 11:33:40.
