data_PCOD9003098
_publ_section_title
;
Structure prediction by ZEFSAII (Michael W. Deem and Ramdas Pophale) SiO2 
 PCOD9003098
Probable space group: P -1
;
_chemical_formula_sum "Si O2"
_cell_formula_units_Z 16
_cell_length_a 12.154442
_cell_length_b 5.541585
_cell_length_c 22.435888
_cell_angle_alpha 65.809950
_cell_angle_beta 144.892219
_cell_angle_gamma 99.268107
_cell_volume 747.820603
_symmetry_space_group_name_H-M "P -1"
_symmetry_group_IT_number 2
_symmetry_cell_setting 'triclinic'
loop_
_space_group_symop_operation_xyz
x,y,z
-x,-y,-z
loop_
_atom_site_type_symbol
_atom_site_label
_atom_site_fract_x
_atom_site_fract_y
_atom_site_fract_z
Si Si1 0.941975 0.704172 0.669872
Si Si2 0.623518 0.664922 0.458904
Si Si3 0.717789 0.073713 0.629000
Si Si4 0.940479 0.625496 0.895167
Si Si5 0.354270 0.786873 0.876066
Si Si6 0.872071 0.924816 0.143265
Si Si7 0.703556 0.860739 0.949822
Si Si8 0.300179 0.789815 0.206695
O O1 0.835987 0.719596 0.557131
O O2 0.135613 0.805223 0.749901
O O3 0.028637 0.401584 0.767763
O O4 0.753646 0.851241 0.615375
O O5 0.670795 0.364837 0.542893
O O6 0.447974 0.881792 0.398685
O O7 0.519635 0.674553 0.347938
O O8 0.940727 0.968505 0.769076
O O9 0.790472 0.465535 0.816556
O O10 0.835280 0.952966 0.837029
O O11 0.000000 0.500000 0.000000
O O12 0.150659 0.456450 0.969374
O O13 0.485987 0.859252 0.875578
O O14 0.293267 0.978865 0.888040
O O15 0.500000 0.500000 0.000000
O O16 0.787997 0.968324 0.035359
O O17 0.695719 0.063621 0.870098
#
# Coordination Sequence:
#
# PCOD9003098 Si02
#       8
#     2   2   2   2   2   2   2   2
#     4  10  21  38  58  85 125 155 208 271 310 371
#     4  10  21  37  61  90 122 165 213 257 318 386
#     4   9  20  36  62  87 119 162 208 261 325 370
#     4  10  23  42  62  95 133 169 209 257 316 388
#     4  11  23  38  61  92 122 164 215 270 316 378
#     4  10  21  37  57  92 120 157 206 268 319 374
#     4  11  22  39  63  91 127 167 207 262 329 380
#     4  11  25  42  65  98 134 171 209 262 321 397
#
# _framework density 21.395503000000001
#
# number of rings (size 3 to 8) (size 9 to 14) (size 15 to 20)
#    0.000    1.750    1.250    3.000    3.500    3.000 
#    0.000    0.625    0.000    6.750    0.000    0.000 
#    0.000    0.000    0.000    0.000    0.000    0.000 
#
# Total GULP energy -89147.404549 kJ/mol
# GULP energy per Si atom -5571.712784 kJ/mol
# Density = 2.134681 g / cm^3
# Si number density = 21.395503 Si / 1000 Ang^3
#
#
#
# Elastic Constant Matrix: (Units=GPa)
#
#
# Indices 1 2 3 4 5 6 
#
# 1 100.3286 24.1400 24.2304 9.7167 5.4107 -14.6202
# 2 24.1400 86.5557 26.4637 12.8137 6.9928 -19.0924
# 3 24.2304 26.4637 126.0189 36.0631 -1.3977 -7.6309
# 4 9.7167 12.8137 36.0631 49.2705 -4.2626 4.6419
# 5 5.4107 6.9928 -1.3977 -4.2626 22.1191 4.9831
# 6 -14.6202 -19.0924 -7.6309 4.6419 4.9831 22.5564
#
#
#
# Elastic Compliance Matrix: (Units=1/GPa)
#
#
# Indices 1 2 3 4 5 6 
#
# 1 0.012194 -0.000137 -0.000937 -0.003057 -0.005696 0.009358
# 2 -0.000137 0.017832 -0.000784 -0.006752 -0.011143 0.018590
# 3 -0.000937 -0.000784 0.010840 -0.008076 -0.001377 0.004362
# 4 -0.003057 -0.006752 -0.008076 0.031545 0.012906 -0.019771
# 5 -0.005696 -0.011143 -0.001377 0.012906 0.059128 -0.029307
# 6 0.009358 0.018590 0.004362 -0.019771 -0.029307 0.078153
#
#
# Mechanical properties :
#
#
# Convention : Reuss Voigt Hill
#
# Bulk Modulus (GPa) = 26.91919 51.39681 39.15800
# Shear Modulus (GPa) = 22.14437 34.66047 28.40242
#
# Velocity S-wave (km/s) = 3.22063 4.02927 3.64743
# Velocity P-wave (km/s) = 5.14189 6.76174 6.00667
#
# Compressibility (1/GPa) = 0.03714822
#
# Stress axis : x y z
#
# Youngs Moduli (GPa) = 82.01067 56.08039 92.25035
#
# Poissons Ratio (x) = 0.00770 0.08647
# Poissons Ratio (y) = 0.01126 0.07231
# Poissons Ratio (z) = 0.07687 0.04396
#
# Static dielectric constant tensor:
#      x y z
#    x 2.070370 0.163950 0.255730 
#    y 0.163950 1.943850 0.099490 
#    z 0.255730 0.099490 2.205610 
# 
# From -- ./inp_files/592479.got.cif
#   From: 2010.05.17/outbox.cif.g08.bks.cpg/sg2_297_cif.got.tgz:592479.got - 2010.06.03 11:33:40.
