data_PCOD9003129
_publ_section_title
;
Structure prediction by ZEFSAII (Michael W. Deem and Ramdas Pophale) SiO2 
 PCOD9003129
Probable space group: P -1
;
_chemical_formula_sum "Si O2"
_cell_formula_units_Z 16
_cell_length_a 8.960489
_cell_length_b 6.011279
_cell_length_c 22.598961
_cell_angle_alpha 69.280487
_cell_angle_beta 123.048757
_cell_angle_gamma 135.852018
_cell_volume 709.200979
_symmetry_space_group_name_H-M "P -1"
_symmetry_group_IT_number 2
_symmetry_cell_setting 'triclinic'
loop_
_space_group_symop_operation_xyz
x,y,z
-x,-y,-z
loop_
_atom_site_type_symbol
_atom_site_label
_atom_site_fract_x
_atom_site_fract_y
_atom_site_fract_z
Si Si1 0.176868 0.296485 0.896127
Si Si2 0.696889 0.488059 0.522592
Si Si3 0.635827 0.979340 0.980253
Si Si4 0.509615 0.140689 0.395586
Si Si5 0.756178 0.249752 0.857474
Si Si6 0.193823 0.867585 0.639380
Si Si7 0.706813 0.446340 0.227675
Si Si8 0.561198 0.512727 0.731958
O O1 0.433234 0.636853 0.937419
O O2 0.167447 0.307545 0.822298
O O3 0.976146 0.283922 0.882082
O O4 0.175787 0.031833 0.947900
O O5 0.500000 0.500000 0.500000
O O6 0.664328 0.415802 0.452750
O O7 0.959851 0.791226 0.572790
O O8 0.642866 0.187918 0.570772
O O9 0.739489 0.235492 0.926347
O O10 0.500000 0.000000 0.000000
O O11 0.680764 0.153097 0.386367
O O12 0.360387 0.194286 0.318729
O O13 0.753678 0.504732 0.801926
O O14 0.517452 0.905033 0.813873
O O15 0.135981 0.609606 0.699126
O O16 0.385126 0.207364 0.680115
O O17 0.594720 0.525432 0.243693
#
# Coordination Sequence:
#
# PCOD9003129 Si02
#       8
#     2   2   2   2   2   2   2   2
#     4  10  21  37  58  84 119 155 194 243 291 345
#     4  11  24  40  62  90 119 154 200 245 298 360
#     4  10  21  37  58  87 119 154 197 241 290 347
#     4  10  23  41  60  87 120 156 196 245 298 359
#     4  10  21  38  59  87 118 154 198 243 293 349
#     4  10  22  41  61  85 120 157 195 245 300 352
#     4   9  21  38  56  83 117 154 195 240 293 351
#     4  10  21  40  63  85 118 157 199 246 297 355
#
# _framework density 22.560599
#
# number of rings (size 3 to 8) (size 9 to 14) (size 15 to 20)
#    0.000    2.000    0.000    2.250    0.000   11.500 
#    0.000    6.250    0.000    0.000    0.000    0.000 
#    0.000    0.000    0.000    0.000    0.000    0.000 
#
# Total GULP energy -89485.612970 kJ/mol
# GULP energy per Si atom -5592.850811 kJ/mol
# Density = 2.250925 g / cm^3
# Si number density = 22.560599 Si / 1000 Ang^3
#
#
#
# Elastic Constant Matrix: (Units=GPa)
#
#
# Indices 1 2 3 4 5 6 
#
# 1 83.0477 9.3672 66.3313 -20.8828 -1.9774 -20.8781
# 2 9.3672 57.6154 41.2653 -15.3218 0.6313 -3.5880
# 3 66.3313 41.2653 168.3320 -35.8268 -5.1218 -2.1112
# 4 -20.8828 -15.3218 -35.8268 41.7359 -8.2013 0.6658
# 5 -1.9774 0.6313 -5.1218 -8.2013 51.6848 3.3186
# 6 -20.8781 -3.5880 -2.1112 0.6658 3.3186 25.7377
#
#
#
# Elastic Compliance Matrix: (Units=1/GPa)
#
#
# Indices 1 2 3 4 5 6 
#
# 1 0.026621 0.006124 -0.010420 0.006184 -0.000488 0.021496
# 2 0.006124 0.023203 -0.006841 0.005524 -0.000335 0.007541
# 3 -0.010420 -0.006841 0.012414 0.003469 0.002027 -0.008739
# 4 0.006184 0.005524 0.003469 0.033063 0.005470 0.004511
# 5 -0.000488 -0.000335 0.002027 0.005470 0.020600 -0.003074
# 6 0.021496 0.007541 -0.008739 0.004511 -0.003074 0.056905
#
#
# Mechanical properties :
#
#
# Convention : Reuss Voigt Hill
#
# Bulk Modulus (GPa) = 25.02330 60.32474 42.67402
# Shear Modulus (GPa) = 23.99219 36.63377 30.31298
#
# Velocity S-wave (km/s) = 3.26460 4.03400 3.66953
# Velocity P-wave (km/s) = 5.03248 6.96381 6.07538
#
# Compressibility (1/GPa) = 0.03996276
#
# Stress axis : x y z
#
# Youngs Moduli (GPa) = 37.56449 43.09841 80.55376
#
# Poissons Ratio (x) = -0.26392 0.83938
# Poissons Ratio (y) = -0.23003 0.55107
# Poissons Ratio (z) = 0.39143 0.29484
#
# Static dielectric constant tensor:
#      x y z
#    x 1.755930 -0.004650 0.009480 
#    y -0.004650 1.858590 -0.019260 
#    z 0.009480 -0.019260 1.852270 
# 
# From -- ./inp_files/10564.got.cif
#   From: 2010.05.17/outbox.cif.g08.bks.cpg/sg2_6_cif.got.tgz:10564.got - 2010.06.03 11:33:40.
