data_PCOD9003915
_publ_section_title
;
Structure prediction by ZEFSAII (Michael W. Deem and Ramdas Pophale) SiO2 
 PCOD9003915
Probable space group: P -1
;
_chemical_formula_sum "Si O2"
_cell_formula_units_Z 16
_cell_length_a 12.002735
_cell_length_b 6.300877
_cell_length_c 12.299496
_cell_angle_alpha 100.813932
_cell_angle_beta 99.004303
_cell_angle_gamma 53.497945
_cell_volume 733.247583
_symmetry_space_group_name_H-M "P -1"
_symmetry_group_IT_number 2
_symmetry_cell_setting 'triclinic'
loop_
_space_group_symop_operation_xyz
x,y,z
-x,-y,-z
loop_
_atom_site_type_symbol
_atom_site_label
_atom_site_fract_x
_atom_site_fract_y
_atom_site_fract_z
Si Si1 0.775887 0.539882 0.755385
Si Si2 0.872146 0.833865 0.413291
Si Si3 0.566109 0.710118 0.934110
Si Si4 0.591170 0.609015 0.552157
Si Si5 0.883299 0.756195 0.646686
Si Si6 0.053491 0.979261 0.749272
Si Si7 0.345279 0.601540 0.860333
Si Si8 0.630663 0.790221 0.349485
O O1 0.678793 0.640169 0.854112
O O2 0.710541 0.454074 0.645847
O O3 0.780484 0.769469 0.720147
O O4 0.931450 0.287538 0.783747
O O5 0.826474 0.906794 0.538023
O O6 0.885782 0.031210 0.362285
O O7 0.764171 0.785934 0.341296
O O8 0.022293 0.554143 0.403370
O O9 0.444356 0.695863 0.865792
O O10 0.634307 0.501795 0.023728
O O11 0.500000 0.000000 0.000000
O O12 0.500000 0.500000 0.500000
O O13 0.649566 0.641367 0.451756
O O14 0.491188 0.903525 0.617198
O O15 0.979605 0.831053 0.719897
O O16 0.185452 0.834653 0.833474
O O17 0.391200 0.358920 0.762420
#
# Coordination Sequence:
#
# PCOD9003915 Si02
#       8
#     2   2   2   2   2   2   2   2
#     4  11  25  44  66 104 136 182 227 287 347 406
#     4  10  21  37  62  99 136 188 220 267 331 407
#     4  11  27  50  77  96 134 181 234 292 351 412
#     4  11  25  39  63 102 141 189 227 281 341 407
#     4  10  21  40  62  98 146 179 224 270 335 414
#     4  11  25  39  71  99 141 179 225 284 345 414
#     4  11  26  47  72 106 129 181 237 289 345 414
#     4  11  23  40  66  97 141 176 234 283 329 412
#
# _framework density 21.820734999999999
#
# number of rings (size 3 to 8) (size 9 to 14) (size 15 to 20)
#    0.000    1.250    2.500    1.875    7.000    3.500 
#    0.000    1.250    0.000    0.000    0.000    0.000 
#    0.000    0.000    0.000    0.000    0.000    0.000 
#
# Total GULP energy -89518.428480 kJ/mol
# GULP energy per Si atom -5594.901780 kJ/mol
# Density = 2.177107 g / cm^3
# Si number density = 21.820735 Si / 1000 Ang^3
#
#
#
# Elastic Constant Matrix: (Units=GPa)
#
#
# Indices 1 2 3 4 5 6 
#
# 1 165.3564 52.6197 72.8610 1.3519 -6.7018 17.0186
# 2 52.6197 75.6710 34.9318 7.1834 1.8178 -2.0398
# 3 72.8610 34.9318 101.0262 0.6720 -4.2739 4.6377
# 4 1.3519 7.1834 0.6720 32.5714 3.8425 6.8286
# 5 -6.7018 1.8178 -4.2739 3.8425 44.5163 -12.8475
# 6 17.0186 -2.0398 4.6377 6.8286 -12.8475 16.8618
#
#
#
# Elastic Compliance Matrix: (Units=1/GPa)
#
#
# Indices 1 2 3 4 5 6 
#
# 1 0.012278 -0.006575 -0.006020 0.004888 -0.003567 -0.016229
# 2 -0.006575 0.020111 -0.002732 -0.007636 0.002964 0.015171
# 3 -0.006020 -0.002732 0.015120 -0.000224 0.001488 0.002811
# 4 0.004888 -0.007636 -0.000224 0.039908 -0.011223 -0.030508
# 5 -0.003567 0.002964 0.001488 -0.011223 0.032372 0.032759
# 6 -0.016229 0.015171 0.002811 -0.030508 0.032759 0.114062
#
#
# Mechanical properties :
#
#
# Convention : Reuss Voigt Hill
#
# Bulk Modulus (GPa) = 59.32905 73.65316 66.49111
# Shear Modulus (GPa) = 18.51003 30.89931 24.70467
#
# Velocity S-wave (km/s) = 2.91568 3.76713 3.36842
# Velocity P-wave (km/s) = 6.21154 7.26283 6.75766
#
# Compressibility (1/GPa) = 0.01685515
#
# Stress axis : x y z
#
# Youngs Moduli (GPa) = 81.44549 49.72427 66.13593
#
# Poissons Ratio (x) = 0.32692 0.39815
# Poissons Ratio (y) = 0.53547 0.18071
# Poissons Ratio (z) = 0.49032 0.13586
#
# Static dielectric constant tensor:
#      x y z
#    x 1.788570 -0.013660 0.000430 
#    y -0.013660 1.836460 -0.030550 
#    z 0.000430 -0.030550 1.780480 
# 
# From -- ./inp_files/410789.got.cif
#   From: 2010.05.17/outbox.cif.g08.bks.cpg/sg2_206_cif.got.tgz:410789.got - 2010.06.03 11:33:40.
