data_PCOD9003529
_publ_section_title
;
Structure prediction by ZEFSAII (Michael W. Deem and Ramdas Pophale) SiO2 
 PCOD9003529
Probable space group: P -1
;
_chemical_formula_sum "Si O2"
_cell_formula_units_Z 14
_cell_length_a 14.824370
_cell_length_b 10.380751
_cell_length_c 7.814124
_cell_angle_alpha 97.229125
_cell_angle_beta 143.091792
_cell_angle_gamma 58.508592
_cell_volume 505.990167
_symmetry_space_group_name_H-M "P -1"
_symmetry_group_IT_number 2
_symmetry_cell_setting 'triclinic'
loop_
_space_group_symop_operation_xyz
x,y,z
-x,-y,-z
loop_
_atom_site_type_symbol
_atom_site_label
_atom_site_fract_x
_atom_site_fract_y
_atom_site_fract_z
Si Si1 0.429428 0.346768 0.816575
Si Si2 0.997079 0.711837 0.797147
Si Si3 0.334490 0.334940 0.062593
Si Si4 0.039244 0.752842 0.176240
Si Si5 0.158108 0.786035 0.674320
Si Si6 0.239102 0.806388 0.165275
Si Si7 0.361894 0.037371 0.959230
O O1 0.256890 0.524312 0.471649
O O2 0.340381 0.360929 0.871063
O O3 0.645042 0.299216 0.166490
O O4 0.531587 0.158603 0.846321
O O5 0.854413 0.861059 0.458622
O O6 0.131857 0.518692 0.882291
O O7 0.885514 0.757882 0.817756
O O8 0.134518 0.748353 0.100079
O O9 0.542849 0.277057 0.443080
O O10 0.345345 0.173957 0.072078
O O11 0.032988 0.752043 0.379325
O O12 0.921023 0.974052 0.040240
O O13 0.268279 0.711754 0.014046
O O14 0.000000 0.000000 0.500000
O O15 0.500000 0.000000 0.000000
#
# Coordination Sequence:
#
# PCOD9003529 Si02
#       7
#     2   2   2   2   2   2   2
#     4  11  22  40  63  92 130 170 211 265 321 378
#     4  12  23  42  68  97 128 172 217 262 319 388
#     4  11  24  44  67  96 129 172 217 263 319 388
#     4  11  22  37  62  96 129 163 208 265 319 374
#     4  10  21  37  60  93 129 165 208 265 321 370
#     4  11  23  42  67  99 130 169 215 264 321 387
#     4  10  23  44  66  91 129 175 217 262 318 383
#
# _framework density 27.668520999999998
#
# number of rings (size 3 to 8) (size 9 to 14) (size 15 to 20)
#    0.000    1.143    0.000    7.714    0.000    1.143 
#    0.000    9.286    0.000    3.429    0.000    0.000 
#    0.000    0.000    0.000    0.000    0.000    0.000 
#
# Total GULP energy -78092.444596 kJ/mol
# GULP energy per Si atom -5578.031757 kJ/mol
# Density = 2.760555 g / cm^3
# Si number density = 27.668521 Si / 1000 Ang^3
#
#
#
# Elastic Constant Matrix: (Units=GPa)
#
#
# Indices 1 2 3 4 5 6 
#
# 1 78.1152 50.2449 30.7552 6.4451 -18.9603 -13.3484
# 2 50.2449 225.4704 70.5298 -17.6529 -28.5553 -19.1322
# 3 30.7552 70.5298 122.8245 -8.2629 -17.6798 20.7868
# 4 6.4451 -17.6529 -8.2629 48.0521 6.8084 -12.1220
# 5 -18.9603 -28.5553 -17.6798 6.8084 45.5799 10.1713
# 6 -13.3484 -19.1322 20.7868 -12.1220 10.1713 48.4613
#
#
#
# Elastic Compliance Matrix: (Units=1/GPa)
#
#
# Indices 1 2 3 4 5 6 
#
# 1 0.017509 -0.002303 -0.003278 -0.003471 0.004296 0.003550
# 2 -0.002303 0.006816 -0.003817 0.003221 0.000363 0.004423
# 3 -0.003278 -0.003817 0.013125 -0.001534 0.003615 -0.009182
# 4 -0.003471 0.003221 -0.001534 0.025129 -0.005660 0.008447
# 5 0.004296 0.000363 0.003615 -0.005660 0.027873 -0.007490
# 6 0.003550 0.004423 -0.009182 0.008447 -0.007490 0.030982
#
#
# Mechanical properties :
#
#
# Convention : Reuss Voigt Hill
#
# Bulk Modulus (GPa) = 53.60477 81.05222 67.32849
# Shear Modulus (GPa) = 34.14208 46.74401 40.44304
#
# Velocity S-wave (km/s) = 3.51660 4.11473 3.82736
# Velocity P-wave (km/s) = 5.99205 7.20640 6.62710
#
# Compressibility (1/GPa) = 0.01865505
#
# Stress axis : x y z
#
# Youngs Moduli (GPa) = 57.11333 146.71738 76.18965
#
# Poissons Ratio (x) = 0.33790 0.24973
# Poissons Ratio (y) = 0.13154 0.29080
# Poissons Ratio (z) = 0.18720 0.55998
#
# Static dielectric constant tensor:
#      x y z
#    x 2.435450 0.001270 0.049010 
#    y 0.001270 2.131960 0.021180 
#    z 0.049010 0.021180 2.311600 
# 
# From -- ./inp_files/333508.got.cif
#   From: 2010.05.17/outbox.cif.g08.bks.cpg/sg2_167_cif.got.tgz:333508.got - 2010.06.03 11:33:40.
