data_PCOD9003152
_publ_section_title
;
Structure prediction by ZEFSAII (Michael W. Deem and Ramdas Pophale) SiO2 
 PCOD9003152
Probable space group: P -1
;
_chemical_formula_sum "Si O2"
_cell_formula_units_Z 16
_cell_length_a 6.839871
_cell_length_b 18.937979
_cell_length_c 19.579374
_cell_angle_alpha 22.044224
_cell_angle_beta 69.431291
_cell_angle_gamma 80.731460
_cell_volume 787.406266
_symmetry_space_group_name_H-M "P -1"
_symmetry_group_IT_number 2
_symmetry_cell_setting 'triclinic'
loop_
_space_group_symop_operation_xyz
x,y,z
-x,-y,-z
loop_
_atom_site_type_symbol
_atom_site_label
_atom_site_fract_x
_atom_site_fract_y
_atom_site_fract_z
Si Si1 0.862419 0.312532 0.765764
Si Si2 0.861066 0.430547 0.236631
Si Si3 0.673478 0.814867 0.479929
Si Si4 0.791429 0.054136 0.493616
Si Si5 0.060661 0.661595 0.544275
Si Si6 0.267861 0.818393 0.760000
Si Si7 0.403611 0.084113 0.747935
Si Si8 0.319167 0.435451 0.517615
O O1 0.997892 0.517011 0.614739
O O2 0.676453 0.361100 0.703025
O O3 0.054095 0.307524 0.695003
O O4 0.748199 0.109792 0.010117
O O5 0.590186 0.382442 0.303730
O O6 0.850089 0.208133 0.413131
O O7 0.927957 0.465947 0.276024
O O8 0.055786 0.617223 0.000870
O O9 0.865993 0.737352 0.513527
O O10 0.664702 0.944923 0.297285
O O11 0.728874 0.969735 0.398750
O O12 0.765288 0.180446 0.318019
O O13 0.531262 0.852583 0.713412
O O14 0.000000 0.000000 0.500000
O O15 0.322738 0.855795 0.331940
O O16 0.375317 0.288520 0.591920
O O17 0.500000 0.500000 0.500000
#
# Coordination Sequence:
#
# PCOD9003152 Si02
#       8
#     2   2   2   2   2   2   2   2
#     4  11  24  40  64  89 118 161 199 245 309 356
#     4  10  22  37  59  86 119 155 197 245 293 353
#     4  10  22  39  59  85 122 154 197 252 287 353
#     4  10  21  37  58  86 120 151 197 245 289 354
#     4  11  22  40  60  89 119 155 205 244 296 363
#     4  10  21  38  58  86 117 158 195 239 302 344
#     4  11  23  41  62  89 121 158 200 250 302 354
#     4  11  23  43  62  89 124 151 202 253 294 368
#
# _framework density 20.319879
#
# number of rings (size 3 to 8) (size 9 to 14) (size 15 to 20)
#    0.000    1.500    2.500    2.250    0.000    4.000 
#    0.000    0.000    0.000    0.000    0.000    0.000 
#    0.000    0.000    0.000    0.000    0.000    0.000 
#
# Total GULP energy -89405.063575 kJ/mol
# GULP energy per Si atom -5587.816473 kJ/mol
# Density = 2.027363 g / cm^3
# Si number density = 20.319879 Si / 1000 Ang^3
#
#
#
# Elastic Constant Matrix: (Units=GPa)
#
#
# Indices 1 2 3 4 5 6 
#
# 1 94.5438 13.8763 21.4290 -2.3890 -16.7830 -21.6954
# 2 13.8763 69.7846 -14.3250 6.5442 -5.6323 -4.9263
# 3 21.4290 -14.3250 82.3245 27.7568 -13.2589 -7.6502
# 4 -2.3890 6.5442 27.7568 26.4300 -2.7512 -1.2333
# 5 -16.7830 -5.6323 -13.2589 -2.7512 16.3733 14.3835
# 6 -21.6954 -4.9263 -7.6502 -1.2333 14.3835 48.1418
#
#
#
# Elastic Compliance Matrix: (Units=1/GPa)
#
#
# Indices 1 2 3 4 5 6 
#
# 1 0.015116 -0.004577 -0.006821 0.010571 0.007205 0.003378
# 2 -0.004577 0.019973 0.011857 -0.016803 0.010435 -0.001683
# 3 -0.006821 0.011857 0.029851 -0.033107 0.018859 -0.003600
# 4 0.010571 -0.016803 -0.033107 0.076651 -0.011731 0.003252
# 5 0.007205 0.010435 0.018859 -0.011731 0.107373 -0.025069
# 6 0.003378 -0.001683 -0.003600 0.003252 -0.025069 0.029123
#
#
# Mechanical properties :
#
#
# Convention : Reuss Voigt Hill
#
# Bulk Modulus (GPa) = 15.18445 32.06818 23.62632
# Shear Modulus (GPa) = 16.71554 33.23386 24.97470
#
# Velocity S-wave (km/s) = 2.87125 4.04856 3.50962
# Velocity P-wave (km/s) = 4.29895 6.13762 5.29865
#
# Compressibility (1/GPa) = 0.06585683
#
# Stress axis : x y z
#
# Youngs Moduli (GPa) = 66.15404 50.06762 33.49989
#
# Poissons Ratio (x) = 0.22917 0.22850
# Poissons Ratio (y) = 0.30280 -0.39719
# Poissons Ratio (z) = 0.45123 -0.59363
#
# Static dielectric constant tensor:
#      x y z
#    x 1.723380 0.007680 -0.008470 
#    y 0.007680 1.706660 0.013340 
#    z -0.008470 0.013340 1.695440 
# 
# From -- ./inp_files/12746.got.cif
#   From: 2010.05.17/outbox.cif.g08.bks.cpg/sg2_7_cif.got.tgz:12746.got - 2010.06.03 11:33:40.
