data_PCOD9003290
_publ_section_title
;
Structure prediction by ZEFSAII (Michael W. Deem and Ramdas Pophale) SiO2 
 PCOD9003290
Probable space group: P -1
;
_chemical_formula_sum "Si O2"
_cell_formula_units_Z 14
_cell_length_a 13.277092
_cell_length_b 14.684287
_cell_length_c 8.295593
_cell_angle_alpha 86.905741
_cell_angle_beta 122.407463
_cell_angle_gamma 140.427878
_cell_volume 647.521119
_symmetry_space_group_name_H-M "P -1"
_symmetry_group_IT_number 2
_symmetry_cell_setting 'triclinic'
loop_
_space_group_symop_operation_xyz
x,y,z
-x,-y,-z
loop_
_atom_site_type_symbol
_atom_site_label
_atom_site_fract_x
_atom_site_fract_y
_atom_site_fract_z
Si Si1 0.893318 0.982824 0.257231
Si Si2 0.732525 0.050511 0.717199
Si Si3 0.764799 0.631931 0.392514
Si Si4 0.145709 0.741686 0.725283
Si Si5 0.810228 0.745922 0.058303
Si Si6 0.528650 0.879080 0.917983
Si Si7 0.223886 0.721846 0.152476
O O1 0.890685 0.905522 0.125617
O O2 0.613172 0.836000 0.052389
O O3 0.000000 0.000000 0.500000
O O4 0.069018 0.189257 0.370497
O O5 0.790718 0.198054 0.754670
O O6 0.986349 0.170169 0.878684
O O7 0.629283 0.956339 0.815023
O O8 0.504617 0.874815 0.415851
O O9 0.800984 0.693864 0.234981
O O10 0.871320 0.600699 0.488071
O O11 0.479810 0.449088 0.221684
O O12 0.249098 0.732500 0.698291
O O13 0.190244 0.733868 0.941780
O O14 0.321159 0.950386 0.850292
O O15 0.000000 0.500000 0.000000
#
# Coordination Sequence:
#
# PCOD9003290 Si02
#       7
#     2   2   2   2   2   2   2
#     4   9  19  35  58  84 119 155 200 239 290 358
#     4  10  23  39  62  88 126 157 194 252 305 349
#     4   9  20  38  59  87 118 158 205 240 293 360
#     4   9  19  37  66  85 119 159 199 251 295 357
#     4  10  21  37  59  87 122 159 195 247 297 353
#     4   9  19  37  61  92 117 158 202 243 304 353
#     4  10  23  41  59  93 122 157 199 245 308 357
#
# _framework density 21.620916999999999
#
# number of rings (size 3 to 8) (size 9 to 14) (size 15 to 20)
#    0.000    2.571    0.000    0.000   12.000    2.857 
#    5.143    7.857    0.000    0.000    0.000    0.000 
#    0.000    0.000    0.000    0.000    0.000    0.000 
#
# Total GULP energy -78068.637722 kJ/mol
# GULP energy per Si atom -5576.331266 kJ/mol
# Density = 2.157171 g / cm^3
# Si number density = 21.620917 Si / 1000 Ang^3
#
#
#
# Elastic Constant Matrix: (Units=GPa)
#
#
# Indices 1 2 3 4 5 6 
#
# 1 157.5156 45.4199 60.4682 13.8232 50.8722 5.6172
# 2 45.4199 58.1061 48.1860 8.1208 11.1738 -0.0060
# 3 60.4682 48.1860 118.3162 13.8777 32.7400 0.3940
# 4 13.8232 8.1208 13.8777 34.3266 -4.2183 7.9934
# 5 50.8722 11.1738 32.7400 -4.2183 41.9575 0.2502
# 6 5.6172 -0.0060 0.3940 7.9934 0.2502 18.3290
#
#
#
# Elastic Compliance Matrix: (Units=1/GPa)
#
#
# Indices 1 2 3 4 5 6 
#
# 1 0.014119 -0.008184 0.001439 -0.006029 -0.016660 -0.001504
# 2 -0.008184 0.030928 -0.011619 0.001565 0.010899 0.001937
# 3 0.001439 -0.011619 0.016613 -0.006578 -0.012289 0.002234
# 4 -0.006029 0.001565 -0.006578 0.039415 0.016080 -0.015419
# 5 -0.016660 0.010899 -0.012289 0.016080 0.052350 -0.002354
# 6 -0.001504 0.001937 0.002234 -0.015419 -0.002354 0.061728
#
#
# Mechanical properties :
#
#
# Convention : Reuss Voigt Hill
#
# Bulk Modulus (GPa) = 40.10817 71.34290 55.72553
# Shear Modulus (GPa) = 19.21649 30.91354 25.06502
#
# Velocity S-wave (km/s) = 2.98449 3.78537 3.40854
# Velocity P-wave (km/s) = 5.51971 7.22317 6.42812
#
# Compressibility (1/GPa) = 0.02493258
#
# Stress axis : x y z
#
# Youngs Moduli (GPa) = 70.82566 32.33276 60.19395
#
# Poissons Ratio (x) = 0.26461 -0.08664
# Poissons Ratio (y) = 0.57964 0.69940
# Poissons Ratio (z) = -0.10194 0.37568
#
# Static dielectric constant tensor:
#      x y z
#    x 1.813250 -0.019670 0.034310 
#    y -0.019670 1.825890 0.032440 
#    z 0.034310 0.032440 1.874010 
# 
# From -- ./inp_files/270508.got.cif
#   From: 2010.05.17/outbox.cif.g08.bks.cpg/sg2_136_cif.got.tgz:270508.got - 2010.06.03 11:33:40.
