data_PCOD9003601
_publ_section_title
;
Structure prediction by ZEFSAII (Michael W. Deem and Ramdas Pophale) SiO2 
 PCOD9003601
Probable space group: P -1
;
_chemical_formula_sum "Si O2"
_cell_formula_units_Z 16
_cell_length_a 7.829399
_cell_length_b 15.722611
_cell_length_c 7.984884
_cell_angle_alpha 105.166302
_cell_angle_beta 57.262092
_cell_angle_gamma 64.291219
_cell_volume 563.074457
_symmetry_space_group_name_H-M "P -1"
_symmetry_group_IT_number 2
_symmetry_cell_setting 'triclinic'
loop_
_space_group_symop_operation_xyz
x,y,z
-x,-y,-z
loop_
_atom_site_type_symbol
_atom_site_label
_atom_site_fract_x
_atom_site_fract_y
_atom_site_fract_z
Si Si1 0.694193 0.669773 0.960791
Si Si2 0.171024 0.064762 0.594929
Si Si3 0.397338 0.144806 0.339058
Si Si4 0.647901 0.234497 0.160853
Si Si5 0.820948 0.439588 0.850897
Si Si6 0.104096 0.209865 0.197145
Si Si7 0.484161 0.428553 0.604416
Si Si8 0.158626 0.864180 0.549230
O O1 0.862183 0.524707 0.793109
O O2 0.473033 0.729239 0.264318
O O3 0.531468 0.718136 0.892382
O O4 0.811957 0.734670 0.940603
O O5 0.422195 0.054837 0.404524
O O6 0.016919 0.101814 0.512586
O O7 0.204055 0.954461 0.577540
O O8 0.952796 0.175214 0.900563
O O9 0.646036 0.139410 0.196639
O O10 0.350999 0.132908 0.164792
O O11 0.095148 0.290643 0.611604
O O12 0.498218 0.340842 0.431068
O O13 0.780996 0.473449 0.085581
O O14 0.500000 0.500000 0.000000
O O15 0.791547 0.340966 0.491356
O O16 0.008972 0.135498 0.213522
O O17 0.500000 0.500000 0.500000
#
# Coordination Sequence:
#
# PCOD9003601 Si02
#       8
#     2   2   2   2   2   2   2   2
#     4  10  21  38  64  88 114 159 205 238 289 355
#     4   9  18  37  62  88 120 153 195 253 297 334
#     4  10  21  37  61  88 117 159 203 238 288 355
#     4  10  23  38  56  91 123 151 197 247 298 346
#     4  12  21  39  63  83 122 159 197 240 289 354
#     4  10  21  38  59  88 118 155 203 242 290 352
#     4  12  24  38  58  86 127 158 193 243 301 348
#     4   9  17  37  64  89 115 152 204 250 286 344
#
# _framework density 28.415422
#
# number of rings (size 3 to 8) (size 9 to 14) (size 15 to 20)
#    0.000    1.750    2.500    3.000    1.750    2.500 
#    2.250    5.625    0.000    1.500    0.000    0.000 
#    0.000    0.000    0.000    0.000    0.000    0.000 
#
# Total GULP energy -89413.467583 kJ/mol
# GULP energy per Si atom -5588.341724 kJ/mol
# Density = 2.835075 g / cm^3
# Si number density = 28.415422 Si / 1000 Ang^3
#
#
#
# Elastic Constant Matrix: (Units=GPa)
#
#
# Indices 1 2 3 4 5 6 
#
# 1 105.0233 33.8687 25.7704 -11.8191 -5.0699 26.6411
# 2 33.8687 190.4514 20.1965 -32.1231 -3.4234 27.5429
# 3 25.7704 20.1965 116.1145 -17.0244 -3.0928 3.4283
# 4 -11.8191 -32.1231 -17.0244 62.5083 5.8927 -9.1800
# 5 -5.0699 -3.4234 -3.0928 5.8927 32.6766 -8.0137
# 6 26.6411 27.5429 3.4283 -9.1800 -8.0137 51.6539
#
#
#
# Elastic Compliance Matrix: (Units=1/GPa)
#
#
# Indices 1 2 3 4 5 6 
#
# 1 0.011790 -0.001041 -0.002232 0.000293 0.000156 -0.005301
# 2 -0.001041 0.006257 -0.000420 0.002608 -0.000605 -0.002402
# 3 -0.002232 -0.000420 0.009461 0.002073 0.000421 0.001181
# 4 0.000293 0.002608 0.002073 0.018370 -0.002504 0.001197
# 5 0.000156 -0.000605 0.000421 -0.002504 0.032225 0.004769
# 6 -0.005301 -0.002402 0.001181 0.001197 0.004769 0.024249
#
#
# Mechanical properties :
#
#
# Convention : Reuss Voigt Hill
#
# Bulk Modulus (GPa) = 49.69720 63.47340 56.58530
# Shear Modulus (GPa) = 42.93871 51.48467 47.21169
#
# Velocity S-wave (km/s) = 3.89151 4.26121 4.08055
# Velocity P-wave (km/s) = 6.14160 6.82618 6.49292
#
# Compressibility (1/GPa) = 0.02012186
#
# Stress axis : x y z
#
# Youngs Moduli (GPa) = 84.81427 159.82645 105.69883
#
# Poissons Ratio (x) = 0.16640 0.23592
# Poissons Ratio (y) = 0.08830 0.04439
# Poissons Ratio (z) = 0.18931 0.06712
#
# Static dielectric constant tensor:
#      x y z
#    x 2.288740 -0.075400 -0.046780 
#    y -0.075400 2.133790 0.003730 
#    z -0.046780 0.003730 2.110390 
# 
# From -- ./inp_files/208147.got.cif
#   From: 2010.05.17/outbox.cif.g08.bks.cpg/sg2_105_cif.got.tgz:208147.got - 2010.06.03 11:33:40.
