data_PCOD9003740
_publ_section_title
;
Structure prediction by ZEFSAII (Michael W. Deem and Ramdas Pophale) SiO2 
 PCOD9003740
Probable space group: P -1
;
_chemical_formula_sum "Si O2"
_cell_formula_units_Z 16
_cell_length_a 8.912961
_cell_length_b 12.344677
_cell_length_c 18.344400
_cell_angle_alpha 152.821995
_cell_angle_beta 130.187926
_cell_angle_gamma 60.082314
_cell_volume 687.686128
_symmetry_space_group_name_H-M "P -1"
_symmetry_group_IT_number 2
_symmetry_cell_setting 'triclinic'
loop_
_space_group_symop_operation_xyz
x,y,z
-x,-y,-z
loop_
_atom_site_type_symbol
_atom_site_label
_atom_site_fract_x
_atom_site_fract_y
_atom_site_fract_z
Si Si1 0.204647 0.111310 0.412501
Si Si2 0.404061 0.839681 0.509256
Si Si3 0.215588 0.609785 0.172522
Si Si4 0.854896 0.459442 0.243511
Si Si5 0.239100 0.134547 0.844513
Si Si6 0.807096 0.784892 0.293918
Si Si7 0.305256 0.473090 0.373560
Si Si8 0.573969 0.970219 0.922716
O O1 0.372736 0.206553 0.461878
O O2 0.193510 0.318497 0.591304
O O3 0.290098 0.879623 0.327083
O O4 0.970815 0.986871 0.253827
O O5 0.244507 0.678103 0.306903
O O6 0.329857 0.730908 0.497553
O O7 0.379307 0.116157 0.671105
O O8 0.330238 0.396610 0.065954
O O9 0.000000 0.500000 0.000000
O O10 0.825381 0.543404 0.200236
O O11 0.082672 0.429358 0.309757
O O12 0.721377 0.209942 0.081151
O O13 0.209733 0.207034 0.794427
O O14 0.382071 0.954893 0.800548
O O15 0.000000 0.000000 0.500000
O O16 0.500000 0.500000 0.500000
O O17 0.325153 0.259264 0.194846
O O18 0.500000 0.000000 0.000000
#
# Coordination Sequence:
#
# PCOD9003740 Si02
#       8
#     2   2   2   2   2   2   2   2
#     4  11  22  40  69 106 138 181 228 280 357 424
#     4  12  23  42  73 101 141 186 232 287 353 424
#     4  10  21  37  62 102 141 172 219 276 351 419
#     4  12  25  46  77 102 143 186 235 295 359 421
#     4  11  24  45  68 106 147 182 229 297 355 422
#     4  12  22  44  73 108 146 182 222 296 375 420
#     4  12  27  49  73 100 140 191 242 286 346 418
#     4  12  28  51  72 101 143 194 246 290 336 416
#
# _framework density 23.26643
#
# number of rings (size 3 to 8) (size 9 to 14) (size 15 to 20)
#    0.000    0.500    3.750    5.250    1.750    1.500 
#    2.250    2.500    0.000    0.000    0.000    0.000 
#    0.000    0.000    0.000    0.000    0.000    0.000 
#
# Total GULP energy -89246.111822 kJ/mol
# GULP energy per Si atom -5577.881989 kJ/mol
# Density = 2.321347 g / cm^3
# Si number density = 23.266430 Si / 1000 Ang^3
#
#
#
# Elastic Constant Matrix: (Units=GPa)
#
#
# Indices 1 2 3 4 5 6 
#
# 1 144.5872 22.4966 35.4052 -8.1564 16.1584 -18.1182
# 2 22.4966 80.6343 21.6030 0.9365 12.4281 -2.3743
# 3 35.4052 21.6030 70.4876 2.8610 -3.2361 0.8105
# 4 -8.1564 0.9365 2.8610 39.8294 -3.6023 -5.3381
# 5 16.1584 12.4281 -3.2361 -3.6023 45.4616 2.4793
# 6 -18.1182 -2.3743 0.8105 -5.3381 2.4793 41.8288
#
#
#
# Elastic Compliance Matrix: (Units=1/GPa)
#
#
# Indices 1 2 3 4 5 6 
#
# 1 0.009310 -0.000665 -0.004791 0.002568 -0.003517 0.004624
# 2 -0.000665 0.014383 -0.004253 -0.000431 -0.004076 0.000797
# 3 -0.004791 -0.004253 0.018216 -0.002243 0.004159 -0.003203
# 4 0.002568 -0.000431 -0.002243 0.026483 0.000901 0.004458
# 5 -0.003517 -0.004076 0.004159 0.000901 0.024903 -0.003196
# 6 0.004624 0.000797 -0.003203 0.004458 -0.003196 0.026776
#
#
# Mechanical properties :
#
#
# Convention : Reuss Voigt Hill
#
# Bulk Modulus (GPa) = 44.46372 50.52430 47.49401
# Shear Modulus (GPa) = 34.01657 39.83755 36.92706
#
# Velocity S-wave (km/s) = 3.82782 4.14240 3.98821
# Velocity P-wave (km/s) = 6.22000 6.68147 6.45486
#
# Compressibility (1/GPa) = 0.02249025
#
# Stress axis : x y z
#
# Youngs Moduli (GPa) = 107.40633 69.52458 54.89740
#
# Poissons Ratio (x) = 0.04627 0.26304
# Poissons Ratio (y) = 0.07148 0.23347
# Poissons Ratio (z) = 0.51463 0.29567
#
# Static dielectric constant tensor:
#      x y z
#    x 1.928920 -0.014160 -0.012040 
#    y -0.014160 1.934960 -0.011180 
#    z -0.012040 -0.011180 1.877370 
# 
# From -- ./inp_files/399050.got.cif
#   From: 2010.05.17/outbox.cif.g08.bks.cpg/sg2_200_cif.got.tgz:399050.got - 2010.06.03 11:33:40.
