data_PCOD9003351
_publ_section_title
;
Structure prediction by ZEFSAII (Michael W. Deem and Ramdas Pophale) SiO2 
 PCOD9003351
Probable space group: P -1
;
_chemical_formula_sum "Si O2"
_cell_formula_units_Z 16
_cell_length_a 14.743650
_cell_length_b 7.946622
_cell_length_c 19.453991
_cell_angle_alpha 100.005343
_cell_angle_beta 19.158885
_cell_angle_gamma 109.266123
_cell_volume 632.283614
_symmetry_space_group_name_H-M "P -1"
_symmetry_group_IT_number 2
_symmetry_cell_setting 'triclinic'
loop_
_space_group_symop_operation_xyz
x,y,z
-x,-y,-z
loop_
_atom_site_type_symbol
_atom_site_label
_atom_site_fract_x
_atom_site_fract_y
_atom_site_fract_z
Si Si1 0.421459 0.035993 0.981093
Si Si2 0.556509 0.800076 0.815147
Si Si3 0.169580 0.504572 0.248170
Si Si4 0.176581 0.471980 0.977427
Si Si5 0.241306 0.727558 0.609534
Si Si6 0.322860 0.450215 0.720439
Si Si7 0.291674 0.071210 0.520041
Si Si8 0.180237 0.866988 0.444268
O O1 0.703204 0.277681 0.798950
O O2 0.253473 0.772896 0.068218
O O3 0.091913 0.034939 0.204945
O O4 0.500000 0.000000 0.000000
O O5 0.853160 0.858528 0.655228
O O6 0.514166 0.643669 0.779327
O O7 0.604066 0.016376 0.768871
O O8 0.935033 0.351133 0.464248
O O9 0.959264 0.403775 0.322811
O O10 0.500000 0.500000 0.000000
O O11 0.994908 0.325699 0.159953
O O12 0.990362 0.588860 0.099890
O O13 0.221155 0.389355 0.868617
O O14 0.500400 0.663610 0.438284
O O15 0.393589 0.955874 0.492232
O O16 0.532483 0.691593 0.584612
O O17 0.341093 0.011441 0.403629
#
# Coordination Sequence:
#
# PCOD9003351 Si02
#       8
#     2   2   2   2   2   2   2   2
#     4  12  21  35  62  94 125 178 211 254 337 395
#     4  11  22  37  64  92 128 167 216 267 322 401
#     4  11  20  38  59  91 138 167 205 267 327 393
#     4  11  24  45  70  98 128 172 236 274 320 407
#     4  11  24  42  70  98 134 176 218 280 332 396
#     4  11  25  47  71  92 133 182 219 283 341 374
#     4  11  22  43  64  98 134 167 218 272 330 396
#     4  10  21  37  59  90 131 163 200 270 323 390
#
# _framework density 25.305101000000001
#
# number of rings (size 3 to 8) (size 9 to 14) (size 15 to 20)
#    0.000    1.000    5.000    3.375    0.000    1.000 
#    4.500    2.500    0.000    0.000    0.000    0.000 
#    0.000    0.000    0.000    0.000    0.000    0.000 
#
# Total GULP energy -89156.805562 kJ/mol
# GULP energy per Si atom -5572.300348 kJ/mol
# Density = 2.524751 g / cm^3
# Si number density = 25.305101 Si / 1000 Ang^3
#
#
#
# Elastic Constant Matrix: (Units=GPa)
#
#
# Indices 1 2 3 4 5 6 
#
# 1 117.1258 31.5580 19.2110 -17.6618 26.5971 0.2847
# 2 31.5580 87.6779 31.9040 -23.0064 21.3049 -20.6352
# 3 19.2110 31.9040 70.6648 -11.2180 7.5511 -7.4790
# 4 -17.6618 -23.0064 -11.2180 36.9938 -6.0288 12.3665
# 5 26.5971 21.3049 7.5511 -6.0288 42.0686 -9.5756
# 6 0.2847 -20.6352 -7.4790 12.3665 -9.5756 37.9823
#
#
#
# Elastic Compliance Matrix: (Units=1/GPa)
#
#
# Indices 1 2 3 4 5 6 
#
# 1 0.011382 -0.002009 -0.001305 0.004229 -0.006342 -0.004409
# 2 -0.002009 0.018255 -0.005628 0.006012 -0.004816 0.005653
# 3 -0.001305 -0.005628 0.017162 0.001159 0.000796 0.000155
# 4 0.004229 0.006012 0.001159 0.035640 -0.002835 -0.008856
# 5 -0.006342 -0.004816 0.000796 -0.002835 0.031117 0.006356
# 6 -0.004409 0.005653 0.000155 -0.008856 0.006356 0.033948
#
#
# Mechanical properties :
#
#
# Convention : Reuss Voigt Hill
#
# Bulk Modulus (GPa) = 34.58409 48.97941 41.78175
# Shear Modulus (GPa) = 28.56730 36.26197 32.41464
#
# Velocity S-wave (km/s) = 3.36358 3.78959 3.58292
# Velocity P-wave (km/s) = 5.36483 6.20851 5.80202
#
# Compressibility (1/GPa) = 0.02891503
#
# Stress axis : x y z
#
# Youngs Moduli (GPa) = 87.86024 54.78063 58.26676
#
# Poissons Ratio (x) = 0.11004 0.07603
# Poissons Ratio (y) = 0.17649 0.32794
# Poissons Ratio (z) = 0.11465 0.30832
#
# Static dielectric constant tensor:
#      x y z
#    x 1.971860 -0.284340 0.010640 
#    y -0.284340 1.378940 -0.174310 
#    z 0.010640 -0.174310 2.032940 
# 
# From -- ./inp_files/329310.got.cif
#   From: 2010.05.17/outbox.cif.g08.bks.cpg/sg2_165_cif.got.tgz:329310.got - 2010.06.03 11:33:40.
