data_PCOD9003029
_publ_section_title
;
Structure prediction by ZEFSAII (Michael W. Deem and Ramdas Pophale) SiO2 
 PCOD9003029
Probable space group: P -1
;
_chemical_formula_sum "Si O2"
_cell_formula_units_Z 16
_cell_length_a 14.795454
_cell_length_b 14.222798
_cell_length_c 10.115061
_cell_angle_alpha 82.576300
_cell_angle_beta 102.655197
_cell_angle_gamma 28.809308
_cell_volume 730.947173
_symmetry_space_group_name_H-M "P -1"
_symmetry_group_IT_number 2
_symmetry_cell_setting 'triclinic'
loop_
_space_group_symop_operation_xyz
x,y,z
-x,-y,-z
loop_
_atom_site_type_symbol
_atom_site_label
_atom_site_fract_x
_atom_site_fract_y
_atom_site_fract_z
Si Si1 0.669478 0.267326 0.181522
Si Si2 0.888856 0.725910 0.287453
Si Si3 0.658738 0.739971 0.275214
Si Si4 0.950385 0.655286 0.006026
Si Si5 0.614661 0.269748 0.446205
Si Si6 0.837630 0.308302 0.286798
Si Si7 0.793520 0.315110 0.559508
Si Si8 0.623917 0.669206 0.995394
O O1 0.550900 0.329912 0.259644
O O2 0.828447 0.204060 0.309773
O O3 0.500000 0.500000 0.000000
O O4 0.906395 0.982620 0.246619
O O5 0.731961 0.779000 0.259818
O O6 0.135004 0.491801 0.506875
O O7 0.976036 0.640091 0.176770
O O8 0.667248 0.017804 0.188107
O O9 0.691793 0.656677 0.158922
O O10 0.355737 0.024671 0.171831
O O11 0.162757 0.511562 0.015460
O O12 0.000000 0.500000 0.000000
O O13 0.681683 0.314970 0.501096
O O14 0.372250 0.475533 0.420267
O O15 0.860298 0.965271 0.601969
O O16 0.773280 0.392379 0.402251
O O17 0.649808 0.535700 0.077817
#
# Coordination Sequence:
#
# PCOD9003029 Si02
#       8
#     2   2   2   2   2   2   2   2
#     4   9  17  31  51  78 103 135 174 213 260 322
#     4  10  21  37  57  83 110 141 190 233 275 332
#     4  10  21  37  58  82 109 144 188 235 276 329
#     4  11  19  35  59  84 107 145 193 227 270 337
#     4   8  15  30  52  74  92 131 175 206 249 313
#     4   9  19  33  52  73 104 138 172 218 269 315
#     4   8  15  31  53  71  95 131 175 207 248 311
#     4  11  21  37  56  80 114 151 182 231 286 327
#
# _framework density 21.889405
#
# number of rings (size 3 to 8) (size 9 to 14) (size 15 to 20)
#    0.000    2.500    2.500    2.250    0.000    4.000 
#    4.500    0.000    2.750    0.000    0.000    0.000 
#    0.000    0.000    0.000    0.000    0.000    0.000 
#
# Total GULP energy -89132.211944 kJ/mol
# GULP energy per Si atom -5570.763246 kJ/mol
# Density = 2.183958 g / cm^3
# Si number density = 21.889405 Si / 1000 Ang^3
#
#
#
# Elastic Constant Matrix: (Units=GPa)
#
#
# Indices 1 2 3 4 5 6 
#
# 1 39.9110 -18.5875 -31.7859 4.8758 -6.3214 -3.6338
# 2 -18.5875 170.1109 50.7832 12.9940 -7.9669 -42.7129
# 3 -31.7859 50.7832 131.8107 -14.7861 -8.3792 -20.7138
# 4 4.8758 12.9940 -14.7861 13.4606 -0.5455 1.1164
# 5 -6.3214 -7.9669 -8.3792 -0.5455 26.4537 4.7175
# 6 -3.6338 -42.7129 -20.7138 1.1164 4.7175 20.0844
#
#
#
# Elastic Compliance Matrix: (Units=1/GPa)
#
#
# Indices 1 2 3 4 5 6 
#
# 1 0.063653 0.027439 0.014206 -0.040406 0.012178 0.083907
# 2 0.027439 0.029740 0.001846 -0.042488 0.002398 0.071915
# 3 0.014206 0.001846 0.014627 0.007696 0.005187 0.019936
# 4 -0.040406 -0.042488 0.007696 0.146542 0.000483 -0.097989
# 5 0.012178 0.002398 0.005187 0.000483 0.042621 0.002615
# 6 0.083907 0.071915 0.019936 -0.097989 0.002615 0.243303
#
#
# Mechanical properties :
#
#
# Convention : Reuss Voigt Hill
#
# Bulk Modulus (GPa) = 5.12814 38.07245 21.60030
# Shear Modulus (GPa) = 9.64311 34.76125 22.20218
#
# Velocity S-wave (km/s) = 2.10118 3.98934 3.18825
# Velocity P-wave (km/s) = 2.86957 6.21697 4.84175
#
# Compressibility (1/GPa) = 0.19500246
#
# Stress axis : x y z
#
# Youngs Moduli (GPa) = 15.71017 33.62444 68.36735
#
# Poissons Ratio (x) = -0.92263 -0.97119
# Poissons Ratio (y) = -0.43108 -0.12623
# Poissons Ratio (z) = -0.22317 -0.06208
#
# Static dielectric constant tensor:
#      x y z
#    x 2.036860 0.029420 0.146360 
#    y 0.029420 1.816750 0.009500 
#    z 0.146360 0.009500 1.833800 
# 
# From -- ./inp_files/336495.got.cif
#   From: 2010.05.17/outbox.cif.g08.bks.cpg/sg2_169_cif.got.tgz:336495.got - 2010.06.03 11:33:40.
