data_PCOD9003179
_publ_section_title
;
Structure prediction by ZEFSAII (Michael W. Deem and Ramdas Pophale) SiO2 
 PCOD9003179
Probable space group: P -1
;
_chemical_formula_sum "Si O2"
_cell_formula_units_Z 16
_cell_length_a 10.765285
_cell_length_b 9.926558
_cell_length_c 12.022431
_cell_angle_alpha 52.171475
_cell_angle_beta 134.562987
_cell_angle_gamma 142.079992
_cell_volume 557.277118
_symmetry_space_group_name_H-M "P -1"
_symmetry_group_IT_number 2
_symmetry_cell_setting 'triclinic'
loop_
_space_group_symop_operation_xyz
x,y,z
-x,-y,-z
loop_
_atom_site_type_symbol
_atom_site_label
_atom_site_fract_x
_atom_site_fract_y
_atom_site_fract_z
Si Si1 0.503566 0.342495 0.496662
Si Si2 0.612651 0.242659 0.403748
Si Si3 0.855197 0.637043 0.790362
Si Si4 0.876627 0.048555 0.815077
Si Si5 0.176873 0.824414 0.617962
Si Si6 0.886256 0.313466 0.862293
Si Si7 0.498919 0.865935 0.967339
Si Si8 0.858502 0.869791 0.285788
O O1 0.500000 0.500000 0.500000
O O2 0.664485 0.375863 0.481315
O O3 0.325987 0.334528 0.309934
O O4 0.369142 0.094494 0.587870
O O5 0.500000 0.000000 0.500000
O O6 0.388025 0.170340 0.237239
O O7 0.799235 0.291701 0.411657
O O8 0.800365 0.454779 0.756737
O O9 0.055731 0.887007 0.749508
O O10 0.922256 0.589640 0.972194
O O11 0.924581 0.264824 0.789024
O O12 0.002097 0.109282 0.744760
O O13 0.000000 0.000000 0.000000
O O14 0.265156 0.756607 0.808561
O O15 0.950823 0.801986 0.475558
O O16 0.694317 0.061530 0.910998
O O17 0.603446 0.754990 0.140627
O O18 0.500000 0.000000 0.000000
#
# Coordination Sequence:
#
# PCOD9003179 Si02
#       8
#     2   2   2   2   2   2   2   2
#     4  10  18  26  46  74 109 136 160 199 264 330
#     4  10  17  28  44  72 104 134 157 206 262 317
#     4   9  17  30  43  77 106 131 163 205 268 321
#     4  12  16  29  51  76 105 136 164 212 265 318
#     4  10  19  34  50  72 105 136 173 218 256 306
#     4  10  19  29  52  75 108 135 163 217 263 308
#     4  11  22  35  51  74 103 142 184 216 252 300
#     4  10  20  34  53  80 106 132 169 216 266 320
#
# _framework density 28.711030999999998
#
# number of rings (size 3 to 8) (size 9 to 14) (size 15 to 20)
#    0.000    1.750    7.500    0.750    1.750    0.500 
#    0.000    0.000    0.000    0.000    0.000   31.500 
#    0.000   20.000    0.000    0.000    0.000    0.000 
#
# Total GULP energy -89279.236610 kJ/mol
# GULP energy per Si atom -5579.952288 kJ/mol
# Density = 2.864568 g / cm^3
# Si number density = 28.711031 Si / 1000 Ang^3
#
#
#
# Elastic Constant Matrix: (Units=GPa)
#
#
# Indices 1 2 3 4 5 6 
#
# 1 99.9068 48.8109 42.1961 -5.3242 9.8226 -44.2676
# 2 48.8109 158.6380 41.3299 36.7033 -7.3164 -21.1031
# 3 42.1961 41.3299 182.1335 -26.9635 15.9372 -30.3729
# 4 -5.3242 36.7033 -26.9635 26.6316 -32.8684 -27.9929
# 5 9.8226 -7.3164 15.9372 -32.8684 49.9307 -8.9471
# 6 -44.2676 -21.1031 -30.3729 -27.9929 -8.9471 56.1388
#
#
#
# Elastic Compliance Matrix: (Units=1/GPa)
#
#
# Indices 1 2 3 4 5 6 
#
# 1 0.012030 -0.000435 -0.003641 -0.011806 -0.009035 0.000026
# 2 -0.000435 0.005956 0.000264 0.006796 0.006506 0.006464
# 3 -0.003641 0.000264 0.005391 -0.005245 -0.005004 -0.003268
# 4 -0.011806 0.006796 -0.005245 -0.025136 -0.015975 -0.024672
# 5 -0.009035 0.006506 -0.005004 -0.015975 0.011415 -0.013533
# 6 0.000026 0.006464 -0.003268 -0.024672 -0.013533 0.004036
#
#
# Mechanical properties :
#
#
# Convention : Reuss Voigt Hill
#
# Bulk Modulus (GPa) = 63.47966 78.37247 70.92607
# Shear Modulus (GPa) = 188.19663 47.09631 117.64647
#
# Velocity S-wave (km/s) = 8.10499 4.05452 6.40820
# Velocity P-wave (km/s) = 10.47596 7.01963 8.91686
#
# Compressibility (1/GPa) = 0.01575308
#
# Stress axis : x y z
#
# Youngs Moduli (GPa) = 83.12284 167.88670 185.50761
#
# Poissons Ratio (x) = 0.07298 0.67549
# Poissons Ratio (y) = 0.03613 -0.04895
# Poissons Ratio (z) = 0.30268 -0.04430
#
# Static dielectric constant tensor:
#      x y z
#    x 2.222700 0.015890 0.012200 
#    y 0.015890 2.273450 0.046800 
#    z 0.012200 0.046800 2.394800 
# 
# From -- ./inp_files/414782.got.cif
#   From: 2010.05.17/outbox.cif.g08.bks.cpg/sg2_208_cif.got.tgz:414782.got - 2010.06.03 11:33:40.
