data_PCOD9003007
_publ_section_title
;
Structure prediction by ZEFSAII (Michael W. Deem and Ramdas Pophale) SiO2 
 PCOD9003007
Probable space group: P -1
;
_chemical_formula_sum "Si O2"
_cell_formula_units_Z 16
_cell_length_a 15.340254
_cell_length_b 12.100368
_cell_length_c 14.317617
_cell_angle_alpha 36.996052
_cell_angle_beta 137.417917
_cell_angle_gamma 154.456488
_cell_volume 688.342045
_symmetry_space_group_name_H-M "P -1"
_symmetry_group_IT_number 2
_symmetry_cell_setting 'triclinic'
loop_
_space_group_symop_operation_xyz
x,y,z
-x,-y,-z
loop_
_atom_site_type_symbol
_atom_site_label
_atom_site_fract_x
_atom_site_fract_y
_atom_site_fract_z
Si Si1 0.048604 0.246110 0.324639
Si Si2 0.491430 0.274634 0.668946
Si Si3 0.110624 0.691737 0.676512
Si Si4 0.982015 0.647345 0.955711
Si Si5 0.607534 0.437088 0.852839
Si Si6 0.902205 0.095424 0.850566
Si Si7 0.308535 0.197030 0.943559
Si Si8 0.963533 0.117280 0.676496
O O1 0.283344 0.544730 0.293261
O O2 0.971255 0.144916 0.226543
O O3 0.968570 0.314445 0.283519
O O4 0.000000 0.000000 0.500000
O O5 0.500000 0.500000 0.500000
O O6 0.461094 0.238556 0.782465
O O7 0.345568 0.002018 0.669271
O O8 0.048397 0.415986 0.789528
O O9 0.017939 0.717018 0.503823
O O10 0.764375 0.437900 0.973631
O O11 0.162543 0.870615 0.017343
O O12 0.000000 0.500000 0.000000
O O13 0.499401 0.374496 0.906316
O O14 0.769229 0.775469 0.730068
O O15 0.891005 0.125274 0.712127
O O16 0.696950 0.843213 0.921227
O O17 0.000000 0.000000 0.000000
O O18 0.169474 0.225702 0.789965
#
# Coordination Sequence:
#
# PCOD9003007 Si02
#       8
#     2   2   2   2   2   2   2   2
#     4  11  21  36  62  98 135 166 200 256 329 397
#     4  11  21  36  63 102 137 160 204 261 335 396
#     4  12  22  39  69  95 131 168 216 274 321 390
#     4  10  21  37  56  89 131 167 209 251 311 392
#     4  10  21  38  64  96 129 171 207 266 330 394
#     4  10  24  46  64  87 125 180 228 272 325 374
#     4  10  21  39  63  85 126 173 214 263 328 383
#     4  10  22  40  65  93 120 164 227 273 327 372
#
# _framework density 23.244257999999999
#
# number of rings (size 3 to 8) (size 9 to 14) (size 15 to 20)
#    0.000    1.500    2.500    3.375    1.750    1.000 
#    0.000   13.750    0.000    5.250    0.000    0.000 
#    0.000    0.000    0.000    0.000    0.000    0.000 
#
# Total GULP energy -89193.502902 kJ/mol
# GULP energy per Si atom -5574.593931 kJ/mol
# Density = 2.319135 g / cm^3
# Si number density = 23.244258 Si / 1000 Ang^3
#
#
#
# Elastic Constant Matrix: (Units=GPa)
#
#
# Indices 1 2 3 4 5 6 
#
# 1 156.0375 27.8962 34.2154 -4.0325 -19.3277 5.8022
# 2 27.8962 51.7813 8.9395 -11.3820 7.2689 -8.6108
# 3 34.2154 8.9395 66.9798 -11.2303 -3.9456 -8.3770
# 4 -4.0325 -11.3820 -11.2303 30.8129 -14.1267 0.0606
# 5 -19.3277 7.2689 -3.9456 -14.1267 45.5476 -5.7036
# 6 5.8022 -8.6108 -8.3770 0.0606 -5.7036 52.4357
#
#
#
# Elastic Compliance Matrix: (Units=1/GPa)
#
#
# Indices 1 2 3 4 5 6 
#
# 1 0.008669 -0.004943 -0.003854 -0.000362 0.003774 -0.001976
# 2 -0.004943 0.024603 0.000825 0.007292 -0.003144 0.004369
# 3 -0.003854 0.000825 0.018762 0.007912 0.002795 0.003854
# 4 -0.000362 0.007292 0.007912 0.044196 0.013567 0.003926
# 5 0.003774 -0.003144 0.002795 0.013567 0.028838 0.002634
# 6 -0.001976 0.004369 0.003854 0.003926 0.002634 0.020905
#
#
# Mechanical properties :
#
#
# Convention : Reuss Voigt Hill
#
# Bulk Modulus (GPa) = 27.70833 46.32231 37.01532
# Shear Modulus (GPa) = 28.74438 39.34242 34.04340
#
# Velocity S-wave (km/s) = 3.52038 4.11854 3.83115
# Velocity P-wave (km/s) = 5.33577 6.52597 5.96065
#
# Compressibility (1/GPa) = 0.03609023
#
# Stress axis : x y z
#
# Youngs Moduli (GPa) = 115.35207 40.64535 53.29951
#
# Poissons Ratio (x) = 0.20090 0.20543
# Poissons Ratio (y) = 0.57017 -0.04398
# Poissons Ratio (z) = 0.44460 -0.03354
#
# Static dielectric constant tensor:
#      x y z
#    x 1.965030 0.013040 0.049840 
#    y 0.013040 1.947800 0.008890 
#    z 0.049840 0.008890 2.127620 
# 
# From -- ./inp_files/531648.got.cif
#   From: 2010.05.17/outbox.cif.g08.bks.cpg/sg2_266_cif.got.tgz:531648.got - 2010.06.03 11:33:40.
