data_PCOD9003477
_publ_section_title
;
Structure prediction by ZEFSAII (Michael W. Deem and Ramdas Pophale) SiO2 
 PCOD9003477
Probable space group: P -1
;
_chemical_formula_sum "Si O2"
_cell_formula_units_Z 16
_cell_length_a 22.809330
_cell_length_b 8.212898
_cell_length_c 17.746557
_cell_angle_alpha 134.098995
_cell_angle_beta 24.340891
_cell_angle_gamma 145.858646
_cell_volume 744.299266
_symmetry_space_group_name_H-M "P -1"
_symmetry_group_IT_number 2
_symmetry_cell_setting 'triclinic'
loop_
_space_group_symop_operation_xyz
x,y,z
-x,-y,-z
loop_
_atom_site_type_symbol
_atom_site_label
_atom_site_fract_x
_atom_site_fract_y
_atom_site_fract_z
Si Si1 0.546888 0.300906 0.065876
Si Si2 0.184148 0.777528 0.580824
Si Si3 0.595896 0.380597 0.690860
Si Si4 0.536602 0.365780 0.278246
Si Si5 0.944080 0.677220 0.962516
Si Si6 0.321281 0.559212 0.560719
Si Si7 0.941824 0.884065 0.813244
Si Si8 0.230593 0.828328 0.877628
O O1 0.418427 0.365271 0.201614
O O2 0.517413 0.285284 0.186084
O O3 0.761486 0.594467 0.887978
O O4 0.500000 0.000000 0.000000
O O5 0.245658 0.581145 0.434226
O O6 0.024783 0.748764 0.713220
O O7 0.377564 0.101628 0.435144
O O8 0.103633 0.723730 0.741305
O O9 0.636423 0.364563 0.551152
O O10 0.385372 0.056451 0.834015
O O11 0.737935 0.485694 0.105210
O O12 0.490780 0.585168 0.405189
O O13 0.910812 0.489003 0.014932
O O14 0.000000 0.000000 0.000000
O O15 0.298107 0.750377 0.702941
O O16 0.131227 0.205735 0.666743
O O17 0.845074 0.002792 0.004851
#
# Coordination Sequence:
#
# PCOD9003477 Si02
#       8
#     2   2   2   2   2   2   2   2
#     4  10  22  45  70  90 123 166 209 266 329 376
#     4  11  22  40  63  90 131 162 207 265 306 367
#     4  10  22  39  62  92 127 168 211 261 313 372
#     4  10  22  41  61  92 130 164 207 265 314 367
#     4  12  24  36  63  95 133 177 212 247 313 373
#     4  10  21  37  60  89 134 166 212 258 305 375
#     4  10  21  39  62  90 125 164 210 260 310 374
#     4  11  22  37  60  92 132 175 212 248 308 377
#
# _framework density 21.496731
#
# number of rings (size 3 to 8) (size 9 to 14) (size 15 to 20)
#    0.000    1.500    2.500    3.000    1.750    2.000 
#    0.000    6.875    0.000    0.000    0.000    0.000 
#    0.000    0.000    0.000    0.000    0.000    0.000 
#
# Total GULP energy -89091.411228 kJ/mol
# GULP energy per Si atom -5568.213202 kJ/mol
# Density = 2.144780 g / cm^3
# Si number density = 21.496731 Si / 1000 Ang^3
#
#
#
# Elastic Constant Matrix: (Units=GPa)
#
#
# Indices 1 2 3 4 5 6 
#
# 1 34.9286 29.8655 33.3649 19.1625 -24.1720 -20.1506
# 2 29.8655 130.0131 51.8789 22.8974 -18.7757 -15.0370
# 3 33.3649 51.8789 116.4100 11.4099 -25.6679 -14.0385
# 4 19.1625 22.8974 11.4099 41.3835 -26.6550 -5.8871
# 5 -24.1720 -18.7757 -25.6679 -26.6550 39.9535 8.3833
# 6 -20.1506 -15.0370 -14.0385 -5.8871 8.3833 25.9160
#
#
#
# Elastic Compliance Matrix: (Units=1/GPa)
#
#
# Indices 1 2 3 4 5 6 
#
# 1 0.118035 -0.006204 -0.013763 -0.014972 0.035877 0.065715
# 2 -0.006204 0.010719 -0.003457 -0.004752 -0.004056 -0.000244
# 3 -0.013763 -0.003457 0.013770 0.006559 0.004356 -0.005167
# 4 -0.014972 -0.004752 0.006559 0.047867 0.026661 -0.008596
# 5 0.035877 -0.004056 0.004356 0.026661 0.062533 0.013730
# 6 0.065715 -0.000244 -0.005167 -0.008596 0.013730 0.080348
#
#
# Mechanical properties :
#
#
# Convention : Reuss Voigt Hill
#
# Bulk Modulus (GPa) = 10.45183 56.84116 33.64649
# Shear Modulus (GPa) = 12.13559 32.53343 22.33451
#
# Velocity S-wave (km/s) = 2.37857 3.89448 3.22681
# Velocity P-wave (km/s) = 3.52364 6.83534 5.43773
#
# Compressibility (1/GPa) = 0.09567701
#
# Stress axis : x y z
#
# Youngs Moduli (GPa) = 8.47205 93.29258 72.62211
#
# Poissons Ratio (x) = 0.57879 0.99948
# Poissons Ratio (y) = 0.05256 0.25105
# Poissons Ratio (z) = 0.11660 0.32250
#
# Static dielectric constant tensor:
#      x y z
#    x 1.915050 -0.022730 -0.100930 
#    y -0.022730 1.797620 -0.049830 
#    z -0.100930 -0.049830 1.901350 
# 
# From -- ./inp_files/602280.got.cif
#   From: 2010.05.17/outbox.cif.g08.bks.cpg/sg2_302_cif.got.tgz:602280.got - 2010.06.03 11:33:40.
