data_PCOD9003298
_publ_section_title
;
Structure prediction by ZEFSAII (Michael W. Deem and Ramdas Pophale) SiO2 
 PCOD9003298
Probable space group: P -1
;
_chemical_formula_sum "Si O2"
_cell_formula_units_Z 16
_cell_length_a 8.155135
_cell_length_b 12.667879
_cell_length_c 15.364469
_cell_angle_alpha 25.909242
_cell_angle_beta 83.567679
_cell_angle_gamma 91.293676
_cell_volume 660.795516
_symmetry_space_group_name_H-M "P -1"
_symmetry_group_IT_number 2
_symmetry_cell_setting 'triclinic'
loop_
_space_group_symop_operation_xyz
x,y,z
-x,-y,-z
loop_
_atom_site_type_symbol
_atom_site_label
_atom_site_fract_x
_atom_site_fract_y
_atom_site_fract_z
Si Si1 0.151614 0.886600 0.330960
Si Si2 0.067309 0.735615 0.756532
Si Si3 0.320421 0.561048 0.453370
Si Si4 0.183802 0.571720 0.265497
Si Si5 0.678629 0.039183 0.285176
Si Si6 0.334674 0.966196 0.434817
Si Si7 0.704716 0.583483 0.806541
Si Si8 0.889087 0.967538 0.163907
O O1 0.292528 0.779604 0.354164
O O2 0.231716 0.019399 0.316461
O O3 0.988421 0.653208 0.539764
O O4 0.068955 0.032981 0.156600
O O5 0.172393 0.939802 0.667947
O O6 0.210456 0.752926 0.660587
O O7 0.898986 0.735454 0.712437
O O8 0.000000 0.500000 0.000000
O O9 0.500000 0.500000 0.500000
O O10 0.292694 0.625799 0.307024
O O11 0.163547 0.308501 0.669952
O O12 0.287510 0.494496 0.236337
O O13 0.128157 0.814963 0.059135
O O14 0.496347 0.890132 0.444415
O O15 0.743607 0.944103 0.264409
O O16 0.661503 0.318583 0.057162
O O17 0.396415 0.224096 0.296224
#
# Coordination Sequence:
#
# PCOD9003298 Si02
#       8
#     2   2   2   2   2   2   2   2
#     4  11  24  42  67  98 127 177 233 265 327 410
#     4  10  21  37  59  87 128 177 221 263 322 408
#     4  11  25  44  67  98 134 165 219 282 337 399
#     4  10  22  43  67  97 127 173 229 272 327 396
#     4  10  22  38  60  97 135 170 219 275 337 391
#     4  12  22  38  62  94 139 172 217 281 339 380
#     4  10  21  39  62  93 128 174 222 270 325 405
#     4  10  22  43  71  92 131 177 221 278 327 393
#
# _framework density 24.213241
#
# number of rings (size 3 to 8) (size 9 to 14) (size 15 to 20)
#    0.000    1.500    1.250    4.125    3.500    3.500 
#    2.250    2.500    0.000    0.000    0.000    0.000 
#    0.000    0.000    0.000    0.000    0.000    0.000 
#
# Total GULP energy -89522.562929 kJ/mol
# GULP energy per Si atom -5595.160183 kJ/mol
# Density = 2.415813 g / cm^3
# Si number density = 24.213241 Si / 1000 Ang^3
#
#
#
# Elastic Constant Matrix: (Units=GPa)
#
#
# Indices 1 2 3 4 5 6 
#
# 1 101.5325 37.7148 28.2469 23.6731 10.9139 -4.4875
# 2 37.7148 134.6128 32.9151 20.8126 12.8774 2.4183
# 3 28.2469 32.9151 91.2808 17.6941 25.6859 1.4988
# 4 23.6731 20.8126 17.6941 31.2673 2.5441 4.1450
# 5 10.9139 12.8774 25.6859 2.5441 39.1009 9.8645
# 6 -4.4875 2.4183 1.4988 4.1450 9.8645 48.9003
#
#
#
# Elastic Compliance Matrix: (Units=1/GPa)
#
#
# Indices 1 2 3 4 5 6 
#
# 1 0.013166 -0.001964 -0.001163 -0.008143 -0.002367 0.002509
# 2 -0.001964 0.009030 -0.001665 -0.003485 -0.001090 -0.000061
# 3 -0.001163 -0.001665 0.015838 -0.006454 -0.009610 0.001976
# 4 -0.008143 -0.003485 -0.006454 0.044333 0.006131 -0.005372
# 5 -0.002367 -0.001090 -0.009610 0.006131 0.034355 -0.007319
# 6 0.002509 -0.000061 0.001976 -0.005372 -0.007319 0.022554
#
#
# Mechanical properties :
#
#
# Convention : Reuss Voigt Hill
#
# Bulk Modulus (GPa) = 35.14843 58.35330 46.75087
# Shear Modulus (GPa) = 31.57682 39.09034 35.33358
#
# Velocity S-wave (km/s) = 3.61517 4.02234 3.82418
# Velocity P-wave (km/s) = 5.65452 6.76198 6.23290
#
# Compressibility (1/GPa) = 0.02845077
#
# Stress axis : x y z
#
# Youngs Moduli (GPa) = 75.95307 110.73802 63.13797
#
# Poissons Ratio (x) = 0.21750 0.07340
# Poissons Ratio (y) = 0.14918 0.10514
# Poissons Ratio (z) = 0.08830 0.18441
#
# Static dielectric constant tensor:
#      x y z
#    x 1.953640 -0.018220 0.036020 
#    y -0.018220 1.913440 0.000560 
#    z 0.036020 0.000560 1.973900 
# 
# From -- ./inp_files/499700.got.cif
#   From: 2010.05.17/outbox.cif.g08.bks.cpg/sg2_250_cif.got.tgz:499700.got - 2010.06.03 11:33:40.
