data_PCOD9003778
_publ_section_title
;
Structure prediction by ZEFSAII (Michael W. Deem and Ramdas Pophale) SiO2 
 PCOD9003778
Probable space group: P -1
;
_chemical_formula_sum "Si O2"
_cell_formula_units_Z 12
_cell_length_a 9.680651
_cell_length_b 23.512319
_cell_length_c 8.098649
_cell_angle_alpha 143.192500
_cell_angle_beta 122.426606
_cell_angle_gamma 29.885236
_cell_volume 466.933596
_symmetry_space_group_name_H-M "P -1"
_symmetry_group_IT_number 2
_symmetry_cell_setting 'triclinic'
loop_
_space_group_symop_operation_xyz
x,y,z
-x,-y,-z
loop_
_atom_site_type_symbol
_atom_site_label
_atom_site_fract_x
_atom_site_fract_y
_atom_site_fract_z
Si Si1 0.900481 0.739116 0.472461
Si Si2 0.460563 0.478401 0.605727
Si Si3 0.581817 0.849407 0.830169
Si Si4 0.796666 0.225601 0.733088
Si Si5 0.379420 0.779018 0.718486
Si Si6 0.439079 0.822915 0.342137
O O1 0.900576 0.714829 0.614263
O O2 0.780192 0.700514 0.226549
O O3 0.211996 0.637186 0.371671
O O4 0.606338 0.963593 0.794420
O O5 0.500000 0.500000 0.500000
O O6 0.495147 0.349309 0.351965
O O7 0.179095 0.676129 0.981242
O O8 0.591749 0.764792 0.778550
O O9 0.373021 0.906466 0.675641
O O10 0.620478 0.289872 0.600484
O O11 0.592385 0.270852 0.849092
O O12 0.153890 0.999088 0.448204
O O13 0.000000 0.000000 0.000000
#
# Coordination Sequence:
#
# PCOD9003778 Si02
#       6
#     2   2   2   2   2   2
#     4   9  17  35  62  87 119 156 197 240 301 356
#     4  12  25  37  62  96 119 157 200 254 298 350
#     4   8  16  34  62  82 115 157 197 234 290 359
#     4  10  21  37  62  89 124 151 203 248 296 352
#     4  11  22  40  62  87 122 162 201 241 301 358
#     4   8  17  34  63  83 113 160 197 231 299 358
#
# _framework density 25.699584999999999
#
# number of rings (size 3 to 8) (size 9 to 14) (size 15 to 20)
#    1.000    1.333    1.667    1.500    4.667    0.667 
#    0.000    1.667    0.000    0.000    0.000    0.000 
#    0.000    0.000    0.000    0.000    0.000    0.000 
#
# Total GULP energy -66980.319254 kJ/mol
# GULP energy per Si atom -5581.693271 kJ/mol
# Density = 2.564109 g / cm^3
# Si number density = 25.699585 Si / 1000 Ang^3
#
#
#
# Elastic Constant Matrix: (Units=GPa)
#
#
# Indices 1 2 3 4 5 6 
#
# 1 158.8667 17.9656 14.3954 21.7929 25.5247 25.6520
# 2 17.9656 46.4881 0.0341 2.2628 0.6747 20.5320
# 3 14.3954 0.0341 71.6553 7.9054 18.6123 19.7554
# 4 21.7929 2.2628 7.9054 28.8481 3.7192 8.9610
# 5 25.5247 0.6747 18.6123 3.7192 36.2587 10.9315
# 6 25.6520 20.5320 19.7554 8.9610 10.9315 47.4278
#
#
#
# Elastic Compliance Matrix: (Units=1/GPa)
#
#
# Indices 1 2 3 4 5 6 
#
# 1 0.008263 -0.002118 0.000697 -0.005079 -0.005099 -0.001707
# 2 -0.002118 0.028118 0.003029 0.002333 0.003236 -0.013476
# 3 0.000697 0.003029 0.017939 -0.002561 -0.007390 -0.006973
# 4 -0.005079 0.002333 -0.002561 0.040386 0.002320 -0.005362
# 5 -0.005099 0.003236 -0.007390 0.002320 0.035958 -0.004291
# 6 -0.001707 -0.013476 -0.006973 -0.005362 -0.004291 0.032749
#
#
# Mechanical properties :
#
#
# Convention : Reuss Voigt Hill
#
# Bulk Modulus (GPa) = 17.38075 37.97782 27.67929
# Shear Modulus (GPa) = 27.87433 38.81459 33.34446
#
# Velocity S-wave (km/s) = 3.29693 3.89050 3.60595
# Velocity P-wave (km/s) = 4.61202 5.91532 5.30385
#
# Compressibility (1/GPa) = 0.05753490
#
# Stress axis : x y z
#
# Youngs Moduli (GPa) = 121.02645 35.56378 55.74466
#
# Poissons Ratio (x) = 0.07534 -0.03883
# Poissons Ratio (y) = 0.25639 -0.16887
# Poissons Ratio (z) = -0.08430 -0.10774
#
# Static dielectric constant tensor:
#      x y z
#    x 2.033850 -0.017120 -0.027840 
#    y -0.017120 2.128830 0.014270 
#    z -0.027840 0.014270 2.002580 
# 
# From -- ./inp_files/230645.got.cif
#   From: 2010.05.17/outbox.cif.g08.bks.cpg/sg2_116_cif.got.tgz:230645.got - 2010.06.03 11:33:40.
