data_PCOD9003375
_publ_section_title
;
Structure prediction by ZEFSAII (Michael W. Deem and Ramdas Pophale) SiO2 
 PCOD9003375
Probable space group: P -1
;
_chemical_formula_sum "Si O2"
_cell_formula_units_Z 16
_cell_length_a 5.007179
_cell_length_b 14.788935
_cell_length_c 14.102643
_cell_angle_alpha 137.006483
_cell_angle_beta 83.933604
_cell_angle_gamma 89.138561
_cell_volume 701.549720
_symmetry_space_group_name_H-M "P -1"
_symmetry_group_IT_number 2
_symmetry_cell_setting 'triclinic'
loop_
_space_group_symop_operation_xyz
x,y,z
-x,-y,-z
loop_
_atom_site_type_symbol
_atom_site_label
_atom_site_fract_x
_atom_site_fract_y
_atom_site_fract_z
Si Si1 0.752569 0.725213 0.387264
Si Si2 0.940229 0.603387 0.669038
Si Si3 0.370254 0.976784 0.386459
Si Si4 0.798459 0.351829 0.999911
Si Si5 0.663580 0.817277 0.094848
Si Si6 0.726603 0.293248 0.753845
Si Si7 0.228868 0.094599 0.052561
Si Si8 0.572720 0.494801 0.298384
O O1 0.552228 0.718450 0.298901
O O2 0.626275 0.648444 0.418857
O O3 0.054765 0.669082 0.299665
O O4 0.770103 0.879183 0.530470
O O5 0.831962 0.761327 0.780083
O O6 0.720148 0.541406 0.694765
O O7 0.000000 0.500000 0.500000
O O8 0.220281 0.594168 0.708807
O O9 0.603333 0.925453 0.262834
O O10 0.191481 0.857283 0.321079
O O11 0.500000 0.000000 0.500000
O O12 0.627303 0.233027 0.944432
O O13 0.733210 0.382010 0.915709
O O14 0.113168 0.302380 0.968527
O O15 0.673115 0.462320 0.162972
O O16 0.753650 0.866221 0.028600
O O17 0.500000 0.000000 0.000000
O O18 0.000000 0.000000 0.000000
#
# Coordination Sequence:
#
# PCOD9003375 Si02
#       8
#     2   2   2   2   2   2   2   2
#     4  11  23  37  59  95 133 171 227 266 320 398
#     4  12  27  49  73  99 139 180 221 285 363 421
#     4   9  20  38  61  90 132 174 220 275 331 392
#     4  11  20  39  65  89 127 172 220 258 329 387
#     4  11  22  39  65  93 125 174 216 272 341 397
#     4  10  21  37  59  92 132 178 217 274 327 375
#     4  12  25  45  73 104 134 170 231 289 345 415
#     4  12  24  44  69  93 133 179 221 274 336 413
#
# _framework density 22.806650000000001
#
# number of rings (size 3 to 8) (size 9 to 14) (size 15 to 20)
#    0.000    1.000    2.500    5.250    0.000    6.000 
#    0.000    0.000    0.000    0.000    0.000    0.000 
#    0.000    0.000    0.000    0.000    0.000    0.000 
#
# Total GULP energy -89394.837436 kJ/mol
# GULP energy per Si atom -5587.177340 kJ/mol
# Density = 2.275474 g / cm^3
# Si number density = 22.806650 Si / 1000 Ang^3
#
#
#
# Elastic Constant Matrix: (Units=GPa)
#
#
# Indices 1 2 3 4 5 6 
#
# 1 77.0051 9.7124 14.0772 -6.8048 0.4501 3.7949
# 2 9.7124 72.2469 37.2221 23.9468 -5.0790 4.5530
# 3 14.0772 37.2221 136.3455 1.6688 -12.8016 -2.0748
# 4 -6.8048 23.9468 1.6688 24.8535 6.0375 -3.1156
# 5 0.4501 -5.0790 -12.8016 6.0375 24.4876 1.1588
# 6 3.7949 4.5530 -2.0748 -3.1156 1.1588 39.4031
#
#
#
# Elastic Compliance Matrix: (Units=1/GPa)
#
#
# Indices 1 2 3 4 5 6 
#
# 1 0.014703 -0.005415 -0.000562 0.010326 -0.004239 0.000121
# 2 -0.005415 0.030247 -0.006278 -0.033849 0.011736 -0.006326
# 3 -0.000562 -0.006278 0.009284 0.004919 0.002273 0.001591
# 4 0.010326 -0.033849 0.004919 0.082871 -0.025567 0.010480
# 5 -0.004239 0.011736 0.002273 -0.025567 0.051047 -0.004351
# 6 0.000121 -0.006326 0.001591 0.010480 -0.004351 0.027138
#
#
# Mechanical properties :
#
#
# Convention : Reuss Voigt Hill
#
# Bulk Modulus (GPa) = 33.64464 45.29121 39.46792
# Shear Modulus (GPa) = 20.02321 32.72121 26.37221
#
# Velocity S-wave (km/s) = 2.96624 3.79188 3.40419
# Velocity P-wave (km/s) = 5.14933 6.25084 5.72663
#
# Compressibility (1/GPa) = 0.02972242
#
# Stress axis : x y z
#
# Youngs Moduli (GPa) = 68.01227 33.06093 107.71439
#
# Poissons Ratio (x) = 0.17903 0.06056
# Poissons Ratio (y) = 0.36830 0.67628
# Poissons Ratio (z) = 0.03824 0.20757
#
# Static dielectric constant tensor:
#      x y z
#    x 1.789380 -0.015090 0.006880 
#    y -0.015090 1.871200 0.082480 
#    z 0.006880 0.082480 2.012760 
# 
# From -- ./inp_files/484475.got.cif
#   From: 2010.05.17/outbox.cif.g08.bks.cpg/sg2_243_cif.got.tgz:484475.got - 2010.06.03 11:33:40.
