data_PCOD9003296
_publ_section_title
;
Structure prediction by ZEFSAII (Michael W. Deem and Ramdas Pophale) SiO2 
 PCOD9003296
Probable space group: P -1
;
_chemical_formula_sum "Si O2"
_cell_formula_units_Z 16
_cell_length_a 10.708092
_cell_length_b 13.338686
_cell_length_c 17.108524
_cell_angle_alpha 51.700853
_cell_angle_beta 81.291179
_cell_angle_gamma 36.821796
_cell_volume 781.952669
_symmetry_space_group_name_H-M "P -1"
_symmetry_group_IT_number 2
_symmetry_cell_setting 'triclinic'
loop_
_space_group_symop_operation_xyz
x,y,z
-x,-y,-z
loop_
_atom_site_type_symbol
_atom_site_label
_atom_site_fract_x
_atom_site_fract_y
_atom_site_fract_z
Si Si1 0.511218 0.139160 0.333740
Si Si2 0.032588 0.871189 0.867916
Si Si3 0.396111 0.662335 0.806213
Si Si4 0.713589 0.199716 0.886675
Si Si5 0.994943 0.526933 0.681542
Si Si6 0.402451 0.236820 0.905939
Si Si7 0.693103 0.824805 0.326873
Si Si8 0.941198 0.691871 0.873180
O O1 0.586060 0.218120 0.295229
O O2 0.188334 0.390048 0.278517
O O3 0.552508 0.069989 0.271356
O O4 0.751843 0.829488 0.507175
O O5 0.112460 0.889568 0.779096
O O6 0.989857 0.768140 0.887818
O O7 0.317913 0.605221 0.030400
O O8 0.758163 0.174145 0.802243
O O9 0.433057 0.522989 0.802290
O O10 0.681325 0.077935 0.960529
O O11 0.000000 0.000000 0.000000
O O12 0.204428 0.436466 0.749630
O O13 0.200982 0.254007 0.734279
O O14 0.177203 0.472305 0.885202
O O15 0.500000 0.000000 0.000000
O O16 0.000000 0.500000 0.500000
O O17 0.414783 0.980357 0.278103
O O18 0.000000 0.500000 0.000000
#
# Coordination Sequence:
#
# PCOD9003296 Si02
#       8
#     2   2   2   2   2   2   2   2
#     4  10  21  39  63  90 126 170 209 255 313 378
#     4  10  21  37  59  87 127 159 205 264 307 371
#     4  10  21  38  59  88 124 166 206 254 317 376
#     4  10  22  39  58  89 127 162 204 256 315 383
#     4  10  22  39  61  93 128 161 211 263 308 374
#     4  12  24  39  64  97 128 162 210 270 321 370
#     4  10  21  39  62  90 126 164 206 257 315 375
#     4  12  22  38  63  95 125 162 207 267 322 371
#
# _framework density 20.461599
#
# number of rings (size 3 to 8) (size 9 to 14) (size 15 to 20)
#    0.000    1.500    2.500    3.000    3.500    1.000 
#    0.000    0.625    0.000    3.750    0.000    0.000 
#    0.000    0.000    0.000    0.000    0.000    0.000 
#
# Total GULP energy -89220.628869 kJ/mol
# GULP energy per Si atom -5576.289304 kJ/mol
# Density = 2.041503 g / cm^3
# Si number density = 20.461599 Si / 1000 Ang^3
#
#
#
# Elastic Constant Matrix: (Units=GPa)
#
#
# Indices 1 2 3 4 5 6 
#
# 1 131.9060 50.2803 18.1325 -0.2522 -4.5783 3.6498
# 2 50.2803 165.3967 19.7018 -3.0828 -3.5460 11.9188
# 3 18.1325 19.7018 34.0609 -3.6322 6.0652 -5.5902
# 4 -0.2522 -3.0828 -3.6322 15.0713 -2.3755 3.6776
# 5 -4.5783 -3.5460 6.0652 -2.3755 29.9308 2.1036
# 6 3.6498 11.9188 -5.5902 3.6776 2.1036 40.5507
#
#
#
# Elastic Compliance Matrix: (Units=1/GPa)
#
#
# Indices 1 2 3 4 5 6 
#
# 1 0.009068 -0.002182 -0.004124 -0.000792 0.001956 -0.000773
# 2 -0.002182 0.007407 -0.003692 0.001502 0.001601 -0.002709
# 3 -0.004124 -0.003692 0.036833 0.005110 -0.008585 0.006516
# 4 -0.000792 0.001502 0.005110 0.070206 0.005036 -0.006294
# 5 0.001956 0.001601 -0.008585 0.005036 0.036332 -0.004172
# 6 -0.000773 -0.002709 0.006516 -0.006294 -0.004172 0.027212
#
#
# Mechanical properties :
#
#
# Convention : Reuss Voigt Hill
#
# Bulk Modulus (GPa) = 30.02086 56.39920 43.21003
# Shear Modulus (GPa) = 22.91903 33.32716 28.12309
#
# Velocity S-wave (km/s) = 3.35042 4.04018 3.71136
# Velocity P-wave (km/s) = 5.44709 7.02761 6.28721
#
# Compressibility (1/GPa) = 0.03331017
#
# Stress axis : x y z
#
# Youngs Moduli (GPa) = 110.28060 135.00992 27.14924
#
# Poissons Ratio (x) = 0.29465 0.11198
# Poissons Ratio (y) = 0.24068 0.10024
# Poissons Ratio (z) = 0.45485 0.49847
#
# Static dielectric constant tensor:
#      x y z
#    x 1.728730 -0.015500 0.042310 
#    y -0.015500 1.797600 -0.023570 
#    z 0.042310 -0.023570 1.782860 
# 
# From -- ./inp_files/466591.got.cif
#   From: 2010.05.17/outbox.cif.g08.bks.cpg/sg2_234_cif.got.tgz:466591.got - 2010.06.03 11:33:40.
