data_PCOD9003022
_publ_section_title
;
Structure prediction by ZEFSAII (Michael W. Deem and Ramdas Pophale) SiO2 
 PCOD9003022
Probable space group: P -1
;
_chemical_formula_sum "Si O2"
_cell_formula_units_Z 16
_cell_length_a 5.362051
_cell_length_b 23.411609
_cell_length_c 5.362066
_cell_angle_alpha 75.814386
_cell_angle_beta 84.292128
_cell_angle_gamma 59.311257
_cell_volume 560.937726
_symmetry_space_group_name_H-M "P -1"
_symmetry_group_IT_number 2
_symmetry_cell_setting 'triclinic'
loop_
_space_group_symop_operation_xyz
x,y,z
-x,-y,-z
loop_
_atom_site_type_symbol
_atom_site_label
_atom_site_fract_x
_atom_site_fract_y
_atom_site_fract_z
Si Si1 0.738025 0.016146 0.700217
Si Si2 0.841525 0.108762 0.984821
Si Si3 0.188897 0.608762 0.832188
Si Si4 0.786558 0.266914 0.145248
Si Si5 0.554014 0.766915 0.412696
Si Si6 0.661368 0.857641 0.621289
Si Si7 0.694211 0.642360 0.234285
Si Si8 0.248656 0.483854 0.786464
O O1 0.426135 0.066936 0.548824
O O2 0.769795 0.062644 0.858129
O O3 0.000000 0.000000 0.500000
O O4 0.831900 0.943199 0.895276
O O5 0.625332 0.128189 0.218241
O O6 0.729663 0.179153 0.774166
O O7 0.188381 0.679153 0.732870
O O8 0.224877 0.556801 0.661497
O O9 0.897192 0.628190 0.990096
O O10 0.453937 0.562645 0.042271
O O11 0.559769 0.249999 0.309770
O O12 0.639825 0.310060 0.867413
O O13 0.073919 0.193796 0.177668
O O14 0.702414 0.810060 0.429994
O O15 0.740945 0.693796 0.344693
O O16 0.750369 0.566937 0.373051
O O17 0.000000 0.500000 0.000000
#
# Coordination Sequence:
#
# PCOD9003022 Si02
#       8
#     2   2   2   2   2   2   2   2
#     4   8  16  32  58  85 108 144 190 232 278 333
#     4   9  17  34  58  80 110 150 187 229 283 335
#     4   9  17  34  58  80 110 150 187 229 283 335
#     4  11  22  35  54  83 115 147 188 234 281 335
#     4  11  22  35  54  83 115 147 188 234 281 335
#     4  10  21  37  57  81 112 149 188 232 283 335
#     4  10  21  37  57  81 112 149 188 232 283 335
#     4   8  16  32  58  85 108 144 190 232 278 333
#
# _framework density 28.523667
#
# number of rings (size 3 to 8) (size 9 to 14) (size 15 to 20)
#    0.000    2.500    0.000    2.250    0.000    4.000 
#    0.000    1.250    0.000   61.500    0.000    0.000 
#    0.000    0.000    0.000    0.000    0.000    0.000 
#
# Total GULP energy -89497.890561 kJ/mol
# GULP energy per Si atom -5593.618160 kJ/mol
# Density = 2.845875 g / cm^3
# Si number density = 28.523667 Si / 1000 Ang^3
#
#
#
# Elastic Constant Matrix: (Units=GPa)
#
#
# Indices 1 2 3 4 5 6 
#
# 1 72.7566 34.8602 17.4624 -9.3998 11.8654 -14.2701
# 2 34.8602 252.9937 41.0055 -11.3347 5.9485 -6.4886
# 3 17.4624 41.0055 64.9509 -1.4975 5.2771 -3.3456
# 4 -9.3998 -11.3347 -1.4975 52.8769 3.1144 20.1093
# 5 11.8654 5.9485 5.2771 3.1144 39.8862 -9.5503
# 6 -14.2701 -6.4886 -3.3456 20.1093 -9.5503 45.9586
#
#
#
# Elastic Compliance Matrix: (Units=1/GPa)
#
#
# Indices 1 2 3 4 5 6 
#
# 1 0.016653 -0.001574 -0.002982 0.001490 -0.003646 0.003322
# 2 -0.001574 0.004597 -0.002477 0.000778 -0.000039 -0.000368
# 3 -0.002982 -0.002477 0.017838 -0.000502 -0.001059 0.000023
# 4 0.001490 0.000778 -0.000502 0.023763 -0.004956 -0.010892
# 5 -0.003646 -0.000039 -0.001059 -0.004956 0.028327 0.006840
# 6 0.003322 -0.000368 0.000023 -0.010892 0.006840 0.028927
#
#
# Mechanical properties :
#
#
# Convention : Reuss Voigt Hill
#
# Bulk Modulus (GPa) = 39.96517 64.15081 52.05799
# Shear Modulus (GPa) = 35.08501 47.56919 41.32710
#
# Velocity S-wave (km/s) = 3.51099 4.08819 3.81053
# Velocity P-wave (km/s) = 5.52066 6.69504 6.13601
#
# Compressibility (1/GPa) = 0.02502179
#
# Stress axis : x y z
#
# Youngs Moduli (GPa) = 60.05023 217.51765 56.06142
#
# Poissons Ratio (x) = 0.34228 0.16718
# Poissons Ratio (y) = 0.09449 0.13888
# Poissons Ratio (z) = 0.17907 0.53885
#
# Static dielectric constant tensor:
#      x y z
#    x 2.266970 0.039340 0.120930 
#    y 0.039340 2.232300 0.000100 
#    z 0.120930 0.000100 2.269350 
# 
# From -- ./inp_files/11447.got.cif
#   From: 2010.05.17/outbox.cif.g08.bks.cpg/sg2_6_cif.got.tgz:11447.got - 2010.06.03 11:33:40.
