data_PCOD9003807
_publ_section_title
;
Structure prediction by ZEFSAII (Michael W. Deem and Ramdas Pophale) SiO2 
 PCOD9003807
Probable space group: P -1
;
_chemical_formula_sum "Si O2"
_cell_formula_units_Z 16
_cell_length_a 18.364796
_cell_length_b 14.795769
_cell_length_c 12.322545
_cell_angle_alpha 61.695542
_cell_angle_beta 127.886005
_cell_angle_gamma 161.636151
_cell_volume 748.839712
_symmetry_space_group_name_H-M "P -1"
_symmetry_group_IT_number 2
_symmetry_cell_setting 'triclinic'
loop_
_space_group_symop_operation_xyz
x,y,z
-x,-y,-z
loop_
_atom_site_type_symbol
_atom_site_label
_atom_site_fract_x
_atom_site_fract_y
_atom_site_fract_z
Si Si1 0.161271 0.870665 0.786547
Si Si2 0.932317 0.732863 0.460448
Si Si3 0.841702 0.832595 0.708748
Si Si4 0.217070 0.557252 0.932695
Si Si5 0.826362 0.008235 0.040354
Si Si6 0.649641 0.334356 0.243963
Si Si7 0.688204 0.622762 0.454807
Si Si8 0.880643 0.377416 0.837694
O O1 0.139170 0.917676 0.845961
O O2 0.167079 0.942145 0.642056
O O3 0.895654 0.511935 0.742472
O O4 0.446955 0.104845 0.930648
O O5 0.828291 0.531584 0.404244
O O6 0.686471 0.522046 0.433828
O O7 0.042326 0.938999 0.365171
O O8 0.700571 0.623152 0.596137
O O9 0.584833 0.591798 0.692052
O O10 0.097888 0.031722 0.872991
O O11 0.055228 0.305492 0.003718
O O12 0.171004 0.488467 0.802584
O O13 0.094450 0.537307 0.867025
O O14 0.526195 0.742837 0.881459
O O15 0.418378 0.998591 0.225613
O O16 0.000000 0.000000 0.500000
O O17 0.000000 0.500000 0.000000
#
# Coordination Sequence:
#
# PCOD9003807 Si02
#       8
#     2   2   2   2   2   2   2   2
#     4  11  22  36  65  93 116 159 205 253 306 357
#     4  11  24  40  58  91 132 162 193 253 310 362
#     4  10  21  37  62  91 121 162 208 247 301 353
#     4  10  21  37  64  88 119 151 210 255 299 360
#     4  10  21  38  63  92 115 161 213 248 294 361
#     4  10  24  41  59  89 129 160 199 251 312 363
#     4   9  20  36  59  85 122 156 199 251 293 347
#     4  11  20  41  65  92 115 155 209 259 301 356
#
# _framework density 21.366389000000002
#
# number of rings (size 3 to 8) (size 9 to 14) (size 15 to 20)
#    0.000    1.750    5.000    0.375    5.250    4.000 
#    0.000    1.875    0.000    0.000    0.000    0.000 
#    0.000    0.000    0.000    0.000    0.000    0.000 
#
# Total GULP energy -89284.497036 kJ/mol
# GULP energy per Si atom -5580.281065 kJ/mol
# Density = 2.131776 g / cm^3
# Si number density = 21.366389 Si / 1000 Ang^3
#
#
#
# Elastic Constant Matrix: (Units=GPa)
#
#
# Indices 1 2 3 4 5 6 
#
# 1 57.9918 17.6771 9.5745 5.0780 -16.9378 20.2828
# 2 17.6771 61.3907 7.6371 -8.0570 -11.9687 1.9300
# 3 9.5745 7.6371 36.8256 -5.4697 -15.6550 3.3217
# 4 5.0780 -8.0570 -5.4697 16.6465 -5.7330 4.8059
# 5 -16.9378 -11.9687 -15.6550 -5.7330 40.5686 -2.4303
# 6 20.2828 1.9300 3.3217 4.8059 -2.4303 33.7609
#
#
#
# Elastic Compliance Matrix: (Units=1/GPa)
#
#
# Indices 1 2 3 4 5 6 
#
# 1 0.027141 -0.006478 -0.002342 -0.005665 0.006853 -0.014405
# 2 -0.006478 0.021085 0.002236 0.014933 0.006538 0.000812
# 3 -0.002342 0.002236 0.038198 0.021515 0.017205 -0.004303
# 4 -0.005665 0.014933 0.021515 0.086644 0.021969 -0.010319
# 5 0.006853 0.006538 0.017205 0.021969 0.038793 -0.006519
# 6 -0.014405 0.000812 -0.004303 -0.010319 -0.006519 0.039651
#
#
# Mechanical properties :
#
#
# Convention : Reuss Voigt Hill
#
# Bulk Modulus (GPa) = 13.65089 25.10951 19.38020
# Shear Modulus (GPa) = 17.29505 26.28315 21.78910
#
# Velocity S-wave (km/s) = 2.84817 3.51111 3.19687
# Velocity P-wave (km/s) = 4.14957 5.31174 4.76621
#
# Compressibility (1/GPa) = 0.07325529
#
# Stress axis : x y z
#
# Youngs Moduli (GPa) = 36.84431 47.42637 26.17937
#
# Poissons Ratio (x) = 0.30725 0.06131
# Poissons Ratio (y) = 0.23869 -0.05853
# Poissons Ratio (z) = 0.08628 -0.10603
#
# Static dielectric constant tensor:
#      x y z
#    x 1.804370 -0.010640 0.025620 
#    y -0.010640 1.804390 -0.001680 
#    z 0.025620 -0.001680 1.801570 
# 
# From -- ./inp_files/465856.got.cif
#   From: 2010.05.17/outbox.cif.g08.bks.cpg/sg2_233_cif.got.tgz:465856.got - 2010.06.03 11:33:40.
