data_PCOD9003865
_publ_section_title
;
Structure prediction by ZEFSAII (Michael W. Deem and Ramdas Pophale) SiO2 
 PCOD9003865
Probable space group: P -1
;
_chemical_formula_sum "Si O2"
_cell_formula_units_Z 16
_cell_length_a 11.506279
_cell_length_b 7.606725
_cell_length_c 15.927955
_cell_angle_alpha 107.452570
_cell_angle_beta 100.622076
_cell_angle_gamma 33.216003
_cell_volume 722.588120
_symmetry_space_group_name_H-M "P -1"
_symmetry_group_IT_number 2
_symmetry_cell_setting 'triclinic'
loop_
_space_group_symop_operation_xyz
x,y,z
-x,-y,-z
loop_
_atom_site_type_symbol
_atom_site_label
_atom_site_fract_x
_atom_site_fract_y
_atom_site_fract_z
Si Si1 0.956658 0.792624 0.457515
Si Si2 0.055991 0.916032 0.186833
Si Si3 0.379659 0.329242 0.727347
Si Si4 0.814165 0.284888 0.636704
Si Si5 0.152457 0.955715 0.970596
Si Si6 0.414705 0.562437 0.609087
Si Si7 0.393885 0.004190 0.554490
Si Si8 0.628390 0.209834 0.873167
O O1 0.933269 0.956764 0.558227
O O2 0.803452 0.071295 0.402311
O O3 0.858944 0.719731 0.449655
O O4 0.176120 0.557455 0.405881
O O5 0.856446 0.319900 0.217655
O O6 0.974377 0.856367 0.106900
O O7 0.100517 0.796115 0.270242
O O8 0.260049 0.763074 0.156318
O O9 0.397339 0.454033 0.671638
O O10 0.393317 0.112331 0.657144
O O11 0.571315 0.122092 0.788077
O O12 0.576787 0.513223 0.646946
O O13 0.389485 0.573887 0.924449
O O14 0.214109 0.025909 0.059939
O O15 0.000000 0.000000 0.000000
O O16 0.507890 0.316218 0.510797
O O17 0.500000 0.000000 0.500000
#
# Coordination Sequence:
#
# PCOD9003865 Si02
#       8
#     2   2   2   2   2   2   2   2
#     4  10  20  34  49  66  96 132 173 211 243 276
#     4  10  17  28  46  73  99 126 162 202 247 289
#     4  10  18  30  47  70 100 130 159 201 246 292
#     4  10  18  29  49  67  90 128 169 204 240 280
#     4   8  16  28  46  72 103 126 153 195 248 295
#     4  10  18  34  49  65  95 131 170 211 241 277
#     4   9  19  32  47  67  96 132 169 206 246 285
#     4   9  16  29  47  70 103 130 154 194 249 300
#
# _framework density 22.142627000000001
#
# number of rings (size 3 to 8) (size 9 to 14) (size 15 to 20)
#    0.000    2.500    2.500    1.500    0.000    0.000 
#    0.000    7.500    0.000    0.000    0.000    0.875 
#    0.000   20.000    0.000    1.125    0.000    0.000 
#
# Total GULP energy -89090.522276 kJ/mol
# GULP energy per Si atom -5568.157642 kJ/mol
# Density = 2.209223 g / cm^3
# Si number density = 22.142627 Si / 1000 Ang^3
#
#
#
# Elastic Constant Matrix: (Units=GPa)
#
#
# Indices 1 2 3 4 5 6 
#
# 1 127.0046 21.7427 39.1165 -1.4734 1.9444 -26.3670
# 2 21.7427 53.1715 30.3137 -11.4454 10.3818 -13.1372
# 3 39.1165 30.3137 138.8169 -38.8201 21.0268 -19.3064
# 4 -1.4734 -11.4454 -38.8201 39.6416 -22.5468 4.5535
# 5 1.9444 10.3818 21.0268 -22.5468 44.3131 -2.8723
# 6 -26.3670 -13.1372 -19.3064 4.5535 -2.8723 31.2340
#
#
#
# Elastic Compliance Matrix: (Units=1/GPa)
#
#
# Indices 1 2 3 4 5 6 
#
# 1 0.010356 -0.001812 -0.002509 -0.003483 -0.000163 0.006922
# 2 -0.001812 0.023622 -0.002931 0.001541 -0.002884 0.006104
# 3 -0.002509 -0.002931 0.011781 0.010810 0.000864 0.002435
# 4 -0.003483 0.001541 0.010810 0.046647 0.018350 -0.000723
# 5 -0.000163 -0.002884 0.000864 0.018350 0.032141 -0.000536
# 6 0.006922 0.006104 0.002435 -0.000723 -0.000536 0.041989
#
#
# Mechanical properties :
#
#
# Convention : Reuss Voigt Hill
#
# Bulk Modulus (GPa) = 31.99467 55.70430 43.84949
# Shear Modulus (GPa) = 26.11524 38.22574 32.17049
#
# Velocity S-wave (km/s) = 3.43798 4.15943 3.81580
# Velocity P-wave (km/s) = 5.49912 6.94835 6.26577
#
# Compressibility (1/GPa) = 0.03125520
#
# Stress axis : x y z
#
# Youngs Moduli (GPa) = 96.56390 42.33326 84.87887
#
# Poissons Ratio (x) = 0.07671 0.21297
# Poissons Ratio (y) = 0.17497 0.24878
# Poissons Ratio (z) = 0.24229 0.12408
#
# Static dielectric constant tensor:
#      x y z
#    x 1.911880 -0.081310 -0.023410 
#    y -0.081310 1.926160 -0.030340 
#    z -0.023410 -0.030340 1.875110 
# 
# From -- ./inp_files/514514.got.cif
#   From: 2010.05.17/outbox.cif.g08.bks.cpg/sg2_258_cif.got.tgz:514514.got - 2010.06.03 11:33:40.
