data_PCOD9003110
_publ_section_title
;
Structure prediction by ZEFSAII (Michael W. Deem and Ramdas Pophale) SiO2 
 PCOD9003110
Probable space group: P -1
;
_chemical_formula_sum "Si O2"
_cell_formula_units_Z 14
_cell_length_a 9.864926
_cell_length_b 10.838996
_cell_length_c 17.474809
_cell_angle_alpha 147.590894
_cell_angle_beta 118.738741
_cell_angle_gamma 84.413007
_cell_volume 662.282453
_symmetry_space_group_name_H-M "P -1"
_symmetry_group_IT_number 2
_symmetry_cell_setting 'triclinic'
loop_
_space_group_symop_operation_xyz
x,y,z
-x,-y,-z
loop_
_atom_site_type_symbol
_atom_site_label
_atom_site_fract_x
_atom_site_fract_y
_atom_site_fract_z
Si Si1 0.990648 0.220682 0.166516
Si Si2 0.266304 0.713875 0.386235
Si Si3 0.582230 0.637345 0.802367
Si Si4 0.196221 0.195341 0.755836
Si Si5 0.390169 0.576623 0.564286
Si Si6 0.752114 0.805492 0.412665
Si Si7 0.521700 0.134236 0.816453
O O1 0.061488 0.485706 0.264069
O O2 0.164503 0.386186 0.366661
O O3 0.768304 0.996210 0.027164
O O4 0.000000 0.000000 0.000000
O O5 0.319428 0.522711 0.262347
O O6 0.257460 0.925858 0.440446
O O7 0.440118 0.936584 0.613321
O O8 0.419917 0.518361 0.627434
O O9 0.450370 0.511848 0.777359
O O10 0.222847 0.206298 0.677021
O O11 0.353139 0.158535 0.809140
O O12 0.274652 0.526626 0.969634
O O13 0.961513 0.924834 0.570567
O O14 0.500000 0.500000 0.500000
O O15 0.519880 0.936664 0.775868
#
# Coordination Sequence:
#
# PCOD9003110 Si02
#       7
#     2   2   2   2   2   2   2
#     4   9  18  33  56  81 117 150 177 220 287 349
#     4   9  18  35  59  84 113 147 185 235 291 343
#     4  11  21  36  56  92 122 140 186 243 291 336
#     4   9  20  39  59  75 110 161 196 225 282 332
#     4  11  19  35  60  89 116 148 187 228 297 351
#     4  10  21  37  58  81 112 152 197 234 276 342
#     4   9  18  36  61  80 106 149 199 232 270 350
#
# _framework density 21.139016000000002
#
# number of rings (size 3 to 8) (size 9 to 14) (size 15 to 20)
#    0.000    2.286    4.286    0.429    2.000    0.000 
#    7.714    2.143    0.000    0.000    0.000    0.000 
#    0.000    0.000    0.000    0.000    0.000    0.000 
#
# Total GULP energy -78073.332076 kJ/mol
# GULP energy per Si atom -5576.666577 kJ/mol
# Density = 2.109090 g / cm^3
# Si number density = 21.139016 Si / 1000 Ang^3
#
#
#
# Elastic Constant Matrix: (Units=GPa)
#
#
# Indices 1 2 3 4 5 6 
#
# 1 44.3977 19.9625 17.7323 11.0269 25.6070 13.3709
# 2 19.9625 51.0780 -4.9228 9.3496 12.7980 1.3791
# 3 17.7323 -4.9228 67.7323 15.3932 19.6016 8.4977
# 4 11.0269 9.3496 15.3932 27.6128 3.0111 8.1881
# 5 25.6070 12.7980 19.6016 3.0111 36.1551 11.1715
# 6 13.3709 1.3791 8.4977 8.1881 11.1715 24.1363
#
#
#
# Elastic Compliance Matrix: (Units=1/GPa)
#
#
# Indices 1 2 3 4 5 6 
#
# 1 0.048162 -0.011374 -0.003300 -0.007618 -0.024243 -0.011063
# 2 -0.011374 0.029352 0.009473 -0.012594 -0.009498 0.009957
# 3 -0.003300 0.009473 0.023017 -0.014548 -0.013654 0.004439
# 4 -0.007618 -0.012594 -0.014548 0.054668 0.018448 -0.017022
# 5 -0.024243 -0.009498 -0.013654 0.018448 0.058564 -0.014585
# 6 -0.011063 0.009957 0.004439 -0.017022 -0.014585 0.057954
#
#
# Mechanical properties :
#
#
# Convention : Reuss Voigt Hill
#
# Bulk Modulus (GPa) = 11.09519 25.41690 18.25604
# Shear Modulus (GPa) = 16.01730 26.27657 21.14693
#
# Velocity S-wave (km/s) = 2.75564 3.52950 3.16630
# Velocity P-wave (km/s) = 3.92235 5.35347 4.69278
#
# Compressibility (1/GPa) = 0.09012916
#
# Stress axis : x y z
#
# Youngs Moduli (GPa) = 20.76317 34.06914 43.44528
#
# Poissons Ratio (x) = 0.38749 0.14338
# Poissons Ratio (y) = 0.23615 -0.41154
# Poissons Ratio (z) = 0.06852 -0.32272
#
# Static dielectric constant tensor:
#      x y z
#    x 1.789440 -0.025160 -0.002310 
#    y -0.025160 1.777220 0.009620 
#    z -0.002310 0.009620 1.810180 
# 
# From -- ./inp_files/181787.got.cif
#   From: 2010.05.17/outbox.cif.g08.bks.cpg/sg2_91_cif.got.tgz:181787.got - 2010.06.03 11:33:40.
