data_PCOD9003923
_publ_section_title
;
Structure prediction by ZEFSAII (Michael W. Deem and Ramdas Pophale) SiO2 
 PCOD9003923
Probable space group: P -1
;
_chemical_formula_sum "Si O2"
_cell_formula_units_Z 14
_cell_length_a 8.940381
_cell_length_b 17.048508
_cell_length_c 5.435999
_cell_angle_alpha 114.770964
_cell_angle_beta 55.714868
_cell_angle_gamma 127.929632
_cell_volume 536.608407
_symmetry_space_group_name_H-M "P -1"
_symmetry_group_IT_number 2
_symmetry_cell_setting 'triclinic'
loop_
_space_group_symop_operation_xyz
x,y,z
-x,-y,-z
loop_
_atom_site_type_symbol
_atom_site_label
_atom_site_fract_x
_atom_site_fract_y
_atom_site_fract_z
Si Si1 0.938382 0.877568 0.631902
Si Si2 0.011564 0.315083 0.662899
Si Si3 0.835454 0.820584 0.149542
Si Si4 0.572211 0.969022 0.641439
Si Si5 0.239706 0.532622 0.769563
Si Si6 0.467683 0.595613 0.143200
Si Si7 0.192638 0.766604 0.753157
O O1 0.822296 0.870084 0.478349
O O2 0.929555 0.770963 0.508803
O O3 0.829581 0.876990 0.985138
O O4 0.177679 0.962741 0.508081
O O5 0.895600 0.304329 0.497286
O O6 0.217393 0.422727 0.639621
O O7 0.866978 0.290009 0.005493
O O8 0.673195 0.702724 0.132457
O O9 0.063777 0.827225 0.950755
O O10 0.435344 0.847880 0.608214
O O11 0.500000 0.000000 0.500000
O O12 0.500000 0.000000 0.000000
O O13 0.319768 0.580853 0.493499
O O14 0.373810 0.592840 0.958497
O O15 0.000000 0.500000 0.000000
O O16 0.500000 0.500000 0.000000
#
# Coordination Sequence:
#
# PCOD9003923 Si02
#       7
#     2   2   2   2   2   2   2
#     4  10  17  28  46  75 115 145 179 231 292 348
#     4  10  18  32  49  69 103 146 188 224 288 338
#     4  10  18  29  46  73 105 141 180 227 283 337
#     4  12  16  27  43  74 118 152 178 218 303 356
#     4  12  26  43  61  86 122 162 206 258 303 357
#     4  12  23  40  64  89 116 155 208 254 309 366
#     4  10  18  29  47  78 113 147 179 236 290 352
#
# _framework density 26.089789
#
# number of rings (size 3 to 8) (size 9 to 14) (size 15 to 20)
#    0.000    1.143    5.714    6.000    0.000    0.000 
#    0.000    0.000    0.000    0.000    0.000    0.000 
#    0.000   38.857    0.000    0.000    0.000    0.000 
#
# Total GULP energy -78473.546031 kJ/mol
# GULP energy per Si atom -5605.253288 kJ/mol
# Density = 2.603041 g / cm^3
# Si number density = 26.089789 Si / 1000 Ang^3
#
#
#
# Elastic Constant Matrix: (Units=GPa)
#
#
# Indices 1 2 3 4 5 6 
#
# 1 79.1026 35.9152 59.9104 9.0793 27.9206 26.5754
# 2 35.9152 150.3188 48.6863 -18.4153 19.6931 28.4937
# 3 59.9104 48.6863 201.9247 -17.7657 62.7528 15.9131
# 4 9.0793 -18.4153 -17.7657 51.6786 3.2529 1.5286
# 5 27.9206 19.6931 62.7528 3.2529 64.2292 15.3948
# 6 26.5754 28.4937 15.9131 1.5286 15.3948 49.4315
#
#
#
# Elastic Compliance Matrix: (Units=1/GPa)
#
#
# Indices 1 2 3 4 5 6 
#
# 1 0.021648 -0.002551 -0.005372 -0.006252 -0.001175 -0.007879
# 2 -0.002551 0.008566 -0.000677 0.003381 -0.000216 -0.003385
# 3 -0.005372 -0.000677 0.009112 0.004213 -0.007159 0.002444
# 4 -0.006252 0.003381 0.004213 0.023323 -0.003736 0.000498
# 5 -0.001175 -0.000216 -0.007159 -0.003736 0.024389 -0.004420
# 6 -0.007879 -0.003385 0.002444 0.000498 -0.004420 0.026992
#
#
# Mechanical properties :
#
#
# Convention : Reuss Voigt Hill
#
# Bulk Modulus (GPa) = 45.19501 80.04110 62.61806
# Shear Modulus (GPa) = 36.07379 52.19014 44.13196
#
# Velocity S-wave (km/s) = 3.72247 4.47744 4.11730
# Velocity P-wave (km/s) = 5.98634 7.58127 6.83051
#
# Compressibility (1/GPa) = 0.02212634
#
# Stress axis : x y z
#
# Youngs Moduli (GPa) = 46.19385 116.74711 109.73965
#
# Poissons Ratio (x) = 0.29780 0.58951
# Poissons Ratio (y) = 0.11783 0.07431
# Poissons Ratio (z) = 0.24815 0.07905
#
# Static dielectric constant tensor:
#      x y z
#    x 2.129820 -0.055070 -0.000300 
#    y -0.055070 2.004410 0.056450 
#    z -0.000300 0.056450 2.132030 
# 
# From -- ./inp_files/32553.got.cif
#   From: 2010.05.17/outbox.cif.g08.bks.cpg/sg2_17_cif.got.tgz:32553.got - 2010.06.03 11:33:40.
