data_PCOD9003611
_publ_section_title
;
Structure prediction by ZEFSAII (Michael W. Deem and Ramdas Pophale) SiO2 
 PCOD9003611
Probable space group: P -1
;
_chemical_formula_sum "Si O2"
_cell_formula_units_Z 14
_cell_length_a 16.814300
_cell_length_b 10.612353
_cell_length_c 8.871284
_cell_angle_alpha 103.178857
_cell_angle_beta 47.261311
_cell_angle_gamma 138.267106
_cell_volume 636.118196
_symmetry_space_group_name_H-M "P -1"
_symmetry_group_IT_number 2
_symmetry_cell_setting 'triclinic'
loop_
_space_group_symop_operation_xyz
x,y,z
-x,-y,-z
loop_
_atom_site_type_symbol
_atom_site_label
_atom_site_fract_x
_atom_site_fract_y
_atom_site_fract_z
Si Si1 0.406711 0.399436 0.929460
Si Si2 0.146591 0.292456 0.044066
Si Si3 0.086019 0.873355 0.141492
Si Si4 0.205332 0.205292 0.643824
Si Si5 0.227666 0.806525 0.696372
Si Si6 0.949526 0.399596 0.701547
Si Si7 0.655214 0.254119 0.198867
O O1 0.257449 0.366533 0.073764
O O2 0.582355 0.583963 0.636798
O O3 0.500000 0.500000 0.000000
O O4 0.278365 0.143988 0.005751
O O5 0.202425 0.238474 0.832912
O O6 0.228227 0.503733 0.929469
O O7 0.917515 0.047885 0.289213
O O8 0.025264 0.725266 0.321367
O O9 0.920636 0.809010 0.283880
O O10 0.135494 0.823814 0.927796
O O11 0.285951 0.743559 0.712777
O O12 0.083356 0.610671 0.704169
O O13 0.428203 0.053300 0.436148
O O14 0.000000 0.500000 0.500000
O O15 0.729385 0.218832 0.977417
#
# Coordination Sequence:
#
# PCOD9003611 Si02
#       7
#     2   2   2   2   2   2   2
#     4  11  25  40  59  89 122 156 194 241 299 353
#     4  10  21  37  61  89 113 153 202 244 289 344
#     4  10  22  41  64  86 115 159 201 239 289 351
#     4  10  21  39  62  85 116 154 200 247 289 341
#     4  10  21  40  64  88 116 156 202 240 288 350
#     4  11  24  38  59  93 124 153 192 241 298 352
#     4  10  21  38  62  87 118 156 198 243 287 344
#
# _framework density 22.008489000000001
#
# number of rings (size 3 to 8) (size 9 to 14) (size 15 to 20)
#    0.000    1.714    0.000    4.714    0.000   12.000 
#    0.000    0.000    0.000    0.000    0.000    0.000 
#    0.000    0.000    0.000    0.000    0.000    0.000 
#
# Total GULP energy -78307.510757 kJ/mol
# GULP energy per Si atom -5593.393625 kJ/mol
# Density = 2.195840 g / cm^3
# Si number density = 22.008489 Si / 1000 Ang^3
#
#
#
# Elastic Constant Matrix: (Units=GPa)
#
#
# Indices 1 2 3 4 5 6 
#
# 1 94.3914 47.0910 26.2184 -20.4448 21.3615 -0.7430
# 2 47.0910 97.7955 17.8719 -33.9508 7.3270 -2.0743
# 3 26.2184 17.8719 81.4368 -24.8138 6.3870 4.3011
# 4 -20.4448 -33.9508 -24.8138 33.8969 1.3056 10.5495
# 5 21.3615 7.3270 6.3870 1.3056 36.8255 -4.8939
# 6 -0.7430 -2.0743 4.3011 10.5495 -4.8939 39.7671
#
#
#
# Elastic Compliance Matrix: (Units=1/GPa)
#
#
# Indices 1 2 3 4 5 6 
#
# 1 0.016839 -0.005900 -0.002334 0.003393 -0.008534 -0.001691
# 2 -0.005900 0.019777 0.004629 0.021499 -0.002826 -0.005630
# 3 -0.002334 0.004629 0.018683 0.019422 -0.004497 -0.007528
# 4 0.003393 0.021499 0.019422 0.074945 -0.015285 -0.022678
# 5 -0.008534 -0.002826 -0.004497 -0.015285 0.035127 0.008557
# 6 -0.001691 -0.005630 -0.007528 -0.022678 0.008557 0.032705
#
#
# Mechanical properties :
#
#
# Convention : Reuss Voigt Hill
#
# Bulk Modulus (GPa) = 20.79492 50.66513 35.73002
# Shear Modulus (GPa) = 22.59223 34.26075 28.42649
#
# Velocity S-wave (km/s) = 3.20742 3.94979 3.59780
# Velocity P-wave (km/s) = 4.81516 6.62358 5.79041
#
# Compressibility (1/GPa) = 0.04808866
#
# Stress axis : x y z
#
# Youngs Moduli (GPa) = 59.38564 50.56486 53.52447
#
# Poissons Ratio (x) = 0.29835 0.12492
# Poissons Ratio (y) = 0.35040 -0.24778
# Poissons Ratio (z) = 0.13860 -0.23408
#
# Static dielectric constant tensor:
#      x y z
#    x 1.860290 -0.032920 -0.013260 
#    y -0.032920 1.806520 0.004170 
#    z -0.013260 0.004170 1.817080 
# 
# From -- ./inp_files/277473.got.cif
#   From: 2010.05.17/outbox.cif.g08.bks.cpg/sg2_139_cif.got.tgz:277473.got - 2010.06.03 11:33:40.
