data_PCOD9003422
_publ_section_title
;
Structure prediction by ZEFSAII (Michael W. Deem and Ramdas Pophale) SiO2 
 PCOD9003422
Probable space group: P -1
;
_chemical_formula_sum "Si O2"
_cell_formula_units_Z 16
_cell_length_a 18.713748
_cell_length_b 22.559286
_cell_length_c 12.873420
_cell_angle_alpha 24.641900
_cell_angle_beta 151.759079
_cell_angle_gamma 163.149835
_cell_volume 654.089221
_symmetry_space_group_name_H-M "P -1"
_symmetry_group_IT_number 2
_symmetry_cell_setting 'triclinic'
loop_
_space_group_symop_operation_xyz
x,y,z
-x,-y,-z
loop_
_atom_site_type_symbol
_atom_site_label
_atom_site_fract_x
_atom_site_fract_y
_atom_site_fract_z
Si Si1 0.176728 0.991632 0.744746
Si Si2 0.363202 0.967383 0.644025
Si Si3 0.377749 0.488280 0.458100
Si Si4 0.212329 0.704573 0.683985
Si Si5 0.130051 0.233603 0.747075
Si Si6 0.119873 0.449736 0.792331
Si Si7 0.238210 0.490778 0.666452
Si Si8 0.114576 0.732360 0.900103
O O1 0.215487 0.931795 0.784659
O O2 0.435394 0.249100 0.694113
O O3 0.000000 0.000000 0.500000
O O4 0.067206 0.795050 0.998571
O O5 0.412663 0.911948 0.691452
O O6 0.110484 0.858547 0.457230
O O7 0.286277 0.824759 0.875822
O O8 0.577661 0.235444 0.527939
O O9 0.500000 0.500000 0.500000
O O10 0.307320 0.344447 0.698339
O O11 0.131180 0.378832 0.279979
O O12 0.283366 0.639268 0.793713
O O13 0.057665 0.705141 0.420553
O O14 0.987119 0.472108 0.835723
O O15 0.286325 0.426529 0.732147
O O16 0.000000 0.000000 0.000000
O O17 0.250410 0.457341 0.856544
O O18 0.000000 0.500000 0.500000
#
# Coordination Sequence:
#
# PCOD9003422 Si02
#       8
#     2   2   2   2   2   2   2   2
#     4  11  22  38  62  90 121 161 212 264 303 374
#     4  10  21  37  60  86 120 159 201 256 313 374
#     4  11  23  40  62  90 121 164 209 254 319 367
#     4   9  20  38  57  89 119 156 208 259 301 376
#     4  10  24  41  60  90 127 160 209 261 311 382
#     4   9  21  39  60  89 128 163 208 259 313 372
#     4  10  21  39  60  86 121 165 202 252 319 373
#     4  10  21  38  58  89 122 155 205 255 311 370
#
# _framework density 24.461496
#
# number of rings (size 3 to 8) (size 9 to 14) (size 15 to 20)
#    0.000    2.000    1.250    1.125    1.750    5.500 
#    0.000    0.000    0.000    0.000    0.000    0.000 
#    0.000    0.000    0.000    0.000    0.000    0.000 
#
# Total GULP energy -89310.304678 kJ/mol
# GULP energy per Si atom -5581.894042 kJ/mol
# Density = 2.440582 g / cm^3
# Si number density = 24.461496 Si / 1000 Ang^3
#
#
#
# Elastic Constant Matrix: (Units=GPa)
#
#
# Indices 1 2 3 4 5 6 
#
# 1 147.0299 80.2059 60.5835 -5.8805 -21.6917 -27.6186
# 2 80.2059 124.0328 37.1637 -18.3217 8.4126 -38.5990
# 3 60.5835 37.1637 108.2051 -11.4758 -9.9363 -11.4924
# 4 -5.8805 -18.3217 -11.4758 35.4491 3.0230 10.7949
# 5 -21.6917 8.4126 -9.9363 3.0230 38.5283 -4.5655
# 6 -27.6186 -38.5990 -11.4924 10.7949 -4.5655 39.9426
#
#
#
# Elastic Compliance Matrix: (Units=1/GPa)
#
#
# Indices 1 2 3 4 5 6 
#
# 1 0.015866 -0.009296 -0.004978 -0.005684 0.010515 0.003293
# 2 -0.009296 0.018318 -0.000352 0.005953 -0.008777 0.008560
# 3 -0.004978 -0.000352 0.012393 0.003335 0.000077 -0.001109
# 4 -0.005684 0.005953 0.003335 0.034259 -0.007193 -0.007299
# 5 0.010515 -0.008777 0.000077 -0.007193 0.034938 0.004748
# 6 0.003293 0.008560 -0.001109 -0.007299 0.004748 0.037781
#
#
# Mechanical properties :
#
#
# Convention : Reuss Voigt Hill
#
# Bulk Modulus (GPa) = 57.72178 81.68600 69.70389
# Shear Modulus (GPa) = 26.51343 36.20497 31.35920
#
# Velocity S-wave (km/s) = 3.29581 3.85135 3.58436
# Velocity P-wave (km/s) = 6.17506 7.29681 6.75925
#
# Compressibility (1/GPa) = 0.01732448
#
# Stress axis : x y z
#
# Youngs Moduli (GPa) = 63.02634 54.59094 80.69236
#
# Poissons Ratio (x) = 0.50750 0.40169
# Poissons Ratio (y) = 0.58592 0.02839
# Poissons Ratio (z) = 0.31375 0.01921
#
# Static dielectric constant tensor:
#      x y z
#    x 2.069970 0.012290 0.009100 
#    y 0.012290 1.940720 0.072940 
#    z 0.009100 0.072940 2.018600 
# 
# From -- ./inp_files/467056.got.cif
#   From: 2010.05.17/outbox.cif.g08.bks.cpg/sg2_234_cif.got.tgz:467056.got - 2010.06.03 11:33:40.
