data_PCOD9003747
_publ_section_title
;
Structure prediction by ZEFSAII (Michael W. Deem and Ramdas Pophale) SiO2 
 PCOD9003747
Probable space group: P -1
;
_chemical_formula_sum "Si O2"
_cell_formula_units_Z 16
_cell_length_a 9.771900
_cell_length_b 10.530816
_cell_length_c 11.764301
_cell_angle_alpha 99.109885
_cell_angle_beta 96.001162
_cell_angle_gamma 30.904522
_cell_volume 612.770905
_symmetry_space_group_name_H-M "P -1"
_symmetry_group_IT_number 2
_symmetry_cell_setting 'triclinic'
loop_
_space_group_symop_operation_xyz
x,y,z
-x,-y,-z
loop_
_atom_site_type_symbol
_atom_site_label
_atom_site_fract_x
_atom_site_fract_y
_atom_site_fract_z
Si Si1 0.390013 0.223372 0.792888
Si Si2 0.552663 0.585364 0.312154
Si Si3 0.604379 0.473536 0.890128
Si Si4 0.750075 0.830187 0.580121
Si Si5 0.864174 0.520262 0.711416
Si Si6 0.151445 0.013396 0.515645
Si Si7 0.745525 0.626361 0.955431
Si Si8 0.618639 0.255764 0.291497
O O1 0.292783 0.436908 0.756479
O O2 0.162540 0.300521 0.754303
O O3 0.644901 0.986170 0.706203
O O4 0.444368 0.201047 0.927733
O O5 0.346491 0.680204 0.217787
O O6 0.414194 0.767898 0.429343
O O7 0.688867 0.347584 0.339508
O O8 0.811775 0.420709 0.923002
O O9 0.369988 0.744681 0.843853
O O10 0.500000 0.500000 0.000000
O O11 0.855905 0.614300 0.612379
O O12 0.500000 0.000000 0.500000
O O13 0.930236 0.787062 0.520379
O O14 0.690289 0.713531 0.833331
O O15 0.694857 0.525082 0.679533
O O16 0.228820 0.964990 0.647892
O O17 0.000000 0.000000 0.500000
O O18 0.000000 0.500000 0.000000
#
# Coordination Sequence:
#
# PCOD9003747 Si02
#       8
#     2   2   2   2   2   2   2   2
#     4  10  21  37  62  85 116 152 191 237 284 340
#     4   9  20  35  58  85 109 143 197 223 287 339
#     4   9  16  31  58  82 110 140 179 241 277 330
#     4  11  24  41  54  84 119 150 197 234 283 344
#     4  10  21  38  59  86 116 153 188 236 287 338
#     4  11  23  39  56  80 116 149 189 243 278 334
#     4   9  17  34  57  89 111 144 195 227 283 347
#     4   9  19  36  57  82 110 144 193 224 283 342
#
# _framework density 26.110900000000001
#
# number of rings (size 3 to 8) (size 9 to 14) (size 15 to 20)
#    0.750    1.500    2.500    0.375    1.750    2.000 
#    0.000    0.000    0.000    0.750    0.000    0.000 
#    0.000    0.000    0.000    0.000    0.000    0.000 
#
# Total GULP energy -89144.807960 kJ/mol
# GULP energy per Si atom -5571.550497 kJ/mol
# Density = 2.605147 g / cm^3
# Si number density = 26.110900 Si / 1000 Ang^3
#
#
#
# Elastic Constant Matrix: (Units=GPa)
#
#
# Indices 1 2 3 4 5 6 
#
# 1 199.6072 20.7065 53.0251 -14.8315 -7.5960 11.7611
# 2 20.7065 36.6685 34.1077 -0.1005 -4.2451 12.2970
# 3 53.0251 34.1077 167.4613 -9.6794 -39.3580 14.5289
# 4 -14.8315 -0.1005 -9.6794 24.1823 6.4342 2.1649
# 5 -7.5960 -4.2451 -39.3580 6.4342 59.8735 -7.6022
# 6 11.7611 12.2970 14.5289 2.1649 -7.6022 32.8792
#
#
#
# Elastic Compliance Matrix: (Units=1/GPa)
#
#
# Indices 1 2 3 4 5 6 
#
# 1 0.005846 -0.001660 -0.001403 0.003348 -0.000818 -0.001260
# 2 -0.001660 0.038277 -0.007218 -0.001821 -0.003470 -0.011215
# 3 -0.001403 -0.007218 0.009170 0.001366 0.005225 0.000268
# 4 0.003348 -0.001821 0.001366 0.045562 -0.004354 -0.005127
# 5 -0.000818 -0.003470 0.005225 -0.004354 0.020811 0.004380
# 6 -0.001260 -0.011215 0.000268 -0.005127 0.004380 0.036292
#
#
# Mechanical properties :
#
#
# Convention : Reuss Voigt Hill
#
# Bulk Modulus (GPa) = 30.55109 68.82396 49.68752
# Shear Modulus (GPa) = 26.67663 43.11351 34.89507
#
# Velocity S-wave (km/s) = 3.19982 4.06787 3.65967
# Velocity P-wave (km/s) = 5.03763 6.96268 6.07687
#
# Compressibility (1/GPa) = 0.03273206
#
# Stress axis : x y z
#
# Youngs Moduli (GPa) = 171.04276 26.12526 109.05621
#
# Poissons Ratio (x) = 0.04336 0.15295
# Poissons Ratio (y) = 0.28389 0.78720
# Poissons Ratio (z) = 0.23989 0.18858
#
# Static dielectric constant tensor:
#      x y z
#    x 2.152880 0.040780 0.020620 
#    y 0.040780 2.178120 -0.024750 
#    z 0.020620 -0.024750 2.133490 
# 
# From -- ./inp_files/390447.got.cif
#   From: 2010.05.17/outbox.cif.g08.bks.cpg/sg2_196_cif.got.tgz:390447.got - 2010.06.03 11:33:40.
