data_PCOD9003276
_publ_section_title
;
Structure prediction by ZEFSAII (Michael W. Deem and Ramdas Pophale) SiO2 
 PCOD9003276
Probable space group: P -1
;
_chemical_formula_sum "Si O2"
_cell_formula_units_Z 16
_cell_length_a 27.090394
_cell_length_b 6.824813
_cell_length_c 17.761119
_cell_angle_alpha 43.912149
_cell_angle_beta 160.743322
_cell_angle_gamma 138.425680
_cell_volume 717.161512
_symmetry_space_group_name_H-M "P -1"
_symmetry_group_IT_number 2
_symmetry_cell_setting 'triclinic'
loop_
_space_group_symop_operation_xyz
x,y,z
-x,-y,-z
loop_
_atom_site_type_symbol
_atom_site_label
_atom_site_fract_x
_atom_site_fract_y
_atom_site_fract_z
Si Si1 0.694791 0.801166 0.486068
Si Si2 0.969682 0.844299 0.162719
Si Si3 0.045721 0.842233 0.449417
Si Si4 0.185743 0.835866 0.917251
Si Si5 0.678324 0.930604 0.652318
Si Si6 0.511887 0.145430 0.221498
Si Si7 0.616585 0.811192 0.200095
Si Si8 0.635416 0.343163 0.650329
O O1 0.675436 0.755809 0.382730
O O2 0.678343 0.494947 0.589912
O O3 0.867588 0.027312 0.683151
O O4 0.566684 0.951634 0.291299
O O5 0.001222 0.872321 0.289486
O O6 0.894337 0.497461 0.133090
O O7 0.848718 0.011853 0.911651
O O8 0.000000 0.500000 0.500000
O O9 0.231861 0.002623 0.679623
O O10 0.943530 0.995030 0.310670
O O11 0.257800 0.826732 0.107438
O O12 0.335138 0.991688 0.037355
O O13 0.660466 0.631373 0.660917
O O14 0.624796 0.129641 0.459285
O O15 0.546455 0.837242 0.552677
O O16 0.537583 0.485525 0.143553
O O17 0.500000 0.000000 0.000000
#
# Coordination Sequence:
#
# PCOD9003276 Si02
#       8
#     2   2   2   2   2   2   2   2
#     4  10  21  37  59  87 117 149 186 232 285 336
#     4  10  21  37  59  87 117 149 186 232 285 336
#     4  11  25  42  59  82 112 149 195 240 282 333
#     4  10  21  38  61  87 116 151 188 229 280 337
#     4   8  16  32  55  85 117 149 185 223 273 338
#     4  10  21  38  61  87 116 151 188 229 280 337
#     4  11  25  42  59  82 112 149 195 240 282 333
#     4   8  16  32  55  85 117 149 185 223 273 338
#
# _framework density 22.310178000000001
#
# number of rings (size 3 to 8) (size 9 to 14) (size 15 to 20)
#    0.000    2.250    0.000    3.750    0.000   11.500 
#    0.000    5.000    0.000    0.000    0.000    0.000 
#    0.000    0.000    0.000    0.000    0.000    0.000 
#
# Total GULP energy -89441.784594 kJ/mol
# GULP energy per Si atom -5590.111537 kJ/mol
# Density = 2.225940 g / cm^3
# Si number density = 22.310178 Si / 1000 Ang^3
#
#
#
# Elastic Constant Matrix: (Units=GPa)
#
#
# Indices 1 2 3 4 5 6 
#
# 1 91.5582 26.7487 26.8543 6.7756 19.9370 14.3075
# 2 26.7487 115.0264 42.1174 -8.5736 30.2033 23.9876
# 3 26.8543 42.1174 100.6698 -3.3357 38.1780 10.8742
# 4 6.7756 -8.5736 -3.3357 27.7459 -7.4709 3.9901
# 5 19.9370 30.2033 38.1780 -7.4709 39.5646 2.7856
# 6 14.3075 23.9876 10.8742 3.9901 2.7856 33.3050
#
#
#
# Elastic Compliance Matrix: (Units=1/GPa)
#
#
# Indices 1 2 3 4 5 6 
#
# 1 0.013696 -0.000828 -0.000666 -0.004793 -0.006253 -0.003973
# 2 -0.000828 0.013364 -0.001733 0.003509 -0.006847 -0.008551
# 3 -0.000666 -0.001733 0.016526 -0.001939 -0.014484 -0.002418
# 4 -0.004793 0.003509 -0.001939 0.041524 0.009844 -0.005634
# 5 -0.006253 -0.006847 -0.014484 0.009844 0.048990 0.007070
# 6 -0.003973 -0.008551 -0.002418 -0.005634 0.007070 0.038764
#
#
# Mechanical properties :
#
#
# Convention : Reuss Voigt Hill
#
# Bulk Modulus (GPa) = 26.93135 55.41057 41.17096
# Shear Modulus (GPa) = 26.08298 34.22537 30.15417
#
# Velocity S-wave (km/s) = 3.42293 3.92097 3.68038
# Velocity P-wave (km/s) = 5.26493 6.73714 6.04601
#
# Compressibility (1/GPa) = 0.03713145
#
# Stress axis : x y z
#
# Youngs Moduli (GPa) = 73.01305 74.83000 60.51047
#
# Poissons Ratio (x) = 0.06198 0.04027
# Poissons Ratio (y) = 0.06048 0.10489
# Poissons Ratio (z) = 0.04859 0.12971
#
# Static dielectric constant tensor:
#      x y z
#    x 1.825250 -0.029030 -0.037810 
#    y -0.029030 1.824670 -0.000670 
#    z -0.037810 -0.000670 1.834030 
# 
# From -- ./inp_files/579529.got.cif
#   From: 2010.05.17/outbox.cif.g08.bks.cpg/sg2_290_cif.got.tgz:579529.got - 2010.06.03 11:33:40.
