data_PCOD9003669
_publ_section_title
;
Structure prediction by ZEFSAII (Michael W. Deem and Ramdas Pophale) SiO2 
 PCOD9003669
Probable space group: P -1
;
_chemical_formula_sum "Si O2"
_cell_formula_units_Z 16
_cell_length_a 12.124160
_cell_length_b 29.208058
_cell_length_c 5.707288
_cell_angle_alpha 133.815282
_cell_angle_beta 53.785371
_cell_angle_gamma 154.766266
_cell_volume 617.573855
_symmetry_space_group_name_H-M "P -1"
_symmetry_group_IT_number 2
_symmetry_cell_setting 'triclinic'
loop_
_space_group_symop_operation_xyz
x,y,z
-x,-y,-z
loop_
_atom_site_type_symbol
_atom_site_label
_atom_site_fract_x
_atom_site_fract_y
_atom_site_fract_z
Si Si1 0.286392 0.164736 0.338023
Si Si2 0.481887 0.587120 0.565972
Si Si3 0.335197 0.790178 0.833678
Si Si4 0.700948 0.444534 0.814972
Si Si5 0.609058 0.018599 0.174990
Si Si6 0.200107 0.677453 0.188641
Si Si7 0.245222 0.168114 0.915413
Si Si8 0.991556 0.721704 0.361692
O O1 0.470537 0.175427 0.134986
O O2 0.496155 0.305921 0.579758
O O3 0.110177 0.105079 0.115629
O O4 0.142247 0.111392 0.583190
O O5 0.330102 0.532205 0.312815
O O6 0.638483 0.715624 0.825344
O O7 0.686848 0.610705 0.373182
O O8 0.359810 0.539604 0.812394
O O9 0.166962 0.672002 0.487526
O O10 0.541583 0.917918 0.899304
O O11 0.112559 0.749588 0.060517
O O12 0.007568 0.553221 0.863262
O O13 0.500000 0.000000 0.500000
O O14 0.890043 0.162153 0.323271
O O15 0.500000 0.000000 0.000000
O O16 0.125968 0.718279 0.330632
O O17 0.497566 0.773352 0.163589
#
# Coordination Sequence:
#
# PCOD9003669 Si02
#       8
#     2   2   2   2   2   2   2   2
#     4   9  18  35  57  81 114 145 194 235 285 326
#     4  10  24  40  57  81 127 157 195 231 299 345
#     4  10  21  37  61  92 114 147 198 254 287 341
#     4  10  24  39  58  85 118 165 192 238 280 355
#     4  10  21  38  60  88 116 147 194 244 296 341
#     4  11  22  36  64  83 119 152 209 234 290 333
#     4   9  19  36  56  82 109 157 189 243 275 339
#     4  11  23  39  61  88 118 157 190 247 297 349
#
# _framework density 25.907833
#
# number of rings (size 3 to 8) (size 9 to 14) (size 15 to 20)
#    0.000    2.000    2.500    0.000    3.500    7.500 
#    0.000    0.000    0.000    9.750    0.000    0.000 
#    0.000    0.000    0.000    0.000    0.000    0.000 
#
# Total GULP energy -89135.228398 kJ/mol
# GULP energy per Si atom -5570.951775 kJ/mol
# Density = 2.584887 g / cm^3
# Si number density = 25.907833 Si / 1000 Ang^3
#
#
#
# Elastic Constant Matrix: (Units=GPa)
#
#
# Indices 1 2 3 4 5 6 
#
# 1 101.2074 36.0239 44.0699 -9.9150 15.9949 -23.2779
# 2 36.0239 64.2183 32.4009 -4.0729 9.9074 -11.8129
# 3 44.0699 32.4009 137.2950 -5.8732 29.6768 -3.8966
# 4 -9.9150 -4.0729 -5.8732 34.0517 -12.6590 2.6207
# 5 15.9949 9.9074 29.6768 -12.6590 45.1329 1.8563
# 6 -23.2779 -11.8129 -3.8966 2.6207 1.8563 37.6557
#
#
#
# Elastic Compliance Matrix: (Units=1/GPa)
#
#
# Indices 1 2 3 4 5 6 
#
# 1 0.015259 -0.005277 -0.002904 0.001959 -0.002096 0.007444
# 2 -0.005277 0.020681 -0.002910 -0.000135 -0.000917 0.002979
# 3 -0.002904 -0.002910 0.009926 -0.001300 -0.005169 -0.001336
# 4 0.001959 -0.000135 -0.001300 0.033415 0.009635 -0.001767
# 5 -0.002096 -0.000917 -0.005169 0.009635 0.029376 -0.004237
# 6 0.007444 0.002979 -0.001336 -0.001767 -0.004237 0.032286
#
#
# Mechanical properties :
#
#
# Convention : Reuss Voigt Hill
#
# Bulk Modulus (GPa) = 42.22360 58.63445 50.42903
# Shear Modulus (GPa) = 29.23605 36.04978 32.64292
#
# Velocity S-wave (km/s) = 3.36291 3.73428 3.55345
# Velocity P-wave (km/s) = 5.60463 6.42450 6.02852
#
# Compressibility (1/GPa) = 0.02368344
#
# Stress axis : x y z
#
# Youngs Moduli (GPa) = 65.53456 48.35294 100.74330
#
# Poissons Ratio (x) = 0.25518 0.29259
# Poissons Ratio (y) = 0.34586 0.29314
# Poissons Ratio (z) = 0.19034 0.14070
#
# Static dielectric constant tensor:
#      x y z
#    x 1.979340 -0.016560 0.038470 
#    y -0.016560 2.246490 -0.151750 
#    z 0.038470 -0.151750 2.219540 
# 
# From -- ./inp_files/67152.got.cif
#   From: 2010.05.17/outbox.cif.g08.bks.cpg/sg2_34_cif.got.tgz:67152.got - 2010.06.03 11:33:40.
