data_PCOD9003187
_publ_section_title
;
Structure prediction by ZEFSAII (Michael W. Deem and Ramdas Pophale) SiO2 
 PCOD9003187
Probable space group: P -1
;
_chemical_formula_sum "Si O2"
_cell_formula_units_Z 14
_cell_length_a 8.201865
_cell_length_b 17.727854
_cell_length_c 20.386339
_cell_angle_alpha 161.574592
_cell_angle_beta 142.290063
_cell_angle_gamma 46.704700
_cell_volume 539.912619
_symmetry_space_group_name_H-M "P -1"
_symmetry_group_IT_number 2
_symmetry_cell_setting 'triclinic'
loop_
_space_group_symop_operation_xyz
x,y,z
-x,-y,-z
loop_
_atom_site_type_symbol
_atom_site_label
_atom_site_fract_x
_atom_site_fract_y
_atom_site_fract_z
Si Si1 0.585070 0.758640 0.175640
Si Si2 0.393788 0.739533 0.835963
Si Si3 0.724170 0.252750 0.810195
Si Si4 0.894195 0.247045 0.428679
Si Si5 0.076080 0.018500 0.651686
Si Si6 0.077750 0.800520 0.908056
Si Si7 0.178054 0.232032 0.387632
O O1 0.306836 0.736028 0.111334
O O2 0.659687 0.891890 0.239284
O O3 0.635393 0.492650 0.959815
O O4 0.824501 0.907620 0.427572
O O5 0.311057 0.751818 0.895956
O O6 0.411398 0.457320 0.608170
O O7 0.121915 0.733594 0.701466
O O8 0.646375 0.997298 0.118045
O O9 0.011889 0.235452 0.855016
O O10 0.500000 0.000000 0.500000
O O11 0.867869 0.520751 0.630047
O O12 0.171632 0.245937 0.475413
O O13 0.918310 0.192569 0.467792
O O14 0.152960 0.961650 0.130090
O O15 0.000000 0.000000 0.000000
#
# Coordination Sequence:
#
# PCOD9003187 Si02
#       7
#     2   2   2   2   2   2   2
#     4   9  19  39  63  84 119 168 197 240 306 370
#     4   9  19  37  58  83 115 154 202 248 305 368
#     4   9  18  37  62  89 112 162 204 238 304 370
#     4  11  22  36  56  92 120 154 204 260 300 356
#     4  10  21  37  58  88 126 153 205 254 297 366
#     4   9  20  38  59  82 116 159 203 247 304 367
#     4   9  19  37  57  80 115 157 198 248 306 361
#
# _framework density 25.930122000000001
#
# number of rings (size 3 to 8) (size 9 to 14) (size 15 to 20)
#    0.000    2.571    0.000    1.714    0.000    4.571 
#   18.000    0.000    0.000    0.000    0.000    0.000 
#    0.000    0.000    0.000    0.000    0.000    0.000 
#
# Total GULP energy -78065.817680 kJ/mol
# GULP energy per Si atom -5576.129834 kJ/mol
# Density = 2.587110 g / cm^3
# Si number density = 25.930122 Si / 1000 Ang^3
#
#
#
# Elastic Constant Matrix: (Units=GPa)
#
#
# Indices 1 2 3 4 5 6 
#
# 1 131.4806 47.4312 56.1237 11.5207 1.2601 40.2612
# 2 47.4312 113.0159 40.3654 7.8405 5.2786 40.9468
# 3 56.1237 40.3654 155.7410 38.4097 -8.7375 11.0033
# 4 11.5207 7.8405 38.4097 27.6534 9.8587 5.9700
# 5 1.2601 5.2786 -8.7375 9.8587 37.8491 8.1699
# 6 40.2612 40.9468 11.0033 5.9700 8.1699 48.6958
#
#
#
# Elastic Compliance Matrix: (Units=1/GPa)
#
#
# Indices 1 2 3 4 5 6 
#
# 1 0.012141 -0.000460 -0.004448 0.003295 -0.000282 -0.009003
# 2 -0.000460 0.014183 -0.003997 0.004706 -0.001753 -0.010925
# 3 -0.004448 -0.003997 0.014378 -0.021064 0.008442 0.004956
# 4 0.003295 0.004706 -0.021064 0.072407 -0.022990 -0.006942
# 5 -0.000282 -0.001753 0.008442 -0.022990 0.035326 -0.003309
# 6 -0.009003 -0.010925 0.004956 -0.006942 -0.003309 0.037452
#
#
# Mechanical properties :
#
#
# Convention : Reuss Voigt Hill
#
# Bulk Modulus (GPa) = 43.68615 76.45312 60.06963
# Shear Modulus (GPa) = 23.65981 39.92747 31.79364
#
# Velocity S-wave (km/s) = 3.02395 3.92830 3.50541
# Velocity P-wave (km/s) = 5.39227 7.07981 6.29286
#
# Compressibility (1/GPa) = 0.02289055
#
# Stress axis : x y z
#
# Youngs Moduli (GPa) = 82.36312 70.50818 69.54926
#
# Poissons Ratio (x) = 0.03246 0.30938
# Poissons Ratio (y) = 0.03792 0.27800
# Poissons Ratio (z) = 0.36639 0.28183
#
# Static dielectric constant tensor:
#      x y z
#    x 2.099710 0.014000 0.048520 
#    y 0.014000 2.172490 -0.010320 
#    z 0.048520 -0.010320 2.192740 
# 
# From -- ./inp_files/590812.got.cif
#   From: 2010.05.17/outbox.cif.g08.bks.cpg/sg2_296_cif.got.tgz:590812.got - 2010.06.03 11:33:40.
