data_PCOD9003024
_publ_section_title
;
Structure prediction by ZEFSAII (Michael W. Deem and Ramdas Pophale) SiO2 
 PCOD9003024
Probable space group: P -1
;
_chemical_formula_sum "Si O2"
_cell_formula_units_Z 12
_cell_length_a 15.084435
_cell_length_b 15.661842
_cell_length_c 11.237880
_cell_angle_alpha 24.251973
_cell_angle_beta 24.820192
_cell_angle_gamma 28.876005
_cell_volume 439.568083
_symmetry_space_group_name_H-M "P -1"
_symmetry_group_IT_number 2
_symmetry_cell_setting 'triclinic'
loop_
_space_group_symop_operation_xyz
x,y,z
-x,-y,-z
loop_
_atom_site_type_symbol
_atom_site_label
_atom_site_fract_x
_atom_site_fract_y
_atom_site_fract_z
Si Si1 0.750784 0.506923 0.449468
Si Si2 0.356135 0.372676 0.224937
Si Si3 0.989454 0.250196 0.684295
Si Si4 0.731464 0.046479 0.621940
Si Si5 0.462371 0.078764 0.693060
Si Si6 0.211148 0.742652 0.492134
O O1 0.950052 0.337516 0.486981
O O2 0.728866 0.741290 0.231498
O O3 0.753184 0.480120 0.339247
O O4 0.539992 0.447452 0.836178
O O5 0.200633 0.576540 0.228146
O O6 0.457072 0.182479 0.438369
O O7 0.210350 0.284176 0.424281
O O8 0.000000 0.000000 0.000000
O O9 0.682349 0.068969 0.512695
O O10 0.964710 0.880342 0.580937
O O11 0.747326 0.249709 0.427101
O O12 0.500000 0.000000 0.000000
O O13 0.378337 0.866485 0.073569
#
# Coordination Sequence:
#
# PCOD9003024 Si02
#       6
#     2   2   2   2   2   2
#     4  11  24  37  59  93 124 158 199 240 294 357
#     4  10  23  39  56  91 128 158 199 239 288 355
#     4  10  21  37  57  81 119 164 199 236 283 342
#     4   9  21  43  65  85 116 155 200 253 302 351
#     4  10  21  39  62  87 122 159 194 244 294 350
#     4  10  22  41  63  89 117 154 202 248 299 354
#
# _framework density 27.299524000000002
#
# number of rings (size 3 to 8) (size 9 to 14) (size 15 to 20)
#    0.000    2.000    0.000    3.000    0.000   15.333 
#    0.000    7.500    0.000    0.000    0.000    0.000 
#    0.000    0.000    0.000    0.000    0.000    0.000 
#
# Total GULP energy -67227.823339 kJ/mol
# GULP energy per Si atom -5602.318612 kJ/mol
# Density = 2.723739 g / cm^3
# Si number density = 27.299524 Si / 1000 Ang^3
#
#
#
# Elastic Constant Matrix: (Units=GPa)
#
#
# Indices 1 2 3 4 5 6 
#
# 1 151.3642 50.0077 54.3521 26.8707 -39.4772 -26.9482
# 2 50.0077 108.5097 4.0452 -7.0063 -8.7876 2.1876
# 3 54.3521 4.0452 100.9286 4.1229 -16.0642 5.6713
# 4 26.8707 -7.0063 4.1229 36.9045 4.4988 -5.3454
# 5 -39.4772 -8.7876 -16.0642 4.4988 41.8527 -5.5705
# 6 -26.9482 2.1876 5.6713 -5.3454 -5.5705 54.6751
#
#
#
# Elastic Compliance Matrix: (Units=1/GPa)
#
#
# Indices 1 2 3 4 5 6 
#
# 1 0.026254 -0.011528 -0.010042 -0.020816 0.022685 0.014719
# 2 -0.011528 0.014530 0.004245 0.010739 -0.008212 -0.006491
# 3 -0.010042 0.004245 0.014542 0.006104 -0.004519 -0.006492
# 4 -0.020816 0.010739 0.006104 0.044863 -0.021068 -0.009083
# 5 0.022685 -0.008212 -0.004519 -0.021068 0.046041 0.014609
# 6 0.014719 -0.006491 -0.006492 -0.009083 0.014609 0.027078
#
#
# Mechanical properties :
#
#
# Convention : Reuss Voigt Hill
#
# Bulk Modulus (GPa) = 48.37078 64.17918 56.27498
# Shear Modulus (GPa) = 23.27209 43.51296 33.39253
#
# Velocity S-wave (km/s) = 2.92288 3.99671 3.50121
# Velocity P-wave (km/s) = 5.39889 6.69765 6.08303
#
# Compressibility (1/GPa) = 0.02067364
#
# Stress axis : x y z
#
# Youngs Moduli (GPa) = 38.09005 68.82442 68.76702
#
# Poissons Ratio (x) = 0.79344 0.69057
# Poissons Ratio (y) = 0.43912 -0.29191
# Poissons Ratio (z) = 0.38251 -0.29215
#
# Static dielectric constant tensor:
#      x y z
#    x 2.140870 0.010210 0.059790 
#    y 0.010210 2.223790 -0.015370 
#    z 0.059790 -0.015370 2.086140 
# 
# From -- ./inp_files/213732.got.cif
#   From: 2010.05.17/outbox.cif.g08.bks.cpg/sg2_107_cif.got.tgz:213732.got - 2010.06.03 11:33:40.
