data_PCOD9003577
_publ_section_title
;
Structure prediction by ZEFSAII (Michael W. Deem and Ramdas Pophale) SiO2 
 PCOD9003577
Probable space group: P -1
;
_chemical_formula_sum "Si O2"
_cell_formula_units_Z 14
_cell_length_a 9.898001
_cell_length_b 15.672489
_cell_length_c 11.667931
_cell_angle_alpha 150.934354
_cell_angle_beta 112.910095
_cell_angle_gamma 49.640396
_cell_volume 588.737344
_symmetry_space_group_name_H-M "P -1"
_symmetry_group_IT_number 2
_symmetry_cell_setting 'triclinic'
loop_
_space_group_symop_operation_xyz
x,y,z
-x,-y,-z
loop_
_atom_site_type_symbol
_atom_site_label
_atom_site_fract_x
_atom_site_fract_y
_atom_site_fract_z
Si Si1 0.380849 0.356894 0.838399
Si Si2 0.055394 0.293246 0.359760
Si Si3 0.199353 0.148300 0.641182
Si Si4 0.355195 0.452149 0.404518
Si Si5 0.007680 0.598728 0.889300
Si Si6 0.704876 0.046940 0.154500
Si Si7 0.223766 0.631054 0.335713
O O1 0.292085 0.240181 0.714138
O O2 0.211148 0.549177 0.914679
O O3 0.609705 0.139248 0.618418
O O4 0.355646 0.496485 0.106845
O O5 0.860725 0.332873 0.360643
O O6 0.092484 0.355629 0.567029
O O7 0.000000 0.500000 0.500000
O O8 0.221221 0.043573 0.057719
O O9 0.008143 0.219118 0.597174
O O10 0.102115 0.299251 0.904075
O O11 0.500000 0.500000 0.500000
O O12 0.465427 0.233076 0.274150
O O13 0.309144 0.438890 0.241955
O O14 0.831185 0.811465 0.997364
O O15 0.758220 0.189231 0.396538
#
# Coordination Sequence:
#
# PCOD9003577 Si02
#       7
#     2   2   2   2   2   2   2
#     4  10  21  37  61  88 111 151 197 244 300 354
#     4  10  22  39  60  87 121 159 200 243 294 357
#     4  10  21  37  61  84 113 153 193 246 299 346
#     4  10  22  39  60  87 121 159 200 243 294 357
#     4  10  21  39  58  85 119 150 197 246 293 357
#     4  10  24  39  58  87 122 158 194 246 304 352
#     4  10  21  39  58  85 119 150 197 246 293 357
#
# _framework density 23.779703000000001
#
# number of rings (size 3 to 8) (size 9 to 14) (size 15 to 20)
#    0.000    2.000    0.000    3.429    0.000   16.000 
#    0.000    1.429    0.000    0.000    0.000    0.000 
#    0.000    0.000    0.000    0.000    0.000    0.000 
#
# Total GULP energy -78082.973310 kJ/mol
# GULP energy per Si atom -5577.355236 kJ/mol
# Density = 2.372558 g / cm^3
# Si number density = 23.779703 Si / 1000 Ang^3
#
#
#
# Elastic Constant Matrix: (Units=GPa)
#
#
# Indices 1 2 3 4 5 6 
#
# 1 48.2698 16.8670 25.0875 -10.6192 -4.3078 -17.0230
# 2 16.8670 155.3786 47.6969 -8.8563 -14.1349 -24.2719
# 3 25.0875 47.6969 138.1465 -22.5930 -15.7693 -21.2399
# 4 -10.6192 -8.8563 -22.5930 41.8340 -4.9455 -0.2369
# 5 -4.3078 -14.1349 -15.7693 -4.9455 34.5173 7.6031
# 6 -17.0230 -24.2719 -21.2399 -0.2369 7.6031 31.1983
#
#
#
# Elastic Compliance Matrix: (Units=1/GPa)
#
#
# Indices 1 2 3 4 5 6 
#
# 1 0.028025 0.000134 -0.001900 0.006254 0.000490 0.014030
# 2 0.000134 0.007868 -0.001676 0.001009 0.001588 0.004674
# 3 -0.001900 -0.001676 0.009930 0.004964 0.003532 0.003597
# 4 0.006254 0.001009 0.004964 0.029161 0.006258 0.006273
# 5 0.000490 0.001588 0.003532 0.006258 0.033098 -0.004111
# 6 0.014030 0.004674 0.003597 0.006273 -0.004111 0.046843
#
#
# Mechanical properties :
#
#
# Convention : Reuss Voigt Hill
#
# Bulk Modulus (GPa) = 25.68109 57.89974 41.79041
# Shear Modulus (GPa) = 28.60587 38.31947 33.46267
#
# Velocity S-wave (km/s) = 3.47212 4.01862 3.75533
# Velocity P-wave (km/s) = 5.18625 6.77744 6.03452
#
# Compressibility (1/GPa) = 0.03893916
#
# Stress axis : x y z
#
# Youngs Moduli (GPa) = 35.68251 127.09874 100.70084
#
# Poissons Ratio (x) = -0.01698 0.19130
# Poissons Ratio (y) = -0.00477 0.16877
# Poissons Ratio (z) = 0.06779 0.21301
#
# Static dielectric constant tensor:
#      x y z
#    x 1.971430 0.080890 0.079440 
#    y 0.080890 2.018680 0.070010 
#    z 0.079440 0.070010 1.904310 
# 
# From -- ./inp_files/261128.got.cif
#   From: 2010.05.17/outbox.cif.g08.bks.cpg/sg2_131_cif.got.tgz:261128.got - 2010.06.03 11:33:40.
