data_PCOD9003791
_publ_section_title
;
Structure prediction by ZEFSAII (Michael W. Deem and Ramdas Pophale) SiO2 
 PCOD9003791
Probable space group: P -1
;
_chemical_formula_sum "Si O2"
_cell_formula_units_Z 15
_cell_length_a 8.296654
_cell_length_b 6.765014
_cell_length_c 13.851122
_cell_angle_alpha 124.557659
_cell_angle_beta 102.519432
_cell_angle_gamma 92.872135
_cell_volume 610.373277
_symmetry_space_group_name_H-M "P -1"
_symmetry_group_IT_number 2
_symmetry_cell_setting 'triclinic'
loop_
_space_group_symop_operation_xyz
x,y,z
-x,-y,-z
loop_
_atom_site_type_symbol
_atom_site_label
_atom_site_fract_x
_atom_site_fract_y
_atom_site_fract_z
Si Si1 0.353551 0.045926 0.860753
Si Si2 0.724872 0.902700 0.431731
Si Si3 0.268578 0.941203 0.023998
Si Si4 0.500000 0.500000 0.500000
Si Si5 0.634360 0.068238 0.657833
Si Si6 0.793604 0.632373 0.196359
Si Si7 0.187813 0.652511 0.583166
Si Si8 0.080742 0.764870 0.125415
O O1 0.275087 0.093316 0.967930
O O2 0.239793 0.805468 0.729884
O O3 0.358534 0.267729 0.847369
O O4 0.540653 0.004311 0.894823
O O5 0.754281 0.020186 0.572966
O O6 0.800040 0.699119 0.328866
O O7 0.518634 0.822025 0.375406
O O8 0.785338 0.135787 0.435527
O O9 0.227674 0.654675 0.906170
O O10 0.136212 0.955106 0.096653
O O11 0.553033 0.798360 0.612775
O O12 0.321674 0.485604 0.531123
O O13 0.743800 0.233602 0.797236
O O14 0.950175 0.792240 0.200178
O O15 0.000000 0.500000 0.500000
O O16 0.000000 0.500000 0.000000
#
# Coordination Sequence:
#
# PCOD9003791 Si02
#       8
#     2   2   2   1   2   2   2   2
#     4  10  22  39  60  90 119 159 209 255 301 373
#     4   9  21  40  61  91 115 160 203 257 313 371
#     4  10  21  40  63  85 121 164 205 250 305 377
#     4  10  22  36  62  88 122 168 192 262 318 360
#     4  10  21  40  63  87 124 155 208 255 312 383
#     4  10  21  37  62  90 121 158 200 254 311 367
#     4  10  22  39  60  91 129 158 206 262 313 378
#     4  10  22  38  60  88 122 161 199 254 308 369
#
# _framework density 24.575126000000001
#
# number of rings (size 3 to 8) (size 9 to 14) (size 15 to 20)
#    0.000    2.133    0.000    2.800    5.600    4.267 
#    0.000    0.000    5.867    0.000    0.000    0.000 
#    0.000    0.000    0.000    0.000    0.000    0.000 
#
# Total GULP energy -83525.862356 kJ/mol
# GULP energy per Si atom -5568.390824 kJ/mol
# Density = 2.451919 g / cm^3
# Si number density = 24.575126 Si / 1000 Ang^3
#
#
#
# Elastic Constant Matrix: (Units=GPa)
#
#
# Indices 1 2 3 4 5 6 
#
# 1 96.2536 -6.9308 48.9935 -2.5901 -4.3254 29.1419
# 2 -6.9308 51.7747 13.7548 -10.2047 -0.9604 15.1280
# 3 48.9935 13.7548 109.5340 -12.1371 8.1361 24.5316
# 4 -2.5901 -10.2047 -12.1371 38.0425 5.6358 -14.8830
# 5 -4.3254 -0.9604 8.1361 5.6358 39.9635 -2.1931
# 6 29.1419 15.1280 24.5316 -14.8830 -2.1931 39.0035
#
#
#
# Elastic Compliance Matrix: (Units=1/GPa)
#
#
# Indices 1 2 3 4 5 6 
#
# 1 0.018904 0.007676 -0.007017 -0.005064 0.003582 -0.014419
# 2 0.007676 0.025270 -0.003752 0.000912 0.001374 -0.012752
# 3 -0.007017 -0.003752 0.013589 0.003110 -0.004104 -0.000892
# 4 -0.005064 0.000912 0.003110 0.033382 -0.005103 0.013925
# 5 0.003582 0.001374 -0.004104 -0.005103 0.026940 -0.001060
# 6 -0.014419 -0.012752 -0.000892 0.013925 -0.001060 0.047173
#
#
# Mechanical properties :
#
#
# Convention : Reuss Voigt Hill
#
# Bulk Modulus (GPa) = 19.38858 41.02191 30.20524
# Shear Modulus (GPa) = 26.50589 36.85156 31.67872
#
# Velocity S-wave (km/s) = 3.28772 3.87660 3.59424
# Velocity P-wave (km/s) = 4.72427 6.06350 5.43529
#
# Compressibility (1/GPa) = 0.05157676
#
# Stress axis : x y z
#
# Youngs Moduli (GPa) = 52.89846 39.57280 73.58943
#
# Poissons Ratio (x) = -0.30377 0.51641
# Poissons Ratio (y) = -0.40606 0.27610
# Poissons Ratio (z) = 0.37121 0.14847
#
# Static dielectric constant tensor:
#      x y z
#    x 2.033200 -0.029460 -0.044170 
#    y -0.029460 1.900490 -0.131840 
#    z -0.044170 -0.131840 1.946710 
# 
# From -- ./inp_files/219199.got.cif
#   From: 2010.05.17/outbox.cif.g08.bks.cpg/sg2_110_cif.got.tgz:219199.got - 2010.06.03 11:33:40.
