data_PCOD9003533
_publ_section_title
;
Structure prediction by ZEFSAII (Michael W. Deem and Ramdas Pophale) SiO2 
 PCOD9003533
Probable space group: P -1
;
_chemical_formula_sum "Si O2"
_cell_formula_units_Z 14
_cell_length_a 12.375057
_cell_length_b 30.585401
_cell_length_c 31.098127
_cell_angle_alpha 170.803089
_cell_angle_beta 20.566492
_cell_angle_gamma 160.171495
_cell_volume 631.755906
_symmetry_space_group_name_H-M "P -1"
_symmetry_group_IT_number 2
_symmetry_cell_setting 'triclinic'
loop_
_space_group_symop_operation_xyz
x,y,z
-x,-y,-z
loop_
_atom_site_type_symbol
_atom_site_label
_atom_site_fract_x
_atom_site_fract_y
_atom_site_fract_z
Si Si1 0.218888 0.213128 0.020547
Si Si2 0.260791 0.693589 0.779997
Si Si3 0.641380 0.840275 0.495104
Si Si4 0.101343 0.769842 0.003358
Si Si5 0.864727 0.173832 0.538024
Si Si6 0.308736 0.216021 0.146727
Si Si7 0.413400 0.156665 0.379036
O O1 0.490040 0.504730 0.215187
O O2 0.953119 0.303599 0.179219
O O3 0.399520 0.011293 0.733416
O O4 0.024249 0.007855 0.932044
O O5 0.500000 0.500000 0.500000
O O6 0.033139 0.657740 0.871671
O O7 0.500000 0.000000 0.000000
O O8 0.627594 0.858950 0.570107
O O9 0.000000 0.000000 0.500000
O O10 0.458643 0.773616 0.888746
O O11 0.888389 0.506128 0.854124
O O12 0.044016 0.065487 0.325971
O O13 0.065689 0.120513 0.452033
O O14 0.500000 0.000000 0.500000
O O15 0.346715 0.541257 0.434719
O O16 0.457487 0.085774 0.925634
#
# Coordination Sequence:
#
# PCOD9003533 Si02
#       7
#     2   2   2   2   2   2   2
#     4  12  26  43  71 100 134 182 228 276 344 407
#     4  12  24  40  67 101 137 173 210 272 350 406
#     4  12  28  48  65  95 138 184 235 279 318 407
#     4  10  21  37  60  93 133 162 203 278 327 393
#     4  10  21  38  62  94 125 171 221 266 325 395
#     4  10  21  40  67 101 127 162 220 275 348 398
#     4  10  23  41  67  93 133 175 212 287 335 383
#
# _framework density 22.160458999999999
#
# number of rings (size 3 to 8) (size 9 to 14) (size 15 to 20)
#    0.000    1.143    1.429    4.286    4.000    5.714 
#    0.000    0.000    0.000    0.000    0.000    0.000 
#    0.000    0.000    0.000    0.000    0.000    0.000 
#
# Total GULP energy -78175.945315 kJ/mol
# GULP energy per Si atom -5583.996094 kJ/mol
# Density = 2.211002 g / cm^3
# Si number density = 22.160459 Si / 1000 Ang^3
#
#
#
# Elastic Constant Matrix: (Units=GPa)
#
#
# Indices 1 2 3 4 5 6 
#
# 1 93.8826 24.1526 -4.7745 -4.8213 1.8145 4.5920
# 2 24.1526 117.3979 5.6159 15.4326 -8.4166 21.2967
# 3 -4.7745 5.6159 93.5355 11.6401 1.8896 7.5290
# 4 -4.8213 15.4326 11.6401 38.1603 9.3871 7.8109
# 5 1.8145 -8.4166 1.8896 9.3871 24.1031 -6.0752
# 6 4.5920 21.2967 7.5290 7.8109 -6.0752 25.9650
#
#
#
# Elastic Compliance Matrix: (Units=1/GPa)
#
#
# Indices 1 2 3 4 5 6 
#
# 1 0.011791 -0.002887 0.000531 0.003863 -0.003934 -0.001954
# 2 -0.002887 0.011175 0.000187 -0.004734 0.004370 -0.006263
# 3 0.000531 0.000187 0.011286 -0.002755 -0.000494 -0.002806
# 4 0.003863 -0.004734 -0.002755 0.036381 -0.018753 -0.011334
# 5 -0.003934 0.004370 -0.000494 -0.018753 0.054603 0.015672
# 6 -0.001954 -0.006263 -0.002806 -0.011334 0.015672 0.051886
#
#
# Mechanical properties :
#
#
# Convention : Reuss Voigt Hill
#
# Bulk Modulus (GPa) = 33.42882 39.42268 36.42575
# Shear Modulus (GPa) = 26.11919 36.30049 31.20984
#
# Velocity S-wave (km/s) = 3.43686 4.05170 3.75688
# Velocity P-wave (km/s) = 5.55580 6.30212 5.94069
#
# Compressibility (1/GPa) = 0.02991431
#
# Stress axis : x y z
#
# Youngs Moduli (GPa) = 84.80873 89.48826 88.60724
#
# Poissons Ratio (x) = 0.25832 -0.04707
# Poissons Ratio (y) = 0.24481 -0.01654
# Poissons Ratio (z) = -0.04506 -0.01670
#
# Static dielectric constant tensor:
#      x y z
#    x 1.849660 -0.025140 -0.040920 
#    y -0.025140 1.857330 0.009350 
#    z -0.040920 0.009350 1.803950 
# 
# From -- ./inp_files/623253.got.cif
#   From: 2010.05.17/outbox.cif.g08.bks.cpg/sg2_312_cif.got.tgz:623253.got - 2010.06.03 11:33:40.
