data_PCOD9003519
_publ_section_title
;
Structure prediction by ZEFSAII (Michael W. Deem and Ramdas Pophale) SiO2 
 PCOD9003519
Probable space group: P -1
;
_chemical_formula_sum "Si O2"
_cell_formula_units_Z 16
_cell_length_a 8.855634
_cell_length_b 7.047837
_cell_length_c 17.466269
_cell_angle_alpha 63.578057
_cell_angle_beta 72.242599
_cell_angle_gamma 113.582529
_cell_volume 723.379150
_symmetry_space_group_name_H-M "P -1"
_symmetry_group_IT_number 2
_symmetry_cell_setting 'triclinic'
loop_
_space_group_symop_operation_xyz
x,y,z
-x,-y,-z
loop_
_atom_site_type_symbol
_atom_site_label
_atom_site_fract_x
_atom_site_fract_y
_atom_site_fract_z
Si Si1 0.097515 0.308969 0.946106
Si Si2 0.990671 0.183589 0.660398
Si Si3 0.255067 0.631588 0.012650
Si Si4 0.820450 0.362414 0.353089
Si Si5 0.602765 0.143606 0.770566
Si Si6 0.182815 0.428158 0.221529
Si Si7 0.106920 0.884483 0.470596
Si Si8 0.544090 0.170429 0.295791
O O1 0.288188 0.533933 0.821816
O O2 0.923515 0.342658 0.958823
O O3 0.177553 0.393424 0.005992
O O4 0.000000 0.000000 0.000000
O O5 0.795605 0.151259 0.726489
O O6 0.162796 0.389081 0.658110
O O7 0.931992 0.890272 0.713180
O O8 0.034724 0.300719 0.546194
O O9 0.300242 0.572487 0.099020
O O10 0.449106 0.905425 0.895963
O O11 0.627050 0.164017 0.365771
O O12 0.008061 0.459313 0.251638
O O13 0.854799 0.241789 0.442795
O O14 0.681731 0.420938 0.750514
O O15 0.494485 0.048263 0.721476
O O16 0.328152 0.098262 0.359217
O O17 0.000000 0.000000 0.500000
#
# Coordination Sequence:
#
# PCOD9003519 Si02
#       8
#     2   2   2   2   2   2   2   2
#     4  10  22  39  61  93 135 172 203 266 325 382
#     4  10  23  40  64  93 128 169 210 264 334 378
#     4  10  21  37  60  92 128 168 223 258 317 381
#     4  11  22  42  67  93 131 167 215 271 318 387
#     4   9  22  39  60  95 128 170 211 268 318 379
#     4  11  21  38  66  91 130 170 219 264 316 391
#     4  11  22  43  69  93 129 170 218 270 325 381
#     4  10  22  43  66  97 130 169 217 263 327 382
#
# _framework density 22.118413
#
# number of rings (size 3 to 8) (size 9 to 14) (size 15 to 20)
#    0.000    1.750    2.500    1.125    1.750    3.500 
#    0.000    3.125    0.000    0.000    0.000    0.000 
#    0.000    0.000    0.000    0.000    0.000    0.000 
#
# Total GULP energy -89298.381950 kJ/mol
# GULP energy per Si atom -5581.148872 kJ/mol
# Density = 2.206807 g / cm^3
# Si number density = 22.118413 Si / 1000 Ang^3
#
#
#
# Elastic Constant Matrix: (Units=GPa)
#
#
# Indices 1 2 3 4 5 6 
#
# 1 30.5402 40.1817 15.3153 14.0907 8.1580 18.0386
# 2 40.1817 190.0906 42.6291 8.1277 30.0898 7.7645
# 3 15.3153 42.6291 93.9709 22.7300 -4.0759 -3.4200
# 4 14.0907 8.1277 22.7300 31.7028 5.3367 2.9369
# 5 8.1580 30.0898 -4.0759 5.3367 28.9443 10.5492
# 6 18.0386 7.7645 -3.4200 2.9369 10.5492 26.6254
#
#
#
# Elastic Compliance Matrix: (Units=1/GPa)
#
#
# Indices 1 2 3 4 5 6 
#
# 1 0.146128 -0.030699 0.001501 -0.055265 0.036999 -0.098419
# 2 -0.030699 0.014039 -0.004811 0.014392 -0.017015 0.021240
# 3 0.001501 -0.004811 0.015989 -0.012441 0.009040 0.000230
# 4 -0.055265 0.014392 -0.012441 0.062375 -0.025320 0.034799
# 5 0.036999 -0.017015 0.009040 -0.025320 0.062689 -0.040988
# 6 -0.098419 0.021240 0.000230 0.034799 -0.040988 0.110473
#
#
# Mechanical properties :
#
#
# Convention : Reuss Voigt Hill
#
# Bulk Modulus (GPa) = 9.24748 56.76154 33.00451
# Shear Modulus (GPa) = 9.69446 31.88621 20.79033
#
# Velocity S-wave (km/s) = 2.09583 3.80098 3.06920
# Velocity P-wave (km/s) = 3.16964 6.70683 5.24539
#
# Compressibility (1/GPa) = 0.10813762
#
# Stress axis : x y z
#
# Youngs Moduli (GPa) = 6.84332 71.22899 62.54167
#
# Poissons Ratio (x) = 2.18666 -0.09388
# Poissons Ratio (y) = 0.21008 0.30092
# Poissons Ratio (z) = -0.01027 0.34272
#
# Static dielectric constant tensor:
#      x y z
#    x 1.820200 0.053300 0.018080 
#    y 0.053300 1.856430 -0.008030 
#    z 0.018080 -0.008030 1.838880 
# 
# From -- ./inp_files/299884.got.cif
#   From: 2010.05.17/outbox.cif.g08.bks.cpg/sg2_150_cif.got.tgz:299884.got - 2010.06.03 11:33:40.
