data_PCOD9003003
_publ_section_title
;
Structure prediction by ZEFSAII (Michael W. Deem and Ramdas Pophale) SiO2 
 PCOD9003003
Probable space group: P -1
;
_chemical_formula_sum "Si O2"
_cell_formula_units_Z 16
_cell_length_a 13.702831
_cell_length_b 10.966174
_cell_length_c 15.152800
_cell_angle_alpha 95.540236
_cell_angle_beta 152.916840
_cell_angle_gamma 103.542823
_cell_volume 730.292882
_symmetry_space_group_name_H-M "P -1"
_symmetry_group_IT_number 2
_symmetry_cell_setting 'triclinic'
loop_
_space_group_symop_operation_xyz
x,y,z
-x,-y,-z
loop_
_atom_site_type_symbol
_atom_site_label
_atom_site_fract_x
_atom_site_fract_y
_atom_site_fract_z
Si Si1 0.785974 0.280738 0.583677
Si Si2 0.036591 0.559278 0.678504
Si Si3 0.422924 0.138008 0.768205
Si Si4 0.154486 0.157327 0.066785
Si Si5 0.313691 0.035359 0.479347
Si Si6 0.066611 0.663337 0.098144
Si Si7 0.388103 0.582038 0.814310
Si Si8 0.115154 0.223843 0.646054
O O1 0.665060 0.094368 0.475404
O O2 0.964974 0.361296 0.824320
O O3 0.997231 0.413115 0.684574
O O4 0.502463 0.258036 0.353948
O O5 0.235875 0.627534 0.754552
O O6 0.708163 0.457013 0.367162
O O7 0.225667 0.718921 0.909431
O O8 0.263879 0.183521 0.697673
O O9 0.363978 0.132614 0.616301
O O10 0.239206 0.944866 0.641289
O O11 0.985253 0.071900 0.829557
O O12 0.110422 0.282960 0.066770
O O13 0.000000 0.000000 0.000000
O O14 0.589798 0.169596 0.643735
O O15 0.000000 0.500000 0.000000
O O16 0.236269 0.398277 0.716979
O O17 0.734789 0.730810 0.132769
#
# Coordination Sequence:
#
# PCOD9003003 Si02
#       8
#     2   2   2   2   2   2   2   2
#     4  11  22  41  63  89 123 164 209 252 308 385
#     4  10  21  37  58  88 120 154 205 254 306 370
#     4  10  21  37  56  88 122 154 200 257 312 359
#     4  11  21  43  65  89 119 166 216 250 306 386
#     4  11  22  40  63  88 125 166 203 255 318 372
#     4  11  23  41  64  90 127 161 200 267 320 359
#     4   9  19  38  60  83 116 162 203 246 308 374
#     4   9  19  38  59  83 120 158 200 253 307 369
#
# _framework density 21.909016999999999
#
# number of rings (size 3 to 8) (size 9 to 14) (size 15 to 20)
#    0.000    1.750    2.500    2.250    1.750    1.000 
#    9.000    0.000    0.000    0.000    0.000    0.000 
#    0.000    0.000    0.000    0.000    0.000    0.000 
#
# Total GULP energy -89202.347729 kJ/mol
# GULP energy per Si atom -5575.146733 kJ/mol
# Density = 2.185915 g / cm^3
# Si number density = 21.909017 Si / 1000 Ang^3
#
#
#
# Elastic Constant Matrix: (Units=GPa)
#
#
# Indices 1 2 3 4 5 6 
#
# 1 53.1703 25.7628 11.4132 -9.0491 -18.8672 0.5207
# 2 25.7628 104.4386 45.7796 -3.5066 -12.3993 2.4312
# 3 11.4132 45.7796 70.8700 -4.9884 -20.2305 -6.8503
# 4 -9.0491 -3.5066 -4.9884 32.0784 1.1802 -1.3324
# 5 -18.8672 -12.3993 -20.2305 1.1802 36.0193 -1.8897
# 6 0.5207 2.4312 -6.8503 -1.3324 -1.8897 36.9526
#
#
#
# Elastic Compliance Matrix: (Units=1/GPa)
#
#
# Indices 1 2 3 4 5 6 
#
# 1 0.027605 -0.007070 0.005036 0.007340 0.014720 0.002027
# 2 -0.007070 0.015415 -0.010517 -0.001914 -0.004407 -0.003159
# 3 0.005036 -0.010517 0.024676 0.003877 0.013065 0.006003
# 4 0.007340 -0.001914 0.003877 0.033567 0.004378 0.002175
# 5 0.014720 -0.004407 0.013065 0.004378 0.041402 0.004780
# 6 0.002027 -0.003159 0.006003 0.002175 0.004780 0.028677
#
#
# Mechanical properties :
#
#
# Convention : Reuss Voigt Hill
#
# Bulk Modulus (GPa) = 23.47770 43.82111 33.64940
# Shear Modulus (GPa) = 23.73697 30.71159 27.22428
#
# Velocity S-wave (km/s) = 3.29513 3.74810 3.52889
# Velocity P-wave (km/s) = 5.02159 6.22702 5.65651
#
# Compressibility (1/GPa) = 0.04259361
#
# Stress axis : x y z
#
# Youngs Moduli (GPa) = 36.22519 64.87103 40.52587
#
# Poissons Ratio (x) = 0.45865 -0.20410
# Poissons Ratio (y) = 0.25612 0.42621
# Poissons Ratio (z) = -0.18244 0.68226
#
# Static dielectric constant tensor:
#      x y z
#    x 1.882750 -0.054770 -0.004690 
#    y -0.054770 1.825700 0.002460 
#    z -0.004690 0.002460 1.863730 
# 
# From -- ./inp_files/531845.got.cif
#   From: 2010.05.17/outbox.cif.g08.bks.cpg/sg2_266_cif.got.tgz:531845.got - 2010.06.03 11:33:40.
