data_PCOD9003497
_publ_section_title
;
Structure prediction by ZEFSAII (Michael W. Deem and Ramdas Pophale) SiO2 
 PCOD9003497
Probable space group: P -1
;
_chemical_formula_sum "Si O2"
_cell_formula_units_Z 16
_cell_length_a 11.058827
_cell_length_b 12.961223
_cell_length_c 15.530596
_cell_angle_alpha 138.898142
_cell_angle_beta 41.252138
_cell_angle_gamma 155.009759
_cell_volume 598.965505
_symmetry_space_group_name_H-M "P -1"
_symmetry_group_IT_number 2
_symmetry_cell_setting 'triclinic'
loop_
_space_group_symop_operation_xyz
x,y,z
-x,-y,-z
loop_
_atom_site_type_symbol
_atom_site_label
_atom_site_fract_x
_atom_site_fract_y
_atom_site_fract_z
Si Si1 0.405316 0.264428 0.859392
Si Si2 0.728505 0.933905 0.765586
Si Si3 0.471645 0.634970 0.970512
Si Si4 0.868182 0.302704 0.054258
Si Si5 0.102250 0.660568 0.747939
Si Si6 0.231821 0.854732 0.614654
Si Si7 0.686289 0.593853 0.665170
Si Si8 0.474060 0.319929 0.450393
O O1 0.352325 0.404584 0.944872
O O2 0.753616 0.449722 0.784238
O O3 0.232783 0.042019 0.746046
O O4 0.311653 0.161855 0.943087
O O5 0.377392 0.729547 0.847981
O O6 0.818187 0.821578 0.678616
O O7 0.733960 0.929679 0.655143
O O8 0.861015 0.164163 0.897032
O O9 0.581456 0.623014 0.820737
O O10 0.211054 0.579878 0.052870
O O11 0.806047 0.201617 0.122125
O O12 0.262066 0.815108 0.671030
O O13 0.207262 0.552576 0.639132
O O14 0.914914 0.615837 0.590329
O O15 0.500000 0.000000 0.500000
O O16 0.431340 0.338688 0.584711
O O17 0.500000 0.500000 0.500000
#
# Coordination Sequence:
#
# PCOD9003497 Si02
#       8
#     2   2   2   2   2   2   2   2
#     4  10  22  40  58  91 131 158 203 245 306 371
#     4   9  19  38  63  86 117 161 206 258 299 358
#     4  10  21  37  60  91 124 165 196 254 303 368
#     4   9  19  38  64  87 122 156 205 254 306 359
#     4  10  21  41  65  89 126 162 197 258 310 361
#     4  12  26  38  63  95 124 164 207 249 307 375
#     4  11  22  37  62  88 124 163 202 250 309 359
#     4   9  20  39  64  84 118 165 204 251 305 353
#
# _framework density 26.712721999999999
#
# number of rings (size 3 to 8) (size 9 to 14) (size 15 to 20)
#    0.000    2.000    1.250    1.500    3.500    2.000 
#    0.000    0.625   22.000    0.000    0.000    0.000 
#    0.000    0.000    0.000    0.000    0.000    0.000 
#
# Total GULP energy -89284.890051 kJ/mol
# GULP energy per Si atom -5580.305628 kJ/mol
# Density = 2.665192 g / cm^3
# Si number density = 26.712722 Si / 1000 Ang^3
#
#
#
# Elastic Constant Matrix: (Units=GPa)
#
#
# Indices 1 2 3 4 5 6 
#
# 1 133.6029 31.0332 41.4062 -12.8099 8.6807 12.0104
# 2 31.0332 46.3801 22.3500 -13.5102 12.1532 16.0863
# 3 41.4062 22.3500 144.0371 3.6117 50.6925 2.5380
# 4 -12.8099 -13.5102 3.6117 37.0754 4.5613 2.6443
# 5 8.6807 12.1532 50.6925 4.5613 76.1068 2.1190
# 6 12.0104 16.0863 2.5380 2.6443 2.1190 38.0786
#
#
#
# Elastic Compliance Matrix: (Units=1/GPa)
#
#
# Indices 1 2 3 4 5 6 
#
# 1 0.009508 -0.004595 -0.002476 0.001779 0.001222 -0.001084
# 2 -0.004595 0.035817 -0.003069 0.013212 -0.003547 -0.014197
# 3 -0.002476 -0.003069 0.010258 -0.002374 -0.005970 0.001891
# 4 0.001779 0.013212 -0.002374 0.033525 -0.002513 -0.008173
# 5 0.001222 -0.003547 -0.005970 -0.002513 0.017674 0.000702
# 6 -0.001084 -0.014197 0.001891 -0.008173 0.000702 0.033003
#
#
# Mechanical properties :
#
#
# Convention : Reuss Voigt Hill
#
# Bulk Modulus (GPa) = 28.32627 57.06657 42.69642
# Shear Modulus (GPa) = 29.09804 45.53421 37.31613
#
# Velocity S-wave (km/s) = 3.30403 4.13315 3.74162
# Velocity P-wave (km/s) = 5.01822 6.64730 5.88936
#
# Compressibility (1/GPa) = 0.03530292
#
# Stress axis : x y z
#
# Youngs Moduli (GPa) = 105.17338 27.92001 97.48376
#
# Poissons Ratio (x) = 0.12828 0.24136
# Poissons Ratio (y) = 0.48323 0.29922
# Poissons Ratio (z) = 0.26040 0.08570
#
# Static dielectric constant tensor:
#      x y z
#    x 2.119420 0.003830 0.127550 
#    y 0.003830 2.162270 0.017120 
#    z 0.127550 0.017120 2.185150 
# 
# From -- ./inp_files/426179.got.cif
#   From: 2010.05.17/outbox.cif.g08.bks.cpg/sg2_214_cif.got.tgz:426179.got - 2010.06.03 11:33:40.
