data_PCOD9003182
_publ_section_title
;
Structure prediction by ZEFSAII (Michael W. Deem and Ramdas Pophale) SiO2 
 PCOD9003182
Probable space group: P -1
;
_chemical_formula_sum "Si O2"
_cell_formula_units_Z 16
_cell_length_a 10.483345
_cell_length_b 5.430150
_cell_length_c 12.155158
_cell_angle_alpha 89.090255
_cell_angle_beta 101.673771
_cell_angle_gamma 71.447158
_cell_volume 640.012624
_symmetry_space_group_name_H-M "P -1"
_symmetry_group_IT_number 2
_symmetry_cell_setting 'triclinic'
loop_
_space_group_symop_operation_xyz
x,y,z
-x,-y,-z
loop_
_atom_site_type_symbol
_atom_site_label
_atom_site_fract_x
_atom_site_fract_y
_atom_site_fract_z
Si Si1 0.182696 0.888450 0.649968
Si Si2 0.161910 0.854514 0.040782
Si Si3 0.857630 0.467836 0.776712
Si Si4 0.297297 0.268608 0.051270
Si Si5 0.422968 0.986677 0.804281
Si Si6 0.502045 0.806004 0.401256
Si Si7 0.142415 0.403166 0.760506
Si Si8 0.263674 0.623447 0.456174
O O1 0.126682 0.680046 0.701480
O O2 0.180300 0.857637 0.518727
O O3 0.338456 0.827634 0.726178
O O4 0.118234 0.187466 0.673893
O O5 0.173071 0.779534 0.172682
O O6 0.222903 0.567787 0.997350
O O7 0.245532 0.032307 0.007907
O O8 0.000000 0.000000 0.000000
O O9 0.762206 0.695375 0.833083
O O10 0.819042 0.488141 0.643133
O O11 0.016204 0.442625 0.821736
O O12 0.462262 0.180882 0.090760
O O13 0.502109 0.080554 0.720654
O O14 0.301270 0.244350 0.824861
O O15 0.381408 0.689941 0.407009
O O16 0.652604 0.591801 0.440617
O O17 0.500000 0.000000 0.500000
#
# Coordination Sequence:
#
# PCOD9003182 Si02
#       8
#     2   2   2   2   2   2   2   2
#     4  10  22  38  55  80 124 176 198 244 280 340
#     4  10  23  44  67  95 120 147 188 254 319 361
#     4  10  25  37  62  91 117 161 202 253 294 366
#     4  10  23  37  69  94 115 152 199 246 295 370
#     4  10  21  37  58  88 121 161 206 239 295 340
#     4  11  19  32  52  79 120 162 196 264 286 334
#     4  10  23  39  57  80 127 168 202 242 294 337
#     4  11  21  34  53  84 122 162 216 242 294 335
#
# _framework density 24.999507000000001
#
# number of rings (size 3 to 8) (size 9 to 14) (size 15 to 20)
#    1.500    0.250    2.500    1.875    5.250    1.000 
#    0.000    0.000    0.000    1.500    0.000    0.000 
#    0.000    0.000    0.000    0.000    0.000    0.000 
#
# Total GULP energy -89337.679378 kJ/mol
# GULP energy per Si atom -5583.604961 kJ/mol
# Density = 2.494261 g / cm^3
# Si number density = 24.999507 Si / 1000 Ang^3
#
#
#
# Elastic Constant Matrix: (Units=GPa)
#
#
# Indices 1 2 3 4 5 6 
#
# 1 89.8109 31.5476 7.1672 2.7698 -5.8482 -4.7241
# 2 31.5476 124.5660 24.1239 5.0337 4.7958 10.4741
# 3 7.1672 24.1239 43.7151 -0.7273 2.7230 -2.2779
# 4 2.7698 5.0337 -0.7273 29.4291 7.0092 -8.3896
# 5 -5.8482 4.7958 2.7230 7.0092 25.3052 0.1802
# 6 -4.7241 10.4741 -2.2779 -8.3896 0.1802 44.8163
#
#
#
# Elastic Compliance Matrix: (Units=1/GPa)
#
#
# Indices 1 2 3 4 5 6 
#
# 1 0.012755 -0.003433 -0.000356 -0.001002 0.003901 0.001925
# 2 -0.003433 0.010357 -0.005272 -0.002193 -0.001557 -0.003455
# 3 -0.000356 -0.005272 0.026233 0.003142 -0.002798 0.003127
# 4 -0.001002 -0.002193 0.003142 0.039461 -0.011141 0.007998
# 5 0.003901 -0.001557 -0.002798 -0.011141 0.044113 -0.001630
# 6 0.001925 -0.003455 0.003127 0.007998 -0.001630 0.024987
#
#
# Mechanical properties :
#
#
# Convention : Reuss Voigt Hill
#
# Bulk Modulus (GPa) = 32.02820 42.64105 37.33462
# Shear Modulus (GPa) = 26.81897 32.92702 29.87300
#
# Velocity S-wave (km/s) = 3.27889 3.63313 3.46055
# Velocity P-wave (km/s) = 5.21288 5.89010 5.56181
#
# Compressibility (1/GPa) = 0.03122249
#
# Stress axis : x y z
#
# Youngs Moduli (GPa) = 78.40076 96.54922 38.12019
#
# Poissons Ratio (x) = 0.33145 0.01357
# Poissons Ratio (y) = 0.26915 0.20098
# Poissons Ratio (z) = 0.02792 0.50904
#
# Static dielectric constant tensor:
#      x y z
#    x 2.027740 -0.102810 0.034430 
#    y -0.102810 2.041530 -0.023230 
#    z 0.034430 -0.023230 2.081680 
# 
# From -- ./inp_files/510441.got.cif
#   From: 2010.05.17/outbox.cif.g08.bks.cpg/sg2_256_cif.got.tgz:510441.got - 2010.06.03 11:33:40.
