data_PCOD9003773
_publ_section_title
;
Structure prediction by ZEFSAII (Michael W. Deem and Ramdas Pophale) SiO2 
 PCOD9003773
Probable space group: P -1
;
_chemical_formula_sum "Si O2"
_cell_formula_units_Z 14
_cell_length_a 21.760704
_cell_length_b 9.229049
_cell_length_c 9.363535
_cell_angle_alpha 74.046139
_cell_angle_beta 45.278681
_cell_angle_gamma 38.852057
_cell_volume 662.392688
_symmetry_space_group_name_H-M "P -1"
_symmetry_group_IT_number 2
_symmetry_cell_setting 'triclinic'
loop_
_space_group_symop_operation_xyz
x,y,z
-x,-y,-z
loop_
_atom_site_type_symbol
_atom_site_label
_atom_site_fract_x
_atom_site_fract_y
_atom_site_fract_z
Si Si1 0.200454 0.495349 0.106433
Si Si2 0.705934 0.409147 0.864273
Si Si3 0.686750 0.756174 0.308540
Si Si4 0.112201 0.263942 0.010965
Si Si5 0.336053 0.065043 0.204118
Si Si6 0.857544 0.874011 0.689583
Si Si7 0.151260 0.566667 0.584784
O O1 0.244686 0.594954 0.062839
O O2 0.342653 0.177417 0.034607
O O3 0.027517 0.696264 0.404211
O O4 0.200223 0.469431 0.946863
O O5 0.823632 0.323976 0.581897
O O6 0.736630 0.187394 0.856559
O O7 0.516540 0.739359 0.046629
O O8 0.720158 0.885522 0.245362
O O9 0.747117 0.576592 0.396854
O O10 0.500000 0.000000 0.500000
O O11 0.102006 0.291180 0.194626
O O12 0.000000 0.500000 0.000000
O O13 0.040061 0.200103 0.136673
O O14 0.231045 0.086031 0.301607
O O15 0.239708 0.297499 0.424431
#
# Coordination Sequence:
#
# PCOD9003773 Si02
#       7
#     2   2   2   2   2   2   2
#     4  11  21  38  66  89 119 167 213 245 295 372
#     4  11  23  37  61  95 131 158 193 260 314 356
#     4  11  21  37  62  91 119 157 213 255 293 351
#     4  10  21  37  62  89 118 160 204 251 299 356
#     4  11  20  37  61  93 120 161 207 247 295 367
#     4  12  22  39  64  95 126 159 205 253 311 364
#     4  10  21  38  62  88 123 159 211 246 299 363
#
# _framework density 21.135498999999999
#
# number of rings (size 3 to 8) (size 9 to 14) (size 15 to 20)
#    0.000    1.143    4.286    5.571    0.000    0.000 
#    0.000    0.714    6.286    4.286    0.000    0.000 
#    0.000    0.000    0.000    0.000    0.000    0.000 
#
# Total GULP energy -78016.075840 kJ/mol
# GULP energy per Si atom -5572.576846 kJ/mol
# Density = 2.108739 g / cm^3
# Si number density = 21.135499 Si / 1000 Ang^3
#
#
#
# Elastic Constant Matrix: (Units=GPa)
#
#
# Indices 1 2 3 4 5 6 
#
# 1 142.9225 45.2306 22.8113 1.8707 -6.6646 -11.8174
# 2 45.2306 75.9918 25.2184 6.1471 10.6248 4.0911
# 3 22.8113 25.2184 40.5726 -4.3713 -7.4021 -4.8408
# 4 1.8707 6.1471 -4.3713 25.6189 -6.7944 8.3732
# 5 -6.6646 10.6248 -7.4021 -6.7944 48.5183 -0.6903
# 6 -11.8174 4.0911 -4.8408 8.3732 -0.6903 35.2006
#
#
#
# Elastic Compliance Matrix: (Units=1/GPa)
#
#
# Indices 1 2 3 4 5 6 
#
# 1 0.009420 -0.005951 -0.000671 0.000063 0.002558 0.003797
# 2 -0.005951 0.023941 -0.014824 -0.008784 -0.009622 -0.004918
# 3 -0.000671 -0.014824 0.037914 0.011524 0.010612 0.004179
# 4 0.000063 -0.008784 0.011524 0.048721 0.010388 -0.008759
# 5 0.002558 -0.009622 0.010612 0.010388 0.026164 0.001478
# 6 0.003797 -0.004918 0.004179 -0.008759 0.001478 0.032942
#
#
# Mechanical properties :
#
#
# Convention : Reuss Voigt Hill
#
# Bulk Modulus (GPa) = 35.23078 49.55639 42.39358
# Shear Modulus (GPa) = 21.60256 32.94933 27.27595
#
# Velocity S-wave (km/s) = 3.20050 3.95265 3.59629
# Velocity P-wave (km/s) = 5.51024 6.65801 6.11113
#
# Compressibility (1/GPa) = 0.02838427
#
# Stress axis : x y z
#
# Youngs Moduli (GPa) = 106.16209 41.76868 26.37535
#
# Poissons Ratio (x) = 0.24857 0.01769
# Poissons Ratio (y) = 0.63178 0.39098
# Poissons Ratio (z) = 0.07119 0.61917
#
# Static dielectric constant tensor:
#      x y z
#    x 1.789450 0.011830 -0.012100 
#    y 0.011830 1.780530 0.006760 
#    z -0.012100 0.006760 1.821260 
# 
# From -- ./inp_files/183977.got.cif
#   From: 2010.05.17/outbox.cif.g08.bks.cpg/sg2_92_cif.got.tgz:183977.got - 2010.06.03 11:33:40.
