data_PCOD9003485
_publ_section_title
;
Structure prediction by ZEFSAII (Michael W. Deem and Ramdas Pophale) SiO2 
 PCOD9003485
Probable space group: P -1
;
_chemical_formula_sum "Si O2"
_cell_formula_units_Z 14
_cell_length_a 15.800081
_cell_length_b 8.238254
_cell_length_c 13.287414
_cell_angle_alpha 87.471257
_cell_angle_beta 25.198317
_cell_angle_gamma 102.094055
_cell_volume 595.863578
_symmetry_space_group_name_H-M "P -1"
_symmetry_group_IT_number 2
_symmetry_cell_setting 'triclinic'
loop_
_space_group_symop_operation_xyz
x,y,z
-x,-y,-z
loop_
_atom_site_type_symbol
_atom_site_label
_atom_site_fract_x
_atom_site_fract_y
_atom_site_fract_z
Si Si1 0.981120 0.855630 0.879879
Si Si2 0.764973 0.069531 0.177799
Si Si3 0.953408 0.344532 0.640060
Si Si4 0.705743 0.731636 0.805549
Si Si5 0.609932 0.941654 0.731801
Si Si6 0.993237 0.492612 0.127435
Si Si7 0.375348 0.676915 0.316282
O O1 0.089869 0.887444 0.874558
O O2 0.897983 0.629750 0.949641
O O3 0.199483 0.007683 0.563848
O O4 0.793464 0.915808 0.089262
O O5 0.500000 0.000000 0.500000
O O6 0.874931 0.275701 0.993836
O O7 0.000000 0.500000 0.500000
O O8 0.030704 0.214430 0.506037
O O9 0.154811 0.475287 0.504824
O O10 0.677067 0.221367 0.979131
O O11 0.661777 0.861501 0.776491
O O12 0.500000 0.500000 0.000000
O O13 0.633734 0.730992 0.998851
O O14 0.638167 0.146334 0.713882
O O15 0.714031 0.362341 0.472145
O O16 0.000000 0.500000 0.000000
#
# Coordination Sequence:
#
# PCOD9003485 Si02
#       7
#     2   2   2   2   2   2   2
#     4   9  22  39  58  89 117 162 199 253 312 357
#     4  10  21  37  64  87 117 159 205 250 312 363
#     4  11  23  38  61  91 122 162 210 246 306 376
#     4  10  21  37  60  90 122 164 204 249 308 370
#     4  11  22  41  61  85 133 155 204 263 299 370
#     4   9  20  40  63  87 125 158 204 257 305 369
#     4  10  22  40  62  89 124 165 202 257 313 358
#
# _framework density 23.495312999999999
#
# number of rings (size 3 to 8) (size 9 to 14) (size 15 to 20)
#    0.000    2.000    2.857    0.429    6.000    1.143 
#    0.000    0.000    6.286    0.000    0.000    0.000 
#    0.000    0.000    0.000    0.000    0.000    0.000 
#
# Total GULP energy -78175.489942 kJ/mol
# GULP energy per Si atom -5583.963567 kJ/mol
# Density = 2.344184 g / cm^3
# Si number density = 23.495313 Si / 1000 Ang^3
#
#
#
# Elastic Constant Matrix: (Units=GPa)
#
#
# Indices 1 2 3 4 5 6 
#
# 1 47.7945 17.2871 41.7626 -5.5188 17.0795 -1.4918
# 2 17.2871 125.8807 71.5160 2.1232 4.6650 -15.6319
# 3 41.7626 71.5160 147.5712 6.3490 21.7814 -16.7612
# 4 -5.5188 2.1232 6.3490 39.7860 -3.6441 7.5839
# 5 17.0795 4.6650 21.7814 -3.6441 45.2535 -4.9089
# 6 -1.4918 -15.6319 -16.7612 7.5839 -4.9089 20.0768
#
#
#
# Elastic Compliance Matrix: (Units=1/GPa)
#
#
# Indices 1 2 3 4 5 6 
#
# 1 0.032726 -0.000260 -0.009398 0.007272 -0.008344 -0.010405
# 2 -0.000260 0.011513 -0.005150 -0.000677 0.001918 0.005370
# 3 -0.009398 -0.005150 0.013294 -0.004798 -0.001866 0.007746
# 4 0.007272 -0.000677 -0.004798 0.029875 0.000393 -0.015181
# 5 -0.008344 0.001918 -0.001866 0.000393 0.026594 0.005669
# 6 -0.010405 0.005370 0.007746 -0.015181 0.005669 0.066804
#
#
# Mechanical properties :
#
#
# Convention : Reuss Voigt Hill
#
# Bulk Modulus (GPa) = 35.82246 64.70865 50.26555
# Shear Modulus (GPa) = 22.75552 33.73531 28.24541
#
# Velocity S-wave (km/s) = 3.11547 3.79335 3.47100
# Velocity P-wave (km/s) = 5.31237 6.84009 6.12406
#
# Compressibility (1/GPa) = 0.02791545
#
# Stress axis : x y z
#
# Youngs Moduli (GPa) = 30.55671 86.86162 75.22471
#
# Poissons Ratio (x) = 0.02261 0.70699
# Poissons Ratio (y) = 0.00795 0.38738
# Poissons Ratio (z) = 0.28718 0.44731
#
# Static dielectric constant tensor:
#      x y z
#    x 1.977010 0.136010 -0.033490 
#    y 0.136010 2.031540 -0.002420 
#    z -0.033490 -0.002420 1.949530 
# 
# From -- ./inp_files/220616.got.cif
#   From: 2010.05.17/outbox.cif.g08.bks.cpg/sg2_111_cif.got.tgz:220616.got - 2010.06.03 11:33:40.
