data_PCOD9003690
_publ_section_title
;
Structure prediction by ZEFSAII (Michael W. Deem and Ramdas Pophale) SiO2 
 PCOD9003690
Probable space group: P -1
;
_chemical_formula_sum "Si O2"
_cell_formula_units_Z 16
_cell_length_a 12.728663
_cell_length_b 6.203977
_cell_length_c 10.543083
_cell_angle_alpha 87.953212
_cell_angle_beta 126.151823
_cell_angle_gamma 108.822466
_cell_volume 623.155870
_symmetry_space_group_name_H-M "P -1"
_symmetry_group_IT_number 2
_symmetry_cell_setting 'triclinic'
loop_
_space_group_symop_operation_xyz
x,y,z
-x,-y,-z
loop_
_atom_site_type_symbol
_atom_site_label
_atom_site_fract_x
_atom_site_fract_y
_atom_site_fract_z
Si Si1 0.942177 0.019917 0.320186
Si Si2 0.819605 0.276661 0.651686
Si Si3 0.518114 0.265859 0.452857
Si Si4 0.521758 0.818115 0.115876
Si Si5 0.763052 0.210936 0.346424
Si Si6 0.770763 0.911992 0.833771
Si Si7 0.709557 0.567635 0.129424
Si Si8 0.975358 0.723880 0.865546
O O1 0.834205 0.143087 0.278053
O O2 0.047589 0.179579 0.290534
O O3 0.856107 0.770577 0.201841
O O4 0.000000 0.000000 0.500000
O O5 0.684291 0.351493 0.543229
O O6 0.861686 0.269711 0.536883
O O7 0.776463 0.035555 0.699195
O O8 0.939614 0.456695 0.818594
O O9 0.500000 0.500000 0.500000
O O10 0.500000 0.000000 0.500000
O O11 0.395665 0.205043 0.258883
O O12 0.611286 0.697242 0.107100
O O13 0.624692 0.984195 0.289840
O O14 0.371444 0.614292 0.034140
O O15 0.500000 0.000000 0.000000
O O16 0.726199 0.422358 0.265461
O O17 0.862886 0.754979 0.881837
O O18 0.865676 0.116071 0.989304
#
# Coordination Sequence:
#
# PCOD9003690 Si02
#       8
#     2   2   2   2   2   2   2   2
#     4  11  23  38  59  91 131 165 217 261 323 401
#     4  11  22  40  69  93 128 173 217 274 344 400
#     4  10  21  44  71  99 135 174 230 292 345 407
#     4   8  16  35  58  79 119 159 207 254 310 379
#     4  10  21  37  61  93 126 166 212 259 323 404
#     4  10  23  44  65  93 128 165 228 282 339 397
#     4   9  18  36  56  82 124 164 202 260 313 386
#     4  11  23  41  67  92 126 174 219 275 338 400
#
# _framework density 25.675761000000001
#
# number of rings (size 3 to 8) (size 9 to 14) (size 15 to 20)
#    0.000    2.000    1.250    1.875    0.000    4.000 
#   13.500    0.000    0.000    0.000    0.000    0.000 
#    0.000    0.000    0.000    0.000    0.000    0.000 
#
# Total GULP energy -89232.493654 kJ/mol
# GULP energy per Si atom -5577.030853 kJ/mol
# Density = 2.561732 g / cm^3
# Si number density = 25.675761 Si / 1000 Ang^3
#
#
#
# Elastic Constant Matrix: (Units=GPa)
#
#
# Indices 1 2 3 4 5 6 
#
# 1 76.4752 25.5177 29.4585 1.7764 8.5505 -18.8786
# 2 25.5177 117.2781 26.9296 6.5781 4.6120 -11.4667
# 3 29.4585 26.9296 102.5557 16.3060 19.3555 -11.8635
# 4 1.7764 6.5781 16.3060 50.4251 3.4632 5.3299
# 5 8.5505 4.6120 19.3555 3.4632 37.6099 -4.9937
# 6 -18.8786 -11.4667 -11.8635 5.3299 -4.9937 34.6247
#
#
#
# Elastic Compliance Matrix: (Units=1/GPa)
#
#
# Indices 1 2 3 4 5 6 
#
# 1 0.016970 -0.002193 -0.003290 0.000050 -0.000937 0.007256
# 2 -0.002193 0.009569 -0.001652 -0.000838 0.000465 0.001603
# 3 -0.003290 -0.001652 0.012899 -0.003692 -0.005094 0.001912
# 4 0.000050 -0.000838 -0.003692 0.021702 -0.000664 -0.004952
# 5 -0.000937 0.000465 -0.005094 -0.000664 0.029731 0.002288
# 6 0.007256 0.001603 0.001912 -0.004952 0.002288 0.035116
#
#
# Mechanical properties :
#
#
# Convention : Reuss Voigt Hill
#
# Bulk Modulus (GPa) = 39.73359 51.12450 45.42904
# Shear Modulus (GPa) = 33.63662 38.82548 36.23105
#
# Velocity S-wave (km/s) = 3.62339 3.89285 3.76054
# Velocity P-wave (km/s) = 5.74578 6.33723 6.04874
#
# Compressibility (1/GPa) = 0.02516763
#
# Stress axis : x y z
#
# Youngs Moduli (GPa) = 58.92626 104.50735 77.52362
#
# Poissons Ratio (x) = 0.22922 0.25508
# Poissons Ratio (y) = 0.12925 0.12804
# Poissons Ratio (z) = 0.19389 0.17261
#
# Static dielectric constant tensor:
#      x y z
#    x 2.029040 -0.015880 0.072820 
#    y -0.015880 2.081720 0.049260 
#    z 0.072820 0.049260 2.093910 
# 
# From -- ./inp_files/442018.got.cif
#   From: 2010.05.17/outbox.cif.g08.bks.cpg/sg2_222_cif.got.tgz:442018.got - 2010.06.03 11:33:40.
