data_PCOD9003404
_publ_section_title
;
Structure prediction by ZEFSAII (Michael W. Deem and Ramdas Pophale) SiO2 
 PCOD9003404
Probable space group: P -1
;
_chemical_formula_sum "Si O2"
_cell_formula_units_Z 16
_cell_length_a 5.526247
_cell_length_b 22.478852
_cell_length_c 18.434341
_cell_angle_alpha 18.281195
_cell_angle_beta 84.106888
_cell_angle_gamma 74.922532
_cell_volume 609.791725
_symmetry_space_group_name_H-M "P -1"
_symmetry_group_IT_number 2
_symmetry_cell_setting 'triclinic'
loop_
_space_group_symop_operation_xyz
x,y,z
-x,-y,-z
loop_
_atom_site_type_symbol
_atom_site_label
_atom_site_fract_x
_atom_site_fract_y
_atom_site_fract_z
Si Si1 0.871259 0.450105 0.492507
Si Si2 0.872428 0.869730 0.811376
Si Si3 0.011624 0.444498 0.221235
Si Si4 0.370865 0.265433 0.283620
Si Si5 0.732263 0.121984 0.313219
Si Si6 0.655830 0.173058 0.868121
Si Si7 0.373278 0.239347 0.643353
Si Si8 0.659446 0.206224 0.537655
O O1 0.901210 0.216471 0.784210
O O2 0.538184 0.633297 0.291943
O O3 0.000000 0.500000 0.500000
O O4 0.048472 0.443678 0.424774
O O5 0.181046 0.797241 0.853643
O O6 0.649561 0.114225 0.500452
O O7 0.824936 0.948836 0.803961
O O8 0.829679 0.683064 0.990815
O O9 0.845268 0.312713 0.383799
O O10 0.118762 0.445939 0.133137
O O11 0.323775 0.317448 0.396954
O O12 0.486239 0.312009 0.151728
O O13 0.308498 0.076439 0.479952
O O14 0.000000 0.000000 0.500000
O O15 0.488155 0.207283 0.758421
O O16 0.680517 0.955779 0.152025
O O17 0.610381 0.237515 0.588827
#
# Coordination Sequence:
#
# PCOD9003404 Si02
#       8
#     2   2   2   2   2   2   2   2
#     4   9  18  35  56  88 116 144 189 249 297 368
#     4  10  22  41  65  88 128 171 212 261 318 372
#     4  11  25  43  67  89 128 175 214 261 318 369
#     4   9  19  38  62  93 128 160 213 268 313 370
#     4   9  17  35  63  92 127 162 205 270 314 366
#     4   9  19  37  62  86 117 152 195 250 314 366
#     4  10  21  37  60  85 117 159 197 249 313 364
#     4  11  26  44  61  94 129 167 217 263 305 383
#
# _framework density 26.238464
#
# number of rings (size 3 to 8) (size 9 to 14) (size 15 to 20)
#    0.000    2.250    1.250    0.375    3.500    1.500 
#    4.500    5.625    0.000    0.000    0.000    0.000 
#    0.000    0.000    0.000    0.000    0.000    0.000 
#
# Total GULP energy -89265.486435 kJ/mol
# GULP energy per Si atom -5579.092902 kJ/mol
# Density = 2.617874 g / cm^3
# Si number density = 26.238464 Si / 1000 Ang^3
#
#
#
# Elastic Constant Matrix: (Units=GPa)
#
#
# Indices 1 2 3 4 5 6 
#
# 1 129.2588 21.9980 34.7923 -12.6284 -19.4470 -20.7943
# 2 21.9980 139.0845 35.7688 -36.7774 0.8393 -44.4295
# 3 34.7923 35.7688 96.8468 -31.8819 -11.2282 -9.8380
# 4 -12.6284 -36.7774 -31.8819 33.8288 -0.1026 7.1140
# 5 -19.4470 0.8393 -11.2282 -0.1026 41.5048 -7.2334
# 6 -20.7943 -44.4295 -9.8380 7.1140 -7.2334 42.7623
#
#
#
# Elastic Compliance Matrix: (Units=1/GPa)
#
#
# Indices 1 2 3 4 5 6 
#
# 1 0.010130 0.001589 -0.002298 0.001970 0.005249 0.006608
# 2 0.001589 0.015519 0.000452 0.014726 0.003220 0.015095
# 3 -0.002298 0.000452 0.016423 0.014855 0.003615 0.001271
# 4 0.001970 0.014726 0.014855 0.057977 0.006734 0.011169
# 5 0.005249 0.003220 0.003615 0.006734 0.029325 0.010570
# 6 0.006608 0.015095 0.001271 0.011169 0.010570 0.042505
#
#
# Mechanical properties :
#
#
# Convention : Reuss Voigt Hill
#
# Bulk Modulus (GPa) = 24.06285 61.14537 42.60411
# Shear Modulus (GPa) = 26.84654 41.79459 34.32056
#
# Velocity S-wave (km/s) = 3.20218 3.99541 3.62059
# Velocity P-wave (km/s) = 4.78149 6.68122 5.80954
#
# Compressibility (1/GPa) = 0.04155784
#
# Stress axis : x y z
#
# Youngs Moduli (GPa) = 98.71941 64.43740 60.89199
#
# Poissons Ratio (x) = -0.10238 0.13991
# Poissons Ratio (y) = -0.15685 -0.02753
# Poissons Ratio (z) = 0.22683 -0.02914
#
# Static dielectric constant tensor:
#      x y z
#    x 2.095840 -0.036890 0.067050 
#    y -0.036890 2.316840 0.019540 
#    z 0.067050 0.019540 2.203160 
# 
# From -- ./inp_files/584395.got.cif
#   From: 2010.05.17/outbox.cif.g08.bks.cpg/sg2_293_cif.got.tgz:584395.got - 2010.06.03 11:33:40.
