data_PCOD9003779
_publ_section_title
;
Structure prediction by ZEFSAII (Michael W. Deem and Ramdas Pophale) SiO2 
 PCOD9003779
Probable space group: P -1
;
_chemical_formula_sum "Si O2"
_cell_formula_units_Z 16
_cell_length_a 13.807159
_cell_length_b 8.595342
_cell_length_c 14.778454
_cell_angle_alpha 84.556219
_cell_angle_beta 127.993668
_cell_angle_gamma 53.835520
_cell_volume 774.329015
_symmetry_space_group_name_H-M "P -1"
_symmetry_group_IT_number 2
_symmetry_cell_setting 'triclinic'
loop_
_space_group_symop_operation_xyz
x,y,z
-x,-y,-z
loop_
_atom_site_type_symbol
_atom_site_label
_atom_site_fract_x
_atom_site_fract_y
_atom_site_fract_z
Si Si1 0.687953 0.598260 0.069061
Si Si2 0.449041 0.368195 0.204591
Si Si3 0.142865 0.480506 0.133706
Si Si4 0.747911 0.095290 0.877953
Si Si5 0.179882 0.106819 0.437655
Si Si6 0.445182 0.734808 0.433615
Si Si7 0.151434 0.471196 0.342975
Si Si8 0.661935 0.997637 0.002980
O O1 0.936765 0.305981 0.259751
O O2 0.673120 0.797616 0.021700
O O3 0.607386 0.588296 0.935812
O O4 0.523777 0.750854 0.049791
O O5 0.339989 0.333386 0.194492
O O6 0.338021 0.643600 0.161551
O O7 0.701061 0.095843 0.396643
O O8 0.191103 0.368524 0.267972
O O9 0.000000 0.500000 0.000000
O O10 0.001237 0.786608 0.054117
O O11 0.709174 0.099011 0.750994
O O12 0.630657 0.098818 0.879348
O O13 0.167255 0.307895 0.427780
O O14 0.335887 0.911694 0.452222
O O15 0.500000 0.500000 0.500000
O O16 0.662304 0.597425 0.536047
O O17 0.903980 0.794073 0.186320
#
# Coordination Sequence:
#
# PCOD9003779 Si02
#       8
#     2   2   2   2   2   2   2   2
#     4  10  23  45  68  89 124 163 215 269 306 367
#     4  12  23  39  61  92 129 166 206 254 320 374
#     4  11  21  37  62  91 122 164 209 258 311 378
#     4  11  23  38  61  91 123 169 207 251 319 372
#     4  11  23  39  62  97 124 164 208 253 316 379
#     4  12  22  38  57  92 134 159 198 260 309 380
#     4  10  21  37  62  89 124 160 203 261 317 367
#     4   9  22  46  65  89 118 163 218 263 311 369
#
# _framework density 20.663049999999998
#
# number of rings (size 3 to 8) (size 9 to 14) (size 15 to 20)
#    0.000    1.250    2.500    4.500    3.500    3.500 
#    2.250    2.500    0.000    0.000    0.000    0.000 
#    0.000    0.000    0.000    0.000    0.000    0.000 
#
# Total GULP energy -89361.672390 kJ/mol
# GULP energy per Si atom -5585.104524 kJ/mol
# Density = 2.061602 g / cm^3
# Si number density = 20.663050 Si / 1000 Ang^3
#
#
#
# Elastic Constant Matrix: (Units=GPa)
#
#
# Indices 1 2 3 4 5 6 
#
# 1 39.7137 6.1679 7.1086 -10.3458 1.0634 -13.5918
# 2 6.1679 41.7536 39.8134 -2.2762 6.3055 5.0133
# 3 7.1086 39.8134 86.2023 -10.5320 -2.9653 0.0272
# 4 -10.3458 -2.2762 -10.5320 28.0080 -1.9156 -3.4014
# 5 1.0634 6.3055 -2.9653 -1.9156 25.9308 -6.3588
# 6 -13.5918 5.0133 0.0272 -3.4014 -6.3588 27.5499
#
#
#
# Elastic Compliance Matrix: (Units=1/GPa)
#
#
# Indices 1 2 3 4 5 6 
#
# 1 0.041829 -0.017848 0.007815 0.021344 0.012292 0.029349
# 2 -0.017848 0.061554 -0.030050 -0.018087 -0.025922 -0.028193
# 3 0.007815 -0.030050 0.026958 0.013315 0.014560 0.014302
# 4 0.021344 -0.018087 0.013315 0.050971 0.014564 0.023463
# 5 0.012292 -0.025922 0.014560 0.014564 0.053196 0.024843
# 6 0.029349 -0.028193 0.014302 0.023463 0.024843 0.064524
#
#
# Mechanical properties :
#
#
# Convention : Reuss Voigt Hill
#
# Bulk Modulus (GPa) = 19.92989 30.42772 25.17881
# Shear Modulus (GPa) = 12.62873 23.93639 18.28256
#
# Velocity S-wave (km/s) = 2.47488 3.40724 2.97778
# Velocity P-wave (km/s) = 4.22289 5.49879 4.90253
#
# Compressibility (1/GPa) = 0.05017588
#
# Stress axis : x y z
#
# Youngs Moduli (GPa) = 23.90688 16.24593 37.09449
#
# Poissons Ratio (x) = 0.28995 -0.28990
# Poissons Ratio (y) = 0.42668 1.11469
# Poissons Ratio (z) = -0.18683 0.48819
#
# Static dielectric constant tensor:
#      x y z
#    x 1.738000 0.028860 0.002490 
#    y 0.028860 1.746790 -0.001810 
#    z 0.002490 -0.001810 1.774200 
# 
# From -- ./inp_files/208389.got.cif
#   From: 2010.05.17/outbox.cif.g08.bks.cpg/sg2_105_cif.got.tgz:208389.got - 2010.06.03 11:33:40.
