data_PCOD9003315
_publ_section_title
;
Structure prediction by ZEFSAII (Michael W. Deem and Ramdas Pophale) SiO2 
 PCOD9003315
Probable space group: P -1
;
_chemical_formula_sum "Si O2"
_cell_formula_units_Z 16
_cell_length_a 8.803085
_cell_length_b 24.899371
_cell_length_c 14.121637
_cell_angle_alpha 32.180057
_cell_angle_beta 54.492902
_cell_angle_gamma 34.543705
_cell_volume 862.602478
_symmetry_space_group_name_H-M "P -1"
_symmetry_group_IT_number 2
_symmetry_cell_setting 'triclinic'
loop_
_space_group_symop_operation_xyz
x,y,z
-x,-y,-z
loop_
_atom_site_type_symbol
_atom_site_label
_atom_site_fract_x
_atom_site_fract_y
_atom_site_fract_z
Si Si1 0.246306 0.129232 0.069816
Si Si2 0.774333 0.657787 0.602484
Si Si3 0.781011 0.679635 0.345125
Si Si4 0.891637 0.042260 0.583802
Si Si5 0.672673 0.014062 0.360546
Si Si6 0.249943 0.296959 0.964127
Si Si7 0.293444 0.814939 0.188524
Si Si8 0.876523 0.829431 0.366768
O O1 0.121298 0.068538 0.208979
O O2 0.596688 0.972819 0.188363
O O3 0.167235 0.234279 0.853767
O O4 0.160442 0.230886 0.041258
O O5 0.802159 0.677775 0.452319
O O6 0.878079 0.708998 0.551067
O O7 0.974919 0.478896 0.811769
O O8 0.436489 0.781382 0.558918
O O9 0.460984 0.778728 0.277127
O O10 0.000000 0.500000 0.500000
O O11 0.093620 0.027257 0.598030
O O12 0.000000 0.000000 0.500000
O O13 0.500000 0.000000 0.500000
O O14 0.814113 0.907429 0.373841
O O15 0.436068 0.191804 0.144378
O O16 0.470767 0.261474 0.864189
O O17 0.172452 0.752439 0.333695
O O18 0.000000 0.000000 0.000000
#
# Coordination Sequence:
#
# PCOD9003315 Si02
#       8
#     2   2   2   2   2   2   2   2
#     4   9  19  38  61  87 128 160 207 248 301 364
#     4  11  23  39  62  92 130 160 204 258 304 362
#     4  11  20  37  60  93 129 166 198 256 311 355
#     4  11  24  43  67  92 115 160 217 255 303 375
#     4  11  22  43  67  86 117 162 207 255 310 367
#     4  10  21  39  60  90 125 163 194 259 304 360
#     4  11  18  36  62  85 126 164 208 239 301 370
#     4  10  21  37  59  88 121 168 204 243 298 369
#
# _framework density 18.54852
#
# number of rings (size 3 to 8) (size 9 to 14) (size 15 to 20)
#    0.000    1.500    6.250    3.000    0.000    3.500 
#    2.250    5.000    0.000    0.000    0.000    0.000 
#    0.000    0.000    0.000    0.000    0.000    0.000 
#
# Total GULP energy -89305.177965 kJ/mol
# GULP energy per Si atom -5581.573623 kJ/mol
# Density = 1.850630 g / cm^3
# Si number density = 18.548520 Si / 1000 Ang^3
#
#
#
# Elastic Constant Matrix: (Units=GPa)
#
#
# Indices 1 2 3 4 5 6 
#
# 1 125.4539 46.8920 45.6751 -4.4969 -6.7189 -19.9793
# 2 46.8920 91.6619 46.8771 -5.7705 -7.4205 -5.8270
# 3 45.6751 46.8771 77.6817 -16.6127 -9.2106 -5.6307
# 4 -4.4969 -5.7705 -16.6127 37.2887 5.8140 -6.3998
# 5 -6.7189 -7.4205 -9.2106 5.8140 25.0356 7.6977
# 6 -19.9793 -5.8270 -5.6307 -6.3998 7.6977 30.0980
#
#
#
# Elastic Compliance Matrix: (Units=1/GPa)
#
#
# Indices 1 2 3 4 5 6 
#
# 1 0.011947 -0.003450 -0.004575 0.000319 -0.001698 0.006909
# 2 -0.003450 0.016975 -0.008563 -0.002176 0.001941 -0.001565
# 3 -0.004575 -0.008563 0.022786 0.007976 0.002579 0.000605
# 4 0.000319 -0.002176 0.007976 0.033220 -0.008580 0.010541
# 5 -0.001698 0.001941 0.002579 -0.008580 0.047373 -0.014209
# 6 0.006909 -0.001565 0.000605 0.010541 -0.014209 0.043496
#
#
# Mechanical properties :
#
#
# Convention : Reuss Voigt Hill
#
# Bulk Modulus (GPa) = 53.96398 63.74289 58.85343
# Shear Modulus (GPa) = 23.23948 28.84135 26.04041
#
# Velocity S-wave (km/s) = 3.54348 3.94752 3.75094
# Velocity P-wave (km/s) = 6.77482 7.43083 7.11040
#
# Compressibility (1/GPa) = 0.01853088
#
# Stress axis : x y z
#
# Youngs Moduli (GPa) = 83.70223 58.91062 43.88706
#
# Poissons Ratio (x) = 0.20327 0.20077
# Poissons Ratio (y) = 0.28881 0.37582
# Poissons Ratio (z) = 0.38292 0.50447
#
# Static dielectric constant tensor:
#      x y z
#    x 1.645210 0.005410 -0.013310 
#    y 0.005410 1.613390 0.011390 
#    z -0.013310 0.011390 1.656380 
# 
# From -- ./inp_files/207984.got.cif
#   From: 2010.05.17/outbox.cif.g08.bks.cpg/sg2_104_cif.got.tgz:207984.got - 2010.06.03 11:33:40.
