data_PCOD9003056
_publ_section_title
;
Structure prediction by ZEFSAII (Michael W. Deem and Ramdas Pophale) SiO2 
 PCOD9003056
Probable space group: P -1
;
_chemical_formula_sum "Si O2"
_cell_formula_units_Z 14
_cell_length_a 9.937036
_cell_length_b 13.989950
_cell_length_c 15.403600
_cell_angle_alpha 29.939836
_cell_angle_beta 63.301365
_cell_angle_gamma 84.930549
_cell_volume 704.451893
_symmetry_space_group_name_H-M "P -1"
_symmetry_group_IT_number 2
_symmetry_cell_setting 'triclinic'
loop_
_space_group_symop_operation_xyz
x,y,z
-x,-y,-z
loop_
_atom_site_type_symbol
_atom_site_label
_atom_site_fract_x
_atom_site_fract_y
_atom_site_fract_z
Si Si1 0.674427 0.226794 0.887363
Si Si2 0.648878 0.255654 0.316483
Si Si3 0.773910 0.300200 0.603773
Si Si4 0.037698 0.447766 0.146245
Si Si5 0.952874 0.143183 0.956778
Si Si6 0.771125 0.969145 0.331236
Si Si7 0.107722 0.321005 0.412036
O O1 0.759451 0.348723 0.670851
O O2 0.802220 0.156187 0.939861
O O3 0.699995 0.413022 0.805447
O O4 0.444931 0.962693 0.152340
O O5 0.475584 0.227613 0.438437
O O6 0.803733 0.266929 0.323711
O O7 0.500000 0.000000 0.500000
O O8 0.810267 0.500878 0.013277
O O9 0.851034 0.549605 0.330571
O O10 0.927496 0.256180 0.574837
O O11 0.067048 0.361690 0.295122
O O12 0.123861 0.737529 0.907508
O O13 0.848974 0.992334 0.194322
O O14 0.000000 0.000000 0.000000
O O15 0.856016 0.873004 0.442426
#
# Coordination Sequence:
#
# PCOD9003056 Si02
#       7
#     2   2   2   2   2   2   2
#     4  10  21  38  57  84 121 169 206 253 303 354
#     4   9  22  42  66  89 124 159 202 256 310 371
#     4  10  21  37  57  84 125 165 208 252 304 354
#     4  10  21  43  64  91 123 161 202 256 313 358
#     4  11  21  36  58  87 127 164 205 253 298 359
#     4  11  22  38  63  95 122 163 206 250 306 366
#     4  11  22  38  64  90 124 160 204 255 302 364
#
# _framework density 19.873605999999999
#
# number of rings (size 3 to 8) (size 9 to 14) (size 15 to 20)
#    0.000    1.714    2.857    3.429    2.000    2.286 
#    0.000    6.429    0.000    0.000    0.000    0.000 
#    0.000    0.000    0.000    0.000    0.000    0.000 
#
# Total GULP energy -78073.409206 kJ/mol
# GULP energy per Si atom -5576.672086 kJ/mol
# Density = 1.982837 g / cm^3
# Si number density = 19.873606 Si / 1000 Ang^3
#
#
#
# Elastic Constant Matrix: (Units=GPa)
#
#
# Indices 1 2 3 4 5 6 
#
# 1 87.9537 33.5270 74.4281 10.8221 12.3684 7.7518
# 2 33.5270 53.8919 39.5847 25.5285 -2.3576 12.0601
# 3 74.4281 39.5847 95.8451 18.1357 -9.5690 1.6797
# 4 10.8221 25.5285 18.1357 27.3987 3.2382 4.1868
# 5 12.3684 -2.3576 -9.5690 3.2382 36.8143 -1.3292
# 6 7.7518 12.0601 1.6797 4.1868 -1.3292 35.6178
#
#
#
# Elastic Compliance Matrix: (Units=1/GPa)
#
#
# Indices 1 2 3 4 5 6 
#
# 1 0.067639 -0.014235 -0.056363 0.030645 -0.041429 -0.012391
# 2 -0.014235 0.048791 -0.000353 -0.039630 0.011000 -0.008337
# 3 -0.056363 -0.000353 0.062726 -0.025530 0.037963 0.013846
# 4 0.030645 -0.039630 -0.025530 0.081787 -0.026760 -0.002659
# 5 -0.041429 0.011000 0.037963 -0.026760 0.054321 0.008674
# 6 -0.012391 -0.008337 0.013846 -0.002659 0.008674 0.033579
#
#
# Mechanical properties :
#
#
# Convention : Reuss Voigt Hill
#
# Bulk Modulus (GPa) = 26.84408 59.19670 43.02039
# Shear Modulus (GPa) = 9.93713 25.97621 17.95667
#
# Velocity S-wave (km/s) = 2.23853 3.61927 3.00916
# Velocity P-wave (km/s) = 4.49645 6.87871 5.81097
#
# Compressibility (1/GPa) = 0.03725216
#
# Stress axis : x y z
#
# Youngs Moduli (GPa) = 14.78442 20.49569 15.94231
#
# Poissons Ratio (x) = 0.29176 0.89855
# Poissons Ratio (y) = 0.21046 0.00563
# Poissons Ratio (z) = 0.83329 0.00724
#
# Static dielectric constant tensor:
#      x y z
#    x 1.689530 0.006080 -0.020370 
#    y 0.006080 1.771990 0.006150 
#    z -0.020370 0.006150 1.741960 
# 
# From -- ./inp_files/335320.got.cif
#   From: 2010.05.17/outbox.cif.g08.bks.cpg/sg2_168_cif.got.tgz:335320.got - 2010.06.03 11:33:40.
