data_PCOD9003688
_publ_section_title
;
Structure prediction by ZEFSAII (Michael W. Deem and Ramdas Pophale) SiO2 
 PCOD9003688
Probable space group: P -1
;
_chemical_formula_sum "Si O2"
_cell_formula_units_Z 15
_cell_length_a 16.867048
_cell_length_b 6.857551
_cell_length_c 10.513694
_cell_angle_alpha 123.079979
_cell_angle_beta 144.613258
_cell_angle_gamma 73.243754
_cell_volume 558.469492
_symmetry_space_group_name_H-M "P -1"
_symmetry_group_IT_number 2
_symmetry_cell_setting 'triclinic'
loop_
_space_group_symop_operation_xyz
x,y,z
-x,-y,-z
loop_
_atom_site_type_symbol
_atom_site_label
_atom_site_fract_x
_atom_site_fract_y
_atom_site_fract_z
Si Si1 0.630124 0.134900 0.346304
Si Si2 0.417178 0.680449 0.010111
Si Si3 0.814150 0.804642 0.494541
Si Si4 0.101897 0.763124 0.770437
Si Si5 0.274664 0.234707 0.070483
Si Si6 0.460831 0.429393 0.628190
Si Si7 0.000000 0.000000 0.000000
Si Si8 0.166373 0.647913 0.080017
O O1 0.613432 0.374548 0.343353
O O2 0.700735 0.243491 0.612581
O O3 0.474429 0.932735 0.097721
O O4 0.732880 0.975060 0.382142
O O5 0.486412 0.728708 0.257884
O O6 0.500000 0.500000 0.000000
O O7 0.258210 0.480646 0.734444
O O8 0.987988 0.889978 0.728764
O O9 0.828064 0.857311 0.682368
O O10 0.000000 0.500000 0.500000
O O11 0.193164 0.734549 0.000540
O O12 0.196930 0.944233 0.854948
O O13 0.358879 0.277270 0.330089
O O14 0.392800 0.386342 0.179089
O O15 0.149064 0.360823 0.953012
O O16 0.030996 0.732966 0.973118
#
# Coordination Sequence:
#
# PCOD9003688 Si02
#       8
#     2   2   2   2   2   2   1   2
#     4   9  19  39  65  86 122 161 206 269 313 370
#     4  10  21  37  61  93 124 160 207 263 321 364
#     4   9  20  37  57  89 119 158 211 251 312 372
#     4  11  24  39  60  89 130 170 212 256 317 382
#     4  10  23  41  62  95 127 174 210 258 316 380
#     4  10  22  40  65  94 127 161 215 259 319 386
#     4   8  16  38  60  80 120 162 206 254 298 374
#     4   9  19  39  62  87 121 164 215 257 310 375
#
# _framework density 26.859119
#
# number of rings (size 3 to 8) (size 9 to 14) (size 15 to 20)
#    0.000    2.400    0.000    0.800    3.733    3.733 
#    0.000   21.333    0.000    0.000    0.000    0.000 
#    0.000    0.000    0.000    0.000    0.000    0.000 
#
# Total GULP energy -83589.001489 kJ/mol
# GULP energy per Si atom -5572.600099 kJ/mol
# Density = 2.679799 g / cm^3
# Si number density = 26.859119 Si / 1000 Ang^3
#
#
#
# Elastic Constant Matrix: (Units=GPa)
#
#
# Indices 1 2 3 4 5 6 
#
# 1 32.5468 1.8511 0.0164 -7.6663 10.9617 -4.5461
# 2 1.8511 111.6768 34.0368 22.3132 7.0569 -11.8104
# 3 0.0164 34.0368 73.3125 -12.9188 8.8841 -4.8365
# 4 -7.6663 22.3132 -12.9188 39.8545 1.2352 5.3707
# 5 10.9617 7.0569 8.8841 1.2352 32.5727 1.2922
# 6 -4.5461 -11.8104 -4.8365 5.3707 1.2922 33.9165
#
#
#
# Elastic Compliance Matrix: (Units=1/GPa)
#
#
# Indices 1 2 3 4 5 6 
#
# 1 0.038850 -0.003169 0.005381 0.010942 -0.014417 0.003688
# 2 -0.003169 0.014670 -0.008700 -0.012384 0.000517 0.005384
# 3 0.005381 -0.008700 0.020604 0.012930 -0.005989 -0.001189
# 4 0.010942 -0.012384 0.012930 0.039446 -0.005743 -0.007029
# 5 -0.014417 0.000517 -0.005989 -0.005743 0.037415 -0.003122
# 6 0.003688 0.005384 -0.001189 -0.007029 -0.003122 0.032916
#
#
# Mechanical properties :
#
#
# Convention : Reuss Voigt Hill
#
# Bulk Modulus (GPa) = 16.35371 32.14940 24.25156
# Shear Modulus (GPa) = 23.01400 33.37755 28.19578
#
# Velocity S-wave (km/s) = 2.93036 3.52900 3.24352
# Velocity P-wave (km/s) = 4.18942 5.34797 4.80375
#
# Compressibility (1/GPa) = 0.06114820
#
# Stress axis : x y z
#
# Youngs Moduli (GPa) = 25.73980 68.16855 48.53461
#
# Poissons Ratio (x) = 0.21604 -0.26117
# Poissons Ratio (y) = 0.08157 0.42224
# Poissons Ratio (z) = -0.13851 0.59304
#
# Static dielectric constant tensor:
#      x y z
#    x 1.831370 -0.136650 0.172520 
#    y -0.136650 2.126720 0.038180 
#    z 0.172520 0.038180 2.056050 
# 
# From -- ./inp_files/468493.got.cif
#   From: 2010.05.17/outbox.cif.g08.bks.cpg/sg2_235_cif.got.tgz:468493.got - 2010.06.03 11:33:40.
