data_PCOD9003407
_publ_section_title
;
Structure prediction by ZEFSAII (Michael W. Deem and Ramdas Pophale) SiO2 
 PCOD9003407
Probable space group: P -1
;
_chemical_formula_sum "Si O2"
_cell_formula_units_Z 16
_cell_length_a 14.376023
_cell_length_b 15.417891
_cell_length_c 8.676266
_cell_angle_alpha 132.555910
_cell_angle_beta 36.885027
_cell_angle_gamma 138.449615
_cell_volume 750.855877
_symmetry_space_group_name_H-M "P -1"
_symmetry_group_IT_number 2
_symmetry_cell_setting 'triclinic'
loop_
_space_group_symop_operation_xyz
x,y,z
-x,-y,-z
loop_
_atom_site_type_symbol
_atom_site_label
_atom_site_fract_x
_atom_site_fract_y
_atom_site_fract_z
Si Si1 0.632134 0.720677 0.575936
Si Si2 0.938232 0.608481 0.670041
Si Si3 0.281600 0.162456 0.738389
Si Si4 0.040859 0.132888 0.517964
Si Si5 0.290773 0.516164 0.736038
Si Si6 0.050228 0.674824 0.932268
Si Si7 0.349948 0.595458 0.403750
Si Si8 0.075186 0.872410 0.678478
O O1 0.690446 0.806873 0.445835
O O2 0.748629 0.789201 0.651558
O O3 0.424857 0.660135 0.795473
O O4 0.666572 0.592019 0.364861
O O5 0.748586 0.520090 0.733434
O O6 0.068667 0.729347 0.533688
O O7 0.000000 0.500000 0.500000
O O8 0.968480 0.679148 0.880779
O O9 0.449430 0.289196 0.742932
O O10 0.095723 0.150537 0.022931
O O11 0.248177 0.013024 0.649004
O O12 0.975292 0.112917 0.409754
O O13 0.000000 0.000000 0.500000
O O14 0.956643 0.213209 0.816832
O O15 0.330066 0.524354 0.511131
O O16 0.088883 0.465640 0.977592
O O17 0.232870 0.672916 0.668258
#
# Coordination Sequence:
#
# PCOD9003407 Si02
#       8
#     2   2   2   2   2   2   2   2
#     4   9  17  33  52  89 115 151 189 248 287 351
#     4  10  22  39  62  88 121 157 203 243 297 360
#     4  10  22  38  61  89 124 158 202 250 299 358
#     4  11  21  36  62  87 118 154 201 242 300 361
#     4   9  17  30  59  83 119 148 192 239 302 341
#     4  10  21  37  60  85 121 155 198 253 295 355
#     4  10  21  40  60  89 120 162 203 246 298 362
#     4  11  22  38  63  89 122 162 199 248 307 350
#
# _framework density 21.309014999999999
#
# number of rings (size 3 to 8) (size 9 to 14) (size 15 to 20)
#    0.000    2.000    1.250    3.375    1.750    2.500 
#    0.000    3.125    5.500    0.000    0.000    0.000 
#    0.000    0.000    0.000    0.000    0.000    0.000 
#
# Total GULP energy -89081.914432 kJ/mol
# GULP energy per Si atom -5567.619652 kJ/mol
# Density = 2.126051 g / cm^3
# Si number density = 21.309015 Si / 1000 Ang^3
#
#
#
# Elastic Constant Matrix: (Units=GPa)
#
#
# Indices 1 2 3 4 5 6 
#
# 1 76.1300 42.7200 6.5803 -7.7122 2.7317 -6.6933
# 2 42.7200 137.5496 24.4385 -17.8966 -8.6689 -14.5532
# 3 6.5803 24.4385 38.8544 -4.4817 -4.5090 -2.8912
# 4 -7.7122 -17.8966 -4.4817 25.2316 -0.3531 -2.1592
# 5 2.7317 -8.6689 -4.5090 -0.3531 20.6452 -2.8274
# 6 -6.6933 -14.5532 -2.8912 -2.1592 -2.8274 36.2670
#
#
#
# Elastic Compliance Matrix: (Units=1/GPa)
#
#
# Indices 1 2 3 4 5 6 
#
# 1 0.016342 -0.005107 0.000182 0.001411 -0.004141 0.000742
# 2 -0.005107 0.011180 -0.004608 0.005956 0.005003 0.003921
# 3 0.000182 -0.004608 0.029472 0.002175 0.004656 0.001027
# 4 0.001411 0.005956 0.002175 0.045237 0.004365 0.005857
# 5 -0.004141 0.005003 0.004656 0.004365 0.053000 0.006006
# 6 0.000742 0.003921 0.001027 0.005857 0.006006 0.030183
#
#
# Mechanical properties :
#
#
# Convention : Reuss Voigt Hill
#
# Bulk Modulus (GPa) = 26.36525 44.44574 35.40549
# Shear Modulus (GPa) = 23.02851 28.34843 25.68847
#
# Velocity S-wave (km/s) = 3.29096 3.65135 3.47583
# Velocity P-wave (km/s) = 5.18075 6.21928 5.72362
#
# Compressibility (1/GPa) = 0.03792871
#
# Stress axis : x y z
#
# Youngs Moduli (GPa) = 61.19168 89.44645 33.93046
#
# Poissons Ratio (x) = 0.45677 -0.00617
# Poissons Ratio (y) = 0.31249 0.15634
# Poissons Ratio (z) = -0.01112 0.41214
#
# Static dielectric constant tensor:
#      x y z
#    x 1.816720 0.047180 -0.013200 
#    y 0.047180 1.909220 0.035050 
#    z -0.013200 0.035050 1.867380 
# 
# From -- ./inp_files/314084.got.cif
#   From: 2010.05.17/outbox.cif.g08.bks.cpg/sg2_158_cif.got.tgz:314084.got - 2010.06.03 11:33:40.
