data_PCOD9003756
_publ_section_title
;
Structure prediction by ZEFSAII (Michael W. Deem and Ramdas Pophale) SiO2 
 PCOD9003756
Probable space group: P -1
;
_chemical_formula_sum "Si O2"
_cell_formula_units_Z 10
_cell_length_a 9.575222
_cell_length_b 7.498717
_cell_length_c 12.704555
_cell_angle_alpha 75.401160
_cell_angle_beta 124.045854
_cell_angle_gamma 58.905162
_cell_volume 418.573643
_symmetry_space_group_name_H-M "P -1"
_symmetry_group_IT_number 2
_symmetry_cell_setting 'triclinic'
loop_
_space_group_symop_operation_xyz
x,y,z
-x,-y,-z
loop_
_atom_site_type_symbol
_atom_site_label
_atom_site_fract_x
_atom_site_fract_y
_atom_site_fract_z
Si Si1 0.825335 0.260593 0.136534
Si Si2 0.806117 0.435338 0.650234
Si Si3 0.014632 0.620226 0.629375
Si Si4 0.099931 0.698098 0.067088
Si Si5 0.528193 0.855153 0.283731
O O1 0.973277 0.242476 0.295312
O O2 0.793954 0.397871 0.993038
O O3 0.500000 0.500000 0.000000
O O4 0.018848 0.905911 0.250226
O O5 0.549560 0.702008 0.417826
O O6 0.022401 0.412888 0.719132
O O7 0.708833 0.525829 0.716967
O O8 0.284056 0.398357 0.694971
O O9 0.715921 0.865334 0.397656
O O10 0.809689 0.831247 0.932992
O O11 0.000000 0.000000 0.000000
#
# Coordination Sequence:
#
# PCOD9003756 Si02
#       5
#     2   2   2   2   2
#     4  11  23  37  60  90 115 153 202 236 284 352
#     4   9  21  41  62  84 117 159 183 242 299 326
#     4   9  20  41  59  89 118 149 196 236 286 351
#     4  10  21  37  62  87 117 154 194 240 287 345
#     4   9  20  41  61  86 119 152 193 237 290 346
#
# _framework density 23.890657000000001
#
# number of rings (size 3 to 8) (size 9 to 14) (size 15 to 20)
#    1.200    1.200    0.000    2.400    0.000    8.800 
#    0.000    2.000    0.000    0.000    0.000    0.000 
#    0.000    0.000    0.000    0.000    0.000    0.000 
#
# Total GULP energy -55881.704230 kJ/mol
# GULP energy per Si atom -5588.170423 kJ/mol
# Density = 2.383628 g / cm^3
# Si number density = 23.890657 Si / 1000 Ang^3
#
#
#
# Elastic Constant Matrix: (Units=GPa)
#
#
# Indices 1 2 3 4 5 6 
#
# 1 43.3967 -13.5376 30.3643 -17.3782 31.2017 -21.3631
# 2 -13.5376 51.0320 42.9180 -6.5570 39.6120 -12.1871
# 3 30.3643 42.9180 91.6590 21.3586 -4.7875 -8.8286
# 4 -17.3782 -6.5570 21.3586 9.1911 17.4148 -13.7791
# 5 31.2017 39.6120 -4.7875 17.4148 27.6201 8.8505
# 6 -21.3631 -12.1871 -8.8286 -13.7791 8.8505 38.5449
#
#
#
# Elastic Compliance Matrix: (Units=1/GPa)
#
#
# Indices 1 2 3 4 5 6 
#
# 1 0.009121 -0.006996 0.002765 -0.009899 0.006983 -0.001665
# 2 -0.006996 0.012800 -0.000303 -0.016631 0.002000 -0.006304
# 3 0.002765 -0.000303 0.009394 0.004561 -0.006054 0.006609
# 4 -0.009899 -0.016631 0.004561 0.030686 0.017347 -0.002713
# 5 0.006983 0.002000 -0.006054 0.017347 0.011309 0.006721
# 6 -0.001665 -0.006304 0.006609 -0.002713 0.006721 0.022028
#
#
# Mechanical properties :
#
#
# Convention : Reuss Voigt Hill
#
# Bulk Modulus (GPa) = 44.95020 33.95301 39.45161
# Shear Modulus (GPa) = 44.71393 23.49408 34.10400
#
# Velocity S-wave (km/s) = 4.33090 3.13932 3.78233
# Velocity P-wave (km/s) = 6.62305 5.23289 5.96858
#
# Compressibility (1/GPa) = 0.02224684
#
# Stress axis : x y z
#
# Youngs Moduli (GPa) = 109.63249 78.12433 106.45588
#
# Poissons Ratio (x) = 0.54656 -0.29436
# Poissons Ratio (y) = 0.76699 0.03228
# Poissons Ratio (z) = -0.30314 0.02369
#
# Static dielectric constant tensor:
#      x y z
#    x 1.919790 0.039900 -0.038340 
#    y 0.039900 1.908490 -0.014890 
#    z -0.038340 -0.014890 1.976270 
# 
# From -- ./inp_files/49314.got.cif
#   From: 2010.05.17/outbox.cif.g08.bks.cpg/sg2_25_cif.got.tgz:49314.got - 2010.06.03 11:33:40.
