data_PCOD9003558
_publ_section_title
;
Structure prediction by ZEFSAII (Michael W. Deem and Ramdas Pophale) SiO2 
 PCOD9003558
Probable space group: P -1
;
_chemical_formula_sum "Si O2"
_cell_formula_units_Z 16
_cell_length_a 11.255199
_cell_length_b 7.868478
_cell_length_c 11.670564
_cell_angle_alpha 108.987791
_cell_angle_beta 127.496753
_cell_angle_gamma 56.784791
_cell_volume 685.988463
_symmetry_space_group_name_H-M "P -1"
_symmetry_group_IT_number 2
_symmetry_cell_setting 'triclinic'
loop_
_space_group_symop_operation_xyz
x,y,z
-x,-y,-z
loop_
_atom_site_type_symbol
_atom_site_label
_atom_site_fract_x
_atom_site_fract_y
_atom_site_fract_z
Si Si1 0.161983 0.331733 0.263347
Si Si2 0.724941 0.322312 0.537288
Si Si3 0.498591 0.961797 0.355353
Si Si4 0.077180 0.049883 0.751890
Si Si5 0.567217 0.395408 0.705320
Si Si6 0.944684 0.224662 0.958580
Si Si7 0.813042 0.781094 0.348577
Si Si8 0.065520 0.665567 0.669461
O O1 0.213193 0.505629 0.364109
O O2 0.097304 0.271171 0.328559
O O3 0.325115 0.152796 0.260395
O O4 0.013060 0.357844 0.096519
O O5 0.899107 0.117495 0.594018
O O6 0.623618 0.317249 0.589918
O O7 0.598873 0.392213 0.370809
O O8 0.486543 0.754335 0.295436
O O9 0.658636 0.930312 0.369286
O O10 0.500000 0.000000 0.500000
O O11 0.024277 0.169206 0.866446
O O12 0.182418 0.116465 0.744933
O O13 0.146230 0.814278 0.767052
O O14 0.742324 0.358820 0.856292
O O15 0.000000 0.000000 0.000000
O O16 0.990614 0.697206 0.504209
O O17 0.810566 0.567680 0.282155
#
# Coordination Sequence:
#
# PCOD9003558 Si02
#       8
#     2   2   2   2   2   2   2   2
#     4  12  21  41  70 100 132 181 226 285 339 402
#     4  10  21  37  65 102 135 163 234 287 333 398
#     4  12  22  39  65  97 133 173 224 283 339 393
#     4  11  23  42  66 100 137 184 227 280 344 412
#     4  10  21  37  60  97 134 168 217 287 336 384
#     4  11  22  39  71 100 137 183 232 276 342 419
#     4  11  25  40  62 103 138 180 227 285 343 411
#     4  11  22  42  67  95 142 179 225 284 348 407
#
# _framework density 23.324006000000001
#
# number of rings (size 3 to 8) (size 9 to 14) (size 15 to 20)
#    0.000    1.000    6.250    1.125    1.750    2.000 
#    2.250    0.625    0.000    3.000    0.000    0.000 
#    0.000    0.000    0.000    0.000    0.000    0.000 
#
# Total GULP energy -89446.796009 kJ/mol
# GULP energy per Si atom -5590.424751 kJ/mol
# Density = 2.327092 g / cm^3
# Si number density = 23.324006 Si / 1000 Ang^3
#
#
#
# Elastic Constant Matrix: (Units=GPa)
#
#
# Indices 1 2 3 4 5 6 
#
# 1 138.4186 35.6115 40.0338 6.5893 -22.5712 7.5722
# 2 35.6115 97.3933 18.3809 -2.5008 -0.4253 11.3251
# 3 40.0338 18.3809 96.4882 -9.0657 10.3934 1.2554
# 4 6.5893 -2.5008 -9.0657 25.0492 -5.6899 4.5779
# 5 -22.5712 -0.4253 10.3934 -5.6899 35.7621 -1.4212
# 6 7.5722 11.3251 1.2554 4.5779 -1.4212 42.8782
#
#
#
# Elastic Compliance Matrix: (Units=1/GPa)
#
#
# Indices 1 2 3 4 5 6 
#
# 1 0.010925 -0.003037 -0.005089 -0.003174 0.007818 -0.000380
# 2 -0.003037 0.011871 -0.000630 0.001958 -0.001394 -0.002836
# 3 -0.005089 -0.000630 0.013742 0.004795 -0.006453 -0.000063
# 4 -0.003174 0.001958 0.004795 0.044343 0.003494 -0.004715
# 5 0.007818 -0.001394 -0.006453 0.003494 0.035311 -0.000026
# 6 -0.000380 -0.002836 -0.000063 -0.004715 -0.000026 0.024642
#
#
# Mechanical properties :
#
#
# Convention : Reuss Voigt Hill
#
# Bulk Modulus (GPa) = 52.56557 57.81696 55.19126
# Shear Modulus (GPa) = 30.36030 36.62283 33.49156
#
# Velocity S-wave (km/s) = 3.61179 3.96685 3.79347
# Velocity P-wave (km/s) = 6.32293 6.76931 6.54992
#
# Compressibility (1/GPa) = 0.01902386
#
# Stress axis : x y z
#
# Youngs Moduli (GPa) = 91.53696 84.23846 72.76869
#
# Poissons Ratio (x) = 0.25584 0.37036
# Poissons Ratio (y) = 0.27801 0.04587
# Poissons Ratio (z) = 0.46588 0.05310
#
# Static dielectric constant tensor:
#      x y z
#    x 1.897330 0.012040 0.003720 
#    y 0.012040 1.979060 -0.009450 
#    z 0.003720 -0.009450 1.903760 
# 
# From -- ./inp_files/419608.got.cif
#   From: 2010.05.17/outbox.cif.g08.bks.cpg/sg2_210_cif.got.tgz:419608.got - 2010.06.03 11:33:40.
