data_PCOD9003153
_publ_section_title
;
Structure prediction by ZEFSAII (Michael W. Deem and Ramdas Pophale) SiO2 
 PCOD9003153
Probable space group: P -1
;
_chemical_formula_sum "Si O2"
_cell_formula_units_Z 15
_cell_length_a 5.988560
_cell_length_b 9.671019
_cell_length_c 14.702278
_cell_angle_alpha 136.859723
_cell_angle_beta 111.719652
_cell_angle_gamma 82.055207
_cell_volume 529.129352
_symmetry_space_group_name_H-M "P -1"
_symmetry_group_IT_number 2
_symmetry_cell_setting 'triclinic'
loop_
_space_group_symop_operation_xyz
x,y,z
-x,-y,-z
loop_
_atom_site_type_symbol
_atom_site_label
_atom_site_fract_x
_atom_site_fract_y
_atom_site_fract_z
Si Si1 0.500000 0.000000 0.000000
Si Si2 0.760221 0.195703 0.543125
Si Si3 0.679177 0.861448 0.795932
Si Si4 0.680855 0.353074 0.784984
Si Si5 0.276135 0.335581 0.466270
Si Si6 0.800375 0.987972 0.277830
Si Si7 0.763200 0.455240 0.262499
Si Si8 0.960859 0.249554 0.932170
O O1 0.652293 0.852337 0.894779
O O2 0.288051 0.785326 0.887426
O O3 0.722163 0.177638 0.636388
O O4 0.511601 0.252922 0.495784
O O5 0.788166 0.001212 0.391760
O O6 0.982592 0.389135 0.649801
O O7 0.701361 0.668860 0.642210
O O8 0.432130 0.946793 0.773839
O O9 0.893336 0.044762 0.881678
O O10 0.442438 0.438390 0.764491
O O11 0.716070 0.280002 0.857225
O O12 0.910301 0.545667 0.900234
O O13 0.256152 0.524708 0.619888
O O14 0.035699 0.165453 0.373430
O O15 0.850814 0.789344 0.137708
#
# Coordination Sequence:
#
# PCOD9003153 Si02
#       8
#     1   2   2   2   2   2   2   2
#     4  12  24  38  62  86 114 152 196 238 282 342
#     4   9  18  37  61  84 116 150 189 235 282 340
#     4  10  21  39  59  87 117 151 191 235 286 339
#     4  10  21  37  58  86 120 154 189 232 284 342
#     4   8  18  39  61  82 116 150 189 239 286 336
#     4   9  18  37  61  84 116 150 189 235 282 340
#     4  10  21  39  59  87 117 151 191 235 286 339
#     4  10  21  37  58  86 120 154 189 232 284 342
#
# _framework density 28.348454
#
# number of rings (size 3 to 8) (size 9 to 14) (size 15 to 20)
#    0.000    2.400    0.000    1.600    0.000    2.133 
#    0.000   48.667    0.000    0.000    0.000    0.000 
#    0.000    0.000    0.000    0.000    0.000    0.000 
#
# Total GULP energy -83838.193944 kJ/mol
# GULP energy per Si atom -5589.212930 kJ/mol
# Density = 2.828393 g / cm^3
# Si number density = 28.348454 Si / 1000 Ang^3
#
#
#
# Elastic Constant Matrix: (Units=GPa)
#
#
# Indices 1 2 3 4 5 6 
#
# 1 97.8826 36.0789 60.9127 -15.2520 1.6145 -9.1328
# 2 36.0789 89.0925 16.9240 4.2449 13.0464 -11.7744
# 3 60.9127 16.9240 153.7920 9.6737 -6.1867 -1.8608
# 4 -15.2520 4.2449 9.6737 41.7279 -0.3884 4.8094
# 5 1.6145 13.0464 -6.1867 -0.3884 71.9808 -8.9506
# 6 -9.1328 -11.7744 -1.8608 4.8094 -8.9506 33.4365
#
#
#
# Elastic Compliance Matrix: (Units=1/GPa)
#
#
# Indices 1 2 3 4 5 6 
#
# 1 0.018579 -0.006479 -0.007183 0.008981 0.000337 0.001192
# 2 -0.006479 0.014596 0.001211 -0.004563 -0.001978 0.003565
# 3 -0.007183 0.001211 0.009553 -0.004945 0.000724 -0.000099
# 4 0.008981 -0.004563 -0.004945 0.029280 -0.000097 -0.003667
# 5 0.000337 -0.001978 0.000724 -0.000097 0.014727 0.003392
# 6 0.001192 0.003565 -0.000099 -0.003667 0.003392 0.032918
#
#
# Mechanical properties :
#
#
# Convention : Reuss Voigt Hill
#
# Bulk Modulus (GPa) = 56.09833 63.17758 59.63796
# Shear Modulus (GPa) = 33.22303 44.55249 38.88776
#
# Velocity S-wave (km/s) = 3.42709 3.96864 3.70777
# Velocity P-wave (km/s) = 5.95750 6.58291 6.27799
#
# Compressibility (1/GPa) = 0.01782584
#
# Stress axis : x y z
#
# Youngs Moduli (GPa) = 53.82296 68.51087 104.68009
#
# Poissons Ratio (x) = 0.44390 0.75189
# Poissons Ratio (y) = 0.34873 -0.12673
# Poissons Ratio (z) = 0.38660 -0.08294
#
# Static dielectric constant tensor:
#      x y z
#    x 2.238560 0.082620 -0.001910 
#    y 0.082620 2.226470 -0.181400 
#    z -0.001910 -0.181400 2.272850 
# 
# From -- ./inp_files/459299.got.cif
#   From: 2010.05.17/outbox.cif.g08.bks.cpg/sg2_230_cif.got.tgz:459299.got - 2010.06.03 11:33:40.
