data_PCOD9003464
_publ_section_title
;
Structure prediction by ZEFSAII (Michael W. Deem and Ramdas Pophale) SiO2 
 PCOD9003464
Probable space group: P -1
;
_chemical_formula_sum "Si O2"
_cell_formula_units_Z 16
_cell_length_a 6.783467
_cell_length_b 5.292599
_cell_length_c 21.993019
_cell_angle_alpha 73.801043
_cell_angle_beta 108.419920
_cell_angle_gamma 107.325800
_cell_volume 700.095394
_symmetry_space_group_name_H-M "P -1"
_symmetry_group_IT_number 2
_symmetry_cell_setting 'triclinic'
loop_
_space_group_symop_operation_xyz
x,y,z
-x,-y,-z
loop_
_atom_site_type_symbol
_atom_site_label
_atom_site_fract_x
_atom_site_fract_y
_atom_site_fract_z
Si Si1 0.774751 0.720645 0.167908
Si Si2 0.829430 0.942413 0.871627
Si Si3 0.492349 0.024568 0.069042
Si Si4 0.341265 0.684805 0.677607
Si Si5 0.441685 0.791048 0.265833
Si Si6 0.105733 0.735798 0.833520
Si Si7 0.377090 0.103472 0.426470
Si Si8 0.154118 0.578924 0.368056
O O1 0.546339 0.749521 0.120814
O O2 0.941269 0.843309 0.120035
O O3 0.841931 0.446483 0.202236
O O4 0.860111 0.957934 0.208016
O O5 0.716908 0.904249 0.927912
O O6 0.672083 0.070748 0.806426
O O7 0.892740 0.699360 0.855383
O O8 0.696141 0.241748 0.101776
O O9 0.500000 0.000000 0.000000
O O10 0.457551 0.454674 0.730605
O O11 0.454610 0.768255 0.618166
O O12 0.095627 0.546413 0.653572
O O13 0.394302 0.963155 0.701869
O O14 0.264702 0.666250 0.307572
O O15 0.261121 0.339428 0.418391
O O16 0.500000 0.000000 0.500000
O O17 0.214384 0.845682 0.397844
#
# Coordination Sequence:
#
# PCOD9003464 Si02
#       8
#     2   2   2   2   2   2   2   2
#     4   8  20  36  54  81 109 138 183 226 283 343
#     4   9  21  37  59  81 112 149 190 241 291 347
#     4   9  20  38  58  83 113 146 186 237 294 357
#     4  10  22  38  59  88 118 157 197 239 299 338
#     4  10  22  38  58  85 113 155 200 240 292 354
#     4   8  20  36  54  82 106 140 183 225 283 345
#     4  10  21  37  60  89 121 158 200 237 286 351
#     4  10  21  39  57  85 124 153 195 251 286 335
#
# _framework density 22.854026999999999
#
# number of rings (size 3 to 8) (size 9 to 14) (size 15 to 20)
#    1.500    1.000    0.000    1.125    1.750    6.500 
#    2.250    1.250    0.000    0.000    0.000    0.000 
#    0.000    0.000    0.000    0.000    0.000    0.000 
#
# Total GULP energy -89200.208334 kJ/mol
# GULP energy per Si atom -5575.013021 kJ/mol
# Density = 2.280201 g / cm^3
# Si number density = 22.854027 Si / 1000 Ang^3
#
#
#
# Elastic Constant Matrix: (Units=GPa)
#
#
# Indices 1 2 3 4 5 6 
#
# 1 106.9630 46.9483 5.3653 -2.3606 3.4252 1.3956
# 2 46.9483 123.4383 5.7921 -1.4731 4.7776 -11.4649
# 3 5.3653 5.7921 41.3768 4.3205 0.0386 6.5693
# 4 -2.3606 -1.4731 4.3205 18.5508 0.8866 10.0050
# 5 3.4252 4.7776 0.0386 0.8866 17.8133 3.1066
# 6 1.3956 -11.4649 6.5693 10.0050 3.1066 57.4920
#
#
#
# Elastic Compliance Matrix: (Units=1/GPa)
#
#
# Indices 1 2 3 4 5 6 
#
# 1 0.011399 -0.004362 -0.000868 0.002083 -0.000886 -0.001362
# 2 -0.004362 0.010128 -0.001173 -0.000722 -0.002277 0.002508
# 3 -0.000868 -0.001173 0.025323 -0.004907 0.001074 -0.002311
# 4 0.002083 -0.000722 -0.004907 0.060792 -0.001455 -0.010135
# 5 -0.000886 -0.002277 0.001074 -0.001455 0.057584 -0.003414
# 6 -0.001362 0.002508 -0.002311 -0.010135 -0.003414 0.020139
#
#
# Mechanical properties :
#
#
# Convention : Reuss Voigt Hill
#
# Bulk Modulus (GPa) = 29.37359 43.10995 36.24177
# Shear Modulus (GPa) = 23.86409 33.01603 28.44006
#
# Velocity S-wave (km/s) = 3.23491 3.80498 3.53146
# Velocity P-wave (km/s) = 5.18010 6.18126 5.70269
#
# Compressibility (1/GPa) = 0.03404419
#
# Stress axis : x y z
#
# Youngs Moduli (GPa) = 87.72417 98.73780 39.48973
#
# Poissons Ratio (x) = 0.43072 0.03427
# Poissons Ratio (y) = 0.38267 0.04632
# Poissons Ratio (z) = 0.07614 0.11580
#
# Static dielectric constant tensor:
#      x y z
#    x 1.935590 -0.030610 -0.045750 
#    y -0.030610 2.033380 -0.038240 
#    z -0.045750 -0.038240 1.817670 
# 
# From -- ./inp_files/603178.got.cif
#   From: 2010.05.17/outbox.cif.g08.bks.cpg/sg2_302_cif.got.tgz:603178.got - 2010.06.03 11:33:40.
