data_PCOD9003473
_publ_section_title
;
Structure prediction by ZEFSAII (Michael W. Deem and Ramdas Pophale) SiO2 
 PCOD9003473
Probable space group: P -1
;
_chemical_formula_sum "Si O2"
_cell_formula_units_Z 16
_cell_length_a 8.605566
_cell_length_b 7.751579
_cell_length_c 20.051379
_cell_angle_alpha 111.957542
_cell_angle_beta 47.556624
_cell_angle_gamma 124.635803
_cell_volume 812.021105
_symmetry_space_group_name_H-M "P -1"
_symmetry_group_IT_number 2
_symmetry_cell_setting 'triclinic'
loop_
_space_group_symop_operation_xyz
x,y,z
-x,-y,-z
loop_
_atom_site_type_symbol
_atom_site_label
_atom_site_fract_x
_atom_site_fract_y
_atom_site_fract_z
Si Si1 0.575432 0.770244 0.984931
Si Si2 0.789622 0.453420 0.157478
Si Si3 0.027542 0.029290 0.575884
Si Si4 0.952639 0.441709 0.655252
Si Si5 0.540286 0.334400 0.509083
Si Si6 0.809996 0.484201 0.847470
Si Si7 0.798420 0.244569 0.005438
Si Si8 0.670957 0.548781 0.647581
O O1 0.743158 0.661935 0.917735
O O2 0.725118 0.014179 0.968382
O O3 0.420330 0.721246 0.089969
O O4 0.379552 0.685761 0.970719
O O5 0.553614 0.457801 0.249402
O O6 0.960599 0.497176 0.177360
O O7 0.939840 0.618051 0.079801
O O8 0.757404 0.248170 0.096634
O O9 0.965058 0.223451 0.634039
O O10 0.299657 0.117924 0.536460
O O11 0.855333 0.796954 0.620261
O O12 0.000000 0.000000 0.500000
O O13 0.854375 0.493505 0.758118
O O14 0.788474 0.432147 0.639594
O O15 0.210039 0.632126 0.588625
O O16 0.500000 0.500000 0.500000
O O17 0.588214 0.426958 0.583452
#
# Coordination Sequence:
#
# PCOD9003473 Si02
#       8
#     2   2   2   2   2   2   2   2
#     4   9  19  38  61  85 120 163 207 253 315 376
#     4  10  21  37  60  89 126 161 204 263 313 367
#     4  11  24  43  70  93 125 173 207 258 329 371
#     4  11  24  43  64  95 130 164 214 263 309 383
#     4  10  21  43  66  92 130 161 209 265 306 377
#     4  10  21  38  60  89 125 163 204 261 313 366
#     4   9  19  38  60  87 120 161 208 256 312 375
#     4  12  24  44  65  95 132 168 210 264 315 375
#
# _framework density 19.703923
#
# number of rings (size 3 to 8) (size 9 to 14) (size 15 to 20)
#    0.000    1.750    2.500    2.625    1.750    2.000 
#    9.000    0.000    0.000    0.000    0.000    0.000 
#    0.000    0.000    0.000    0.000    0.000    0.000 
#
# Total GULP energy -89174.025881 kJ/mol
# GULP energy per Si atom -5573.376618 kJ/mol
# Density = 1.965908 g / cm^3
# Si number density = 19.703923 Si / 1000 Ang^3
#
#
#
# Elastic Constant Matrix: (Units=GPa)
#
#
# Indices 1 2 3 4 5 6 
#
# 1 83.5575 15.9909 33.6846 -6.1224 9.7162 13.4173
# 2 15.9909 61.9451 19.0391 -5.5417 -4.7376 17.0473
# 3 33.6846 19.0391 106.5425 -17.7634 8.5910 20.1188
# 4 -6.1224 -5.5417 -17.7634 6.4042 4.4498 -0.0660
# 5 9.7162 -4.7376 8.5910 4.4498 34.1385 4.0090
# 6 13.4173 17.0473 20.1188 -0.0660 4.0090 29.0067
#
#
#
# Elastic Compliance Matrix: (Units=1/GPa)
#
#
# Indices 1 2 3 4 5 6 
#
# 1 0.015070 -0.001393 -0.000404 0.016123 -0.005893 -0.005021
# 2 -0.001393 0.021999 0.004087 0.028556 0.000474 -0.015120
# 3 -0.000404 0.004087 0.031280 0.102220 -0.018025 -0.021187
# 4 0.016123 0.028556 0.102220 0.539443 -0.087048 -0.081882
# 5 -0.005893 0.000474 -0.018025 -0.087048 0.045931 0.008403
# 6 -0.005021 -0.015120 -0.021187 -0.081882 0.008403 0.059031
#
#
# Mechanical properties :
#
#
# Convention : Reuss Voigt Hill
#
# Bulk Modulus (GPa) = 13.71189 43.27491 28.49340
# Shear Modulus (GPa) = 6.82609 26.13190 16.47900
#
# Velocity S-wave (km/s) = 1.86329 3.64569 2.89508
# Velocity P-wave (km/s) = 3.40635 6.30331 5.06631
#
# Compressibility (1/GPa) = 0.07292941
#
# Stress axis : x y z
#
# Youngs Moduli (GPa) = 66.35655 45.45762 31.96888
#
# Poissons Ratio (x) = 0.06330 0.01293
# Poissons Ratio (y) = 0.09240 -0.13066
# Poissons Ratio (z) = 0.02683 -0.18579
#
# Static dielectric constant tensor:
#      x y z
#    x 1.733410 0.011490 -0.007280 
#    y 0.011490 1.746230 -0.002800 
#    z -0.007280 -0.002800 1.676980 
# 
# From -- ./inp_files/297550.got.cif
#   From: 2010.05.17/outbox.cif.g08.bks.cpg/sg2_149_cif.got.tgz:297550.got - 2010.06.03 11:33:40.
