data_PCOD9003084
_publ_section_title
;
Structure prediction by ZEFSAII (Michael W. Deem and Ramdas Pophale) SiO2 
 PCOD9003084
Probable space group: P -1
;
_chemical_formula_sum "Si O2"
_cell_formula_units_Z 16
_cell_length_a 17.951420
_cell_length_b 7.463434
_cell_length_c 5.206937
_cell_angle_alpha 66.503443
_cell_angle_beta 74.245363
_cell_angle_gamma 74.369401
_cell_volume 605.389173
_symmetry_space_group_name_H-M "P -1"
_symmetry_group_IT_number 2
_symmetry_cell_setting 'triclinic'
loop_
_space_group_symop_operation_xyz
x,y,z
-x,-y,-z
loop_
_atom_site_type_symbol
_atom_site_label
_atom_site_fract_x
_atom_site_fract_y
_atom_site_fract_z
Si Si1 0.508348 0.804551 0.775330
Si Si2 0.348020 0.133767 0.128736
Si Si3 0.643406 0.594192 0.426929
Si Si4 0.895533 0.369124 0.084875
Si Si5 0.758494 0.458447 0.790839
Si Si6 0.090631 0.024664 0.444169
Si Si7 0.079901 0.258883 0.835173
Si Si8 0.646804 0.233527 0.281093
O O1 0.560380 0.840592 0.948004
O O2 0.570412 0.639832 0.661874
O O3 0.419574 0.772675 0.871563
O O4 0.500000 0.000000 0.500000
O O5 0.341981 0.941619 0.414883
O O6 0.336659 0.192480 0.806800
O O7 0.289140 0.324886 0.191135
O O8 0.618522 0.442560 0.333180
O O9 0.726386 0.475967 0.522978
O O10 0.843624 0.434117 0.846867
O O11 0.894477 0.543689 0.193095
O O12 0.869575 0.185185 0.360138
O O13 0.985234 0.300041 0.941872
O O14 0.724228 0.272862 0.044971
O O15 0.095294 0.185011 0.572651
O O16 0.116531 0.091793 0.105362
O O17 0.000000 0.000000 0.500000
#
# Coordination Sequence:
#
# PCOD9003084 Si02
#       8
#     2   2   2   2   2   2   2   2
#     4   9  19  35  61  85 116 157 201 265 312 371
#     4   9  21  40  58  87 120 158 205 262 311 386
#     4  10  21  37  57  88 121 152 211 255 316 373
#     4  10  22  42  67  91 134 171 217 272 332 397
#     4  10  23  42  55  88 126 167 201 261 316 392
#     4  10  21  42  68 105 135 166 224 281 335 396
#     4  10  23  43  69 106 129 178 224 286 332 394
#     4  10  21  38  60  86 116 162 207 256 319 381
#
# _framework density 26.429283000000002
#
# number of rings (size 3 to 8) (size 9 to 14) (size 15 to 20)
#    0.000    2.250    0.000    1.875    0.000   17.000 
#   20.250    0.000    0.000    0.000    0.000    0.000 
#    0.000    0.000    0.000    0.000    0.000    0.000 
#
# Total GULP energy -89397.349713 kJ/mol
# GULP energy per Si atom -5587.334357 kJ/mol
# Density = 2.636913 g / cm^3
# Si number density = 26.429283 Si / 1000 Ang^3
#
#
#
# Elastic Constant Matrix: (Units=GPa)
#
#
# Indices 1 2 3 4 5 6 
#
# 1 107.8017 29.5328 46.7208 -20.3888 20.7647 10.7647
# 2 29.5328 72.0115 34.5354 -28.3006 -0.1849 2.1808
# 3 46.7208 34.5354 144.5144 -40.7136 15.7250 21.3251
# 4 -20.3888 -28.3006 -40.7136 54.3765 2.9441 5.3040
# 5 20.7647 -0.1849 15.7250 2.9441 34.6298 -1.4523
# 6 10.7647 2.1808 21.3251 5.3040 -1.4523 18.8653
#
#
#
# Elastic Compliance Matrix: (Units=1/GPa)
#
#
# Indices 1 2 3 4 5 6 
#
# 1 0.013869 -0.003566 0.000249 0.005000 -0.009289 -0.009904
# 2 -0.003566 0.018964 -0.001532 0.007290 0.002303 -0.000298
# 3 0.000249 -0.001532 0.015025 0.013113 -0.008990 -0.021328
# 4 0.005000 0.007290 0.013113 0.037537 -0.013367 -0.030101
# 5 -0.009289 0.002303 -0.008990 -0.013367 0.040603 0.022080
# 6 -0.009904 -0.000298 -0.021328 -0.030101 0.022080 0.092965
#
#
# Mechanical properties :
#
#
# Convention : Reuss Voigt Hill
#
# Bulk Modulus (GPa) = 26.20528 60.65618 43.43073
# Shear Modulus (GPa) = 20.71414 35.81023 28.26219
#
# Velocity S-wave (km/s) = 2.80260 3.68495 3.27364
# Velocity P-wave (km/s) = 4.51769 6.41135 5.54594
#
# Compressibility (1/GPa) = 0.03816025
#
# Stress axis : x y z
#
# Youngs Moduli (GPa) = 72.10263 52.73186 66.55638
#
# Poissons Ratio (x) = 0.18807 -0.01659
# Poissons Ratio (y) = 0.25715 0.10194
# Poissons Ratio (z) = -0.01797 0.08077
#
# Static dielectric constant tensor:
#      x y z
#    x 2.113110 0.042040 0.012500 
#    y 0.042040 2.121620 0.068550 
#    z 0.012500 0.068550 2.225870 
# 
# From -- ./inp_files/115008.got.cif
#   From: 2010.05.17/outbox.cif.g08.bks.cpg/sg2_58_cif.got.tgz:115008.got - 2010.06.03 11:33:40.
