data_PCOD9003505
_publ_section_title
;
Structure prediction by ZEFSAII (Michael W. Deem and Ramdas Pophale) SiO2 
 PCOD9003505
Probable space group: P -1
;
_chemical_formula_sum "Si O2"
_cell_formula_units_Z 14
_cell_length_a 7.594379
_cell_length_b 10.697133
_cell_length_c 12.907942
_cell_angle_alpha 133.642940
_cell_angle_beta 88.697391
_cell_angle_gamma 68.167602
_cell_volume 640.588592
_symmetry_space_group_name_H-M "P -1"
_symmetry_group_IT_number 2
_symmetry_cell_setting 'triclinic'
loop_
_space_group_symop_operation_xyz
x,y,z
-x,-y,-z
loop_
_atom_site_type_symbol
_atom_site_label
_atom_site_fract_x
_atom_site_fract_y
_atom_site_fract_z
Si Si1 0.204630 0.851300 0.475414
Si Si2 0.434323 0.465662 0.868034
Si Si3 0.334082 0.225788 0.371923
Si Si4 0.957770 0.162108 0.002831
Si Si5 0.978645 0.384125 0.301414
Si Si6 0.604509 0.897182 0.329488
Si Si7 0.244865 0.785915 0.656618
O O1 0.375856 0.684007 0.298184
O O2 0.196830 0.740915 0.516210
O O3 0.250927 0.011536 0.621704
O O4 0.000000 0.000000 0.500000
O O5 0.278799 0.683508 0.941158
O O6 0.320247 0.338397 0.807751
O O7 0.500000 0.500000 0.000000
O O8 0.166792 0.373618 0.545583
O O9 0.517912 0.268849 0.372290
O O10 0.190548 0.275538 0.302235
O O11 0.447221 0.003219 0.295256
O O12 0.023553 0.304902 0.139178
O O13 0.000000 0.000000 0.000000
O O14 0.095395 0.022586 0.827606
O O15 0.825250 0.324916 0.325470
O O16 0.500000 0.000000 0.500000
#
# Coordination Sequence:
#
# PCOD9003505 Si02
#       7
#     2   2   2   2   2   2   2
#     4  10  21  39  63  93 122 164 212 258 316 375
#     4  11  23  40  67  92 126 169 207 256 322 375
#     4  10  21  37  60  92 115 167 206 260 303 382
#     4  10  22  39  62  89 124 165 204 257 313 372
#     4  10  21  37  64  85 127 160 210 249 326 361
#     4   9  20  36  62  84 124 156 209 252 309 370
#     4  10  21  38  61  87 126 156 212 257 308 371
#
# _framework density 21.854900000000001
#
# number of rings (size 3 to 8) (size 9 to 14) (size 15 to 20)
#    0.000    2.000    0.000    3.857    8.000    1.714 
#    0.000    6.429    0.000    0.000    0.000    0.000 
#    0.000    0.000    0.000    0.000    0.000    0.000 
#
# Total GULP energy -77979.880408 kJ/mol
# GULP energy per Si atom -5569.991458 kJ/mol
# Density = 2.180516 g / cm^3
# Si number density = 21.854900 Si / 1000 Ang^3
#
#
#
# Elastic Constant Matrix: (Units=GPa)
#
#
# Indices 1 2 3 4 5 6 
#
# 1 60.0960 31.1335 30.3694 4.8136 -9.3579 -15.2170
# 2 31.1335 123.7571 47.6452 7.5474 -11.1952 -27.3741
# 3 30.3694 47.6452 143.7540 -7.6539 -6.9252 -21.7580
# 4 4.8136 7.5474 -7.6539 32.7311 -1.6076 -4.1017
# 5 -9.3579 -11.1952 -6.9252 -1.6076 28.2323 3.5143
# 6 -15.2170 -27.3741 -21.7580 -4.1017 3.5143 38.4929
#
#
#
# Elastic Compliance Matrix: (Units=1/GPa)
#
#
# Indices 1 2 3 4 5 6 
#
# 1 0.021539 -0.002807 -0.002890 -0.002441 0.004656 0.004200
# 2 -0.002807 0.011119 -0.002323 -0.001952 0.002166 0.005079
# 3 -0.002890 -0.002323 0.008917 0.003379 0.000178 0.002590
# 4 -0.002441 -0.001952 0.003379 0.032558 0.000731 0.002960
# 5 0.004656 0.002166 0.000178 0.000731 0.037895 0.000100
# 6 0.004200 0.005079 0.002590 0.002960 0.000100 0.033021
#
#
# Mechanical properties :
#
#
# Convention : Reuss Voigt Hill
#
# Bulk Modulus (GPa) = 39.16176 60.65590 49.90883
# Shear Modulus (GPa) = 29.48093 34.45519 31.96806
#
# Velocity S-wave (km/s) = 3.67678 3.97488 3.82873
# Velocity P-wave (km/s) = 5.99857 6.99145 6.51395
#
# Compressibility (1/GPa) = 0.02553511
#
# Stress axis : x y z
#
# Youngs Moduli (GPa) = 46.42843 89.93448 112.14130
#
# Poissons Ratio (x) = 0.25243 0.32408
# Poissons Ratio (y) = 0.13032 0.26052
# Poissons Ratio (z) = 0.13418 0.20893
#
# Static dielectric constant tensor:
#      x y z
#    x 1.897870 0.065850 0.040490 
#    y 0.065850 1.912440 -0.005720 
#    z 0.040490 -0.005720 1.862080 
# 
# From -- ./inp_files/190341.got.cif
#   From: 2010.05.17/outbox.cif.g08.bks.cpg/sg2_96_cif.got.tgz:190341.got - 2010.06.03 11:33:40.
