data_PCOD9003891
_publ_section_title
;
Structure prediction by ZEFSAII (Michael W. Deem and Ramdas Pophale) SiO2 
 PCOD9003891
Probable space group: P -1
;
_chemical_formula_sum "Si O2"
_cell_formula_units_Z 16
_cell_length_a 8.329124
_cell_length_b 9.389798
_cell_length_c 16.881209
_cell_angle_alpha 39.951832
_cell_angle_beta 89.565749
_cell_angle_gamma 69.790851
_cell_volume 719.475002
_symmetry_space_group_name_H-M "P -1"
_symmetry_group_IT_number 2
_symmetry_cell_setting 'triclinic'
loop_
_space_group_symop_operation_xyz
x,y,z
-x,-y,-z
loop_
_atom_site_type_symbol
_atom_site_label
_atom_site_fract_x
_atom_site_fract_y
_atom_site_fract_z
Si Si1 0.291130 0.107723 0.553863
Si Si2 0.663471 0.559402 0.998829
Si Si3 0.639676 0.928014 0.253794
Si Si4 0.152786 0.594158 0.608007
Si Si5 0.856526 0.124895 0.069417
Si Si6 0.451070 0.693912 0.593500
Si Si7 0.766369 0.164846 0.874806
Si Si8 0.700037 0.731363 0.092562
O O1 0.298908 0.037893 0.675039
O O2 0.410036 0.249471 0.481399
O O3 0.070634 0.268735 0.462029
O O4 0.403811 0.855011 0.606023
O O5 0.582703 0.857992 0.844372
O O6 0.500000 0.500000 0.000000
O O7 0.836697 0.338582 0.041178
O O8 0.686898 0.570614 0.087888
O O9 0.727857 0.627141 0.363941
O O10 0.732106 0.013636 0.149505
O O11 0.246872 0.769582 0.528923
O O12 0.205502 0.453579 0.753787
O O13 0.782580 0.239857 0.932866
O O14 0.064058 0.874144 0.163262
O O15 0.570179 0.386163 0.744882
O O16 0.809264 0.871402 0.004170
O O17 0.500000 0.000000 0.000000
#
# Coordination Sequence:
#
# PCOD9003891 Si02
#       8
#     2   2   2   2   2   2   2   2
#     4  11  27  45  67  99 134 179 229 268 324 399
#     4  10  21  37  62  96 129 168 216 267 338 387
#     4  11  21  42  66  96 135 175 220 273 328 400
#     4  12  24  43  70  99 133 176 225 269 333 399
#     4  10  22  36  64 101 130 173 214 275 336 392
#     4  11  25  45  69  97 131 182 223 275 331 387
#     4  11  21  40  67  95 134 166 220 277 337 392
#     4  12  21  40  67 100 131 172 216 277 339 400
#
# _framework density 22.238437000000001
#
# number of rings (size 3 to 8) (size 9 to 14) (size 15 to 20)
#    0.000    1.000    3.750    3.000    5.250    1.000 
#    0.000    1.250    0.000    0.000    0.000    0.000 
#    0.000    0.000    0.000    0.000    0.000    0.000 
#
# Total GULP energy -89301.118060 kJ/mol
# GULP energy per Si atom -5581.319879 kJ/mol
# Density = 2.218782 g / cm^3
# Si number density = 22.238437 Si / 1000 Ang^3
#
#
#
# Elastic Constant Matrix: (Units=GPa)
#
#
# Indices 1 2 3 4 5 6 
#
# 1 87.9848 12.8467 22.3260 -0.5072 -0.2148 -1.2241
# 2 12.8467 124.7700 10.6960 16.1717 2.7851 -6.9051
# 3 22.3260 10.6960 59.3520 4.7478 23.4119 -14.9227
# 4 -0.5072 16.1717 4.7478 22.0655 11.5410 -1.7966
# 5 -0.2148 2.7851 23.4119 11.5410 21.1183 -2.7125
# 6 -1.2241 -6.9051 -14.9227 -1.7966 -2.7125 23.0188
#
#
#
# Elastic Compliance Matrix: (Units=1/GPa)
#
#
# Indices 1 2 3 4 5 6 
#
# 1 0.014863 -0.000250 -0.013980 -0.006672 0.018469 -0.006692
# 2 -0.000250 0.009712 -0.004759 -0.011462 0.010273 0.000131
# 3 -0.013980 -0.004759 0.059474 0.035037 -0.080793 0.029599
# 4 -0.006672 -0.011462 0.035037 0.092158 -0.085705 0.016014
# 5 0.018469 0.010273 -0.080793 -0.085705 0.178223 -0.034001
# 6 -0.006692 0.000131 0.029599 0.016014 -0.034001 0.059558
#
#
# Mechanical properties :
#
#
# Convention : Reuss Voigt Hill
#
# Bulk Modulus (GPa) = 21.70525 40.42714 31.06619
# Shear Modulus (GPa) = 10.69927 28.32307 19.51117
#
# Velocity S-wave (km/s) = 2.19582 3.57264 2.96524
# Velocity P-wave (km/s) = 4.02619 5.93605 5.07183
#
# Compressibility (1/GPa) = 0.04607180
#
# Stress axis : x y z
#
# Youngs Moduli (GPa) = 67.28121 102.96573 16.81417
#
# Poissons Ratio (x) = 0.02571 0.23506
# Poissons Ratio (y) = 0.01680 0.08001
# Poissons Ratio (z) = 0.94059 0.48998
#
# Static dielectric constant tensor:
#      x y z
#    x 1.980150 0.007640 -0.030250 
#    y 0.007640 1.865780 -0.035620 
#    z -0.030250 -0.035620 1.824060 
# 
# From -- ./inp_files/494406.got.cif
#   From: 2010.05.17/outbox.cif.g08.bks.cpg/sg2_248_cif.got.tgz:494406.got - 2010.06.03 11:33:40.
