data_PCOD9003474
_publ_section_title
;
Structure prediction by ZEFSAII (Michael W. Deem and Ramdas Pophale) SiO2 
 PCOD9003474
Probable space group: P -1
;
_chemical_formula_sum "Si O2"
_cell_formula_units_Z 14
_cell_length_a 12.613793
_cell_length_b 12.499927
_cell_length_c 5.758633
_cell_angle_alpha 59.438390
_cell_angle_beta 106.056401
_cell_angle_gamma 117.428391
_cell_volume 692.883762
_symmetry_space_group_name_H-M "P -1"
_symmetry_group_IT_number 2
_symmetry_cell_setting 'triclinic'
loop_
_space_group_symop_operation_xyz
x,y,z
-x,-y,-z
loop_
_atom_site_type_symbol
_atom_site_label
_atom_site_fract_x
_atom_site_fract_y
_atom_site_fract_z
Si Si1 0.602492 0.791324 0.094930
Si Si2 0.694270 0.065440 0.615734
Si Si3 0.496409 0.105136 0.688356
Si Si4 0.631087 0.399700 0.044261
Si Si5 0.853599 0.316036 0.188281
Si Si6 0.088197 0.499696 0.354123
Si Si7 0.673205 0.540367 0.406827
O O1 0.547351 0.793783 0.312900
O O2 0.661398 0.683097 0.236276
O O3 0.486007 0.737574 0.914158
O O4 0.692199 0.942833 0.913676
O O5 0.628906 0.150676 0.615391
O O6 0.807935 0.170079 0.437356
O O7 0.602615 0.983618 0.451550
O O8 0.500000 0.000000 0.000000
O O9 0.758021 0.380743 0.142692
O O10 0.618582 0.465129 0.211343
O O11 0.630023 0.476960 0.711168
O O12 0.993491 0.393211 0.242512
O O13 0.851676 0.348129 0.878786
O O14 0.191673 0.450264 0.532237
O O15 0.000000 0.500000 0.500000
#
# Coordination Sequence:
#
# PCOD9003474 Si02
#       7
#     2   2   2   2   2   2   2
#     4  11  24  37  60  91 133 168 203 247 317 383
#     4  10  21  37  60  89 128 159 208 256 310 374
#     4   9  19  35  55  87 124 167 198 245 300 374
#     4  11  23  39  65  93 128 167 209 256 314 374
#     4  10  21  38  65  94 115 162 210 268 313 361
#     4  10  21  41  65  87 120 156 217 266 311 363
#     4  11  25  41  63  94 129 170 210 260 310 374
#
# _framework density 20.205407999999998
#
# number of rings (size 3 to 8) (size 9 to 14) (size 15 to 20)
#    0.000    1.714    1.429    3.429    6.000    2.286 
#    0.000    0.714    0.000    1.714    0.000    0.000 
#    0.000    0.000    0.000    0.000    0.000    0.000 
#
# Total GULP energy -77953.405023 kJ/mol
# GULP energy per Si atom -5568.100359 kJ/mol
# Density = 2.015942 g / cm^3
# Si number density = 20.205408 Si / 1000 Ang^3
#
#
#
# Elastic Constant Matrix: (Units=GPa)
#
#
# Indices 1 2 3 4 5 6 
#
# 1 77.3780 35.0472 44.4472 -9.2955 -10.1024 -3.5614
# 2 35.0472 71.5099 38.1302 2.0231 -15.3920 -7.3501
# 3 44.4472 38.1302 104.5404 -14.1790 -22.4956 -4.0265
# 4 -9.2955 2.0231 -14.1790 37.6432 6.7772 -5.6645
# 5 -10.1024 -15.3920 -22.4956 6.7772 37.4625 2.7211
# 6 -3.5614 -7.3501 -4.0265 -5.6645 2.7211 37.8093
#
#
#
# Elastic Compliance Matrix: (Units=1/GPa)
#
#
# Indices 1 2 3 4 5 6 
#
# 1 0.019539 -0.006972 -0.005629 0.003453 -0.001638 0.000521
# 2 -0.006972 0.021090 -0.004269 -0.005083 0.005006 0.001867
# 3 -0.005629 -0.004269 0.015133 0.003684 0.005118 0.000435
# 4 0.003453 -0.005083 0.003684 0.030651 -0.004829 0.004669
# 5 -0.001638 0.005006 0.005118 -0.004829 0.032378 -0.001690
# 6 0.000521 0.001867 0.000435 0.004669 -0.001690 0.027728
#
#
# Mechanical properties :
#
#
# Convention : Reuss Voigt Hill
#
# Bulk Modulus (GPa) = 45.40302 54.29752 49.85027
# Shear Modulus (GPa) = 26.65251 31.63657 29.14454
#
# Velocity S-wave (km/s) = 3.63585 3.96125 3.80203
# Velocity P-wave (km/s) = 6.33604 6.91759 6.63319
#
# Compressibility (1/GPa) = 0.02202497
#
# Stress axis : x y z
#
# Youngs Moduli (GPa) = 51.17848 47.41530 66.07872
#
# Poissons Ratio (x) = 0.33056 0.37194
# Poissons Ratio (y) = 0.35680 0.28207
# Poissons Ratio (z) = 0.28807 0.20240
#
# Static dielectric constant tensor:
#      x y z
#    x 1.717460 0.032800 -0.011180 
#    y 0.032800 1.841870 0.099990 
#    z -0.011180 0.099990 1.922760 
# 
# From -- ./inp_files/65664.got.cif
#   From: 2010.05.17/outbox.cif.g08.bks.cpg/sg2_33_cif.got.tgz:65664.got - 2010.06.03 11:33:40.
