data_PCOD9003222
_publ_section_title
;
Structure prediction by ZEFSAII (Michael W. Deem and Ramdas Pophale) SiO2 
 PCOD9003222
Probable space group: P -1
;
_chemical_formula_sum "Si O2"
_cell_formula_units_Z 16
_cell_length_a 8.628272
_cell_length_b 9.877304
_cell_length_c 20.695037
_cell_angle_alpha 41.299976
_cell_angle_beta 37.845189
_cell_angle_gamma 53.851573
_cell_volume 714.157592
_symmetry_space_group_name_H-M "P -1"
_symmetry_group_IT_number 2
_symmetry_cell_setting 'triclinic'
loop_
_space_group_symop_operation_xyz
x,y,z
-x,-y,-z
loop_
_atom_site_type_symbol
_atom_site_label
_atom_site_fract_x
_atom_site_fract_y
_atom_site_fract_z
Si Si1 0.923861 0.738208 0.424702
Si Si2 0.497987 0.259338 0.081595
Si Si3 0.465018 0.697749 0.250150
Si Si4 0.875770 0.211537 0.086086
Si Si5 0.690219 0.043455 0.979617
Si Si6 0.925315 0.142541 0.343975
Si Si7 0.264840 0.602354 0.807158
Si Si8 0.536007 0.406488 0.450419
O O1 0.703899 0.726933 0.448650
O O2 0.000000 0.500000 0.500000
O O3 0.201511 0.810682 0.285817
O O4 0.861046 0.899462 0.444627
O O5 0.711470 0.181749 0.087589
O O6 0.226888 0.177291 0.225964
O O7 0.582606 0.227309 0.990668
O O8 0.500000 0.500000 0.000000
O O9 0.669767 0.866714 0.104447
O O10 0.487807 0.514711 0.256575
O O11 0.526137 0.598263 0.334463
O O12 0.710899 0.271696 0.180812
O O13 0.032742 0.003429 0.121010
O O14 0.056790 0.416815 0.947720
O O15 0.500000 0.000000 0.000000
O O16 0.818584 0.248768 0.276057
O O17 0.782763 0.267249 0.403462
O O18 0.500000 0.500000 0.500000
#
# Coordination Sequence:
#
# PCOD9003222 Si02
#       8
#     2   2   2   2   2   2   2   2
#     4  10  21  42  67  89 121 172 222 275 329 390
#     4  12  24  39  63  98 138 173 217 269 324 398
#     4   9  20  39  66  87 129 167 214 264 329 392
#     4  10  21  37  58  93 135 171 218 259 311 381
#     4  11  23  41  64  92 135 182 217 259 323 404
#     4  11  21  42  66  92 129 178 214 266 344 400
#     4   9  19  37  60  90 128 174 212 258 317 397
#     4  10  23  44  67  97 126 163 224 292 335 385
#
# _framework density 22.404021
#
# number of rings (size 3 to 8) (size 9 to 14) (size 15 to 20)
#    0.000    1.750    2.500    1.500    3.500    1.000 
#    2.250    2.500    0.000    0.000    0.000    0.000 
#    0.000    0.000    0.000    0.000    0.000    0.000 
#
# Total GULP energy -89141.660143 kJ/mol
# GULP energy per Si atom -5571.353759 kJ/mol
# Density = 2.235303 g / cm^3
# Si number density = 22.404021 Si / 1000 Ang^3
#
#
#
# Elastic Constant Matrix: (Units=GPa)
#
#
# Indices 1 2 3 4 5 6 
#
# 1 92.3657 63.3833 4.9999 24.9535 -10.3527 15.5111
# 2 63.3833 185.7120 33.8338 21.8580 -3.6787 29.4622
# 3 4.9999 33.8338 44.2621 2.0895 2.6135 8.4287
# 4 24.9535 21.8580 2.0895 36.2196 0.7028 3.8609
# 5 -10.3527 -3.6787 2.6135 0.7028 31.2478 10.4955
# 6 15.5111 29.4622 8.4287 3.8609 10.4955 42.3335
#
#
#
# Elastic Compliance Matrix: (Units=1/GPa)
#
#
# Indices 1 2 3 4 5 6 
#
# 1 0.017949 -0.004564 0.002396 -0.009378 0.007019 -0.004762
# 2 -0.004564 0.008673 -0.005461 -0.001431 0.001150 -0.003431
# 3 0.002396 -0.005461 0.026969 0.000343 -0.001396 -0.002132
# 4 -0.009378 -0.001431 0.000343 0.034753 -0.004895 0.002408
# 5 0.007019 0.001150 -0.001396 -0.004895 0.038812 -0.012270
# 6 -0.004762 -0.003431 -0.002132 0.002408 -0.012270 0.031002
#
#
# Mechanical properties :
#
#
# Convention : Reuss Voigt Hill
#
# Bulk Modulus (GPa) = 26.08723 58.53042 42.30883
# Shear Modulus (GPa) = 26.85409 36.63501 31.74455
#
# Velocity S-wave (km/s) = 3.46588 4.04815 3.76827
# Velocity P-wave (km/s) = 5.26172 6.93049 6.15294
#
# Compressibility (1/GPa) = 0.03833293
#
# Stress axis : x y z
#
# Youngs Moduli (GPa) = 55.71348 115.30250 37.08019
#
# Poissons Ratio (x) = 0.52626 -0.08886
# Poissons Ratio (y) = 0.25429 0.20249
# Poissons Ratio (z) = -0.13351 0.62966
#
# Static dielectric constant tensor:
#      x y z
#    x 1.775460 -0.003060 -0.038200 
#    y -0.003060 1.926890 0.037260 
#    z -0.038200 0.037260 2.067210 
# 
# From -- ./inp_files/587208.got.cif
#   From: 2010.05.17/outbox.cif.g08.bks.cpg/sg2_294_cif.got.tgz:587208.got - 2010.06.03 11:33:40.
