data_PCOD9003077
_publ_section_title
;
Structure prediction by ZEFSAII (Michael W. Deem and Ramdas Pophale) SiO2 
 PCOD9003077
Probable space group: P -1
;
_chemical_formula_sum "Si O2"
_cell_formula_units_Z 16
_cell_length_a 15.077405
_cell_length_b 17.588376
_cell_length_c 5.477450
_cell_angle_alpha 63.563167
_cell_angle_beta 82.266444
_cell_angle_gamma 39.964572
_cell_volume 779.630428
_symmetry_space_group_name_H-M "P -1"
_symmetry_group_IT_number 2
_symmetry_cell_setting 'triclinic'
loop_
_space_group_symop_operation_xyz
x,y,z
-x,-y,-z
loop_
_atom_site_type_symbol
_atom_site_label
_atom_site_fract_x
_atom_site_fract_y
_atom_site_fract_z
Si Si1 0.771042 0.223215 0.185472
Si Si2 0.376712 0.181084 0.037540
Si Si3 0.700700 0.565736 0.381375
Si Si4 0.696068 0.860954 0.375445
Si Si5 0.994511 0.738382 0.525886
Si Si6 0.794875 0.378918 0.998180
Si Si7 0.461644 0.455724 0.775281
Si Si8 0.028100 0.053475 0.727991
O O1 0.888615 0.150118 0.460920
O O2 0.796303 0.296291 0.934839
O O3 0.594923 0.349079 0.071207
O O4 0.824658 0.092472 0.247691
O O5 0.323131 0.185628 0.313608
O O6 0.553904 0.031158 0.185659
O O7 0.330282 0.313431 0.828884
O O8 0.312771 0.179371 0.826337
O O9 0.860047 0.414576 0.429191
O O10 0.717236 0.520416 0.716638
O O11 0.567676 0.609735 0.260607
O O12 0.850809 0.791837 0.453594
O O13 0.960763 0.861226 0.291127
O O14 0.047148 0.712410 0.825301
O O15 0.689190 0.422666 0.189470
O O16 0.500000 0.500000 0.500000
O O17 0.000000 0.000000 0.000000
#
# Coordination Sequence:
#
# PCOD9003077 Si02
#       8
#     2   2   2   2   2   2   2   2
#     4  10  21  37  57  87 124 175 213 259 312 382
#     4  10  25  47  73  99 136 168 223 279 341 406
#     4  11  24  40  66  97 129 169 219 275 332 397
#     4  10  24  50  70 100 133 175 217 281 340 406
#     4  10  24  41  65  95 129 172 217 273 333 395
#     4  10  22  40  59  94 135 164 222 273 321 393
#     4  11  23  37  62  92 130 178 216 266 328 391
#     4  10  22  39  59  89 130 170 215 264 317 388
#
# _framework density 20.522542999999999
#
# number of rings (size 3 to 8) (size 9 to 14) (size 15 to 20)
#    0.000    1.750    1.250    1.125   10.500    1.000 
#    0.000    0.000    0.000    0.000    0.000    0.000 
#    0.000    0.000    0.000    0.000    0.000    0.000 
#
# Total GULP energy -89075.404768 kJ/mol
# GULP energy per Si atom -5567.212798 kJ/mol
# Density = 2.047583 g / cm^3
# Si number density = 20.522543 Si / 1000 Ang^3
#
#
#
# Elastic Constant Matrix: (Units=GPa)
#
#
# Indices 1 2 3 4 5 6 
#
# 1 150.7447 51.1251 59.1770 -22.5200 7.7229 -1.8539
# 2 51.1251 78.9318 38.1012 -21.7642 -13.7107 6.8011
# 3 59.1770 38.1012 102.0571 -18.9696 -14.6043 4.3414
# 4 -22.5200 -21.7642 -18.9696 33.9629 6.5333 -5.2170
# 5 7.7229 -13.7107 -14.6043 6.5333 43.0088 -14.0008
# 6 -1.8539 6.8011 4.3414 -5.2170 -14.0008 28.4227
#
#
#
# Elastic Compliance Matrix: (Units=1/GPa)
#
#
# Indices 1 2 3 4 5 6 
#
# 1 0.010852 -0.005044 -0.004751 0.002413 -0.005399 0.000424
# 2 -0.005044 0.020024 -0.002488 0.006974 0.005072 -0.000962
# 3 -0.004751 -0.002488 0.014637 0.002628 0.004947 0.000969
# 4 0.002413 0.006974 0.002628 0.037957 -0.001713 0.004210
# 5 -0.005399 0.005072 0.004947 -0.001713 0.032060 0.013157
# 6 0.000424 -0.000962 0.000969 0.004210 0.013157 0.042547
#
#
# Mechanical properties :
#
#
# Convention : Reuss Voigt Hill
#
# Bulk Modulus (GPa) = 47.74003 69.83779 58.78891
# Shear Modulus (GPa) = 26.36753 33.30089 29.83421
#
# Velocity S-wave (km/s) = 3.58831 4.03258 3.81692
# Velocity P-wave (km/s) = 6.36244 7.46900 6.93782
#
# Compressibility (1/GPa) = 0.02094678
#
# Stress axis : x y z
#
# Youngs Moduli (GPa) = 92.14881 49.93931 68.31864
#
# Poissons Ratio (x) = 0.25192 0.32460
# Poissons Ratio (y) = 0.46484 0.16996
# Poissons Ratio (z) = 0.43782 0.12423
#
# Static dielectric constant tensor:
#      x y z
#    x 1.730430 0.093300 -0.035830 
#    y 0.093300 1.728900 0.098310 
#    z -0.035830 0.098310 1.866320 
# 
# From -- ./inp_files/99307.got.cif
#   From: 2010.05.17/outbox.cif.g08.bks.cpg/sg2_50_cif.got.tgz:99307.got - 2010.06.03 11:33:40.
