data_PCOD9003947
_publ_section_title
;
Structure prediction by ZEFSAII (Michael W. Deem and Ramdas Pophale) SiO2 
 PCOD9003947
Probable space group: P -1
;
_chemical_formula_sum "Si O2"
_cell_formula_units_Z 16
_cell_length_a 6.546834
_cell_length_b 11.708468
_cell_length_c 11.424840
_cell_angle_alpha 76.428688
_cell_angle_beta 90.871250
_cell_angle_gamma 78.994703
_cell_volume 833.991028
_symmetry_space_group_name_H-M "P -1"
_symmetry_group_IT_number 2
_symmetry_cell_setting 'triclinic'
loop_
_space_group_symop_operation_xyz
x,y,z
-x,-y,-z
loop_
_atom_site_type_symbol
_atom_site_label
_atom_site_fract_x
_atom_site_fract_y
_atom_site_fract_z
Si Si1 0.815475 0.613932 0.972777
Si Si2 0.827049 0.277140 0.109417
Si Si3 0.727409 0.959753 0.356132
Si Si4 0.511426 0.592420 0.761988
Si Si5 0.453896 0.938291 0.137224
Si Si6 0.463749 0.668898 0.134329
Si Si7 0.382134 0.175079 0.400734
Si Si8 0.074207 0.062558 0.261154
O O1 0.655047 0.598353 0.875252
O O2 0.692157 0.637498 0.085400
O O3 0.000000 0.500000 0.000000
O O4 0.935464 0.717206 0.917164
O O5 0.718558 0.359616 0.195419
O O6 0.862277 0.141555 0.184979
O O7 0.695420 0.312979 0.982415
O O8 0.633684 0.945959 0.230686
O O9 0.678258 0.852263 0.461878
O O10 0.588688 0.078872 0.386971
O O11 0.971141 0.965972 0.353612
O O12 0.448119 0.548637 0.235211
O O13 0.573387 0.692280 0.653419
O O14 0.439253 0.799177 0.157917
O O15 0.238280 0.005525 0.178129
O O16 0.500000 0.000000 0.000000
O O17 0.196594 0.139275 0.328401
#
# Coordination Sequence:
#
# PCOD9003947 Si02
#       8
#     2   2   2   2   2   2   2   2
#     4  11  18  33  53  84 119 150 188 235 287 341
#     4  11  19  32  56  87 117 147 186 241 287 334
#     4  10  22  41  59  85 116 153 196 247 286 331
#     4  11  20  34  55  89 116 144 187 243 296 336
#     4  11  25  41  56  85 123 159 193 229 283 359
#     4  11  23  34  54  84 125 154 189 232 290 349
#     4  10  21  37  63  88 114 143 199 256 288 330
#     4  11  21  37  64  86 113 154 197 234 295 345
#
# _framework density 19.184858999999999
#
# number of rings (size 3 to 8) (size 9 to 14) (size 15 to 20)
#    0.000    1.250    5.000    2.625    3.500    3.000 
#    0.000    0.625    0.000    0.750    0.000    0.000 
#    0.000    0.000    0.000    0.000    0.000    0.000 
#
# Total GULP energy -89162.829407 kJ/mol
# GULP energy per Si atom -5572.676838 kJ/mol
# Density = 1.914119 g / cm^3
# Si number density = 19.184859 Si / 1000 Ang^3
#
#
#
# Elastic Constant Matrix: (Units=GPa)
#
#
# Indices 1 2 3 4 5 6 
#
# 1 83.1774 23.9521 31.7184 -3.1936 -19.8996 7.6652
# 2 23.9521 118.9562 34.8847 -15.8147 -5.2778 17.2246
# 3 31.7184 34.8847 92.4479 -13.2344 -14.9978 10.1310
# 4 -3.1936 -15.8147 -13.2344 22.5305 6.1254 -5.0027
# 5 -19.8996 -5.2778 -14.9978 6.1254 20.9092 -8.2926
# 6 7.6652 17.2246 10.1310 -5.0027 -8.2926 34.8169
#
#
#
# Elastic Compliance Matrix: (Units=1/GPa)
#
#
# Indices 1 2 3 4 5 6 
#
# 1 0.017518 -0.002777 -0.003341 -0.005381 0.015732 0.001463
# 2 -0.002777 0.010983 -0.002689 0.006215 -0.005376 -0.004427
# 3 -0.003341 -0.002689 0.014504 0.004724 0.005053 -0.000272
# 4 -0.005381 0.006215 0.004724 0.055307 -0.016023 0.000866
# 5 0.015732 -0.005376 0.005053 -0.016023 0.075032 0.013294
# 6 0.001463 -0.004427 -0.000272 0.000866 0.013294 0.033960
#
#
# Mechanical properties :
#
#
# Convention : Reuss Voigt Hill
#
# Bulk Modulus (GPa) = 39.38339 52.85466 46.11903
# Shear Modulus (GPa) = 21.42418 29.25307 25.33862
#
# Velocity S-wave (km/s) = 3.34537 3.90910 3.63817
# Velocity P-wave (km/s) = 5.95776 6.92711 6.46064
#
# Compressibility (1/GPa) = 0.02539141
#
# Stress axis : x y z
#
# Youngs Moduli (GPa) = 57.08251 91.05125 68.94771
#
# Poissons Ratio (x) = 0.25283 0.23037
# Poissons Ratio (y) = 0.15850 0.18539
# Poissons Ratio (z) = 0.19072 0.24483
#
# Static dielectric constant tensor:
#      x y z
#    x 1.731630 0.055240 -0.048810 
#    y 0.055240 1.764540 -0.093900 
#    z -0.048810 -0.093900 1.716820 
# 
# From -- ./inp_files/135118.got.cif
#   From: 2010.05.17/outbox.cif.g08.bks.cpg/sg2_68_cif.got.tgz:135118.got - 2010.06.03 11:33:40.
