data_PCOD9003398
_publ_section_title
;
Structure prediction by ZEFSAII (Michael W. Deem and Ramdas Pophale) SiO2 
 PCOD9003398
Probable space group: P -1
;
_chemical_formula_sum "Si O2"
_cell_formula_units_Z 14
_cell_length_a 14.837325
_cell_length_b 5.936093
_cell_length_c 14.910055
_cell_angle_alpha 75.778420
_cell_angle_beta 28.062244
_cell_angle_gamma 77.947425
_cell_volume 598.751189
_symmetry_space_group_name_H-M "P -1"
_symmetry_group_IT_number 2
_symmetry_cell_setting 'triclinic'
loop_
_space_group_symop_operation_xyz
x,y,z
-x,-y,-z
loop_
_atom_site_type_symbol
_atom_site_label
_atom_site_fract_x
_atom_site_fract_y
_atom_site_fract_z
Si Si1 0.547905 0.707815 0.735640
Si Si2 0.780059 0.570543 0.876084
Si Si3 0.815433 0.882305 0.219752
Si Si4 0.168540 0.522141 0.614306
Si Si5 0.095462 0.732261 0.353292
Si Si6 0.724620 0.924959 0.727458
Si Si7 0.453606 0.862957 0.432718
O O1 0.743927 0.595600 0.539793
O O2 0.574330 0.838466 0.794747
O O3 0.498738 0.900620 0.686575
O O4 0.392373 0.502660 0.901706
O O5 0.834950 0.332460 0.799121
O O6 0.725570 0.748796 0.828206
O O7 0.971637 0.647046 0.751990
O O8 0.873520 0.681166 0.257235
O O9 0.655079 0.777002 0.302690
O O10 0.692544 0.069136 0.365802
O O11 0.000000 0.000000 0.000000
O O12 0.334505 0.688554 0.491478
O O13 0.000000 0.500000 0.500000
O O14 0.924532 0.912165 0.497313
O O15 0.268193 0.825332 0.255630
#
# Coordination Sequence:
#
# PCOD9003398 Si02
#       7
#     2   2   2   2   2   2   2
#     4  11  24  39  59  91 125 159 208 251 297 363
#     4  11  23  38  59  90 122 164 209 247 299 359
#     4  10  22  44  66  90 120 153 200 249 304 371
#     4  11  24  40  63  90 125 157 197 252 308 359
#     4   9  20  36  59  83 116 160 211 249 299 344
#     4  10  21  37  60  84 123 166 207 252 298 349
#     4  10  24  40  64  92 121 158 198 250 307 360
#
# _framework density 23.381999
#
# number of rings (size 3 to 8) (size 9 to 14) (size 15 to 20)
#    0.000    1.714    1.429    1.714    6.000    3.429 
#    0.000    0.000    0.000    0.000    0.000    0.000 
#    0.000    0.000    0.000    0.000    0.000    0.000 
#
# Total GULP energy -78286.670200 kJ/mol
# GULP energy per Si atom -5591.905014 kJ/mol
# Density = 2.332878 g / cm^3
# Si number density = 23.381999 Si / 1000 Ang^3
#
#
#
# Elastic Constant Matrix: (Units=GPa)
#
#
# Indices 1 2 3 4 5 6 
#
# 1 115.7012 16.6130 57.8331 -7.6282 -9.1524 4.7467
# 2 16.6130 36.6029 28.0126 -17.6615 2.5386 6.2397
# 3 57.8331 28.0126 163.2149 -21.7515 6.1320 -17.4339
# 4 -7.6282 -17.6615 -21.7515 23.3198 -4.3921 -2.1896
# 5 -9.1524 2.5386 6.1320 -4.3921 29.8207 -12.5444
# 6 4.7467 6.2397 -17.4339 -2.1896 -12.5444 42.7286
#
#
#
# Elastic Compliance Matrix: (Units=1/GPa)
#
#
# Indices 1 2 3 4 5 6 
#
# 1 0.011313 -0.002850 -0.004041 -0.001677 0.003669 -0.001498
# 2 -0.002850 0.047656 -0.003814 0.030371 -0.002816 -0.007469
# 3 -0.004041 -0.003814 0.009437 0.005084 0.000051 0.005132
# 4 -0.001677 0.030371 0.005084 0.071966 0.008090 0.003888
# 5 0.003669 -0.002816 0.000051 0.008090 0.041375 0.012586
# 6 -0.001498 -0.007469 0.005132 0.003888 0.012586 0.030649
#
#
# Mechanical properties :
#
#
# Convention : Reuss Voigt Hill
#
# Bulk Modulus (GPa) = 21.27830 57.82628 39.55229
# Shear Modulus (GPa) = 20.04244 33.37784 26.71014
#
# Velocity S-wave (km/s) = 2.93093 3.78233 3.38352
# Velocity P-wave (km/s) = 4.53584 6.62265 5.67597
#
# Compressibility (1/GPa) = 0.04699625
#
# Stress axis : x y z
#
# Youngs Moduli (GPa) = 88.39307 20.98386 105.96637
#
# Poissons Ratio (x) = 0.05981 0.42819
# Poissons Ratio (y) = 0.25196 0.40411
# Poissons Ratio (z) = 0.35718 0.08002
#
# Static dielectric constant tensor:
#      x y z
#    x 1.920850 0.012660 -0.040990 
#    y 0.012660 1.942720 0.025150 
#    z -0.040990 0.025150 1.869750 
# 
# From -- ./inp_files/525590.got.cif
#   From: 2010.05.17/outbox.cif.g08.bks.cpg/sg2_263_cif.got.tgz:525590.got - 2010.06.03 11:33:40.
