data_PCOD9003941
_publ_section_title
;
Structure prediction by ZEFSAII (Michael W. Deem and Ramdas Pophale) SiO2 
 PCOD9003941
Probable space group: P -1
;
_chemical_formula_sum "Si O2"
_cell_formula_units_Z 16
_cell_length_a 9.319289
_cell_length_b 11.606792
_cell_length_c 19.815146
_cell_angle_alpha 34.366477
_cell_angle_beta 139.310197
_cell_angle_gamma 142.751733
_cell_volume 699.459210
_symmetry_space_group_name_H-M "P -1"
_symmetry_group_IT_number 2
_symmetry_cell_setting 'triclinic'
loop_
_space_group_symop_operation_xyz
x,y,z
-x,-y,-z
loop_
_atom_site_type_symbol
_atom_site_label
_atom_site_fract_x
_atom_site_fract_y
_atom_site_fract_z
Si Si1 0.299410 0.938177 0.320577
Si Si2 0.861682 0.525957 0.023286
Si Si3 0.397080 0.566522 0.786887
Si Si4 0.201376 0.011365 0.879399
Si Si5 0.474360 0.962938 0.892733
Si Si6 0.840254 0.312801 0.477298
Si Si7 0.963507 0.334638 0.831417
Si Si8 0.755965 0.505557 0.568730
O O1 0.317527 0.894834 0.428184
O O2 0.295704 0.734536 0.371737
O O3 0.526247 0.188841 0.266045
O O4 0.037762 0.948659 0.216010
O O5 0.754760 0.252829 0.117898
O O6 0.911204 0.606056 0.079708
O O7 0.645046 0.548007 0.895233
O O8 0.103382 0.731800 0.976127
O O9 0.313607 0.595349 0.668470
O O10 0.175848 0.351448 0.848598
O O11 0.356185 0.107981 0.819291
O O12 0.384241 0.092641 0.968553
O O13 0.700733 0.108249 0.853266
O O14 0.000000 0.500000 0.500000
O O15 0.042183 0.303672 0.501674
O O16 0.892018 0.516483 0.682586
O O17 0.500000 0.500000 0.500000
#
# Coordination Sequence:
#
# PCOD9003941 Si02
#       8
#     2   2   2   2   2   2   2   2
#     4  10  21  40  67  87 125 166 208 261 317 359
#     4  10  21  38  61  92 126 167 203 261 307 369
#     4  10  21  39  59  95 128 156 218 257 306 378
#     4   9  21  39  58  96 121 163 214 256 297 385
#     4  10  21  37  63  86 132 166 204 252 318 355
#     4   9  20  38  61  90 120 164 212 252 311 371
#     4  10  23  39  58  95 127 162 210 251 315 381
#     4  10  23  42  63  92 127 160 209 261 312 375
#
# _framework density 22.874814000000001
#
# number of rings (size 3 to 8) (size 9 to 14) (size 15 to 20)
#    0.000    2.250    0.000    1.125    8.750    0.500 
#    0.000    8.750    0.000    0.000    0.000    0.000 
#    0.000    0.000    0.000    0.000    0.000    0.000 
#
# Total GULP energy -89120.930755 kJ/mol
# GULP energy per Si atom -5570.058172 kJ/mol
# Density = 2.282275 g / cm^3
# Si number density = 22.874814 Si / 1000 Ang^3
#
#
#
# Elastic Constant Matrix: (Units=GPa)
#
#
# Indices 1 2 3 4 5 6 
#
# 1 102.2906 39.8341 50.0367 -1.8651 5.8318 22.4238
# 2 39.8341 102.3199 5.8375 0.7286 -5.3092 0.4796
# 3 50.0367 5.8375 84.5734 33.3116 -7.6288 4.5809
# 4 -1.8651 0.7286 33.3116 38.3085 6.7054 -2.3082
# 5 5.8318 -5.3092 -7.6288 6.7054 39.2110 -1.5086
# 6 22.4238 0.4796 4.5809 -2.3082 -1.5086 23.8860
#
#
#
# Elastic Compliance Matrix: (Units=1/GPa)
#
#
# Indices 1 2 3 4 5 6 
#
# 1 0.051512 -0.018964 -0.048962 0.048437 -0.029414 -0.035765
# 2 -0.018964 0.016852 0.017387 -0.017671 0.012014 0.013182
# 3 -0.048962 0.017387 0.066894 -0.065266 0.034915 0.028685
# 4 0.048437 -0.017671 -0.065266 0.090764 -0.038827 -0.026282
# 5 -0.029414 0.012014 0.034915 -0.038827 0.045699 0.019810
# 6 -0.035765 0.013182 0.028685 -0.026282 0.019810 0.068387
#
#
# Mechanical properties :
#
#
# Convention : Reuss Voigt Hill
#
# Bulk Modulus (GPa) = 29.25732 53.40005 41.32868
# Shear Modulus (GPa) = 11.04782 33.17946 22.11364
#
# Velocity S-wave (km/s) = 2.20004 3.81265 3.11259
# Velocity P-wave (km/s) = 4.38993 6.54040 5.56994
#
# Compressibility (1/GPa) = 0.03417949
#
# Stress axis : x y z
#
# Youngs Moduli (GPa) = 19.41311 59.34122 14.94903
#
# Poissons Ratio (x) = 1.12536 0.73193
# Poissons Ratio (y) = 0.36815 -0.25992
# Poissons Ratio (z) = 0.95050 -1.03175
#
# Static dielectric constant tensor:
#      x y z
#    x 1.936410 -0.013150 0.010620 
#    y -0.013150 1.986770 -0.059440 
#    z 0.010620 -0.059440 1.907910 
# 
# From -- ./inp_files/559720.got.cif
#   From: 2010.05.17/outbox.cif.g08.bks.cpg/sg2_280_cif.got.tgz:559720.got - 2010.06.03 11:33:40.
