data_PCOD9003625
_publ_section_title
;
Structure prediction by ZEFSAII (Michael W. Deem and Ramdas Pophale) SiO2 
 PCOD9003625
Probable space group: P -1
;
_chemical_formula_sum "Si O2"
_cell_formula_units_Z 16
_cell_length_a 11.414994
_cell_length_b 11.869737
_cell_length_c 20.583565
_cell_angle_alpha 29.436053
_cell_angle_beta 32.184574
_cell_angle_gamma 40.439939
_cell_volume 726.983932
_symmetry_space_group_name_H-M "P -1"
_symmetry_group_IT_number 2
_symmetry_cell_setting 'triclinic'
loop_
_space_group_symop_operation_xyz
x,y,z
-x,-y,-z
loop_
_atom_site_type_symbol
_atom_site_label
_atom_site_fract_x
_atom_site_fract_y
_atom_site_fract_z
Si Si1 0.289195 0.526387 0.440931
Si Si2 0.600278 0.739619 0.097615
Si Si3 0.297818 0.080194 0.601390
Si Si4 0.527923 0.746903 0.331394
Si Si5 0.100725 0.408411 0.843203
Si Si6 0.812986 0.691081 0.588031
Si Si7 0.315446 0.588787 0.890969
Si Si8 0.197475 0.918181 0.497313
O O1 0.387210 0.609016 0.285248
O O2 0.364882 0.253040 0.539122
O O3 0.384448 0.712052 0.351328
O O4 0.033597 0.528043 0.578064
O O5 0.776006 0.683944 0.101735
O O6 0.712344 0.616207 0.043730
O O7 0.500000 0.000000 0.000000
O O8 0.149094 0.227631 0.545135
O O9 0.500000 0.000000 0.500000
O O10 0.224917 0.842279 0.780175
O O11 0.500000 0.500000 0.500000
O O12 0.779558 0.754290 0.187013
O O13 0.414532 0.923504 0.347160
O O14 0.169014 0.662239 0.665856
O O15 0.838090 0.434223 0.963032
O O16 0.581124 0.594644 0.764119
O O17 0.813001 0.913015 0.522055
O O18 0.000000 0.000000 0.500000
#
# Coordination Sequence:
#
# PCOD9003625 Si02
#       8
#     2   2   2   2   2   2   2   2
#     4  11  21  39  61  99 122 173 217 268 315 396
#     4  11  24  38  64  97 138 171 210 264 332 394
#     4  10  21  37  61  89 136 167 209 252 332 391
#     4   9  21  39  66  87 123 162 230 264 311 374
#     4  10  24  41  63  94 131 169 218 267 326 383
#     4  11  23  37  65  97 128 172 214 267 324 391
#     4  11  24  40  60  99 134 171 205 268 335 392
#     4  11  22  43  71  94 122 174 231 273 316 385
#
# _framework density 22.008738999999998
#
# number of rings (size 3 to 8) (size 9 to 14) (size 15 to 20)
#    0.000    1.500    3.750    1.500   12.250    0.000 
#    0.000    1.250    0.000    0.000    0.000    0.000 
#    0.000    0.000    0.000    0.000    0.000    0.000 
#
# Total GULP energy -89092.130670 kJ/mol
# GULP energy per Si atom -5568.258167 kJ/mol
# Density = 2.195865 g / cm^3
# Si number density = 22.008739 Si / 1000 Ang^3
#
#
#
# Elastic Constant Matrix: (Units=GPa)
#
#
# Indices 1 2 3 4 5 6 
#
# 1 37.7141 7.4791 7.6425 2.1910 0.6889 -1.1679
# 2 7.4791 118.4000 49.5660 16.7611 0.7978 4.1615
# 3 7.6425 49.5660 85.1344 27.9337 -2.8765 -0.9787
# 4 2.1910 16.7611 27.9337 58.2533 -6.5315 -1.6059
# 5 0.6889 0.7978 -2.8765 -6.5315 16.7673 4.3897
# 6 -1.1679 4.1615 -0.9787 -1.6059 4.3897 29.3766
#
#
#
# Elastic Compliance Matrix: (Units=1/GPa)
#
#
# Indices 1 2 3 4 5 6 
#
# 1 0.027171 -0.000945 -0.001939 0.000021 -0.001766 0.001415
# 2 -0.000945 0.011326 -0.006470 -0.000312 -0.001291 -0.001682
# 3 -0.001939 -0.006470 0.017863 -0.006531 0.000651 0.000980
# 4 0.000021 -0.000312 -0.006531 0.021189 0.007170 -0.000086
# 5 -0.001766 -0.001291 0.000651 0.007170 0.065087 -0.009199
# 6 0.001415 -0.001682 0.000980 -0.000086 -0.009199 0.035738
#
#
# Mechanical properties :
#
#
# Convention : Reuss Voigt Hill
#
# Bulk Modulus (GPa) = 26.55935 41.18041 33.86988
# Shear Modulus (GPa) = 23.85126 32.65016 28.25071
#
# Velocity S-wave (km/s) = 3.29556 3.85581 3.58664
# Velocity P-wave (km/s) = 5.15507 6.21085 5.70742
#
# Compressibility (1/GPa) = 0.03765152
#
# Stress axis : x y z
#
# Youngs Moduli (GPa) = 36.80459 88.29124 55.98062
#
# Poissons Ratio (x) = 0.08347 0.10854
# Poissons Ratio (y) = 0.03479 0.36219
# Poissons Ratio (z) = 0.07136 0.57124
#
# Static dielectric constant tensor:
#      x y z
#    x 1.943700 -0.098450 0.021370 
#    y -0.098450 1.802700 0.009720 
#    z 0.021370 0.009720 1.825390 
# 
# From -- ./inp_files/217283.got.cif
#   From: 2010.05.17/outbox.cif.g08.bks.cpg/sg2_109_cif.got.tgz:217283.got - 2010.06.03 11:33:40.
