data_PCOD9003037
_publ_section_title
;
Structure prediction by ZEFSAII (Michael W. Deem and Ramdas Pophale) SiO2 
 PCOD9003037
Probable space group: P -1
;
_chemical_formula_sum "Si O2"
_cell_formula_units_Z 13
_cell_length_a 6.714121
_cell_length_b 10.837331
_cell_length_c 11.081032
_cell_angle_alpha 139.209665
_cell_angle_beta 122.870016
_cell_angle_gamma 65.407187
_cell_volume 442.394125
_symmetry_space_group_name_H-M "P -1"
_symmetry_group_IT_number 2
_symmetry_cell_setting 'triclinic'
loop_
_space_group_symop_operation_xyz
x,y,z
-x,-y,-z
loop_
_atom_site_type_symbol
_atom_site_label
_atom_site_fract_x
_atom_site_fract_y
_atom_site_fract_z
Si Si1 0.540704 0.556172 0.862177
Si Si2 0.894837 0.255866 0.401520
Si Si3 0.467562 0.956320 0.183740
Si Si4 0.667262 0.643076 0.556043
Si Si5 0.021172 0.859956 0.136904
Si Si6 0.897041 0.545352 0.183141
Si Si7 0.000000 0.000000 0.500000
O O1 0.535949 0.409058 0.644817
O O2 0.317475 0.495549 0.825664
O O3 0.767292 0.553847 0.019701
O O4 0.482979 0.771836 0.967737
O O5 0.728973 0.440501 0.484551
O O6 0.097715 0.307756 0.409272
O O7 0.845245 0.039876 0.194941
O O8 0.996696 0.262094 0.580566
O O9 0.403848 0.161345 0.260635
O O10 0.255674 0.908060 0.172188
O O11 0.711885 0.966652 0.344573
O O12 0.077327 0.875335 0.307590
O O13 0.951871 0.650243 0.915427
#
# Coordination Sequence:
#
# PCOD9003037 Si02
#       7
#     2   2   2   2   2   2   1
#     4   9  17  31  54  83 114 150 190 233 285 338
#     4   9  18  34  58  86 115 153 196 232 280 344
#     4  10  21  37  57  83 118 151 186 240 287 331
#     4   9  18  34  58  86 115 153 196 232 280 344
#     4  10  21  37  57  83 118 151 186 240 287 331
#     4   9  17  31  54  83 114 150 190 233 285 338
#     4  12  22  36  60  88 114 152 196 230 288 354
#
# _framework density 29.385559000000001
#
# number of rings (size 3 to 8) (size 9 to 14) (size 15 to 20)
#    0.000    2.462    0.000    2.308    0.000    6.154 
#    0.000   13.846    0.000    1.846    0.000    0.000 
#    0.000    0.000    0.000    0.000    0.000    0.000 
#
# Total GULP energy -72659.079421 kJ/mol
# GULP energy per Si atom -5589.159955 kJ/mol
# Density = 2.931868 g / cm^3
# Si number density = 29.385559 Si / 1000 Ang^3
#
#
#
# Elastic Constant Matrix: (Units=GPa)
#
#
# Indices 1 2 3 4 5 6 
#
# 1 145.8970 6.7068 23.9860 27.6375 -7.6410 -2.7347
# 2 6.7068 114.8173 28.8346 23.1153 -21.7130 -26.1529
# 3 23.9860 28.8346 181.0326 47.3075 -3.9588 -12.5867
# 4 27.6375 23.1153 47.3075 44.0825 0.2232 -14.6705
# 5 -7.6410 -21.7130 -3.9588 0.2232 44.2532 15.5958
# 6 -2.7347 -26.1529 -12.5867 -14.6705 15.5958 48.5306
#
#
#
# Elastic Compliance Matrix: (Units=1/GPa)
#
#
# Indices 1 2 3 4 5 6 
#
# 1 0.008087 0.000805 0.000451 -0.006583 0.002494 -0.001785
# 2 0.000805 0.011338 -0.000239 -0.005209 0.004640 0.003028
# 3 0.000451 -0.000239 0.007766 -0.008871 0.001096 -0.001123
# 4 -0.006583 -0.005209 -0.008871 0.042429 -0.008220 0.009989
# 5 0.002494 0.004640 0.001096 -0.008220 0.028519 -0.008725
# 6 -0.001785 0.003028 -0.001123 0.009989 -0.008725 0.027669
#
#
# Mechanical properties :
#
#
# Convention : Reuss Voigt Hill
#
# Bulk Modulus (GPa) = 34.21817 62.31130 48.26473
# Shear Modulus (GPa) = 37.44833 52.85457 45.15145
#
# Velocity S-wave (km/s) = 3.57372 4.24566 3.92410
# Velocity P-wave (km/s) = 5.35709 6.72941 6.08208
#
# Compressibility (1/GPa) = 0.02922424
#
# Stress axis : x y z
#
# Youngs Moduli (GPa) = 123.65273 88.19596 128.76151
#
# Poissons Ratio (x) = -0.07096 -0.05807
# Poissons Ratio (y) = -0.09949 0.03083
# Poissons Ratio (z) = -0.05577 0.02111
#
# Static dielectric constant tensor:
#      x y z
#    x 2.286270 -0.100290 0.012090 
#    y -0.100290 1.970050 -0.030600 
#    z 0.012090 -0.030600 2.120900 
# 
# From -- ./inp_files/502398.got.cif
#   From: 2010.05.17/outbox.cif.g08.bks.cpg/sg2_252_cif.got.tgz:502398.got - 2010.06.03 11:33:40.
