data_PCOD9003413
_publ_section_title
;
Structure prediction by ZEFSAII (Michael W. Deem and Ramdas Pophale) SiO2 
 PCOD9003413
Probable space group: P -1
;
_chemical_formula_sum "Si O2"
_cell_formula_units_Z 14
_cell_length_a 8.492026
_cell_length_b 11.613777
_cell_length_c 13.458070
_cell_angle_alpha 148.821175
_cell_angle_beta 130.168000
_cell_angle_gamma 60.739416
_cell_volume 518.376617
_symmetry_space_group_name_H-M "P -1"
_symmetry_group_IT_number 2
_symmetry_cell_setting 'triclinic'
loop_
_space_group_symop_operation_xyz
x,y,z
-x,-y,-z
loop_
_atom_site_type_symbol
_atom_site_label
_atom_site_fract_x
_atom_site_fract_y
_atom_site_fract_z
Si Si1 0.237060 0.446408 0.681325
Si Si2 0.705550 0.577820 0.012584
Si Si3 0.352908 0.446655 0.512543
Si Si4 0.241057 0.205010 0.002516
Si Si5 0.435010 0.952360 0.641697
Si Si6 0.155605 0.757437 0.527233
Si Si7 0.175185 0.786826 0.063359
O O1 0.480110 0.434347 0.787629
O O2 0.210722 0.429963 0.540727
O O3 0.080427 0.266502 0.547599
O O4 0.204024 0.690790 0.893212
O O5 0.822476 0.655664 0.016076
O O6 0.808021 0.428338 0.019941
O O7 0.639639 0.805526 0.197910
O O8 0.549079 0.642615 0.761399
O O9 0.433779 0.208506 0.357226
O O10 0.232785 0.537184 0.439872
O O11 0.048203 0.148028 0.956644
O O12 0.278492 0.972453 0.795124
O O13 0.209680 0.798808 0.463533
O O14 0.623562 0.025345 0.693994
#
# Coordination Sequence:
#
# PCOD9003413 Si02
#       7
#     2   2   2   2   2   2   2
#     4  10  21  37  60  86 115 150 194 233 282 346
#     4   9  21  42  61  84 117 150 189 242 287 335
#     4  11  22  40  59  85 119 153 190 240 285 335
#     4  10  22  39  62  87 113 152 198 232 284 349
#     4  10  21  37  60  86 115 150 194 233 282 346
#     4  11  22  40  59  85 119 153 190 240 285 335
#     4  11  21  41  61  85 118 152 188 240 288 338
#
# _framework density 27.007387999999999
#
# number of rings (size 3 to 8) (size 9 to 14) (size 15 to 20)
#    0.000    1.714    0.000    6.000    0.000    0.000 
#    0.000   30.000    0.000    0.000    0.000    0.000 
#    0.000    0.000    0.000    0.000    0.000    0.000 
#
# Total GULP energy -78075.180763 kJ/mol
# GULP energy per Si atom -5576.798626 kJ/mol
# Density = 2.694592 g / cm^3
# Si number density = 27.007388 Si / 1000 Ang^3
#
#
#
# Elastic Constant Matrix: (Units=GPa)
#
#
# Indices 1 2 3 4 5 6 
#
# 1 176.9877 5.4783 28.4351 6.2530 22.5052 11.8258
# 2 5.4783 69.8386 21.4815 24.5203 -3.4539 1.4182
# 3 28.4351 21.4815 105.4412 22.0502 -2.6292 -1.5861
# 4 6.2530 24.5203 22.0502 31.6286 1.6673 -2.2685
# 5 22.5052 -3.4539 -2.6292 1.6673 49.8657 14.8522
# 6 11.8258 1.4182 -1.5861 -2.2685 14.8522 35.9053
#
#
#
# Elastic Compliance Matrix: (Units=1/GPa)
#
#
# Indices 1 2 3 4 5 6 
#
# 1 0.006346 -0.000105 -0.001803 0.000148 -0.002657 -0.001057
# 2 -0.000105 0.020191 -0.000838 -0.015405 0.002788 -0.002927
# 3 -0.001803 -0.000838 0.011693 -0.007229 0.001607 0.000022
# 4 0.000148 -0.015405 -0.007229 0.049201 -0.004742 0.005310
# 5 -0.002657 0.002788 0.001607 -0.004742 0.024555 -0.009621
# 6 -0.001057 -0.002927 0.000022 0.005310 -0.009621 0.032631
#
#
# Mechanical properties :
#
#
# Convention : Reuss Voigt Hill
#
# Bulk Modulus (GPa) = 30.54610 51.45084 40.99847
# Shear Modulus (GPa) = 31.05167 43.27143 37.16155
#
# Velocity S-wave (km/s) = 3.39447 4.00710 3.71344
# Velocity P-wave (km/s) = 5.16702 6.36405 5.79652
#
# Compressibility (1/GPa) = 0.03273740
#
# Stress axis : x y z
#
# Youngs Moduli (GPa) = 157.57262 49.52772 85.52043
#
# Poissons Ratio (x) = 0.00520 0.15421
# Poissons Ratio (y) = 0.01656 0.07168
# Poissons Ratio (z) = 0.28413 0.04151
#
# Static dielectric constant tensor:
#      x y z
#    x 2.177200 0.032590 -0.031420 
#    y 0.032590 2.086600 -0.080890 
#    z -0.031420 -0.080890 2.239370 
# 
# From -- ./inp_files/216398.got.cif
#   From: 2010.05.17/outbox.cif.g08.bks.cpg/sg2_109_cif.got.tgz:216398.got - 2010.06.03 11:33:40.
