data_PCOD9003678
_publ_section_title
;
Structure prediction by ZEFSAII (Michael W. Deem and Ramdas Pophale) SiO2 
 PCOD9003678
Probable space group: P -1
;
_chemical_formula_sum "Si O2"
_cell_formula_units_Z 15
_cell_length_a 7.261484
_cell_length_b 9.843190
_cell_length_c 20.300779
_cell_angle_alpha 143.763770
_cell_angle_beta 49.059098
_cell_angle_gamma 132.209799
_cell_volume 613.635938
_symmetry_space_group_name_H-M "P -1"
_symmetry_group_IT_number 2
_symmetry_cell_setting 'triclinic'
loop_
_space_group_symop_operation_xyz
x,y,z
-x,-y,-z
loop_
_atom_site_type_symbol
_atom_site_label
_atom_site_fract_x
_atom_site_fract_y
_atom_site_fract_z
Si Si1 0.500000 0.000000 0.500000
Si Si2 0.611072 0.297661 0.327248
Si Si3 0.989024 0.880545 0.763725
Si Si4 0.453532 0.576884 0.260317
Si Si5 0.270102 0.406580 0.928058
Si Si6 0.055756 0.267683 0.426557
Si Si7 0.045049 0.774822 0.362729
Si Si8 0.680640 0.218876 0.832429
O O1 0.555275 0.745028 0.365112
O O2 0.193215 0.851936 0.519161
O O3 0.767588 0.216951 0.317316
O O4 0.807643 0.531290 0.338073
O O5 0.336707 0.336804 0.420894
O O6 0.518245 0.047703 0.208995
O O7 0.955663 0.894120 0.698999
O O8 0.743723 0.679978 0.772873
O O9 0.054316 0.145104 0.882653
O O10 0.652420 0.543826 0.147029
O O11 0.296846 0.733073 0.320384
O O12 0.518686 0.363635 0.887367
O O13 0.217505 0.621527 0.064665
O O14 0.000000 0.500000 0.500000
O O15 0.122382 0.811385 0.281808
O O16 0.000000 0.000000 0.500000
#
# Coordination Sequence:
#
# PCOD9003678 Si02
#       8
#     1   2   2   2   2   2   2   2
#     4  12  24  40  58  94 130 168 218 258 318 384
#     4  10  25  42  63  96 129 165 214 262 318 384
#     4  10  21  42  63  91 128 166 212 266 320 374
#     4  10  21  37  61  92 124 172 211 261 318 379
#     4   9  18  38  65  92 125 166 218 259 319 378
#     4  12  26  40  63  93 131 172 209 264 321 380
#     4  10  23  37  62  95 129 167 211 262 319 381
#     4   9  20  38  64  94 127 168 209 268 318 372
#
# _framework density 24.444462000000001
#
# number of rings (size 3 to 8) (size 9 to 14) (size 15 to 20)
#    0.000    1.867    2.667    0.000    3.733    2.133 
#    0.000    6.667    0.000    1.600    0.000    0.000 
#    0.000    0.000    0.000    0.000    0.000    0.000 
#
# Total GULP energy -83631.885120 kJ/mol
# GULP energy per Si atom -5575.459008 kJ/mol
# Density = 2.438883 g / cm^3
# Si number density = 24.444462 Si / 1000 Ang^3
#
#
#
# Elastic Constant Matrix: (Units=GPa)
#
#
# Indices 1 2 3 4 5 6 
#
# 1 104.8956 31.0647 21.9700 -4.6578 -22.9431 7.3511
# 2 31.0647 138.7364 68.8559 5.6600 6.5032 11.9709
# 3 21.9700 68.8559 180.2435 13.2709 27.4556 1.8816
# 4 -4.6578 5.6600 13.2709 27.0237 9.7207 2.4466
# 5 -22.9431 6.5032 27.4556 9.7207 37.8734 -7.7527
# 6 7.3511 11.9709 1.8816 2.4466 -7.7527 30.2888
#
#
#
# Elastic Compliance Matrix: (Units=1/GPa)
#
#
# Indices 1 2 3 4 5 6 
#
# 1 0.012780 -0.002274 -0.002195 0.000211 0.009754 0.000413
# 2 -0.002274 0.009645 -0.003149 -0.000035 -0.001444 -0.003431
# 3 -0.002195 -0.003149 0.008090 -0.001387 -0.006346 -0.000238
# 4 0.000211 -0.000035 -0.001387 0.042231 -0.010962 -0.006168
# 5 0.009754 -0.001444 -0.006346 -0.010962 0.042073 0.010252
# 6 0.000413 -0.003431 -0.000238 -0.006168 0.010252 0.037409
#
#
# Mechanical properties :
#
#
# Convention : Reuss Voigt Hill
#
# Bulk Modulus (GPa) = 65.44522 74.18409 69.81466
# Shear Modulus (GPa) = 28.97599 39.16951 34.07275
#
# Velocity S-wave (km/s) = 3.44667 4.00733 3.73753
# Velocity P-wave (km/s) = 6.53227 7.19899 6.87372
#
# Compressibility (1/GPa) = 0.01527995
#
# Stress axis : x y z
#
# Youngs Moduli (GPa) = 78.24605 103.67913 123.61199
#
# Poissons Ratio (x) = 0.23575 0.27130
# Poissons Ratio (y) = 0.17792 0.38926
# Poissons Ratio (z) = 0.17173 0.32649
#
# Static dielectric constant tensor:
#      x y z
#    x 2.130670 -0.009630 -0.034860 
#    y -0.009630 1.871860 0.065400 
#    z -0.034860 0.065400 1.901120 
# 
# From -- ./inp_files/607348.got.cif
#   From: 2010.05.17/outbox.cif.g08.bks.cpg/sg2_304_cif.got.tgz:607348.got - 2010.06.03 11:33:40.
