data_PCOD9003115
_publ_section_title
;
Structure prediction by ZEFSAII (Michael W. Deem and Ramdas Pophale) SiO2 
 PCOD9003115
Probable space group: P -1
;
_chemical_formula_sum "Si O2"
_cell_formula_units_Z 14
_cell_length_a 18.238635
_cell_length_b 5.257690
_cell_length_c 6.526185
_cell_angle_alpha 75.313636
_cell_angle_beta 100.825713
_cell_angle_gamma 84.721394
_cell_volume 588.140949
_symmetry_space_group_name_H-M "P -1"
_symmetry_group_IT_number 2
_symmetry_cell_setting 'triclinic'
loop_
_space_group_symop_operation_xyz
x,y,z
-x,-y,-z
loop_
_atom_site_type_symbol
_atom_site_label
_atom_site_fract_x
_atom_site_fract_y
_atom_site_fract_z
Si Si1 0.730829 0.709202 0.447597
Si Si2 0.174711 0.664562 0.142638
Si Si3 0.149987 0.263023 0.842666
Si Si4 0.471536 0.866450 0.284940
Si Si5 0.409001 0.365684 0.903156
Si Si6 0.988128 0.300741 0.850586
Si Si7 0.615749 0.132769 0.411464
O O1 0.753886 0.467626 0.663345
O O2 0.800713 0.738574 0.333872
O O3 0.661556 0.689910 0.261943
O O4 0.697751 0.968654 0.507207
O O5 0.100771 0.643580 0.250213
O O6 0.167746 0.485689 0.970984
O O7 0.170791 0.970952 0.015263
O O8 0.059686 0.312820 0.739213
O O9 0.549640 0.949789 0.395735
O O10 0.509431 0.685395 0.157164
O O11 0.418029 0.718275 0.430701
O O12 0.421367 0.142388 0.129088
O O13 0.387516 0.683538 0.828053
O O14 0.000000 0.500000 0.000000
O O15 0.000000 0.000000 0.000000
#
# Coordination Sequence:
#
# PCOD9003115 Si02
#       7
#     2   2   2   2   2   2   2
#     4  11  26  35  58  95 120 164 200 245 318 373
#     4  10  23  41  64  90 127 164 206 255 303 360
#     4  10  23  41  64  90 127 164 206 255 303 360
#     4   9  20  38  58  83 108 154 202 249 300 352
#     4  10  21  37  58  83 117 151 201 246 302 365
#     4   8  16  37  62  87 116 162 208 249 296 353
#     4  10  21  37  58  83 117 151 201 246 302 365
#
# _framework density 23.803816000000001
#
# number of rings (size 3 to 8) (size 9 to 14) (size 15 to 20)
#    0.000    2.286    0.000    0.857    6.000    0.571 
#    0.000    2.857    0.000   10.286    0.000    0.000 
#    0.000    0.000    0.000    0.000    0.000    0.000 
#
# Total GULP energy -78025.671895 kJ/mol
# GULP energy per Si atom -5573.262278 kJ/mol
# Density = 2.374964 g / cm^3
# Si number density = 23.803816 Si / 1000 Ang^3
#
#
#
# Elastic Constant Matrix: (Units=GPa)
#
#
# Indices 1 2 3 4 5 6 
#
# 1 78.9579 19.8669 16.7437 -1.3596 1.2078 -19.4668
# 2 19.8669 81.6461 10.9357 -28.0391 -2.8043 -6.8820
# 3 16.7437 10.9357 92.9480 -26.4842 18.0239 -4.9812
# 4 -1.3596 -28.0391 -26.4842 26.0771 -8.3277 2.3500
# 5 1.2078 -2.8043 18.0239 -8.3277 36.8294 -0.8386
# 6 -19.4668 -6.8820 -4.9812 2.3500 -0.8386 28.5061
#
#
#
# Elastic Compliance Matrix: (Units=1/GPa)
#
#
# Indices 1 2 3 4 5 6 
#
# 1 0.018289 -0.007919 -0.005716 -0.014818 -0.001511 0.010756
# 2 -0.007919 0.026484 0.007823 0.038331 0.007101 -0.000598
# 3 -0.005716 0.007823 0.018865 0.026576 -0.002462 -0.000981
# 4 -0.014818 0.038331 0.026576 0.111150 0.015419 -0.004930
# 5 -0.001511 0.007101 -0.002462 0.015419 0.032433 -0.000065
# 6 0.010756 -0.000598 -0.000981 -0.004930 -0.000065 0.042515
#
#
# Mechanical properties :
#
#
# Convention : Reuss Voigt Hill
#
# Bulk Modulus (GPa) = 19.22449 38.73826 28.98137
# Shear Modulus (GPa) = 17.94063 32.01623 24.97843
#
# Velocity S-wave (km/s) = 2.74831 3.67141 3.24287
# Velocity P-wave (km/s) = 4.26201 5.85505 5.12086
#
# Compressibility (1/GPa) = 0.05201698
#
# Stress axis : x y z
#
# Youngs Moduli (GPa) = 54.67632 37.75811 53.00760
#
# Poissons Ratio (x) = 0.29900 0.30297
# Poissons Ratio (y) = 0.43297 -0.41470
# Poissons Ratio (z) = 0.31251 -0.29540
#
# Static dielectric constant tensor:
#      x y z
#    x 1.899180 -0.007110 -0.003350 
#    y -0.007110 2.205930 0.149330 
#    z -0.003350 0.149330 1.972640 
# 
# From -- ./inp_files/55501.got.cif
#   From: 2010.05.17/outbox.cif.g08.bks.cpg/sg2_28_cif.got.tgz:55501.got - 2010.06.03 11:33:40.
