data_PCOD9003929
_publ_section_title
;
Structure prediction by ZEFSAII (Michael W. Deem and Ramdas Pophale) SiO2 
 PCOD9003929
Probable space group: P -1
;
_chemical_formula_sum "Si O2"
_cell_formula_units_Z 14
_cell_length_a 12.083309
_cell_length_b 8.341181
_cell_length_c 13.625641
_cell_angle_alpha 44.374729
_cell_angle_beta 126.600829
_cell_angle_gamma 131.022162
_cell_volume 703.264788
_symmetry_space_group_name_H-M "P -1"
_symmetry_group_IT_number 2
_symmetry_cell_setting 'triclinic'
loop_
_space_group_symop_operation_xyz
x,y,z
-x,-y,-z
loop_
_atom_site_type_symbol
_atom_site_label
_atom_site_fract_x
_atom_site_fract_y
_atom_site_fract_z
Si Si1 0.657323 0.974991 0.482430
Si Si2 0.143117 0.735540 0.694421
Si Si3 0.616308 0.852406 0.734734
Si Si4 0.388149 0.781773 0.145159
Si Si5 0.799543 0.365673 0.697198
Si Si6 0.667701 0.725699 0.400717
Si Si7 0.610090 0.336622 0.018906
O O1 0.661911 0.864960 0.638929
O O2 0.616222 0.767919 0.464859
O O3 0.813239 0.186593 0.430172
O O4 0.531677 0.087661 0.366203
O O5 0.975789 0.538104 0.709854
O O6 0.186862 0.007200 0.651815
O O7 0.266658 0.644849 0.842979
O O8 0.586243 0.589187 0.883784
O O9 0.748982 0.083294 0.757051
O O10 0.266225 0.648482 0.222062
O O11 0.534122 0.714383 0.264453
O O12 0.332323 0.715091 0.034338
O O13 0.460203 0.083059 0.069278
O O14 0.716906 0.498195 0.526489
#
# Coordination Sequence:
#
# PCOD9003929 Si02
#       7
#     2   2   2   2   2   2   2
#     4   9  21  39  56  87 115 149 192 237 285 320
#     4   9  22  40  57  83 121 153 184 233 286 346
#     4  11  22  35  62  87 111 155 189 241 277 338
#     4  10  21  37  63  85 108 154 194 241 272 340
#     4  12  21  34  64  87 115 151 192 227 298 332
#     4   9  19  39  57  86 112 146 191 245 264 337
#     4  10  22  41  58  83 121 145 193 236 287 330
#
# _framework density 19.907152
#
# number of rings (size 3 to 8) (size 9 to 14) (size 15 to 20)
#    0.857    1.143    1.429    1.714    4.000    4.000 
#    0.000    0.000    0.000    0.000    0.000    0.000 
#    0.000    0.000    0.000    0.000    0.000    0.000 
#
# Total GULP energy -78135.100321 kJ/mol
# GULP energy per Si atom -5581.078594 kJ/mol
# Density = 1.986184 g / cm^3
# Si number density = 19.907152 Si / 1000 Ang^3
#
#
#
# Elastic Constant Matrix: (Units=GPa)
#
#
# Indices 1 2 3 4 5 6 
#
# 1 56.5206 30.0857 8.5330 -5.1446 -14.6984 22.6154
# 2 30.0857 66.7899 13.2397 -22.5945 2.1327 17.9383
# 3 8.5330 13.2397 83.5490 -26.7497 -2.4763 -1.0202
# 4 -5.1446 -22.5945 -26.7497 33.9689 -7.5882 -6.9607
# 5 -14.6984 2.1327 -2.4763 -7.5882 23.5099 -6.8328
# 6 22.6154 17.9383 -1.0202 -6.9607 -6.8328 32.7387
#
#
#
# Elastic Compliance Matrix: (Units=1/GPa)
#
#
# Indices 1 2 3 4 5 6 
#
# 1 0.035111 -0.013673 -0.002690 -0.005008 0.017125 -0.014337
# 2 -0.013673 0.027042 0.001612 0.014854 -0.007097 -0.003645
# 3 -0.002690 0.001612 0.018134 0.018184 0.008008 0.007078
# 4 -0.005008 0.014854 0.018184 0.060146 0.020622 0.012979
# 5 0.017125 -0.007097 0.008008 0.020622 0.064326 0.010118
# 6 -0.014337 -0.003645 0.007078 0.012979 0.010118 0.047537
#
#
# Mechanical properties :
#
#
# Convention : Reuss Voigt Hill
#
# Bulk Modulus (GPa) = 19.69067 34.50847 27.09957
# Shear Modulus (GPa) = 16.73769 28.37690 22.55730
#
# Velocity S-wave (km/s) = 2.90278 3.77963 3.36984
# Velocity P-wave (km/s) = 4.59865 6.03488 5.36504
#
# Compressibility (1/GPa) = 0.05078549
#
# Stress axis : x y z
#
# Youngs Moduli (GPa) = 28.48107 36.97924 55.14479
#
# Poissons Ratio (x) = 0.50561 0.14834
# Poissons Ratio (y) = 0.38942 -0.08889
# Poissons Ratio (z) = 0.07661 -0.05961
#
# Static dielectric constant tensor:
#      x y z
#    x 1.700690 -0.015110 -0.017120 
#    y -0.015110 1.725340 -0.031080 
#    z -0.017120 -0.031080 1.720000 
# 
# From -- ./inp_files/457146.got.cif
#   From: 2010.05.17/outbox.cif.g08.bks.cpg/sg2_229_cif.got.tgz:457146.got - 2010.06.03 11:33:40.
