data_PCOD9003239
_publ_section_title
;
Structure prediction by ZEFSAII (Michael W. Deem and Ramdas Pophale) SiO2 
 PCOD9003239
Probable space group: P -1
;
_chemical_formula_sum "Si O2"
_cell_formula_units_Z 16
_cell_length_a 6.288011
_cell_length_b 7.362043
_cell_length_c 20.093991
_cell_angle_alpha 120.107303
_cell_angle_beta 94.532783
_cell_angle_gamma 118.248805
_cell_volume 644.860039
_symmetry_space_group_name_H-M "P -1"
_symmetry_group_IT_number 2
_symmetry_cell_setting 'triclinic'
loop_
_space_group_symop_operation_xyz
x,y,z
-x,-y,-z
loop_
_atom_site_type_symbol
_atom_site_label
_atom_site_fract_x
_atom_site_fract_y
_atom_site_fract_z
Si Si1 0.367572 0.200060 0.267730
Si Si2 0.201116 0.567864 0.936375
Si Si3 0.203351 0.099307 0.855062
Si Si4 0.508016 0.080386 0.108315
Si Si5 0.740136 0.267355 0.490174
Si Si6 0.349855 0.735185 0.210086
Si Si7 0.152249 0.955550 0.437361
Si Si8 0.636920 0.740474 0.338727
O O1 0.469101 0.182154 0.194027
O O2 0.528464 0.502786 0.343546
O O3 0.400053 0.012154 0.278452
O O4 0.062754 0.078280 0.226720
O O5 0.211300 0.341883 0.925356
O O6 0.432436 0.733666 0.917386
O O7 0.935531 0.437861 0.862948
O O8 0.259836 0.785401 0.030271
O O9 0.444158 0.208828 0.830966
O O10 0.250179 0.944232 0.881111
O O11 0.819112 0.257112 0.566802
O O12 0.000000 0.500000 0.500000
O O13 0.449304 0.206651 0.473303
O O14 0.668578 0.997696 0.409060
O O15 0.423117 0.632419 0.254769
O O16 0.940043 0.841354 0.351214
O O17 0.000000 0.000000 0.500000
#
# Coordination Sequence:
#
# PCOD9003239 Si02
#       8
#     2   2   2   2   2   2   2   2
#     4  10  23  39  58  89 126 163 208 258 317 376
#     4  10  21  37  59  84 118 160 217 263 315 368
#     4  10  21  38  57  85 122 160 218 256 317 372
#     4  10  21  37  59  83 117 164 211 270 311 368
#     4  10  23  44  72 102 133 169 216 265 320 392
#     4  10  23  39  58  91 123 166 208 256 317 379
#     4   9  22  44  68 102 134 167 212 264 317 387
#     4  11  23  41  65  93 128 168 204 260 314 384
#
# _framework density 24.811585000000001
#
# number of rings (size 3 to 8) (size 9 to 14) (size 15 to 20)
#    0.000    2.000    0.000    1.875    1.750   12.500 
#    4.500    3.125    0.000    0.000    0.000    0.000 
#    0.000    0.000    0.000    0.000    0.000    0.000 
#
# Total GULP energy -89361.249975 kJ/mol
# GULP energy per Si atom -5585.078123 kJ/mol
# Density = 2.475511 g / cm^3
# Si number density = 24.811585 Si / 1000 Ang^3
#
#
#
# Elastic Constant Matrix: (Units=GPa)
#
#
# Indices 1 2 3 4 5 6 
#
# 1 123.5825 40.6701 44.2187 20.1179 27.1523 3.3551
# 2 40.6701 90.9529 20.6799 24.0340 -2.3276 0.2084
# 3 44.2187 20.6799 81.3590 21.2447 10.5292 -4.8077
# 4 20.1179 24.0340 21.2447 42.8922 -7.2015 7.0487
# 5 27.1523 -2.3276 10.5292 -7.2015 39.4891 -2.8674
# 6 3.3551 0.2084 -4.8077 7.0487 -2.8674 42.0665
#
#
#
# Elastic Compliance Matrix: (Units=1/GPa)
#
#
# Indices 1 2 3 4 5 6 
#
# 1 0.013734 -0.004588 -0.004446 -0.002930 -0.009188 -0.001716
# 2 -0.004588 0.014653 -0.000039 -0.005763 0.003084 0.001465
# 3 -0.004446 -0.000039 0.017192 -0.007406 -0.002635 0.003381
# 4 -0.002930 -0.005763 -0.007406 0.034103 0.009458 -0.005654
# 5 -0.009188 0.003084 -0.002635 0.009458 0.034335 0.001172
# 6 -0.001716 0.001465 0.003381 -0.005654 0.001172 0.025315
#
#
# Mechanical properties :
#
#
# Convention : Reuss Voigt Hill
#
# Bulk Modulus (GPa) = 36.45019 56.33685 46.39352
# Shear Modulus (GPa) = 30.00793 37.57795 33.79294
#
# Velocity S-wave (km/s) = 3.48146 3.89592 3.69451
# Velocity P-wave (km/s) = 5.55729 6.55689 6.07767
#
# Compressibility (1/GPa) = 0.02743470
#
# Stress axis : x y z
#
# Youngs Moduli (GPa) = 72.80990 68.24430 58.16601
#
# Poissons Ratio (x) = 0.31307 0.25860
# Poissons Ratio (y) = 0.33402 0.00227
# Poissons Ratio (z) = 0.32371 0.00267
#
# Static dielectric constant tensor:
#      x y z
#    x 1.999380 -0.010500 0.021960 
#    y -0.010500 1.994300 -0.019830 
#    z 0.021960 -0.019830 2.062150 
# 
# From -- ./inp_files/604071.got.cif
#   From: 2010.05.17/outbox.cif.g08.bks.cpg/sg2_303_cif.got.tgz:604071.got - 2010.06.03 11:33:40.
