data_PCOD9003831
_publ_section_title
;
Structure prediction by ZEFSAII (Michael W. Deem and Ramdas Pophale) SiO2 
 PCOD9003831
Probable space group: P -1
;
_chemical_formula_sum "Si O2"
_cell_formula_units_Z 16
_cell_length_a 23.765539
_cell_length_b 5.080386
_cell_length_c 6.608656
_cell_angle_alpha 75.718249
_cell_angle_beta 124.336804
_cell_angle_gamma 98.123921
_cell_volume 638.503511
_symmetry_space_group_name_H-M "P -1"
_symmetry_group_IT_number 2
_symmetry_cell_setting 'triclinic'
loop_
_space_group_symop_operation_xyz
x,y,z
-x,-y,-z
loop_
_atom_site_type_symbol
_atom_site_label
_atom_site_fract_x
_atom_site_fract_y
_atom_site_fract_z
Si Si1 0.663908 0.401895 0.628749
Si Si2 0.580576 0.114052 0.152940
Si Si3 0.768206 0.641298 0.026531
Si Si4 0.057640 0.824782 0.892981
Si Si5 0.431180 0.412017 0.289305
Si Si6 0.658451 0.921286 0.013429
Si Si7 0.088500 0.263340 0.204260
Si Si8 0.850846 0.103588 0.281930
O O1 0.618287 0.243162 0.402551
O O2 0.613290 0.607834 0.595414
O O3 0.680064 0.186846 0.885301
O O4 0.734862 0.569240 0.752809
O O5 0.582560 0.370901 0.955084
O O6 0.500000 0.000000 0.000000
O O7 0.640552 0.925923 0.210815
O O8 0.808710 0.924819 0.066186
O O9 0.817625 0.389289 0.219336
O O10 0.709618 0.693766 0.072261
O O11 0.979970 0.742734 0.796234
O O12 0.077784 0.844612 0.696218
O O13 0.102381 0.575161 0.120758
O O14 0.071741 0.096903 0.997654
O O15 0.500000 0.500000 0.500000
O O16 0.418960 0.127413 0.214906
O O17 0.142519 0.093019 0.474922
#
# Coordination Sequence:
#
# PCOD9003831 Si02
#       8
#     2   2   2   2   2   2   2   2
#     4  10  22  43  62  90 133 175 217 284 345 410
#     4  11  23  39  68 102 124 169 229 282 357 432
#     4  11  24  44  69  93 138 187 238 284 342 420
#     4  10  22  42  68 110 144 184 233 297 352 411
#     4  10  21  37  62  92 127 161 207 278 346 415
#     4  10  22  43  62  88 134 174 216 285 347 407
#     4  10  22  42  70 104 151 181 231 298 357 405
#     4  12  23  44  73 101 137 196 244 282 348 420
#
# _framework density 25.058591
#
# number of rings (size 3 to 8) (size 9 to 14) (size 15 to 20)
#    0.000    1.500    1.250    3.375    0.000    6.000 
#    2.250   11.250    0.000    0.000    0.000    0.000 
#    0.000    0.000    0.000    0.000    0.000    0.000 
#
# Total GULP energy -89091.747035 kJ/mol
# GULP energy per Si atom -5568.234190 kJ/mol
# Density = 2.500156 g / cm^3
# Si number density = 25.058591 Si / 1000 Ang^3
#
#
#
# Elastic Constant Matrix: (Units=GPa)
#
#
# Indices 1 2 3 4 5 6 
#
# 1 63.5554 4.3485 3.7960 -1.1054 -13.1558 -9.9261
# 2 4.3485 93.5849 8.7480 9.6577 -7.5158 -9.3319
# 3 3.7960 8.7480 67.6213 0.7060 -18.8247 -11.9844
# 4 -1.1054 9.6577 0.7060 33.6971 3.9254 4.0816
# 5 -13.1558 -7.5158 -18.8247 3.9254 27.8123 0.9500
# 6 -9.9261 -9.3319 -11.9844 4.0816 0.9500 29.3553
#
#
#
# Elastic Compliance Matrix: (Units=1/GPa)
#
#
# Indices 1 2 3 4 5 6 
#
# 1 0.019096 0.000720 0.003507 -0.001977 0.011606 0.008017
# 2 0.000720 0.011887 0.000523 -0.004475 0.004377 0.004716
# 3 0.003507 0.000523 0.020754 -0.003521 0.016010 0.009796
# 4 -0.001977 -0.004475 -0.003521 0.032953 -0.008912 -0.007822
# 5 0.011606 0.004377 0.016010 -0.008912 0.054335 0.011333
# 6 0.008017 0.004716 0.009796 -0.007822 0.011333 0.042996
#
#
# Mechanical properties :
#
#
# Convention : Reuss Voigt Hill
#
# Bulk Modulus (GPa) = 16.32981 28.72742 22.52861
# Shear Modulus (GPa) = 25.91593 32.03087 28.97340
#
# Velocity S-wave (km/s) = 3.21941 3.57913 3.40402
# Velocity P-wave (km/s) = 4.51112 5.34501 4.94568
#
# Compressibility (1/GPa) = 0.06123770
#
# Stress axis : x y z
#
# Youngs Moduli (GPa) = 52.36757 84.12677 48.18463
#
# Poissons Ratio (x) = -0.06060 -0.16900
# Poissons Ratio (y) = -0.03772 -0.02520
# Poissons Ratio (z) = -0.18367 -0.04400
#
# Static dielectric constant tensor:
#      x y z
#    x 2.105130 0.018470 0.033070 
#    y 0.018470 2.079070 -0.014250 
#    z 0.033070 -0.014250 2.001730 
# 
# From -- ./inp_files/125582.got.cif
#   From: 2010.05.17/outbox.cif.g08.bks.cpg/sg2_63_cif.got.tgz:125582.got - 2010.06.03 11:33:40.
