data_PCOD9003965
_publ_section_title
;
Structure prediction by ZEFSAII (Michael W. Deem and Ramdas Pophale) SiO2 
 PCOD9003965
Probable space group: P -1
;
_chemical_formula_sum "Si O2"
_cell_formula_units_Z 14
_cell_length_a 18.803736
_cell_length_b 5.225354
_cell_length_c 10.729053
_cell_angle_alpha 83.719326
_cell_angle_beta 43.014579
_cell_angle_gamma 100.199189
_cell_volume 661.481946
_symmetry_space_group_name_H-M "P -1"
_symmetry_group_IT_number 2
_symmetry_cell_setting 'triclinic'
loop_
_space_group_symop_operation_xyz
x,y,z
-x,-y,-z
loop_
_atom_site_type_symbol
_atom_site_label
_atom_site_fract_x
_atom_site_fract_y
_atom_site_fract_z
Si Si1 0.036060 0.866164 0.342117
Si Si2 0.817481 0.350396 0.693323
Si Si3 0.572420 0.981079 0.591270
Si Si4 0.937333 0.946758 0.215496
Si Si5 0.786582 0.292153 0.463175
Si Si6 0.338937 0.556006 0.925148
Si Si7 0.378877 0.112793 0.726910
O O1 0.938016 0.560766 0.478485
O O2 0.025356 0.995087 0.216178
O O3 0.150696 0.839330 0.238738
O O4 0.000000 0.000000 0.500000
O O5 0.759106 0.211770 0.648395
O O6 0.747797 0.502876 0.847104
O O7 0.670949 0.163647 0.543189
O O8 0.507489 0.162083 0.600483
O O9 0.467175 0.727367 0.799004
O O10 0.621539 0.856744 0.421793
O O11 0.847629 0.626382 0.352737
O O12 0.871078 0.150004 0.313626
O O13 0.000000 0.000000 0.000000
O O14 0.338295 0.309101 0.851626
O O15 0.316829 0.786902 0.855605
#
# Coordination Sequence:
#
# PCOD9003965 Si02
#       7
#     2   2   2   2   2   2   2
#     4  10  21  43  66  85 131 166 211 267 315 373
#     4  10  23  40  63  95 122 173 214 257 321 377
#     4   9  22  39  62  88 132 162 206 257 319 374
#     4  11  25  45  65  97 127 164 219 261 319 383
#     4  11  24  41  67  92 132 169 201 267 326 371
#     4  10  21  37  63  90 125 158 220 252 299 391
#     4   9  21  38  58  87 130 163 208 254 314 368
#
# _framework density 21.164601000000001
#
# number of rings (size 3 to 8) (size 9 to 14) (size 15 to 20)
#    0.857    1.143    1.429    0.857    4.000    1.714 
#    2.571    0.714    0.000    0.000    0.000    0.000 
#    0.000    0.000    0.000    0.000    0.000    0.000 
#
# Total GULP energy -78052.891352 kJ/mol
# GULP energy per Si atom -5575.206525 kJ/mol
# Density = 2.111643 g / cm^3
# Si number density = 21.164601 Si / 1000 Ang^3
#
#
#
# Elastic Constant Matrix: (Units=GPa)
#
#
# Indices 1 2 3 4 5 6 
#
# 1 111.2796 13.9200 32.1349 8.8226 26.1161 19.3789
# 2 13.9200 99.0556 18.6927 25.3108 -4.2230 4.5686
# 3 32.1349 18.6927 105.1051 27.4250 8.6097 0.7051
# 4 8.8226 25.3108 27.4250 44.2387 4.1248 -1.7072
# 5 26.1161 -4.2230 8.6097 4.1248 21.0903 2.8207
# 6 19.3789 4.5686 0.7051 -1.7072 2.8207 18.7819
#
#
#
# Elastic Compliance Matrix: (Units=1/GPa)
#
#
# Indices 1 2 3 4 5 6 
#
# 1 0.016887 -0.002159 -0.003503 0.001207 -0.018289 -0.013911
# 2 -0.002159 0.012787 -0.000221 -0.007516 0.007145 -0.002631
# 3 -0.003503 -0.000221 0.012351 -0.006755 0.000230 0.002555
# 4 0.001207 -0.007516 -0.006755 0.031697 -0.007081 0.004781
# 5 -0.018289 0.007145 0.000230 -0.007081 0.072027 0.005663
# 6 -0.013911 -0.002631 0.002555 0.004781 0.005663 0.067724
#
#
# Mechanical properties :
#
#
# Convention : Reuss Voigt Hill
#
# Bulk Modulus (GPa) = 33.04567 49.43727 41.24147
# Shear Modulus (GPa) = 21.24746 33.53504 27.39125
#
# Velocity S-wave (km/s) = 3.17190 3.98488 3.60140
# Velocity P-wave (km/s) = 5.39093 6.67694 6.06810
#
# Compressibility (1/GPa) = 0.03026115
#
# Stress axis : x y z
#
# Youngs Moduli (GPa) = 59.21758 78.20510 80.96567
#
# Poissons Ratio (x) = 0.16882 0.28359
# Poissons Ratio (y) = 0.12783 0.01786
# Poissons Ratio (z) = 0.20741 0.01725
#
# Static dielectric constant tensor:
#      x y z
#    x 1.798050 0.001090 0.008710 
#    y 0.001090 1.821100 -0.028130 
#    z 0.008710 -0.028130 1.818090 
# 
# From -- ./inp_files/323522.got.cif
#   From: 2010.05.17/outbox.cif.g08.bks.cpg/sg2_162_cif.got.tgz:323522.got - 2010.06.03 11:33:40.
