data_PCOD9003048
_publ_section_title
;
Structure prediction by ZEFSAII (Michael W. Deem and Ramdas Pophale) SiO2 
 PCOD9003048
Probable space group: P -1
;
_chemical_formula_sum "Si O2"
_cell_formula_units_Z 14
_cell_length_a 12.941711
_cell_length_b 15.391033
_cell_length_c 9.732594
_cell_angle_alpha 111.989704
_cell_angle_beta 84.684635
_cell_angle_gamma 154.220770
_cell_volume 621.638239
_symmetry_space_group_name_H-M "P -1"
_symmetry_group_IT_number 2
_symmetry_cell_setting 'triclinic'
loop_
_space_group_symop_operation_xyz
x,y,z
-x,-y,-z
loop_
_atom_site_type_symbol
_atom_site_label
_atom_site_fract_x
_atom_site_fract_y
_atom_site_fract_z
Si Si1 0.088601 0.480742 0.159219
Si Si2 0.062530 0.675688 0.600053
Si Si3 0.596114 0.654108 0.694527
Si Si4 0.307141 0.869011 0.255444
Si Si5 0.766444 0.771974 0.045032
Si Si6 0.599646 0.844878 0.142962
Si Si7 0.188072 0.476435 0.719040
O O1 0.023073 0.415903 0.287929
O O2 0.186274 0.667944 0.213133
O O3 0.361866 0.645981 0.177777
O O4 0.814611 0.224193 0.939619
O O5 0.822873 0.471274 0.386256
O O6 0.339843 0.844942 0.622687
O O7 0.176804 0.880262 0.703694
O O8 0.500000 0.500000 0.500000
O O9 0.324710 0.492245 0.671715
O O10 0.702590 0.696376 0.848507
O O11 0.893871 0.965238 0.800553
O O12 0.141522 0.803173 0.335633
O O13 0.740954 0.862669 0.122343
O O14 0.500000 0.500000 0.000000
O O15 0.404817 0.699241 0.943006
#
# Coordination Sequence:
#
# PCOD9003048 Si02
#       7
#     2   2   2   2   2   2   2
#     4   9  19  35  59  84 113 153 195 238 291 354
#     4  11  20  36  62  84 114 160 195 237 297 355
#     4  10  22  41  62  89 124 158 201 256 305 360
#     4   9  19  37  54  84 122 151 194 244 291 352
#     4  10  22  41  65  89 119 162 204 249 307 364
#     4   9  21  39  56  84 120 148 192 248 295 352
#     4  10  21  37  57  84 119 153 192 244 298 351
#
# _framework density 22.521137
#
# number of rings (size 3 to 8) (size 9 to 14) (size 15 to 20)
#    0.000    2.286    0.000    2.571    0.000    5.714 
#    0.000   14.286    0.000    0.000    0.000    0.000 
#    0.000    0.000    0.000    0.000    0.000    0.000 
#
# Total GULP energy -78278.957575 kJ/mol
# GULP energy per Si atom -5591.354113 kJ/mol
# Density = 2.246988 g / cm^3
# Si number density = 22.521137 Si / 1000 Ang^3
#
#
#
# Elastic Constant Matrix: (Units=GPa)
#
#
# Indices 1 2 3 4 5 6 
#
# 1 76.1028 42.3638 33.7359 -9.9575 -8.8998 27.5260
# 2 42.3638 118.1919 57.8814 -22.7691 3.7137 20.3580
# 3 33.7359 57.8814 123.4622 -20.5135 -2.1877 9.9833
# 4 -9.9575 -22.7691 -20.5135 20.4331 -2.5106 -5.0827
# 5 -8.8998 3.7137 -2.1877 -2.5106 32.9008 -4.5796
# 6 27.5260 20.3580 9.9833 -5.0827 -4.5796 40.7953
#
#
#
# Elastic Compliance Matrix: (Units=1/GPa)
#
#
# Indices 1 2 3 4 5 6 
#
# 1 0.021418 -0.004519 -0.002672 0.000566 0.004645 -0.010951
# 2 -0.004519 0.014107 -0.003776 0.008829 -0.002708 -0.002270
# 3 -0.002672 -0.003776 0.011594 0.006737 0.001243 0.001829
# 4 0.000566 0.008829 0.006737 0.067059 0.005068 0.002488
# 5 0.004645 -0.002708 0.001243 0.005068 0.032735 0.002219
# 6 -0.010951 -0.002270 0.001829 0.002488 0.002219 0.033146
#
#
# Mechanical properties :
#
#
# Convention : Reuss Voigt Hill
#
# Bulk Modulus (GPa) = 39.70772 65.07992 52.39382
# Shear Modulus (GPa) = 23.76560 31.07757 27.42158
#
# Velocity S-wave (km/s) = 3.25200 3.71877 3.49319
# Velocity P-wave (km/s) = 5.63651 6.88469 6.29163
#
# Compressibility (1/GPa) = 0.02518402
#
# Stress axis : x y z
#
# Youngs Moduli (GPa) = 46.68893 70.88718 86.25446
#
# Poissons Ratio (x) = 0.32035 0.23047
# Poissons Ratio (y) = 0.21100 0.32571
# Poissons Ratio (z) = 0.12475 0.26768
#
# Static dielectric constant tensor:
#      x y z
#    x 1.840610 0.021550 0.001330 
#    y 0.021550 1.878020 0.035550 
#    z 0.001330 0.035550 1.832950 
# 
# From -- ./inp_files/317757.got.cif
#   From: 2010.05.17/outbox.cif.g08.bks.cpg/sg2_159_cif.got.tgz:317757.got - 2010.06.03 11:33:40.
