data_PCOD9003095
_publ_section_title
;
Structure prediction by ZEFSAII (Michael W. Deem and Ramdas Pophale) SiO2 
 PCOD9003095
Probable space group: P -1
;
_chemical_formula_sum "Si O2"
_cell_formula_units_Z 16
_cell_length_a 8.411905
_cell_length_b 17.419567
_cell_length_c 20.501396
_cell_angle_alpha 19.327186
_cell_angle_beta 115.392484
_cell_angle_gamma 124.701943
_cell_volume 749.716019
_symmetry_space_group_name_H-M "P -1"
_symmetry_group_IT_number 2
_symmetry_cell_setting 'triclinic'
loop_
_space_group_symop_operation_xyz
x,y,z
-x,-y,-z
loop_
_atom_site_type_symbol
_atom_site_label
_atom_site_fract_x
_atom_site_fract_y
_atom_site_fract_z
Si Si1 0.321772 0.029984 0.475909
Si Si2 0.107702 0.786885 0.057131
Si Si3 0.822002 0.686349 0.200866
Si Si4 0.049308 0.571234 0.073815
Si Si5 0.259223 0.488694 0.396134
Si Si6 0.699190 0.559565 0.417416
Si Si7 0.977926 0.979425 0.363033
Si Si8 0.383763 0.451648 0.254871
O O1 0.145173 0.747591 0.708326
O O2 0.500000 0.000000 0.500000
O O3 0.412478 0.282054 0.339914
O O4 0.190718 0.065470 0.368038
O O5 0.044654 0.673489 0.064223
O O6 0.278026 0.725726 0.163099
O O7 0.917398 0.622965 0.206743
O O8 0.190904 0.109609 0.816211
O O9 0.771880 0.514713 0.396661
O O10 0.605656 0.651639 0.168659
O O11 0.000000 0.000000 0.000000
O O12 0.269082 0.592278 0.091936
O O13 0.031438 0.761559 0.866344
O O14 0.453340 0.449136 0.458174
O O15 0.251804 0.551830 0.420202
O O16 0.060794 0.204011 0.561123
O O17 0.786278 0.770090 0.545250
#
# Coordination Sequence:
#
# PCOD9003095 Si02
#       8
#     2   2   2   2   2   2   2   2
#     4  11  25  44  70  94 128 163 202 259 324 378
#     4  11  20  36  62  87 124 170 203 257 312 362
#     4  10  22  40  60  91 131 168 211 256 315 373
#     4  11  22  41  68  96 125 164 214 259 309 373
#     4  11  20  36  62  88 122 163 211 255 309 369
#     4  10  21  37  57  90 124 165 212 255 305 370
#     4  11  22  41  67  96 126 164 211 261 310 373
#     4  11  23  43  66  93 126 167 212 260 311 372
#
# _framework density 21.341412999999999
#
# number of rings (size 3 to 8) (size 9 to 14) (size 15 to 20)
#    0.000    1.250    5.000    2.625    0.000    4.000 
#    0.000    3.750    0.000    0.000    0.000    0.000 
#    0.000    0.000    0.000    0.000    0.000    0.000 
#
# Total GULP energy -89417.963159 kJ/mol
# GULP energy per Si atom -5588.622697 kJ/mol
# Density = 2.129284 g / cm^3
# Si number density = 21.341413 Si / 1000 Ang^3
#
#
#
# Elastic Constant Matrix: (Units=GPa)
#
#
# Indices 1 2 3 4 5 6 
#
# 1 100.7898 46.4772 9.1950 2.1789 0.9954 2.3492
# 2 46.4772 107.0513 30.5865 4.8079 -4.4966 22.5245
# 3 9.1950 30.5865 59.2097 16.6360 10.6976 15.3027
# 4 2.1789 4.8079 16.6360 37.6639 1.7587 2.0772
# 5 0.9954 -4.4966 10.6976 1.7587 22.3566 -1.6698
# 6 2.3492 22.5245 15.3027 2.0772 -1.6698 29.7414
#
#
#
# Elastic Compliance Matrix: (Units=1/GPa)
#
#
# Indices 1 2 3 4 5 6 
#
# 1 0.012852 -0.006675 0.001095 -0.000461 -0.002149 0.003389
# 2 -0.006675 0.016000 -0.006673 0.001448 0.006003 -0.007921
# 3 0.001095 -0.006673 0.028296 -0.010483 -0.014829 -0.009692
# 4 -0.000461 0.001448 -0.010483 0.030748 0.003085 0.002359
# 5 -0.002149 0.006003 -0.014829 0.003085 0.053336 0.006033
# 6 0.003389 -0.007921 -0.009692 0.002359 0.006033 0.044515
#
#
# Mechanical properties :
#
#
# Convention : Reuss Voigt Hill
#
# Bulk Modulus (GPa) = 30.63638 48.84092 39.73865
# Shear Modulus (GPa) = 22.61076 30.00519 26.30797
#
# Velocity S-wave (km/s) = 3.25849 3.75368 3.51482
# Velocity P-wave (km/s) = 5.34262 6.45926 5.92729
#
# Compressibility (1/GPa) = 0.03264093
#
# Stress axis : x y z
#
# Youngs Moduli (GPa) = 77.80830 62.50171 35.34127
#
# Poissons Ratio (x) = 0.41721 -0.03868
# Poissons Ratio (y) = 0.51938 0.23582
# Poissons Ratio (z) = -0.08516 0.41704
#
# Static dielectric constant tensor:
#      x y z
#    x 1.803270 -0.024810 -0.007660 
#    y -0.024810 1.787300 -0.004020 
#    z -0.007660 -0.004020 1.781720 
# 
# From -- ./inp_files/307026.got.cif
#   From: 2010.05.17/outbox.cif.g08.bks.cpg/sg2_154_cif.got.tgz:307026.got - 2010.06.03 11:33:40.
