data_PCOD9003787
_publ_section_title
;
Structure prediction by ZEFSAII (Michael W. Deem and Ramdas Pophale) SiO2 
 PCOD9003787
Probable space group: P -1
;
_chemical_formula_sum "Si O2"
_cell_formula_units_Z 14
_cell_length_a 9.453807
_cell_length_b 5.124672
_cell_length_c 14.377094
_cell_angle_alpha 91.755679
_cell_angle_beta 53.708258
_cell_angle_gamma 102.486744
_cell_volume 543.928899
_symmetry_space_group_name_H-M "P -1"
_symmetry_group_IT_number 2
_symmetry_cell_setting 'triclinic'
loop_
_space_group_symop_operation_xyz
x,y,z
-x,-y,-z
loop_
_atom_site_type_symbol
_atom_site_label
_atom_site_fract_x
_atom_site_fract_y
_atom_site_fract_z
Si Si1 0.725652 0.439420 0.765442
Si Si2 0.552259 0.822309 0.339167
Si Si3 0.822562 0.569477 0.944915
Si Si4 0.237324 0.606499 0.765983
Si Si5 0.906116 0.986302 0.634806
Si Si6 0.750770 0.146702 0.425061
Si Si7 0.609798 0.000125 0.056045
O O1 0.766763 0.511829 0.858034
O O2 0.741981 0.719543 0.708176
O O3 0.537706 0.214441 0.829862
O O4 0.864533 0.268945 0.676157
O O5 0.644942 0.601661 0.261204
O O6 0.339878 0.786063 0.443034
O O7 0.643379 0.097323 0.254926
O O8 0.626451 0.886407 0.418024
O O9 0.031361 0.565949 0.878211
O O10 0.775930 0.854843 0.983753
O O11 0.694286 0.315590 0.045766
O O12 0.228427 0.619669 0.656325
O O13 0.057023 0.919358 0.642209
O O14 0.000000 0.000000 0.500000
O O15 0.500000 0.000000 0.000000
#
# Coordination Sequence:
#
# PCOD9003787 Si02
#       7
#     2   2   2   2   2   2   2
#     4  11  20  37  48  66 104 134 172 213 242 284
#     4   9  18  29  47  71  92 138 154 197 262 297
#     4  11  18  30  50  77  99 130 161 202 260 315
#     4  10  17  28  46  72 100 124 154 192 254 302
#     4  12  24  35  51  72  99 145 182 201 232 288
#     4   9  20  30  49  65 102 129 168 200 246 291
#     4  10  20  29  49  73  97 131 168 199 257 311
#
# _framework density 25.738658999999998
#
# number of rings (size 3 to 8) (size 9 to 14) (size 15 to 20)
#    0.857    0.857    1.429    6.857    0.000    0.000 
#    0.000    0.000    0.000    0.000    0.000    0.000 
#    0.000   22.857    0.000    0.000    0.000    0.000 
#
# Total GULP energy -78271.801278 kJ/mol
# GULP energy per Si atom -5590.842948 kJ/mol
# Density = 2.568008 g / cm^3
# Si number density = 25.738659 Si / 1000 Ang^3
#
#
#
# Elastic Constant Matrix: (Units=GPa)
#
#
# Indices 1 2 3 4 5 6 
#
# 1 63.7389 1.9231 0.4934 7.6573 -8.2961 7.6299
# 2 1.9231 107.5271 -12.6487 24.9393 7.7519 -0.1334
# 3 0.4934 -12.6487 64.0543 -3.8217 -1.4526 16.6816
# 4 7.6573 24.9393 -3.8217 45.3721 -12.1520 -18.3779
# 5 -8.2961 7.7519 -1.4526 -12.1520 41.8610 -6.7540
# 6 7.6299 -0.1334 16.6816 -18.3779 -6.7540 17.0233
#
#
#
# Elastic Compliance Matrix: (Units=1/GPa)
#
#
# Indices 1 2 3 4 5 6 
#
# 1 0.003565 -0.017156 -0.023079 0.052269 0.032832 0.090338
# 2 -0.017156 -0.011571 -0.029087 0.065868 0.036488 0.121688
# 3 -0.023079 -0.029087 -0.025197 0.098275 0.054702 0.162606
# 4 0.052269 0.065868 0.098275 -0.203059 -0.119637 -0.385898
# 5 0.032832 0.036488 0.054702 -0.119637 -0.043814 -0.214574
# 6 0.090338 0.121688 0.162606 -0.385898 -0.214574 -0.641874
#
#
# Mechanical properties :
#
#
# Convention : Reuss Voigt Hill
#
# Bulk Modulus (GPa) = -5.81912 23.87286 9.02687
# Shear Modulus (GPa) = -5.94821 37.22143 15.63661
#
# Velocity S-wave (km/s) = -1.52185 3.80693 2.46746
# Velocity P-wave (km/s) = 2.31382 5.34966 3.41065
#
# Compressibility (1/GPa) = -0.17184725
#
# Stress axis : x y z
#
# Youngs Moduli (GPa) = 280.48944 -86.41948 -39.68656
#
# Poissons Ratio (x) = -1.48266 -0.91592
# Poissons Ratio (y) = 4.81222 -1.15434
# Poissons Ratio (z) = 6.47334 -2.51364
#
# Static dielectric constant tensor:
#      x y z
#    x 2.170420 0.033350 0.024490 
#    y 0.033350 1.981790 -0.005190 
#    z 0.024490 -0.005190 2.115330 
# 
# From -- ./inp_files/563854.got.cif
#   From: 2010.05.17/outbox.cif.g08.bks.cpg/sg2_282_cif.got.tgz:563854.got - 2010.06.03 11:33:40.
