data_PCOD9003105
_publ_section_title
;
Structure prediction by ZEFSAII (Michael W. Deem and Ramdas Pophale) SiO2 
 PCOD9003105
Probable space group: P -1
;
_chemical_formula_sum "Si O2"
_cell_formula_units_Z 14
_cell_length_a 10.704123
_cell_length_b 13.832646
_cell_length_c 4.913581
_cell_angle_alpha 96.992561
_cell_angle_beta 74.199990
_cell_angle_gamma 126.165320
_cell_volume 564.450845
_symmetry_space_group_name_H-M "P -1"
_symmetry_group_IT_number 2
_symmetry_cell_setting 'triclinic'
loop_
_space_group_symop_operation_xyz
x,y,z
-x,-y,-z
loop_
_atom_site_type_symbol
_atom_site_label
_atom_site_fract_x
_atom_site_fract_y
_atom_site_fract_z
Si Si1 0.525688 0.828332 0.272023
Si Si2 0.852765 0.956648 0.864794
Si Si3 0.768995 0.466256 0.273394
Si Si4 0.989606 0.712495 0.960523
Si Si5 0.319831 0.782904 0.855143
Si Si6 0.065335 0.189232 0.498346
Si Si7 0.430742 0.575694 0.131133
O O1 0.469253 0.856927 0.588573
O O2 0.524664 0.708978 0.249224
O O3 0.701157 0.930675 0.102541
O O4 0.393404 0.797639 0.112506
O O5 0.812774 0.835472 0.706531
O O6 0.914863 0.056116 0.628164
O O7 0.000000 0.000000 0.000000
O O8 0.772179 0.351845 0.265385
O O9 0.719072 0.494893 0.594632
O O10 0.625728 0.416513 0.128764
O O11 0.916646 0.579213 0.067364
O O12 0.176990 0.797198 0.951036
O O13 0.973760 0.745589 0.677114
O O14 0.888950 0.742284 0.221209
O O15 0.500000 0.500000 0.000000
#
# Coordination Sequence:
#
# PCOD9003105 Si02
#       7
#     2   2   2   2   2   2   2
#     4  10  24  40  68  89 130 174 209 262 338 370
#     4  11  25  48  70  92 131 163 218 271 335 388
#     4  10  22  38  62  93 131 176 209 249 316 378
#     4  12  23  42  68  95 134 166 226 260 307 379
#     4  10  23  44  62  98 132 176 210 258 316 389
#     4  11  26  41  67 101 120 165 221 271 323 371
#     4  10  21  37  57  96 131 163 213 258 313 385
#
# _framework density 24.802869000000001
#
# number of rings (size 3 to 8) (size 9 to 14) (size 15 to 20)
#    0.000    1.429    1.429    2.571    8.000    0.000 
#    0.000   10.000    0.000    0.000    0.000    0.000 
#    0.000    0.000    0.000    0.000    0.000    0.000 
#
# Total GULP energy -78209.540932 kJ/mol
# GULP energy per Si atom -5586.395781 kJ/mol
# Density = 2.474642 g / cm^3
# Si number density = 24.802869 Si / 1000 Ang^3
#
#
#
# Elastic Constant Matrix: (Units=GPa)
#
#
# Indices 1 2 3 4 5 6 
#
# 1 31.4329 20.8147 29.5752 -10.4336 6.3152 -3.7062
# 2 20.8147 46.7781 12.6519 -18.0050 -2.9686 -3.5583
# 3 29.5752 12.6519 134.8280 -20.2032 16.9339 -9.4118
# 4 -10.4336 -18.0050 -20.2032 49.1044 0.7505 -0.3336
# 5 6.3152 -2.9686 16.9339 0.7505 33.4539 1.6941
# 6 -3.7062 -3.5583 -9.4118 -0.3336 1.6941 14.9080
#
#
#
# Elastic Compliance Matrix: (Units=1/GPa)
#
#
# Indices 1 2 3 4 5 6 
#
# 1 0.058434 -0.023719 -0.009206 0.000091 -0.008682 0.004042
# 2 -0.023719 0.035298 0.002773 0.008981 0.005811 0.003820
# 3 -0.009206 0.002773 0.010553 0.003497 -0.003717 0.005537
# 4 0.000091 0.008981 0.003497 0.025179 -0.001816 0.005144
# 5 -0.008682 0.005811 -0.003717 -0.001816 0.034326 -0.007059
# 6 0.004042 0.003820 0.005537 0.005144 -0.007059 0.073407
#
#
# Mechanical properties :
#
#
# Convention : Reuss Voigt Hill
#
# Bulk Modulus (GPa) = 22.73705 37.68028 30.20867
# Shear Modulus (GPa) = 16.01737 29.49308 22.75523
#
# Velocity S-wave (km/s) = 2.54399 3.45207 3.03222
# Velocity P-wave (km/s) = 4.22092 5.57799 4.94622
#
# Compressibility (1/GPa) = 0.04398108
#
# Stress axis : x y z
#
# Youngs Moduli (GPa) = 17.11347 28.33028 94.75733
#
# Poissons Ratio (x) = 0.67198 0.87229
# Poissons Ratio (y) = 0.40592 -0.26278
# Poissons Ratio (z) = 0.15754 -0.07857
#
# Static dielectric constant tensor:
#      x y z
#    x 1.948960 -0.060210 -0.048770 
#    y -0.060210 2.143020 0.013700 
#    z -0.048770 0.013700 1.946430 
# 
# From -- ./inp_files/76248.got.cif
#   From: 2010.05.17/outbox.cif.g08.bks.cpg/sg2_39_cif.got.tgz:76248.got - 2010.06.03 11:33:40.
