data_PCOD9003255
_publ_section_title
;
Structure prediction by ZEFSAII (Michael W. Deem and Ramdas Pophale) SiO2 
 PCOD9003255
Probable space group: P -1
;
_chemical_formula_sum "Si O2"
_cell_formula_units_Z 16
_cell_length_a 5.264372
_cell_length_b 21.169111
_cell_length_c 6.465555
_cell_angle_alpha 78.703564
_cell_angle_beta 108.361862
_cell_angle_gamma 86.222053
_cell_volume 664.268999
_symmetry_space_group_name_H-M "P -1"
_symmetry_group_IT_number 2
_symmetry_cell_setting 'triclinic'
loop_
_space_group_symop_operation_xyz
x,y,z
-x,-y,-z
loop_
_atom_site_type_symbol
_atom_site_label
_atom_site_fract_x
_atom_site_fract_y
_atom_site_fract_z
Si Si1 0.851435 0.678327 0.030501
Si Si2 0.502586 0.642182 0.591962
Si Si3 0.991169 0.576636 0.466498
Si Si4 0.957915 0.788819 0.730749
Si Si5 0.114226 0.873541 0.015275
Si Si6 0.437118 0.240866 0.718535
Si Si7 0.695614 0.011593 0.233322
Si Si8 0.148851 0.899973 0.485771
O O1 0.740676 0.722327 0.169090
O O2 0.963385 0.610659 0.211050
O O3 0.617021 0.664852 0.821495
O O4 0.031157 0.718629 0.901822
O O5 0.269791 0.598646 0.602000
O O6 0.399862 0.706576 0.387769
O O7 0.746904 0.605311 0.538543
O O8 0.000000 0.500000 0.500000
O O9 0.743030 0.781477 0.500789
O O10 0.164078 0.830023 0.641933
O O11 0.883772 0.836732 0.877794
O O12 0.378538 0.819847 0.097490
O O13 0.139105 0.888188 0.250141
O O14 0.111946 0.941822 0.858352
O O15 0.633642 0.057603 0.390069
O O16 0.856689 0.944990 0.399541
O O17 0.500000 0.000000 0.000000
#
# Coordination Sequence:
#
# PCOD9003255 Si02
#       8
#     2   2   2   2   2   2   2   2
#     4  10  23  41  64  93 131 169 211 265 323 385
#     4  10  24  42  67  99 134 176 219 268 324 384
#     4  11  24  44  69 100 136 175 222 270 320 386
#     4  10  21  37  59  85 116 156 200 253 313 374
#     4  11  22  36  60  85 118 159 202 261 322 384
#     4  10  22  38  59  91 123 161 209 257 315 385
#     4  10  22  38  55  79 114 156 201 255 321 385
#     4  10  22  38  56  85 115 150 205 258 315 388
#
# _framework density 24.08663
#
# number of rings (size 3 to 8) (size 9 to 14) (size 15 to 20)
#    0.000    1.750    0.000    3.000    0.000   13.500 
#    0.000    0.000    0.000    0.000    0.000    0.000 
#    0.000    0.000    0.000    0.000    0.000    0.000 
#
# Total GULP energy -89297.152096 kJ/mol
# GULP energy per Si atom -5581.072006 kJ/mol
# Density = 2.403181 g / cm^3
# Si number density = 24.086630 Si / 1000 Ang^3
#
#
#
# Elastic Constant Matrix: (Units=GPa)
#
#
# Indices 1 2 3 4 5 6 
#
# 1 65.8020 38.3472 30.1051 2.7506 5.2673 5.5803
# 2 38.3472 95.7870 79.1041 -8.2527 -1.0304 18.8386
# 3 30.1051 79.1041 199.7274 10.2879 22.5399 5.9191
# 4 2.7506 -8.2527 10.2879 46.2845 14.5148 0.7360
# 5 5.2673 -1.0304 22.5399 14.5148 27.9153 2.6949
# 6 5.5803 18.8386 5.9191 0.7360 2.6949 38.1356
#
#
#
# Elastic Compliance Matrix: (Units=1/GPa)
#
#
# Indices 1 2 3 4 5 6 
#
# 1 0.020703 -0.010114 0.001447 -0.001931 -0.004647 0.002108
# 2 -0.010114 0.024378 -0.009057 0.004355 0.008809 -0.009863
# 3 0.001447 -0.009057 0.009210 -0.001406 -0.007641 0.003400
# 4 -0.001931 0.004355 -0.001406 0.026609 -0.012048 -0.001313
# 5 -0.004647 0.008809 -0.007641 -0.012048 0.050018 -0.005787
# 6 0.002108 -0.009863 0.003400 -0.001313 -0.005787 0.030693
#
#
# Mechanical properties :
#
#
# Convention : Reuss Voigt Hill
#
# Bulk Modulus (GPa) = 53.07059 72.93658 63.00359
# Shear Modulus (GPa) = 24.58946 36.71775 30.65361
#
# Velocity S-wave (km/s) = 3.19858 3.90860 3.57128
# Velocity P-wave (km/s) = 5.97681 7.12153 6.57413
#
# Compressibility (1/GPa) = 0.01884283
#
# Stress axis : x y z
#
# Youngs Moduli (GPa) = 48.30161 41.02052 108.58007
#
# Poissons Ratio (x) = 0.41487 -0.15706
# Poissons Ratio (y) = 0.48851 0.98339
# Poissons Ratio (z) = -0.06987 0.37152
#
# Static dielectric constant tensor:
#      x y z
#    x 1.995760 -0.003970 -0.022960 
#    y -0.003970 1.947730 0.063540 
#    z -0.022960 0.063540 1.976340 
# 
# From -- ./inp_files/10840.got.cif
#   From: 2010.05.17/outbox.cif.g08.bks.cpg/sg2_6_cif.got.tgz:10840.got - 2010.06.03 11:33:40.
