data_PCOD9003894
_publ_section_title
;
Structure prediction by ZEFSAII (Michael W. Deem and Ramdas Pophale) SiO2 
 PCOD9003894
Probable space group: P -1
;
_chemical_formula_sum "Si O2"
_cell_formula_units_Z 14
_cell_length_a 22.526356
_cell_length_b 5.730708
_cell_length_c 13.491744
_cell_angle_alpha 93.007668
_cell_angle_beta 19.137162
_cell_angle_gamma 94.215748
_cell_volume 568.661459
_symmetry_space_group_name_H-M "P -1"
_symmetry_group_IT_number 2
_symmetry_cell_setting 'triclinic'
loop_
_space_group_symop_operation_xyz
x,y,z
-x,-y,-z
loop_
_atom_site_type_symbol
_atom_site_label
_atom_site_fract_x
_atom_site_fract_y
_atom_site_fract_z
Si Si1 0.730267 0.683667 0.590907
Si Si2 0.102805 0.837338 0.909856
Si Si3 0.794007 0.768624 0.116626
Si Si4 0.617754 0.485671 0.571667
Si Si5 0.778134 0.204166 0.611501
Si Si6 0.102257 0.773545 0.357819
Si Si7 0.285334 0.449231 0.964245
O O1 0.610340 0.654598 0.680335
O O2 0.701753 0.444046 0.694741
O O3 0.709301 0.939426 0.678853
O O4 0.938482 0.694303 0.221933
O O5 0.247439 0.709114 0.614818
O O6 0.220397 0.970974 0.813769
O O7 0.000000 0.000000 0.000000
O O8 0.725745 0.611899 0.313085
O O9 0.688237 0.668435 0.184938
O O10 0.008245 0.768261 0.756652
O O11 0.428839 0.393612 0.819890
O O12 0.780509 0.206178 0.726583
O O13 0.248115 0.725036 0.038775
O O14 0.916958 0.624257 0.682120
O O15 0.000000 0.000000 0.500000
#
# Coordination Sequence:
#
# PCOD9003894 Si02
#       7
#     2   2   2   2   2   2   2
#     4  11  22  39  65 103 136 179 219 271 334 405
#     4  11  21  37  61  97 140 183 216 255 330 409
#     4  10  21  37  62  96 136 171 217 267 331 410
#     4  12  22  38  64  96 146 167 215 271 333 411
#     4  10  23  40  72  99 127 180 233 271 334 398
#     4  10  24  48  72  88 126 171 235 289 333 395
#     4  10  25  42  65  98 123 177 225 278 342 388
#
# _framework density 24.619216000000002
#
# number of rings (size 3 to 8) (size 9 to 14) (size 15 to 20)
#    0.000    1.429    2.857    2.571    6.000    2.857 
#    0.000    1.429    0.000    0.000    0.000    0.000 
#    0.000    0.000    0.000    0.000    0.000    0.000 
#
# Total GULP energy -78074.598780 kJ/mol
# GULP energy per Si atom -5576.757056 kJ/mol
# Density = 2.456318 g / cm^3
# Si number density = 24.619216 Si / 1000 Ang^3
#
#
#
# Elastic Constant Matrix: (Units=GPa)
#
#
# Indices 1 2 3 4 5 6 
#
# 1 307.6238 165.3899 -61.7414 81.5876 30.2680 85.5335
# 2 165.3899 148.0274 -30.8437 60.5182 16.0852 48.6046
# 3 -61.7414 -30.8437 126.6139 -48.3053 -45.3023 -14.0073
# 4 81.5876 60.5182 -48.3053 65.3775 20.1078 23.6827
# 5 30.2680 16.0852 -45.3023 20.1078 53.8819 11.2567
# 6 85.5335 48.6046 -14.0073 23.6827 11.2567 62.2900
#
#
#
# Elastic Compliance Matrix: (Units=1/GPa)
#
#
# Indices 1 2 3 4 5 6 
#
# 1 0.010402 -0.008461 0.001752 -0.001438 0.000105 -0.006759
# 2 -0.008461 0.019848 -0.003114 -0.009826 0.000053 -0.000844
# 3 0.001752 -0.003114 0.014638 0.009389 0.009147 -0.001907
# 4 -0.001438 -0.009826 0.009389 0.033684 -0.000744 -0.000920
# 5 0.000105 0.000053 0.009147 -0.000744 0.027023 -0.002728
# 6 -0.006759 -0.000844 -0.001907 -0.000920 -0.002728 0.026408
#
#
# Mechanical properties :
#
#
# Convention : Reuss Voigt Hill
#
# Bulk Modulus (GPa) = 39.61531 80.87497 60.24514
# Shear Modulus (GPa) = 31.23816 70.27390 50.75603
#
# Velocity S-wave (km/s) = 3.56596 5.34849 4.54546
# Velocity P-wave (km/s) = 5.75160 8.42991 7.21610
#
# Compressibility (1/GPa) = 0.02524276
#
# Stress axis : x y z
#
# Youngs Moduli (GPa) = 96.13856 50.38285 68.31741
#
# Poissons Ratio (x) = 0.42627 -0.11971
# Poissons Ratio (y) = 0.81340 0.21273
# Poissons Ratio (z) = -0.16846 0.15688
#
# Static dielectric constant tensor:
#      x y z
#    x 1.903440 -0.031140 -0.021900 
#    y -0.031140 1.808170 -0.016680 
#    z -0.021900 -0.016680 1.921530 
# 
# From -- ./inp_files/364222.got.cif
#   From: 2010.05.17/outbox.cif.g08.bks.cpg/sg2_183_cif.got.tgz:364222.got - 2010.06.03 11:33:40.
