data_PCOD9003882
_publ_section_title
;
Structure prediction by ZEFSAII (Michael W. Deem and Ramdas Pophale) SiO2 
 PCOD9003882
Probable space group: P -1
;
_chemical_formula_sum "Si O2"
_cell_formula_units_Z 14
_cell_length_a 8.501542
_cell_length_b 9.472235
_cell_length_c 11.359403
_cell_angle_alpha 100.144793
_cell_angle_beta 131.889656
_cell_angle_gamma 96.617033
_cell_volume 635.589886
_symmetry_space_group_name_H-M "P -1"
_symmetry_group_IT_number 2
_symmetry_cell_setting 'triclinic'
loop_
_space_group_symop_operation_xyz
x,y,z
-x,-y,-z
loop_
_atom_site_type_symbol
_atom_site_label
_atom_site_fract_x
_atom_site_fract_y
_atom_site_fract_z
Si Si1 0.731282 0.633889 0.618376
Si Si2 0.485280 0.350006 0.703256
Si Si3 0.188731 0.047183 0.202084
Si Si4 0.484987 0.923061 0.176618
Si Si5 0.781213 0.968522 0.133234
Si Si6 0.073278 0.564138 0.176782
Si Si7 0.633446 0.619045 0.986157
O O1 0.500000 0.500000 0.500000
O O2 0.733814 0.679164 0.489481
O O3 0.729872 0.773846 0.717481
O O4 0.919199 0.567678 0.750082
O O5 0.492173 0.236006 0.793642
O O6 0.675770 0.332288 0.706339
O O7 0.554651 0.520872 0.813294
O O8 0.390836 0.991034 0.251586
O O9 0.037686 0.988278 0.234171
O O10 0.000000 0.000000 0.000000
O O11 0.717604 0.004327 0.238051
O O12 0.306718 0.928266 0.986203
O O13 0.634665 0.791599 0.009735
O O14 0.000000 0.500000 0.000000
O O15 0.893037 0.637644 0.137730
O O16 0.500000 0.500000 0.000000
#
# Coordination Sequence:
#
# PCOD9003882 Si02
#       7
#     2   2   2   2   2   2   2
#     4  10  23  42  65  98 134 169 217 277 331 392
#     4  10  21  39  64  92 131 170 216 277 326 393
#     4  10  23  37  69  91 128 174 221 264 335 388
#     4  10  21  37  62  95 129 169 215 270 333 379
#     4  10  22  37  62  98 127 164 222 280 309 388
#     4   9  21  34  66  91 119 164 224 266 314 384
#     4  11  21  37  67  94 129 169 228 264 326 387
#
# _framework density 22.026782000000001
#
# number of rings (size 3 to 8) (size 9 to 14) (size 15 to 20)
#    0.000    2.000    1.429    0.857   20.000    0.571 
#    0.000    1.429    6.286    0.000    0.000    0.000 
#    0.000    0.000    0.000    0.000    0.000    0.000 
#
# Total GULP energy -77946.609901 kJ/mol
# GULP energy per Si atom -5567.614993 kJ/mol
# Density = 2.197665 g / cm^3
# Si number density = 22.026782 Si / 1000 Ang^3
#
#
#
# Elastic Constant Matrix: (Units=GPa)
#
#
# Indices 1 2 3 4 5 6 
#
# 1 138.0456 14.8409 2.0953 -4.7315 -4.5976 1.5617
# 2 14.8409 134.1197 51.9603 -8.4188 -9.6237 -2.7385
# 3 2.0953 51.9603 71.1562 -10.4073 -8.3050 -5.0205
# 4 -4.7315 -8.4188 -10.4073 43.8958 0.7884 -3.0732
# 5 -4.5976 -9.6237 -8.3050 0.7884 9.5859 -0.1533
# 6 1.5617 -2.7385 -5.0205 -3.0732 -0.1533 35.0407
#
#
#
# Elastic Compliance Matrix: (Units=1/GPa)
#
#
# Indices 1 2 3 4 5 6 
#
# 1 0.007469 -0.000899 0.000937 0.000780 0.003425 -0.000185
# 2 -0.000899 0.010671 -0.007294 0.000139 0.003948 -0.000142
# 3 0.000937 -0.007294 0.021440 0.003779 0.011437 0.002842
# 4 0.000780 0.000139 0.003779 0.023938 0.001861 0.002625
# 5 0.003425 0.003948 0.011437 0.001861 0.119722 0.002481
# 6 -0.000185 -0.000142 0.002842 0.002625 0.002481 0.029184
#
#
# Mechanical properties :
#
#
# Convention : Reuss Voigt Hill
#
# Bulk Modulus (GPa) = 39.89034 53.45716 46.67375
# Shear Modulus (GPa) = 21.25019 35.99946 28.62483
#
# Velocity S-wave (km/s) = 3.10940 4.04709 3.60883
# Velocity P-wave (km/s) = 5.57139 6.79415 6.21293
#
# Compressibility (1/GPa) = 0.02506873
#
# Stress axis : x y z
#
# Youngs Moduli (GPa) = 133.88172 93.71581 46.64071
#
# Poissons Ratio (x) = 0.08421 -0.04370
# Poissons Ratio (y) = 0.12030 0.34021
# Poissons Ratio (z) = -0.12545 0.68359
#
# Static dielectric constant tensor:
#      x y z
#    x 1.941660 0.035980 0.005650 
#    y 0.035980 1.865380 -0.029880 
#    z 0.005650 -0.029880 1.885220 
# 
# From -- ./inp_files/200306.got.cif
#   From: 2010.05.17/outbox.cif.g08.bks.cpg/sg2_101_cif.got.tgz:200306.got - 2010.06.03 11:33:40.
