data_PCOD9003151
_publ_section_title
;
Structure prediction by ZEFSAII (Michael W. Deem and Ramdas Pophale) SiO2 
 PCOD9003151
Probable space group: P -1
;
_chemical_formula_sum "Si O2"
_cell_formula_units_Z 14
_cell_length_a 11.696000
_cell_length_b 12.237856
_cell_length_c 16.976683
_cell_angle_alpha 34.910801
_cell_angle_beta 32.593851
_cell_angle_gamma 57.997261
_cell_volume 638.943041
_symmetry_space_group_name_H-M "P -1"
_symmetry_group_IT_number 2
_symmetry_cell_setting 'triclinic'
loop_
_space_group_symop_operation_xyz
x,y,z
-x,-y,-z
loop_
_atom_site_type_symbol
_atom_site_label
_atom_site_fract_x
_atom_site_fract_y
_atom_site_fract_z
Si Si1 0.238546 0.722884 0.856309
Si Si2 0.773101 0.904377 0.250518
Si Si3 0.246813 0.706168 0.407964
Si Si4 0.255440 0.750593 0.561774
Si Si5 0.743571 0.988372 0.459018
Si Si6 0.250757 0.040379 0.081293
Si Si7 0.990906 0.331712 0.672172
O O1 0.296075 0.831985 0.671831
O O2 0.195145 0.883837 0.844341
O O3 0.495476 0.752098 0.722729
O O4 0.994683 0.481723 0.134517
O O5 0.513834 0.784100 0.424570
O O6 0.805700 0.739108 0.387692
O O7 0.000000 0.000000 0.000000
O O8 0.253577 0.749339 0.469711
O O9 0.258163 0.903527 0.232913
O O10 0.011775 0.467344 0.658967
O O11 0.500163 0.724745 0.217726
O O12 0.238852 0.948328 0.497478
O O13 0.998741 0.033214 0.248536
O O14 0.228885 0.901774 0.096492
O O15 0.000000 0.500000 0.500000
#
# Coordination Sequence:
#
# PCOD9003151 Si02
#       7
#     2   2   2   2   2   2   2
#     4  10  22  40  59  88 125 162 208 249 305 368
#     4  11  22  36  62  92 124 160 197 259 317 357
#     4  10  23  39  62  95 122 158 203 259 305 370
#     4  11  24  38  61  95 126 154 211 255 307 369
#     4  10  22  40  62  86 122 170 201 253 305 369
#     4  10  21  42  65  86 124 164 205 248 314 367
#     4  10  21  37  58  86 118 157 201 242 298 366
#
# _framework density 21.911183999999999
#
# number of rings (size 3 to 8) (size 9 to 14) (size 15 to 20)
#    0.000    1.714    1.429    2.143    2.000    4.000 
#    0.000    0.714    0.000    0.000    0.000    0.000 
#    0.000    0.000    0.000    0.000    0.000    0.000 
#
# Total GULP energy -77986.558223 kJ/mol
# GULP energy per Si atom -5570.468445 kJ/mol
# Density = 2.186131 g / cm^3
# Si number density = 21.911184 Si / 1000 Ang^3
#
#
#
# Elastic Constant Matrix: (Units=GPa)
#
#
# Indices 1 2 3 4 5 6 
#
# 1 111.7746 28.8653 23.3765 -3.3067 -14.9093 35.4258
# 2 28.8653 50.8743 19.6721 8.7690 -6.1605 20.9817
# 3 23.3765 19.6721 108.8512 6.3554 -25.0098 4.1948
# 4 -3.3067 8.7690 6.3554 34.9647 6.0719 -0.2208
# 5 -14.9093 -6.1605 -25.0098 6.0719 27.7879 -2.3892
# 6 35.4258 20.9817 4.1948 -0.2208 -2.3892 27.5693
#
#
#
# Elastic Compliance Matrix: (Units=1/GPa)
#
#
# Indices 1 2 3 4 5 6 
#
# 1 0.016541 0.000369 -0.001564 0.000649 0.005618 -0.020805
# 2 0.000369 0.033013 -0.003708 -0.008402 0.003886 -0.024765
# 3 -0.001564 -0.003708 0.012744 -0.003400 0.010879 0.003808
# 4 0.000649 -0.008402 -0.003400 0.033403 -0.011413 0.005356
# 5 0.005618 0.003886 0.010879 -0.011413 0.051507 -0.007460
# 6 -0.020805 -0.024765 0.003808 0.005356 -0.007460 0.080671
#
#
# Mechanical properties :
#
#
# Convention : Reuss Voigt Hill
#
# Bulk Modulus (GPa) = 19.05045 46.14756 32.59901
# Shear Modulus (GPa) = 19.59383 31.37013 25.48198
#
# Velocity S-wave (km/s) = 2.99363 3.78788 3.41393
# Velocity P-wave (km/s) = 4.54558 6.34331 5.51815
#
# Compressibility (1/GPa) = 0.05249219
#
# Stress axis : x y z
#
# Youngs Moduli (GPa) = 60.45525 30.29089 78.46714
#
# Poissons Ratio (x) = -0.01117 0.12274
# Poissons Ratio (y) = -0.02229 0.29093
# Poissons Ratio (z) = 0.09457 0.11231
#
# Static dielectric constant tensor:
#      x y z
#    x 1.858270 -0.029810 -0.058070 
#    y -0.029810 1.839570 0.029680 
#    z -0.058070 0.029680 1.842370 
# 
# From -- ./inp_files/568558.got.cif
#   From: 2010.05.17/outbox.cif.g08.bks.cpg/sg2_285_cif.got.tgz:568558.got - 2010.06.03 11:33:40.
