data_PCOD9003945
_publ_section_title
;
Structure prediction by ZEFSAII (Michael W. Deem and Ramdas Pophale) SiO2 
 PCOD9003945
Probable space group: P -1
;
_chemical_formula_sum "Si O2"
_cell_formula_units_Z 14
_cell_length_a 13.120589
_cell_length_b 4.974624
_cell_length_c 23.239248
_cell_angle_alpha 110.479053
_cell_angle_beta 32.526325
_cell_angle_gamma 94.936412
_cell_volume 695.203659
_symmetry_space_group_name_H-M "P -1"
_symmetry_group_IT_number 2
_symmetry_cell_setting 'triclinic'
loop_
_space_group_symop_operation_xyz
x,y,z
-x,-y,-z
loop_
_atom_site_type_symbol
_atom_site_label
_atom_site_fract_x
_atom_site_fract_y
_atom_site_fract_z
Si Si1 0.617405 0.793852 0.618614
Si Si2 0.498065 0.221913 0.606781
Si Si3 0.310078 0.141607 0.282036
Si Si4 0.143495 0.324989 0.198263
Si Si5 0.493349 0.213515 0.945299
Si Si6 0.303471 0.421065 0.602173
Si Si7 0.928221 0.252246 0.633569
O O1 0.596349 0.472135 0.589178
O O2 0.592102 0.848146 0.702603
O O3 0.844868 0.776146 0.493064
O O4 0.465453 0.075878 0.671204
O O5 0.304410 0.382889 0.667691
O O6 0.646863 0.914681 0.476484
O O7 0.233882 0.471627 0.309020
O O8 0.462427 0.853957 0.147895
O O9 0.109554 0.060280 0.380343
O O10 0.108500 0.643600 0.273976
O O11 0.916170 0.333671 0.299199
O O12 0.311996 0.072737 0.140331
O O13 0.264276 0.249567 0.074740
O O14 0.500000 0.500000 0.000000
O O15 0.500000 0.500000 0.500000
#
# Coordination Sequence:
#
# PCOD9003945 Si02
#       7
#     2   2   2   2   2   2   2
#     4  12  22  38  56  89 126 163 197 251 306 366
#     4  11  23  38  61  89 123 156 205 246 308 368
#     4  11  23  36  58  84 126 164 202 245 301 369
#     4  10  21  37  63  87 128 154 203 260 303 358
#     4  10  21  39  60  91 120 164 207 247 303 361
#     4  11  22  40  63  95 122 161 204 257 315 353
#     4  11  20  35  57  88 120 161 199 245 308 368
#
# _framework density 20.137983999999999
#
# number of rings (size 3 to 8) (size 9 to 14) (size 15 to 20)
#    0.000    1.143    4.286    2.571    0.000    3.429 
#    0.000    0.000    0.000    1.714    0.000    0.000 
#    0.000    0.000    0.000    0.000    0.000    0.000 
#
# Total GULP energy -78088.519491 kJ/mol
# GULP energy per Si atom -5577.751392 kJ/mol
# Density = 2.009215 g / cm^3
# Si number density = 20.137984 Si / 1000 Ang^3
#
#
#
# Elastic Constant Matrix: (Units=GPa)
#
#
# Indices 1 2 3 4 5 6 
#
# 1 128.9650 17.8848 39.5553 -4.6003 19.6680 8.6416
# 2 17.8848 81.4883 14.9667 -14.7482 -0.2778 12.2834
# 3 39.5553 14.9667 76.5264 -5.3376 4.7958 11.7470
# 4 -4.6003 -14.7482 -5.3376 16.8068 1.6721 3.1502
# 5 19.6680 -0.2778 4.7958 1.6721 35.2414 2.1706
# 6 8.6416 12.2834 11.7470 3.1502 2.1706 32.1690
#
#
#
# Elastic Compliance Matrix: (Units=1/GPa)
#
#
# Indices 1 2 3 4 5 6 
#
# 1 0.010153 -0.001202 -0.004585 0.000835 -0.005071 -0.000334
# 2 -0.001202 0.016503 -0.000444 0.015332 0.000587 -0.007357
# 3 -0.004585 -0.000444 0.016605 0.004552 0.000396 -0.005135
# 4 0.000835 0.015332 0.004552 0.077831 -0.003727 -0.015111
# 5 -0.005071 0.000587 0.000396 -0.003727 0.031380 -0.000759
# 6 -0.000334 -0.007357 -0.005135 -0.015111 -0.000759 0.037391
#
#
# Mechanical properties :
#
#
# Convention : Reuss Voigt Hill
#
# Bulk Modulus (GPa) = 32.47018 47.97704 40.22361
# Shear Modulus (GPa) = 23.51920 31.14832 27.33376
#
# Velocity S-wave (km/s) = 3.42117 3.93713 3.68818
# Velocity P-wave (km/s) = 5.63602 6.67412 6.17692
#
# Compressibility (1/GPa) = 0.03079749
#
# Stress axis : x y z
#
# Youngs Moduli (GPa) = 98.49725 60.59467 60.22192
#
# Poissons Ratio (x) = 0.07283 0.27614
# Poissons Ratio (y) = 0.11839 0.02676
# Poissons Ratio (z) = 0.45165 0.02692
#
# Static dielectric constant tensor:
#      x y z
#    x 1.774560 -0.020890 0.036940 
#    y -0.020890 1.798560 -0.010250 
#    z 0.036940 -0.010250 1.786480 
# 
# From -- ./inp_files/118692.got.cif
#   From: 2010.05.17/outbox.cif.g08.bks.cpg/sg2_60_cif.got.tgz:118692.got - 2010.06.03 11:33:40.
