data_PCOD9003585
_publ_section_title
;
Structure prediction by ZEFSAII (Michael W. Deem and Ramdas Pophale) SiO2 
 PCOD9003585
Probable space group: P -1
;
_chemical_formula_sum "Si O2"
_cell_formula_units_Z 16
_cell_length_a 11.647693
_cell_length_b 10.017294
_cell_length_c 7.798159
_cell_angle_alpha 46.153358
_cell_angle_beta 91.248739
_cell_angle_gamma 75.240363
_cell_volume 608.361361
_symmetry_space_group_name_H-M "P -1"
_symmetry_group_IT_number 2
_symmetry_cell_setting 'triclinic'
loop_
_space_group_symop_operation_xyz
x,y,z
-x,-y,-z
loop_
_atom_site_type_symbol
_atom_site_label
_atom_site_fract_x
_atom_site_fract_y
_atom_site_fract_z
Si Si1 0.227754 0.289565 0.608070
Si Si2 0.253084 0.104120 0.401241
Si Si3 0.011618 0.773840 0.731843
Si Si4 0.506313 0.712897 0.268815
Si Si5 0.143093 0.628146 0.541550
Si Si6 0.726689 0.304816 0.064243
Si Si7 0.381112 0.345183 0.021925
Si Si8 0.241056 0.907149 0.111645
O O1 0.235006 0.220662 0.476011
O O2 0.369483 0.266918 0.676213
O O3 0.142516 0.506039 0.480281
O O4 0.186264 0.134320 0.852252
O O5 0.119113 0.207430 0.213326
O O6 0.278451 0.875109 0.653835
O O7 0.354197 0.156842 0.255391
O O8 0.033197 0.676808 0.629348
O O9 0.140121 0.674135 0.922677
O O10 0.000000 0.000000 0.500000
O O11 0.500000 0.500000 0.500000
O O12 0.509565 0.727909 0.047690
O O13 0.381195 0.865958 0.211236
O O14 0.265963 0.490031 0.773297
O O15 0.164441 0.827324 0.308821
O O16 0.624006 0.512019 0.943179
O O17 0.735142 0.229423 0.937429
#
# Coordination Sequence:
#
# PCOD9003585 Si02
#       8
#     2   2   2   2   2   2   2   2
#     4  10  22  39  60  89 119 155 197 243 295 346
#     4  10  21  41  59  86 124 151 196 247 285 349
#     4   9  20  40  62  87 120 158 196 237 292 348
#     4  11  22  41  60  87 116 157 199 239 299 349
#     4  10  21  38  60  91 117 158 199 235 296 345
#     4   9  21  39  61  89 119 157 194 240 294 343
#     4  10  21  37  61  86 115 155 197 241 295 347
#     4  11  21  41  61  85 126 152 193 251 286 347
#
# _framework density 26.300158
#
# number of rings (size 3 to 8) (size 9 to 14) (size 15 to 20)
#    0.000    2.000    2.500    1.125    0.000    9.000 
#    2.250   10.625    0.000    0.000    0.000    0.000 
#    0.000    0.000    0.000    0.000    0.000    0.000 
#
# Total GULP energy -89582.325441 kJ/mol
# GULP energy per Si atom -5598.895340 kJ/mol
# Density = 2.624030 g / cm^3
# Si number density = 26.300158 Si / 1000 Ang^3
#
#
#
# Elastic Constant Matrix: (Units=GPa)
#
#
# Indices 1 2 3 4 5 6 
#
# 1 62.2391 5.7010 3.1765 -1.0356 -6.9415 8.1149
# 2 5.7010 131.6996 10.3150 -2.5136 -5.2050 17.2689
# 3 3.1765 10.3150 118.1891 -13.1977 -30.1977 4.8858
# 4 -1.0356 -2.5136 -13.1977 31.9772 2.8684 0.7237
# 5 -6.9415 -5.2050 -30.1977 2.8684 25.4934 0.1620
# 6 8.1149 17.2689 4.8858 0.7237 0.1620 26.7858
#
#
#
# Elastic Compliance Matrix: (Units=1/GPa)
#
#
# Indices 1 2 3 4 5 6 
#
# 1 0.017462 0.000148 0.001502 0.000742 0.006517 -0.005719
# 2 0.000148 0.008385 0.000000 0.000634 0.001715 -0.005478
# 3 0.001502 0.000000 0.012895 0.004071 0.015244 -0.003009
# 4 0.000742 0.000634 0.004071 0.032947 0.001461 -0.002275
# 5 0.006517 0.001715 0.015244 0.001461 0.059283 -0.006259
# 6 -0.005719 -0.005478 -0.003009 -0.002275 -0.006259 0.043246
#
#
# Mechanical properties :
#
#
# Convention : Reuss Voigt Hill
#
# Bulk Modulus (GPa) = 23.78620 38.94585 31.36603
# Shear Modulus (GPa) = 27.03724 36.38031 31.70878
#
# Velocity S-wave (km/s) = 3.20976 3.72327 3.47601
# Velocity P-wave (km/s) = 4.77499 5.77270 5.29739
#
# Compressibility (1/GPa) = 0.04204118
#
# Stress axis : x y z
#
# Youngs Moduli (GPa) = 57.26825 119.26286 77.55215
#
# Poissons Ratio (x) = -0.01766 -0.11650
# Poissons Ratio (y) = -0.00848 0.00002
# Poissons Ratio (z) = -0.08603 0.00003
#
# Static dielectric constant tensor:
#      x y z
#    x 2.084970 0.061760 0.059340 
#    y 0.061760 2.071610 0.029580 
#    z 0.059340 0.029580 2.048500 
# 
# From -- ./inp_files/255825.got.cif
#   From: 2010.05.17/outbox.cif.g08.bks.cpg/sg2_128_cif.got.tgz:255825.got - 2010.06.03 11:33:40.
