data_PCOD9003555
_publ_section_title
;
Structure prediction by ZEFSAII (Michael W. Deem and Ramdas Pophale) SiO2 
 PCOD9003555
Probable space group: P -1
;
_chemical_formula_sum "Si O2"
_cell_formula_units_Z 16
_cell_length_a 6.505579
_cell_length_b 11.757576
_cell_length_c 13.756640
_cell_angle_alpha 105.400959
_cell_angle_beta 66.494047
_cell_angle_gamma 68.588611
_cell_volume 787.277813
_symmetry_space_group_name_H-M "P -1"
_symmetry_group_IT_number 2
_symmetry_cell_setting 'triclinic'
loop_
_space_group_symop_operation_xyz
x,y,z
-x,-y,-z
loop_
_atom_site_type_symbol
_atom_site_label
_atom_site_fract_x
_atom_site_fract_y
_atom_site_fract_z
Si Si1 0.256916 0.301888 0.681380
Si Si2 0.843421 0.298468 0.322731
Si Si3 0.962051 0.520014 0.397700
Si Si4 0.162756 0.838394 0.512888
Si Si5 0.966534 0.426578 0.084914
Si Si6 0.816850 0.909500 0.412163
Si Si7 0.434294 0.666165 0.816516
Si Si8 0.376244 0.164534 0.078575
O O1 0.571058 0.221217 0.615257
O O2 0.118911 0.449099 0.793398
O O3 0.129324 0.209666 0.702061
O O4 0.210380 0.328112 0.580142
O O5 0.795817 0.258369 0.427298
O O6 0.676690 0.293960 0.263684
O O7 0.806423 0.447950 0.375626
O O8 0.149263 0.204187 0.210915
O O9 0.254532 0.449204 0.280071
O O10 0.000000 0.500000 0.500000
O O11 0.943204 0.859572 0.483467
O O12 0.093083 0.984181 0.606440
O O13 0.732177 0.393840 0.116898
O O14 0.216477 0.279017 0.046746
O O15 0.000000 0.500000 0.000000
O O16 0.500000 0.000000 0.500000
O O17 0.424903 0.792573 0.905026
O O18 0.500000 0.000000 0.000000
#
# Coordination Sequence:
#
# PCOD9003555 Si02
#       8
#     2   2   2   2   2   2   2   2
#     4  11  21  38  60  89 130 159 213 267 316 384
#     4  10  21  37  60  96 123 160 214 251 325 397
#     4  11  21  33  61  97 126 163 199 255 326 390
#     4  10  21  38  60  90 127 169 205 258 327 387
#     4  11  25  45  64  97 125 170 228 272 325 390
#     4   9  21  39  56  84 131 168 210 255 310 387
#     4  10  21  42  64  87 135 159 209 275 319 382
#     4  10  23  47  64  93 127 166 219 276 323 391
#
# _framework density 20.323194999999998
#
# number of rings (size 3 to 8) (size 9 to 14) (size 15 to 20)
#    0.000    1.750    3.750    1.500    3.500    6.500 
#   11.250    0.000    0.000    0.000    0.000    0.000 
#    0.000    0.000    0.000    0.000    0.000    0.000 
#
# Total GULP energy -89090.809314 kJ/mol
# GULP energy per Si atom -5568.175582 kJ/mol
# Density = 2.027694 g / cm^3
# Si number density = 20.323195 Si / 1000 Ang^3
#
#
#
# Elastic Constant Matrix: (Units=GPa)
#
#
# Indices 1 2 3 4 5 6 
#
# 1 157.8194 66.1584 30.9860 8.1460 13.9970 12.8759
# 2 66.1584 107.2800 39.6435 7.6922 6.3235 11.5027
# 3 30.9860 39.6435 40.8194 2.9311 4.1661 4.1530
# 4 8.1460 7.6922 2.9311 36.7358 7.4655 9.3989
# 5 13.9970 6.3235 4.1661 7.4655 19.1182 4.6823
# 6 12.8759 11.5027 4.1530 9.3989 4.6823 35.8471
#
#
#
# Elastic Compliance Matrix: (Units=1/GPa)
#
#
# Indices 1 2 3 4 5 6 
#
# 1 0.009095 -0.004522 -0.001956 0.000292 -0.004590 -0.001066
# 2 -0.004522 0.017194 -0.013102 -0.001291 0.001531 -0.002237
# 3 -0.001956 -0.013102 0.038917 0.000529 -0.003083 0.000662
# 4 0.000292 -0.001291 0.000529 0.031193 -0.010475 -0.006562
# 5 -0.004590 0.001531 -0.003083 -0.010475 0.060825 -0.003684
# 6 -0.001066 -0.002237 0.000662 -0.006562 -0.003684 0.031122
#
#
# Mechanical properties :
#
#
# Convention : Reuss Voigt Hill
#
# Bulk Modulus (GPa) = 38.39445 64.38829 51.39137
# Shear Modulus (GPa) = 21.16965 29.61561 25.39263
#
# Velocity S-wave (km/s) = 3.23096 3.82151 3.53858
# Velocity P-wave (km/s) = 5.73165 7.15702 6.48362
#
# Compressibility (1/GPa) = 0.02604543
#
# Stress axis : x y z
#
# Youngs Moduli (GPa) = 109.94980 58.16073 25.69566
#
# Poissons Ratio (x) = 0.26300 0.05027
# Poissons Ratio (y) = 0.49718 0.33666
# Poissons Ratio (z) = 0.21511 0.76201
#
# Static dielectric constant tensor:
#      x y z
#    x 1.758450 0.022520 0.010690 
#    y 0.022520 1.788470 0.016180 
#    z 0.010690 0.016180 1.767200 
# 
# From -- ./inp_files/441330.got.cif
#   From: 2010.05.17/outbox.cif.g08.bks.cpg/sg2_221_cif.got.tgz:441330.got - 2010.06.03 11:33:40.
