data_PCOD9003015
_publ_section_title
;
Structure prediction by ZEFSAII (Michael W. Deem and Ramdas Pophale) SiO2 
 PCOD9003015
Probable space group: P -1
;
_chemical_formula_sum "Si O2"
_cell_formula_units_Z 16
_cell_length_a 15.050869
_cell_length_b 12.999928
_cell_length_c 12.179716
_cell_angle_alpha 32.741710
_cell_angle_beta 69.713446
_cell_angle_gamma 45.860236
_cell_volume 728.726687
_symmetry_space_group_name_H-M "P -1"
_symmetry_group_IT_number 2
_symmetry_cell_setting 'triclinic'
loop_
_space_group_symop_operation_xyz
x,y,z
-x,-y,-z
loop_
_atom_site_type_symbol
_atom_site_label
_atom_site_fract_x
_atom_site_fract_y
_atom_site_fract_z
Si Si1 0.893567 0.886960 0.822963
Si Si2 0.490134 0.065194 0.252275
Si Si3 0.443514 0.437515 0.244543
Si Si4 0.373322 0.635448 0.341284
Si Si5 0.638959 0.784676 0.224118
Si Si6 0.938934 0.260622 0.435455
Si Si7 0.300069 0.734984 0.819022
Si Si8 0.183170 0.329719 0.090504
O O1 0.072729 0.526085 0.067792
O O2 0.793796 0.015596 0.860130
O O3 0.897896 0.102009 0.598055
O O4 0.809478 0.893271 0.760506
O O5 0.575334 0.763278 0.558160
O O6 0.589189 0.972710 0.186963
O O7 0.405845 0.379743 0.061169
O O8 0.348858 0.161142 0.180687
O O9 0.421845 0.571819 0.251369
O O10 0.613746 0.226912 0.312258
O O11 0.321512 0.713935 0.959525
O O12 0.500000 0.500000 0.500000
O O13 0.351144 0.447101 0.533402
O O14 0.805883 0.567138 0.295180
O O15 0.500000 0.000000 0.000000
O O16 0.907380 0.401641 0.204209
O O17 0.119555 0.997248 0.628186
#
# Coordination Sequence:
#
# PCOD9003015 Si02
#       8
#     2   2   2   2   2   2   2   2
#     4  10  22  36  53  94 124 160 194 255 316 358
#     4  11  22  40  66  89 124 170 204 260 312 369
#     4  10  25  45  62  92 121 162 224 252 309 374
#     4  10  22  37  63  87 122 160 199 260 318 365
#     4  10  21  37  56  96 130 156 200 251 319 374
#     4  11  23  37  60  92 129 165 207 249 319 366
#     4  11  25  42  68  85 123 175 209 261 300 375
#     4  11  22  33  61  95 128 157 201 258 311 369
#
# _framework density 21.956105000000001
#
# number of rings (size 3 to 8) (size 9 to 14) (size 15 to 20)
#    0.000    1.500    2.500    2.250    7.000    0.000 
#    0.000    5.625    0.000    2.250    0.000    0.000 
#    0.000    0.000    0.000    0.000    0.000    0.000 
#
# Total GULP energy -89349.427060 kJ/mol
# GULP energy per Si atom -5584.339191 kJ/mol
# Density = 2.190613 g / cm^3
# Si number density = 21.956105 Si / 1000 Ang^3
#
#
#
# Elastic Constant Matrix: (Units=GPa)
#
#
# Indices 1 2 3 4 5 6 
#
# 1 61.2937 8.5109 21.1280 -3.3298 -14.8246 0.0454
# 2 8.5109 162.8617 49.9286 -11.8683 12.7953 -1.9455
# 3 21.1280 49.9286 73.0859 1.1810 -1.1391 -2.8120
# 4 -3.3298 -11.8683 1.1810 33.3857 -3.0064 6.0515
# 5 -14.8246 12.7953 -1.1391 -3.0064 39.0987 0.8948
# 6 0.0454 -1.9455 -2.8120 6.0515 0.8948 20.1338
#
#
#
# Elastic Compliance Matrix: (Units=1/GPa)
#
#
# Indices 1 2 3 4 5 6 
#
# 1 0.020479 0.000473 -0.006268 0.003545 0.007752 -0.002286
# 2 0.000473 0.008360 -0.005971 0.003166 -0.002467 -0.000869
# 3 -0.006268 -0.005971 0.019768 -0.004092 -0.000240 0.003439
# 4 0.003545 0.003166 -0.004092 0.033763 0.003027 -0.010556
# 5 0.007752 -0.002467 -0.000240 0.003027 0.029606 -0.002515
# 6 -0.002286 -0.000869 0.003439 -0.010556 -0.002515 0.053354
#
#
# Mechanical properties :
#
#
# Convention : Reuss Voigt Hill
#
# Bulk Modulus (GPa) = 39.87867 50.70846 45.29357
# Shear Modulus (GPa) = 25.35241 33.03522 29.19381
#
# Velocity S-wave (km/s) = 3.40175 3.88313 3.65039
# Velocity P-wave (km/s) = 5.79927 6.57651 6.20008
#
# Compressibility (1/GPa) = 0.02507607
#
# Stress axis : x y z
#
# Youngs Moduli (GPa) = 48.83066 119.61503 50.58595
#
# Poissons Ratio (x) = -0.05662 0.31707
# Poissons Ratio (y) = -0.02311 0.30205
# Poissons Ratio (z) = 0.30607 0.71423
#
# Static dielectric constant tensor:
#      x y z
#    x 1.808460 0.058180 -0.001050 
#    y 0.058180 2.063140 0.039850 
#    z -0.001050 0.039850 1.927220 
# 
# From -- ./inp_files/449647.got.cif
#   From: 2010.05.17/outbox.cif.g08.bks.cpg/sg2_225_cif.got.tgz:449647.got - 2010.06.03 11:33:40.
