data_PCOD9003864
_publ_section_title
;
Structure prediction by ZEFSAII (Michael W. Deem and Ramdas Pophale) SiO2 
 PCOD9003864
Probable space group: P -1
;
_chemical_formula_sum "Si O2"
_cell_formula_units_Z 14
_cell_length_a 5.249279
_cell_length_b 5.296956
_cell_length_c 26.293765
_cell_angle_alpha 112.878465
_cell_angle_beta 119.979329
_cell_angle_gamma 58.855634
_cell_volume 533.565773
_symmetry_space_group_name_H-M "P -1"
_symmetry_group_IT_number 2
_symmetry_cell_setting 'triclinic'
loop_
_space_group_symop_operation_xyz
x,y,z
-x,-y,-z
loop_
_atom_site_type_symbol
_atom_site_label
_atom_site_fract_x
_atom_site_fract_y
_atom_site_fract_z
Si Si1 0.332918 0.775913 0.363685
Si Si2 0.178929 0.381797 0.672413
Si Si3 0.738958 0.965388 0.932896
Si Si4 0.462094 0.222758 0.823985
Si Si5 0.361961 0.396524 0.430079
Si Si6 0.042275 0.850946 0.780315
Si Si7 0.194486 0.407831 0.959729
O O1 0.460202 0.691990 0.312586
O O2 0.471924 0.504635 0.397309
O O3 0.406964 0.055903 0.409998
O O4 0.950385 0.847861 0.333233
O O5 0.020506 0.677716 0.713298
O O6 0.018174 0.426535 0.603788
O O7 0.260876 0.564434 0.814544
O O8 0.667899 0.171232 0.892422
O O9 0.929771 0.616990 0.909753
O O10 0.396193 0.065051 0.935651
O O11 0.000000 0.000000 0.000000
O O12 0.230794 0.056451 0.801886
O O13 0.709986 0.042327 0.790406
O O14 0.500000 0.500000 0.500000
O O15 0.500000 0.500000 0.000000
O O16 0.000000 0.500000 0.000000
#
# Coordination Sequence:
#
# PCOD9003864 Si02
#       7
#     2   2   2   2   2   2   2
#     4  10  24  39  68  96 135 180 231 275 357 408
#     4  10  26  42  71  95 135 185 233 288 352 412
#     4  10  23  43  68 100 140 182 230 289 362 437
#     4  12  28  48  74 109 142 190 241 306 364 428
#     4  10  24  42  66 104 140 177 228 283 347 416
#     4  12  28  48  75 103 147 186 250 302 358 428
#     4  10  21  37  62  94 130 177 219 271 335 422
#
# _framework density 26.238568000000001
#
# number of rings (size 3 to 8) (size 9 to 14) (size 15 to 20)
#    0.857    0.571    0.000    3.429    6.000    8.000 
#    0.000    0.000    0.000    0.000    0.000    0.000 
#    0.000    0.000    0.000    0.000    0.000    0.000 
#
# Total GULP energy -78219.011237 kJ/mol
# GULP energy per Si atom -5587.072231 kJ/mol
# Density = 2.617885 g / cm^3
# Si number density = 26.238568 Si / 1000 Ang^3
#
#
#
# Elastic Constant Matrix: (Units=GPa)
#
#
# Indices 1 2 3 4 5 6 
#
# 1 208.3494 74.2958 39.3883 8.9930 -35.4715 3.1764
# 2 74.2958 139.6591 23.6606 1.6676 -0.0066 5.5090
# 3 39.3883 23.6606 119.4382 -7.0396 2.2233 14.8592
# 4 8.9930 1.6676 -7.0396 44.2711 2.6327 5.6792
# 5 -35.4715 -0.0066 2.2233 2.6327 29.9535 1.7296
# 6 3.1764 5.5090 14.8592 5.6792 1.7296 60.6553
#
#
#
# Elastic Compliance Matrix: (Units=1/GPa)
#
#
# Indices 1 2 3 4 5 6 
#
# 1 0.008683 -0.004190 -0.002450 -0.002691 0.010672 0.000474
# 2 -0.004190 0.009448 -0.000287 0.000810 -0.004981 -0.000502
# 3 -0.002450 -0.000287 0.009754 0.002584 -0.003715 -0.002371
# 4 -0.002691 0.000810 0.002584 0.024177 -0.005349 -0.002677
# 5 0.010672 -0.004981 -0.003715 -0.005349 0.046770 -0.000029
# 6 0.000474 -0.000502 -0.002371 -0.002677 -0.000029 0.017340
#
#
# Mechanical properties :
#
#
# Convention : Reuss Voigt Hill
#
# Bulk Modulus (GPa) = 71.26922 82.45956 76.86439
# Shear Modulus (GPa) = 37.11935 48.98278 43.05106
#
# Velocity S-wave (km/s) = 3.76531 4.32536 4.05502
# Velocity P-wave (km/s) = 6.79150 7.51266 7.16116
#
# Compressibility (1/GPa) = 0.01403130
#
# Stress axis : x y z
#
# Youngs Moduli (GPa) = 115.17069 105.84425 102.52595
#
# Poissons Ratio (x) = 0.44350 0.25114
# Poissons Ratio (y) = 0.48258 0.02941
# Poissons Ratio (z) = 0.28211 0.03036
#
# Static dielectric constant tensor:
#      x y z
#    x 2.195170 0.070690 0.027690 
#    y 0.070690 2.337270 -0.008540 
#    z 0.027690 -0.008540 2.134030 
# 
# From -- ./inp_files/602741.got.cif
#   From: 2010.05.17/outbox.cif.g08.bks.cpg/sg2_302_cif.got.tgz:602741.got - 2010.06.03 11:33:40.
