data_PCOD9003867
_publ_section_title
;
Structure prediction by ZEFSAII (Michael W. Deem and Ramdas Pophale) SiO2 
 PCOD9003867
Probable space group: P -1
;
_chemical_formula_sum "Si O2"
_cell_formula_units_Z 14
_cell_length_a 8.908056
_cell_length_b 5.617949
_cell_length_c 14.918280
_cell_angle_alpha 127.198489
_cell_angle_beta 107.229504
_cell_angle_gamma 62.779473
_cell_volume 528.625508
_symmetry_space_group_name_H-M "P -1"
_symmetry_group_IT_number 2
_symmetry_cell_setting 'triclinic'
loop_
_space_group_symop_operation_xyz
x,y,z
-x,-y,-z
loop_
_atom_site_type_symbol
_atom_site_label
_atom_site_fract_x
_atom_site_fract_y
_atom_site_fract_z
Si Si1 0.055110 0.824896 0.372309
Si Si2 0.601831 0.656591 0.671487
Si Si3 0.101772 0.635646 0.680475
Si Si4 0.355864 0.323707 0.521334
Si Si5 0.244379 0.437929 0.072249
Si Si6 0.369073 0.758356 0.880325
Si Si7 0.244755 0.980782 0.097920
O O1 0.254300 0.680877 0.353500
O O2 0.008736 0.505885 0.309156
O O3 0.000000 0.000000 0.500000
O O4 0.974169 0.045152 0.321668
O O5 0.423610 0.613214 0.621588
O O6 0.659535 0.693765 0.590301
O O7 0.620293 0.936008 0.798570
O O8 0.188648 0.379572 0.559089
O O9 0.255220 0.632746 0.770453
O O10 0.500000 0.000000 0.500000
O O11 0.430153 0.403117 0.135345
O O12 0.155922 0.790286 0.097842
O O13 0.149378 0.310362 0.101859
O O14 0.300942 0.146724 0.944145
O O15 0.332580 0.746799 0.977354
#
# Coordination Sequence:
#
# PCOD9003867 Si02
#       7
#     2   2   2   2   2   2   2
#     4  12  27  50  67  98 139 189 225 270 346 410
#     4  11  26  44  69  99 138 180 224 283 346 394
#     4  12  27  44  76  97 140 179 230 281 327 415
#     4  11  26  43  70 105 133 173 236 291 329 399
#     4   9  20  36  62  94 140 164 217 270 337 397
#     4   9  22  37  63  99 128 175 220 269 336 396
#     4  10  21  37  62  94 131 171 212 272 336 398
#
# _framework density 26.483777
#
# number of rings (size 3 to 8) (size 9 to 14) (size 15 to 20)
#    0.857    0.571    1.429    2.571   10.000    0.000 
#    0.000    1.429    0.000    0.000    0.000    0.000 
#    0.000    0.000    0.000    0.000    0.000    0.000 
#
# Total GULP energy -78247.238568 kJ/mol
# GULP energy per Si atom -5589.088469 kJ/mol
# Density = 2.642350 g / cm^3
# Si number density = 26.483777 Si / 1000 Ang^3
#
#
#
# Elastic Constant Matrix: (Units=GPa)
#
#
# Indices 1 2 3 4 5 6 
#
# 1 95.7752 29.9219 31.0952 -17.5378 -4.9878 22.4242
# 2 29.9219 149.7055 20.5076 3.5436 -6.9400 33.6784
# 3 31.0952 20.5076 121.3540 -22.4541 -2.0258 10.9685
# 4 -17.5378 3.5436 -22.4541 23.1311 -2.3021 3.1186
# 5 -4.9878 -6.9400 -2.0258 -2.3021 40.0899 -2.5152
# 6 22.4242 33.6784 10.9685 3.1186 -2.5152 48.2807
#
#
#
# Elastic Compliance Matrix: (Units=1/GPa)
#
#
# Indices 1 2 3 4 5 6 
#
# 1 0.014949 -0.001669 -0.000750 0.011890 0.001822 -0.006282
# 2 -0.001669 0.008284 -0.001089 -0.002909 0.000720 -0.004531
# 3 -0.000750 -0.001089 0.010719 0.010340 0.000731 -0.001957
# 4 0.011890 -0.002909 0.010340 0.064503 0.004589 -0.009769
# 5 0.001822 0.000720 0.000731 0.004589 0.025566 -0.000479
# 6 -0.006282 -0.004531 -0.001957 -0.009769 -0.000479 0.027841
#
#
# Mechanical properties :
#
#
# Convention : Reuss Voigt Hill
#
# Bulk Modulus (GPa) = 37.12620 58.87599 48.00110
# Shear Modulus (GPa) = 29.78748 41.32100 35.55424
#
# Velocity S-wave (km/s) = 3.35736 3.95427 3.66798
# Velocity P-wave (km/s) = 5.39241 6.56716 6.00856
#
# Compressibility (1/GPa) = 0.02693515
#
# Stress axis : x y z
#
# Youngs Moduli (GPa) = 66.89472 120.71464 93.29358
#
# Poissons Ratio (x) = 0.20147 0.07000
# Poissons Ratio (y) = 0.11164 0.10160
# Poissons Ratio (z) = 0.05019 0.13146
#
# Static dielectric constant tensor:
#      x y z
#    x 15.535280 -12.215080 6.081570 
#    y -12.215080 13.261970 -5.499350 
#    z 6.081570 -5.499350 4.822580 
# 
# From -- ./inp_files/510058.got.cif
#   From: 2010.05.17/outbox.cif.g08.bks.cpg/sg2_256_cif.got.tgz:510058.got - 2010.06.03 11:33:40.
