data_PCOD9003832
_publ_section_title
;
Structure prediction by ZEFSAII (Michael W. Deem and Ramdas Pophale) SiO2 
 PCOD9003832
Probable space group: P -1
;
_chemical_formula_sum "Si O2"
_cell_formula_units_Z 16
_cell_length_a 19.058354
_cell_length_b 7.855608
_cell_length_c 10.841201
_cell_angle_alpha 65.084099
_cell_angle_beta 41.474346
_cell_angle_gamma 39.646206
_cell_volume 637.650759
_symmetry_space_group_name_H-M "P -1"
_symmetry_group_IT_number 2
_symmetry_cell_setting 'triclinic'
loop_
_space_group_symop_operation_xyz
x,y,z
-x,-y,-z
loop_
_atom_site_type_symbol
_atom_site_label
_atom_site_fract_x
_atom_site_fract_y
_atom_site_fract_z
Si Si1 0.147161 0.580579 0.867032
Si Si2 0.879694 0.178988 0.720323
Si Si3 0.494728 0.292799 0.519077
Si Si4 0.959536 0.869997 0.254349
Si Si5 0.558634 0.618100 0.721910
Si Si6 0.295646 0.086797 0.414717
Si Si7 0.495255 0.739063 0.029633
Si Si8 0.110701 0.586564 0.658535
O O1 0.324004 0.415937 0.720115
O O2 0.138803 0.459912 0.795413
O O3 0.063031 0.886630 0.836402
O O4 0.054131 0.637653 0.092048
O O5 0.944521 0.247100 0.709487
O O6 0.690151 0.462675 0.868308
O O7 0.000000 0.000000 0.500000
O O8 0.929050 0.911391 0.796048
O O9 0.500000 0.500000 0.500000
O O10 0.521457 0.254903 0.347019
O O11 0.609295 0.034594 0.544086
O O12 0.787548 0.004187 0.456182
O O13 0.563798 0.394319 0.824208
O O14 0.741320 0.456365 0.523511
O O15 0.467333 0.832291 0.895076
O O16 0.149425 0.423682 0.532276
O O17 0.405532 0.972644 0.185647
#
# Coordination Sequence:
#
# PCOD9003832 Si02
#       8
#     2   2   2   2   2   2   2   2
#     4   9  19  37  60  88 126 167 208 259 308 373
#     4  11  22  41  67  89 121 172 218 253 309 387
#     4  11  19  36  63  94 122 167 215 259 307 385
#     4  10  21  37  62  92 127 163 216 257 307 379
#     4  10  22  39  65  95 127 164 217 264 308 382
#     4  12  24  39  67  97 133 166 208 267 327 370
#     4  11  22  40  71  96 119 172 221 262 310 381
#     4  10  23  43  62  95 135 162 204 272 325 371
#
# _framework density 25.092106000000001
#
# number of rings (size 3 to 8) (size 9 to 14) (size 15 to 20)
#    0.000    1.500    3.750    2.250    1.750    4.000 
#    0.000    3.125    0.000    0.000    0.000    0.000 
#    0.000    0.000    0.000    0.000    0.000    0.000 
#
# Total GULP energy -89349.034158 kJ/mol
# GULP energy per Si atom -5584.314635 kJ/mol
# Density = 2.503500 g / cm^3
# Si number density = 25.092106 Si / 1000 Ang^3
#
#
#
# Elastic Constant Matrix: (Units=GPa)
#
#
# Indices 1 2 3 4 5 6 
#
# 1 135.8205 23.6750 81.8629 2.1033 46.7440 -19.6091
# 2 23.6750 51.0716 23.5335 3.2251 9.9307 -2.2482
# 3 81.8629 23.5335 185.3139 -5.5243 48.4043 -9.0214
# 4 2.1033 3.2251 -5.5243 34.6835 8.4713 6.1440
# 5 46.7440 9.9307 48.4043 8.4713 58.0530 0.0640
# 6 -19.6091 -2.2482 -9.0214 6.1440 0.0640 30.1120
#
#
#
# Elastic Compliance Matrix: (Units=1/GPa)
#
#
# Indices 1 2 3 4 5 6 
#
# 1 0.013623 -0.002933 -0.003285 -0.000590 -0.007651 0.007805
# 2 -0.002933 0.021748 -0.001626 -0.002118 0.000307 -0.000342
# 3 -0.003285 -0.001626 0.008263 0.002796 -0.004374 -0.000346
# 4 -0.000590 -0.002118 0.002796 0.032125 -0.006175 -0.006246
# 5 -0.007651 0.000307 -0.004374 -0.006175 0.027888 -0.005069
# 6 0.007805 -0.000342 -0.000346 -0.006246 -0.005069 0.039448
#
#
# Mechanical properties :
#
#
# Convention : Reuss Voigt Hill
#
# Bulk Modulus (GPa) = 35.78248 70.03877 52.91063
# Shear Modulus (GPa) = 29.74466 40.77867 35.26167
#
# Velocity S-wave (km/s) = 3.44673 4.03570 3.75279
# Velocity P-wave (km/s) = 5.48920 7.04905 6.31745
#
# Compressibility (1/GPa) = 0.02794664
#
# Stress axis : x y z
#
# Youngs Moduli (GPa) = 73.40627 45.98049 121.02441
#
# Poissons Ratio (x) = 0.13486 0.39752
# Poissons Ratio (y) = 0.21530 0.19680
# Poissons Ratio (z) = 0.24111 0.07477
#
# Static dielectric constant tensor:
#      x y z
#    x 2.056860 0.054170 0.072230 
#    y 0.054170 2.183290 0.010080 
#    z 0.072230 0.010080 1.984960 
# 
# From -- ./inp_files/469946.got.cif
#   From: 2010.05.17/outbox.cif.g08.bks.cpg/sg2_235_cif.got.tgz:469946.got - 2010.06.03 11:33:40.
