data_PCOD9003822
_publ_section_title
;
Structure prediction by ZEFSAII (Michael W. Deem and Ramdas Pophale) SiO2 
 PCOD9003822
Probable space group: P -1
;
_chemical_formula_sum "Si O2"
_cell_formula_units_Z 16
_cell_length_a 7.864635
_cell_length_b 15.927756
_cell_length_c 14.894758
_cell_angle_alpha 151.669330
_cell_angle_beta 53.357527
_cell_angle_gamma 127.972286
_cell_volume 690.346534
_symmetry_space_group_name_H-M "P -1"
_symmetry_group_IT_number 2
_symmetry_cell_setting 'triclinic'
loop_
_space_group_symop_operation_xyz
x,y,z
-x,-y,-z
loop_
_atom_site_type_symbol
_atom_site_label
_atom_site_fract_x
_atom_site_fract_y
_atom_site_fract_z
Si Si1 0.534219 0.371583 0.619093
Si Si2 0.865495 0.519678 0.814981
Si Si3 0.003387 0.105881 0.971205
Si Si4 0.554208 0.114654 0.214886
Si Si5 0.538730 0.748737 0.950845
Si Si6 0.853725 0.771096 0.591518
Si Si7 0.944678 0.843502 0.439371
Si Si8 0.221617 0.596953 0.073972
O O1 0.682867 0.426973 0.711747
O O2 0.597267 0.218291 0.394157
O O3 0.543292 0.551312 0.724469
O O4 0.280398 0.294089 0.649980
O O5 0.767459 0.513513 0.941379
O O6 0.058033 0.408347 0.630814
O O7 0.945779 0.731138 0.964032
O O8 0.979513 0.900980 0.750761
O O9 0.778020 0.122391 0.101483
O O10 0.211532 0.155629 0.016938
O O11 0.400047 0.223881 0.312870
O O12 0.451621 0.899476 0.065350
O O13 0.405369 0.682511 0.023445
O O14 0.901175 0.890626 0.598053
O O15 0.157762 0.767298 0.301496
O O16 0.000000 0.000000 0.500000
O O17 0.000000 0.500000 0.000000
#
# Coordination Sequence:
#
# PCOD9003822 Si02
#       8
#     2   2   2   2   2   2   2   2
#     4  10  22  42  62  93 130 166 213 261 316 379
#     4  10  25  41  64  95 130 165 212 263 318 380
#     4  11  25  42  65  96 128 171 213 265 316 372
#     4  11  24  42  67  94 127 172 216 260 317 372
#     4  11  24  41  66  94 126 171 211 262 318 377
#     4  10  23  40  60  93 129 165 213 260 315 372
#     4  10  21  37  62  92 122 170 209 257 316 373
#     4  11  22  40  63  92 126 165 208 258 318 381
#
# _framework density 23.176767000000002
#
# number of rings (size 3 to 8) (size 9 to 14) (size 15 to 20)
#    0.000    1.500    1.250    3.000    3.500    6.500 
#    0.000    3.125    0.000    0.000    0.000    0.000 
#    0.000    0.000    0.000    0.000    0.000    0.000 
#
# Total GULP energy -89179.011932 kJ/mol
# GULP energy per Si atom -5573.688246 kJ/mol
# Density = 2.312402 g / cm^3
# Si number density = 23.176767 Si / 1000 Ang^3
#
#
#
# Elastic Constant Matrix: (Units=GPa)
#
#
# Indices 1 2 3 4 5 6 
#
# 1 83.0222 6.2321 13.8095 3.2320 -0.6166 10.0629
# 2 6.2321 63.3117 -1.9279 -0.7705 -3.5163 -0.0093
# 3 13.8095 -1.9279 52.8421 -2.4791 -7.2197 4.4860
# 4 3.2320 -0.7705 -2.4791 31.2616 1.6626 -8.0062
# 5 -0.6166 -3.5163 -7.2197 1.6626 42.6877 -0.3610
# 6 10.0629 -0.0093 4.4860 -8.0062 -0.3610 29.1131
#
#
#
# Elastic Compliance Matrix: (Units=1/GPa)
#
#
# Indices 1 2 3 4 5 6 
#
# 1 0.013421 -0.001482 -0.003337 -0.002931 -0.000420 -0.004936
# 2 -0.001482 0.016067 0.001162 0.000704 0.001476 0.000550
# 3 -0.003337 0.001162 0.020510 0.001413 0.003448 -0.001575
# 4 -0.002931 0.000704 0.001413 0.035151 -0.001026 0.010449
# 5 -0.000420 0.001476 0.003448 -0.001026 0.024161 -0.000368
# 6 -0.004936 0.000550 -0.001575 0.010449 -0.000368 0.039167
#
#
# Mechanical properties :
#
#
# Convention : Reuss Voigt Hill
#
# Bulk Modulus (GPa) = 23.42959 26.15594 24.79277
# Shear Modulus (GPa) = 29.40826 32.68328 31.04577
#
# Velocity S-wave (km/s) = 3.56598 3.75930 3.66392
# Velocity P-wave (km/s) = 5.20442 5.49118 5.34972
#
# Compressibility (1/GPa) = 0.04268107
#
# Stress axis : x y z
#
# Youngs Moduli (GPa) = 74.51220 62.24025 48.75686
#
# Poissons Ratio (x) = 0.09227 0.16271
# Poissons Ratio (y) = 0.11046 -0.05663
# Poissons Ratio (z) = 0.24866 -0.07229
#
# Static dielectric constant tensor:
#      x y z
#    x 1.931690 0.094480 -0.023710 
#    y 0.094480 1.610650 -0.008850 
#    z -0.023710 -0.008850 1.967260 
# 
# From -- ./inp_files/505701.got.cif
#   From: 2010.05.17/outbox.cif.g08.bks.cpg/sg2_253_cif.got.tgz:505701.got - 2010.06.03 11:33:40.
