data_PCOD9003035
_publ_section_title
;
Structure prediction by ZEFSAII (Michael W. Deem and Ramdas Pophale) SiO2 
 PCOD9003035
Probable space group: P -1
;
_chemical_formula_sum "Si O2"
_cell_formula_units_Z 14
_cell_length_a 16.096535
_cell_length_b 7.419998
_cell_length_c 6.986911
_cell_angle_alpha 119.845517
_cell_angle_beta 94.096154
_cell_angle_gamma 85.234011
_cell_volume 720.872712
_symmetry_space_group_name_H-M "P -1"
_symmetry_group_IT_number 2
_symmetry_cell_setting 'triclinic'
loop_
_space_group_symop_operation_xyz
x,y,z
-x,-y,-z
loop_
_atom_site_type_symbol
_atom_site_label
_atom_site_fract_x
_atom_site_fract_y
_atom_site_fract_z
Si Si1 0.081052 0.618065 0.272564
Si Si2 0.769650 0.306498 0.931583
Si Si3 0.464544 0.555913 0.317932
Si Si4 0.967130 0.829336 0.052580
Si Si5 0.317841 0.908238 0.516199
Si Si6 0.620538 0.647731 0.125290
Si Si7 0.832239 0.155469 0.266750
O O1 0.106393 0.706864 0.527545
O O2 0.023528 0.782480 0.225288
O O3 0.165600 0.591017 0.146230
O O4 0.039774 0.397647 0.161596
O O5 0.693680 0.467803 0.057965
O O6 0.817189 0.232118 0.090143
O O7 0.732294 0.117820 0.704900
O O8 0.500000 0.500000 0.500000
O O9 0.542898 0.606375 0.226878
O O10 0.398704 0.751930 0.428894
O O11 0.415875 0.374715 0.107599
O O12 0.876518 0.925518 0.150009
O O13 0.000000 0.000000 0.000000
O O14 0.344395 0.135177 0.694919
O O15 0.255270 0.838418 0.633697
#
# Coordination Sequence:
#
# PCOD9003035 Si02
#       7
#     2   2   2   2   2   2   2
#     4  10  23  41  59  87 122 150 197 249 285 350
#     4  10  21  39  57  85 118 150 193 241 287 346
#     4  10  21  37  57  83 116 148 192 238 286 345
#     4  11  22  41  62  87 118 155 197 243 295 350
#     4  10  22  37  58  84 116 149 194 239 284 354
#     4  10  21  37  57  84 115 152 188 239 291 337
#     4  11  22  39  61  85 116 157 192 239 300 345
#
# _framework density 19.420905999999999
#
# number of rings (size 3 to 8) (size 9 to 14) (size 15 to 20)
#    0.000    1.714    1.429    2.571    0.000    3.429 
#    2.571    0.000    0.000    0.000    0.000    0.000 
#    0.000    0.000    0.000    0.000    0.000    0.000 
#
# Total GULP energy -78161.692674 kJ/mol
# GULP energy per Si atom -5582.978048 kJ/mol
# Density = 1.937670 g / cm^3
# Si number density = 19.420906 Si / 1000 Ang^3
#
#
#
# Elastic Constant Matrix: (Units=GPa)
#
#
# Indices 1 2 3 4 5 6 
#
# 1 72.8945 33.6801 26.3627 -3.6473 1.6782 -12.5364
# 2 33.6801 84.1235 73.6102 6.2647 23.1803 3.6529
# 3 26.3627 73.6102 152.8623 -1.6340 35.5503 2.5035
# 4 -3.6473 6.2647 -1.6340 28.3749 -1.3379 5.7356
# 5 1.6782 23.1803 35.5503 -1.3379 46.9029 7.8617
# 6 -12.5364 3.6529 2.5035 5.7356 7.8617 28.3479
#
#
#
# Elastic Compliance Matrix: (Units=1/GPa)
#
#
# Indices 1 2 3 4 5 6 
#
# 1 0.019477 -0.009539 0.000614 0.003017 0.002202 0.008567
# 2 -0.009539 0.026461 -0.010021 -0.007052 -0.004668 -0.004022
# 3 0.000614 -0.010021 0.012325 0.002540 -0.004544 0.001221
# 4 0.003017 -0.007052 0.002540 0.038900 0.003715 -0.006882
# 5 0.002202 -0.004668 -0.004544 0.003715 0.028204 -0.006597
# 6 0.008567 -0.004022 0.001221 -0.006882 -0.006597 0.042697
#
#
# Mechanical properties :
#
#
# Convention : Reuss Voigt Hill
#
# Bulk Modulus (GPa) = 49.08657 64.13181 56.60919
# Shear Modulus (GPa) = 23.50200 32.47362 27.98781
#
# Velocity S-wave (km/s) = 3.48248 4.09356 3.80032
# Velocity P-wave (km/s) = 6.44207 7.44559 6.96193
#
# Compressibility (1/GPa) = 0.02037217
#
# Stress axis : x y z
#
# Youngs Moduli (GPa) = 51.34168 37.79137 81.13350
#
# Poissons Ratio (x) = 0.36049 -0.04983
# Poissons Ratio (y) = 0.48974 0.81305
# Poissons Ratio (z) = -0.03153 0.37871
#
# Static dielectric constant tensor:
#      x y z
#    x 1.677890 0.001140 0.015060 
#    y 0.001140 1.638000 0.005700 
#    z 0.015060 0.005700 1.672930 
# 
# From -- ./inp_files/102662.got.cif
#   From: 2010.05.17/outbox.cif.g08.bks.cpg/sg2_52_cif.got.tgz:102662.got - 2010.06.03 11:33:40.
