data_PCOD9003897
_publ_section_title
;
Structure prediction by ZEFSAII (Michael W. Deem and Ramdas Pophale) SiO2 
 PCOD9003897
Probable space group: P -1
;
_chemical_formula_sum "Si O2"
_cell_formula_units_Z 14
_cell_length_a 11.096204
_cell_length_b 8.813646
_cell_length_c 11.003995
_cell_angle_alpha 111.567180
_cell_angle_beta 117.136055
_cell_angle_gamma 38.804525
_cell_volume 600.021504
_symmetry_space_group_name_H-M "P -1"
_symmetry_group_IT_number 2
_symmetry_cell_setting 'triclinic'
loop_
_space_group_symop_operation_xyz
x,y,z
-x,-y,-z
loop_
_atom_site_type_symbol
_atom_site_label
_atom_site_fract_x
_atom_site_fract_y
_atom_site_fract_z
Si Si1 0.523426 0.234788 0.511101
Si Si2 0.459093 0.429601 0.272492
Si Si3 0.818689 0.703735 0.590021
Si Si4 0.332752 0.018594 0.148404
Si Si5 0.779765 0.542258 0.225996
Si Si6 0.787939 0.610081 0.966629
Si Si7 0.697990 0.260460 0.093449
O O1 0.520920 0.287776 0.384302
O O2 0.567547 0.357166 0.645045
O O3 0.304175 0.356137 0.479952
O O4 0.689638 0.949098 0.526666
O O5 0.260159 0.520028 0.156000
O O6 0.621846 0.267936 0.191866
O O7 0.060195 0.500823 0.634035
O O8 0.789282 0.797461 0.743385
O O9 0.549682 0.774119 0.228172
O O10 0.361752 0.130032 0.091530
O O11 0.229753 0.955031 0.017687
O O12 0.829474 0.305048 0.183502
O O13 0.774127 0.601496 0.100867
O O14 0.000000 0.500000 0.000000
O O15 0.500000 0.500000 0.000000
#
# Coordination Sequence:
#
# PCOD9003897 Si02
#       7
#     2   2   2   2   2   2   2
#     4  10  23  41  67  86 132 181 206 263 301 377
#     4  11  21  42  64  92 132 170 213 253 319 383
#     4  11  23  43  65  98 122 169 225 250 318 375
#     4  11  22  39  66  96 132 162 204 269 326 372
#     4  11  23  40  65  99 129 159 212 268 323 375
#     4  12  22  38  65 100 127 161 205 264 326 376
#     4  10  21  37  62  97 126 164 201 264 332 371
#
# _framework density 23.332497
#
# number of rings (size 3 to 8) (size 9 to 14) (size 15 to 20)
#    0.000    1.143    5.714    2.143    0.000    1.714 
#    0.000    7.143    0.000    0.000    0.000    0.000 
#    0.000    0.000    0.000    0.000    0.000    0.000 
#
# Total GULP energy -78342.575927 kJ/mol
# GULP energy per Si atom -5595.898281 kJ/mol
# Density = 2.327939 g / cm^3
# Si number density = 23.332497 Si / 1000 Ang^3
#
#
#
# Elastic Constant Matrix: (Units=GPa)
#
#
# Indices 1 2 3 4 5 6 
#
# 1 108.0723 23.0423 32.1678 -19.4826 16.8004 22.0121
# 2 23.0423 49.2081 16.7830 -8.1470 26.1340 12.6865
# 3 32.1678 16.7830 123.9979 -10.4199 31.9099 20.2547
# 4 -19.4826 -8.1470 -10.4199 25.1291 13.1286 6.5179
# 5 16.8004 26.1340 31.9099 13.1286 56.5001 -1.5102
# 6 22.0121 12.6865 20.2547 6.5179 -1.5102 35.1708
#
#
#
# Elastic Compliance Matrix: (Units=1/GPa)
#
#
# Indices 1 2 3 4 5 6 
#
# 1 -0.204780 -0.455248 -0.214216 -0.870862 0.610934 0.603365
# 2 -0.455248 -0.914274 -0.442921 -1.821341 1.265352 1.261653
# 3 -0.214216 -0.442921 -0.198466 -0.856813 0.595588 0.592492
# 4 -0.870862 -1.821341 -0.856813 -3.504766 2.465206 2.450813
# 5 0.610934 1.265352 0.595588 2.465206 -1.704202 -1.711814
# 6 0.603365 1.261653 0.592492 2.450813 -1.711814 -1.673187
#
#
# Mechanical properties :
#
#
# Convention : Reuss Voigt Hill
#
# Bulk Modulus (GPa) = -0.28230 47.25159 23.48464
# Shear Modulus (GPa) = -0.69875 37.31236 18.30680
#
# Velocity S-wave (km/s) = -0.54784 4.00329 2.80412
# Velocity P-wave (km/s) = 0.72209 6.45475 4.53555
#
# Compressibility (1/GPa) = -3.54228984
#
# Stress axis : x y z
#
# Youngs Moduli (GPa) = -4.88329 -1.09376 -5.03864
#
# Poissons Ratio (x) = -0.49793 -1.07936
# Poissons Ratio (y) = -2.22310 -2.23172
# Poissons Ratio (z) = -1.04608 -0.48445
#
# Static dielectric constant tensor:
#      x y z
#    x 1.902500 -0.030050 0.003460 
#    y -0.030050 1.926380 0.028980 
#    z 0.003460 0.028980 1.910230 
# 
# From -- ./inp_files/259291.got.cif
#   From: 2010.05.17/outbox.cif.g08.bks.cpg/sg2_130_cif.got.tgz:259291.got - 2010.06.03 11:33:40.
