data_PCOD9003857
_publ_section_title
;
Structure prediction by ZEFSAII (Michael W. Deem and Ramdas Pophale) SiO2 
 PCOD9003857
Probable space group: P -1
;
_chemical_formula_sum "Si O2"
_cell_formula_units_Z 16
_cell_length_a 12.290114
_cell_length_b 9.817176
_cell_length_c 11.744211
_cell_angle_alpha 54.152282
_cell_angle_beta 108.605672
_cell_angle_gamma 138.592380
_cell_volume 740.347895
_symmetry_space_group_name_H-M "P -1"
_symmetry_group_IT_number 2
_symmetry_cell_setting 'triclinic'
loop_
_space_group_symop_operation_xyz
x,y,z
-x,-y,-z
loop_
_atom_site_type_symbol
_atom_site_label
_atom_site_fract_x
_atom_site_fract_y
_atom_site_fract_z
Si Si1 0.201153 0.727975 0.759246
Si Si2 0.639641 0.526031 0.835665
Si Si3 0.234074 0.369220 0.943109
Si Si4 0.172361 0.529148 0.212886
Si Si5 0.890600 0.926403 0.168933
Si Si6 0.258744 0.378814 0.516501
Si Si7 0.636371 0.802808 0.529394
Si Si8 0.320978 0.981566 0.911741
O O1 0.204012 0.534000 0.831353
O O2 0.012813 0.590757 0.788862
O O3 0.277849 0.925357 0.588711
O O4 0.310101 0.884331 0.832506
O O5 0.798308 0.582855 0.818297
O O6 0.653687 0.727532 0.691995
O O7 0.485961 0.270274 0.844025
O O8 0.622210 0.495417 0.979917
O O9 0.241093 0.284509 0.866679
O O10 0.072456 0.117492 0.078327
O O11 0.210201 0.478944 0.369036
O O12 0.298477 0.814685 0.080693
O O13 0.871538 0.798949 0.339376
O O14 0.833501 0.054223 0.113207
O O15 0.441452 0.602864 0.524487
O O16 0.276091 0.230807 0.515995
#
# Coordination Sequence:
#
# PCOD9003857 Si02
#       8
#     2   2   2   2   2   2   2   2
#     4  12  22  39  62  97 125 158 207 264 302 361
#     4  11  23  38  64  97 123 162 207 257 313 367
#     4  11  26  41  64  92 127 165 210 249 309 369
#     4  11  23  34  64  98 121 157 208 260 311 355
#     4  11  23  46  64  85 129 172 201 254 307 372
#     4  10  21  40  61  90 126 166 201 253 316 361
#     4  10  21  37  62  94 125 157 203 262 309 363
#     4  12  21  40  66  91 126 159 210 262 305 360
#
# _framework density 21.611460999999998
#
# number of rings (size 3 to 8) (size 9 to 14) (size 15 to 20)
#    0.000    1.000    5.000    3.000    3.500    1.500 
#    0.000    2.500    0.000    0.000    0.000    0.000 
#    0.000    0.000    0.000    0.000    0.000    0.000 
#
# Total GULP energy -89521.120439 kJ/mol
# GULP energy per Si atom -5595.070027 kJ/mol
# Density = 2.156227 g / cm^3
# Si number density = 21.611461 Si / 1000 Ang^3
#
#
#
# Elastic Constant Matrix: (Units=GPa)
#
#
# Indices 1 2 3 4 5 6 
#
# 1 40.0126 7.2050 22.4285 -3.2964 7.4645 -1.9779
# 2 7.2050 45.8036 22.7424 -2.0820 7.4132 -4.9501
# 3 22.4285 22.7424 178.7564 -17.3596 17.0707 -8.8165
# 4 -3.2964 -2.0820 -17.3596 28.9552 6.3765 -2.5630
# 5 7.4645 7.4132 17.0707 6.3765 24.8928 -0.7729
# 6 -1.9779 -4.9501 -8.8165 -2.5630 -0.7729 24.7491
#
#
#
# Elastic Compliance Matrix: (Units=1/GPa)
#
#
# Indices 1 2 3 4 5 6 
#
# 1 0.028272 -0.001884 -0.002220 0.003455 -0.007241 0.001223
# 2 -0.001884 0.024567 -0.001933 0.002038 -0.005820 0.004104
# 3 -0.002220 -0.001933 0.007222 0.005247 -0.004981 0.002397
# 4 0.003455 0.002038 0.005247 0.042287 -0.015874 0.006436
# 5 -0.007241 -0.005820 -0.004981 -0.015874 0.051449 -0.003554
# 6 0.001223 0.004104 0.002397 0.006436 -0.003554 0.042733
#
#
# Mechanical properties :
#
#
# Convention : Reuss Voigt Hill
#
# Bulk Modulus (GPa) = 20.83904 41.03607 30.93755
# Shear Modulus (GPa) = 22.26191 29.86588 26.06390
#
# Velocity S-wave (km/s) = 3.21300 3.72149 3.47655
# Velocity P-wave (km/s) = 4.84024 6.12334 5.51921
#
# Compressibility (1/GPa) = 0.04798686
#
# Stress axis : x y z
#
# Youngs Moduli (GPa) = 35.37091 40.70577 138.46297
#
# Poissons Ratio (x) = 0.07667 0.30742
# Poissons Ratio (y) = 0.06662 0.26765
# Poissons Ratio (z) = 0.07853 0.07869
#
# Static dielectric constant tensor:
#      x y z
#    x 1.797530 0.050630 -0.008160 
#    y 0.050630 1.822750 0.015460 
#    z -0.008160 0.015460 1.784050 
# 
# From -- ./inp_files/256638.got.cif
#   From: 2010.05.17/outbox.cif.g08.bks.cpg/sg2_129_cif.got.tgz:256638.got - 2010.06.03 11:33:40.
