data_PCOD9003463
_publ_section_title
;
Structure prediction by ZEFSAII (Michael W. Deem and Ramdas Pophale) SiO2 
 PCOD9003463
Probable space group: P -1
;
_chemical_formula_sum "Si O2"
_cell_formula_units_Z 16
_cell_length_a 7.177247
_cell_length_b 20.147556
_cell_length_c 18.139372
_cell_angle_alpha 156.761801
_cell_angle_beta 42.579850
_cell_angle_gamma 137.096159
_cell_volume 684.726170
_symmetry_space_group_name_H-M "P -1"
_symmetry_group_IT_number 2
_symmetry_cell_setting 'triclinic'
loop_
_space_group_symop_operation_xyz
x,y,z
-x,-y,-z
loop_
_atom_site_type_symbol
_atom_site_label
_atom_site_fract_x
_atom_site_fract_y
_atom_site_fract_z
Si Si1 0.129541 0.464673 0.184203
Si Si2 0.689939 0.137395 0.436652
Si Si3 0.678002 0.432671 0.046775
Si Si4 0.943812 0.133730 0.996811
Si Si5 0.150929 0.995124 0.530522
Si Si6 0.553806 0.039633 0.140470
Si Si7 0.321734 0.260028 0.542192
Si Si8 0.241160 0.778144 0.067154
O O1 0.137495 0.667001 0.399128
O O2 0.458145 0.449036 0.063498
O O3 0.910495 0.386223 0.104314
O O4 0.051084 0.330654 0.139417
O O5 0.479048 0.061791 0.487775
O O6 0.489590 0.166658 0.457224
O O7 0.869171 0.999678 0.220312
O O8 0.604427 0.548349 0.254016
O O9 0.673161 0.255938 0.909345
O O10 0.000000 0.500000 0.000000
O O11 0.662324 0.066975 0.963472
O O12 0.846260 0.107980 0.083799
O O13 0.000000 0.000000 0.500000
O O14 0.011412 0.811267 0.418895
O O15 0.012003 0.119282 0.749315
O O16 0.429787 0.199018 0.371817
O O17 0.511354 0.894389 0.068106
#
# Coordination Sequence:
#
# PCOD9003463 Si02
#       8
#     2   2   2   2   2   2   2   2
#     4  10  24  41  57  98 124 154 221 247 298 387
#     4  10  21  37  60  89 121 158 198 257 311 354
#     4  11  23  37  62  93 127 167 195 253 320 360
#     4  10  22  41  65  83 125 165 197 269 310 348
#     4   9  18  35  60  85 121 156 198 250 300 372
#     4   9  21  43  59  89 116 158 218 247 308 376
#     4   9  20  37  57  88 119 154 209 246 302 381
#     4  10  21  41  63  85 127 165 197 260 311 359
#
# _framework density 23.367006
#
# number of rings (size 3 to 8) (size 9 to 14) (size 15 to 20)
#    0.000    2.250    0.000    2.250    8.750    2.500 
#    2.250    5.000    0.000    0.000    0.000    0.000 
#    0.000    0.000    0.000    0.000    0.000    0.000 
#
# Total GULP energy -89230.468663 kJ/mol
# GULP energy per Si atom -5576.904291 kJ/mol
# Density = 2.331382 g / cm^3
# Si number density = 23.367006 Si / 1000 Ang^3
#
#
#
# Elastic Constant Matrix: (Units=GPa)
#
#
# Indices 1 2 3 4 5 6 
#
# 1 66.2334 24.7120 0.8392 7.7208 -5.5390 1.2604
# 2 24.7120 127.3314 66.7923 -9.0105 -3.1376 4.1247
# 3 0.8392 66.7923 103.2990 9.1987 9.6321 4.3844
# 4 7.7208 -9.0105 9.1987 33.1101 5.4503 7.7695
# 5 -5.5390 -3.1376 9.6321 5.4503 37.3334 9.2994
# 6 1.2604 4.1247 4.3844 7.7695 9.2994 32.1846
#
#
#
# Elastic Compliance Matrix: (Units=1/GPa)
#
#
# Indices 1 2 3 4 5 6 
#
# 1 0.018541 -0.006519 0.004547 -0.007879 0.001975 0.000821
# 2 -0.006519 0.015739 -0.011054 0.009197 0.002674 -0.003249
# 3 0.004547 -0.011054 0.017872 -0.008858 -0.004102 0.002128
# 4 -0.007879 0.009197 -0.008858 0.039315 -0.001692 -0.008665
# 5 0.001975 0.002674 -0.004102 -0.001692 0.030681 -0.008318
# 6 0.000821 -0.003249 0.002128 -0.008665 -0.008318 0.035660
#
#
# Mechanical properties :
#
#
# Convention : Reuss Voigt Hill
#
# Bulk Modulus (GPa) = 38.31451 53.50565 45.91008
# Shear Modulus (GPa) = 25.96585 34.16030 30.06308
#
# Velocity S-wave (km/s) = 3.33711 3.82763 3.59076
# Velocity P-wave (km/s) = 5.59293 6.51782 6.07301
#
# Compressibility (1/GPa) = 0.02609977
#
# Stress axis : x y z
#
# Youngs Moduli (GPa) = 53.93536 63.53567 55.95251
#
# Poissons Ratio (x) = 0.41418 -0.25441
# Poissons Ratio (y) = 0.35160 0.61851
# Poissons Ratio (z) = -0.24524 0.70234
#
# Static dielectric constant tensor:
#      x y z
#    x 1.958260 -0.008020 0.014480 
#    y -0.008020 1.978820 0.029150 
#    z 0.014480 0.029150 1.942200 
# 
# From -- ./inp_files/314792.got.cif
#   From: 2010.05.17/outbox.cif.g08.bks.cpg/sg2_158_cif.got.tgz:314792.got - 2010.06.03 11:33:40.
