data_PCOD9003472
_publ_section_title
;
Structure prediction by ZEFSAII (Michael W. Deem and Ramdas Pophale) SiO2 
 PCOD9003472
Probable space group: P -1
;
_chemical_formula_sum "Si O2"
_cell_formula_units_Z 16
_cell_length_a 8.672143
_cell_length_b 17.612566
_cell_length_c 7.772610
_cell_angle_alpha 89.108164
_cell_angle_beta 126.043552
_cell_angle_gamma 116.975515
_cell_volume 801.754165
_symmetry_space_group_name_H-M "P -1"
_symmetry_group_IT_number 2
_symmetry_cell_setting 'triclinic'
loop_
_space_group_symop_operation_xyz
x,y,z
-x,-y,-z
loop_
_atom_site_type_symbol
_atom_site_label
_atom_site_fract_x
_atom_site_fract_y
_atom_site_fract_z
Si Si1 0.803159 0.656337 0.689871
Si Si2 0.764321 0.489587 0.228272
Si Si3 0.119273 0.653975 0.617988
Si Si4 0.577173 0.843845 0.896770
Si Si5 0.108126 0.150899 0.183280
Si Si6 0.431645 0.497668 0.237925
Si Si7 0.252988 0.082015 0.608676
Si Si8 0.563142 0.011060 0.840316
O O1 0.827427 0.746663 0.764658
O O2 0.558635 0.582109 0.447240
O O3 0.795383 0.591527 0.836684
O O4 0.992594 0.679815 0.670438
O O5 0.860786 0.426513 0.290825
O O6 0.609798 0.471246 0.295929
O O7 0.951499 0.598004 0.351818
O O8 0.612810 0.465938 0.963581
O O9 0.363505 0.741594 0.735186
O O10 0.788949 0.860915 0.923423
O O11 0.514527 0.912426 0.772655
O O12 0.636280 0.862777 0.140099
O O13 0.212903 0.130657 0.420997
O O14 0.833847 0.083399 0.000743
O O15 0.408998 0.043836 0.656156
O O16 0.000000 0.000000 0.500000
O O17 0.500000 0.000000 0.000000
#
# Coordination Sequence:
#
# PCOD9003472 Si02
#       8
#     2   2   2   2   2   2   2   2
#     4  10  21  37  60  89 125 164 205 262 314 369
#     4   9  19  38  61  86 120 163 208 255 315 376
#     4  10  21  38  60  89 126 161 205 264 313 367
#     4  11  24  43  64  94 130 166 213 268 311 379
#     4  12  24  44  65  95 132 168 213 263 314 380
#     4   9  19  38  60  86 121 163 207 255 315 378
#     4  11  24  43  70  94 125 174 207 259 330 372
#     4  10  21  43  66  92 131 161 210 265 308 378
#
# _framework density 19.956240000000001
#
# number of rings (size 3 to 8) (size 9 to 14) (size 15 to 20)
#    0.000    1.750    2.500    2.625    1.750    2.000 
#    6.750    0.000    0.000    0.000    0.000    0.000 
#    0.000    0.000    0.000    0.000    0.000    0.000 
#
# Total GULP energy -89185.000584 kJ/mol
# GULP energy per Si atom -5574.062536 kJ/mol
# Density = 1.991082 g / cm^3
# Si number density = 19.956240 Si / 1000 Ang^3
#
#
#
# Elastic Constant Matrix: (Units=GPa)
#
#
# Indices 1 2 3 4 5 6 
#
# 1 76.0341 22.2049 20.2605 1.6743 16.1676 0.2631
# 2 22.2049 70.4238 14.4544 17.4688 9.3646 -0.7710
# 3 20.2605 14.4544 50.8046 0.5722 7.0861 2.4687
# 4 1.6743 17.4688 0.5722 25.4139 3.1425 5.5645
# 5 16.1676 9.3646 7.0861 3.1425 29.7543 3.1857
# 6 0.2631 -0.7710 2.4687 5.5645 3.1857 38.2499
#
#
#
# Elastic Compliance Matrix: (Units=1/GPa)
#
#
# Indices 1 2 3 4 5 6 
#
# 1 0.017068 -0.004115 -0.004680 0.002627 -0.007176 0.000317
# 2 -0.004115 0.019974 -0.003745 -0.013748 -0.002011 0.002840
# 3 -0.004680 -0.003745 0.022929 0.002991 -0.001862 -0.001803
# 4 0.002627 -0.013748 0.002991 0.050520 -0.002330 -0.007644
# 5 -0.007176 -0.002011 -0.001862 -0.002330 0.039129 -0.002791
# 6 0.000317 0.002840 -0.001803 -0.007644 -0.002791 0.027660
#
#
# Mechanical properties :
#
#
# Convention : Reuss Voigt Hill
#
# Bulk Modulus (GPa) = 28.66004 34.56691 31.61348
# Shear Modulus (GPa) = 23.36578 28.03980 25.70279
#
# Velocity S-wave (km/s) = 3.42548 3.75249 3.59271
# Velocity P-wave (km/s) = 5.48068 6.01114 5.75203
#
# Compressibility (1/GPa) = 0.03489178
#
# Stress axis : x y z
#
# Youngs Moduli (GPa) = 58.59046 50.06408 43.61379
#
# Poissons Ratio (x) = 0.20601 0.20410
# Poissons Ratio (y) = 0.24110 0.16332
# Poissons Ratio (z) = 0.27419 0.18747
#
# Static dielectric constant tensor:
#      x y z
#    x 1.750370 -0.003270 0.017110 
#    y -0.003270 1.702910 -0.028210 
#    z 0.017110 -0.028210 1.748110 
# 
# From -- ./inp_files/202294.got.cif
#   From: 2010.05.17/outbox.cif.g08.bks.cpg/sg2_102_cif.got.tgz:202294.got - 2010.06.03 11:33:40.
