data_PCOD9003001
_publ_section_title
;
Structure prediction by ZEFSAII (Michael W. Deem and Ramdas Pophale) SiO2 
 PCOD9003001
Probable space group: P -1
;
_chemical_formula_sum "Si O2"
_cell_formula_units_Z 16
_cell_length_a 15.922015
_cell_length_b 5.535944
_cell_length_c 9.194986
_cell_angle_alpha 89.763892
_cell_angle_beta 78.800421
_cell_angle_gamma 64.301742
_cell_volume 713.457739
_symmetry_space_group_name_H-M "P -1"
_symmetry_group_IT_number 2
_symmetry_cell_setting 'triclinic'
loop_
_space_group_symop_operation_xyz
x,y,z
-x,-y,-z
loop_
_atom_site_type_symbol
_atom_site_label
_atom_site_fract_x
_atom_site_fract_y
_atom_site_fract_z
Si Si1 0.581265 0.134193 0.423531
Si Si2 0.774054 0.650749 0.133605
Si Si3 0.401407 0.229762 0.978352
Si Si4 0.697827 0.488732 0.408978
Si Si5 0.935603 0.777928 0.104813
Si Si6 0.111073 0.785455 0.131565
Si Si7 0.478812 0.594490 0.261893
Si Si8 0.713873 0.375067 0.736729
O O1 0.647295 0.293529 0.399911
O O2 0.506332 0.297208 0.320533
O O3 0.527634 0.224410 0.596243
O O4 0.639175 0.814770 0.410879
O O5 0.667999 0.832804 0.106015
O O6 0.770626 0.439124 0.252352
O O7 0.836770 0.780028 0.185616
O O8 0.830098 0.494702 0.972141
O O9 0.439779 0.415593 0.874386
O O10 0.338817 0.371805 0.139138
O O11 0.500000 0.000000 0.000000
O O12 0.729167 0.439520 0.566075
O O13 0.908716 0.996181 0.986851
O O14 0.000000 0.500000 0.000000
O O15 0.006031 0.809100 0.200474
O O16 0.182939 0.802266 0.226948
O O17 0.370718 0.721316 0.237575
#
# Coordination Sequence:
#
# PCOD9003001 Si02
#       8
#     2   2   2   2   2   2   2   2
#     4  10  23  39  62  83 128 173 223 252 298 372
#     4  10  22  36  62  90 121 163 210 246 316 371
#     4  11  22  35  54  91 128 165 211 258 306 366
#     4  11  23  42  60  92 125 174 209 257 308 374
#     4   9  19  39  67  91 113 157 199 263 314 381
#     4   9  20  41  64  91 122 148 209 259 320 371
#     4  10  21  37  56  87 121 174 211 260 306 360
#     4  10  23  37  58  88 126 162 208 259 318 358
#
# _framework density 22.425996000000001
#
# number of rings (size 3 to 8) (size 9 to 14) (size 15 to 20)
#    0.000    2.000    1.250    1.125    5.250    4.500 
#    6.750    0.625    0.000    6.750    0.000    0.000 
#    0.000    0.000    0.000    0.000    0.000    0.000 
#
# Total GULP energy -89179.770784 kJ/mol
# GULP energy per Si atom -5573.735674 kJ/mol
# Density = 2.237495 g / cm^3
# Si number density = 22.425996 Si / 1000 Ang^3
#
#
#
# Elastic Constant Matrix: (Units=GPa)
#
#
# Indices 1 2 3 4 5 6 
#
# 1 211.1896 29.4503 52.5665 -27.6895 21.3264 -6.4520
# 2 29.4503 69.4549 -7.7700 -14.0013 7.8964 -5.7142
# 3 52.5665 -7.7700 80.5179 -9.2240 11.0195 -3.1106
# 4 -27.6895 -14.0013 -9.2240 23.8364 -2.7105 -0.3231
# 5 21.3264 7.8964 11.0195 -2.7105 27.6844 -15.4017
# 6 -6.4520 -5.7142 -3.1106 -0.3231 -15.4017 27.4013
#
#
#
# Elastic Compliance Matrix: (Units=1/GPa)
#
#
# Indices 1 2 3 4 5 6 
#
# 1 0.006905 -0.002043 -0.003716 0.004988 -0.003352 -0.001047
# 2 -0.002043 0.018358 0.004792 0.009900 -0.003449 0.002069
# 3 -0.003716 0.004792 0.016464 0.004279 -0.005095 -0.000820
# 4 0.004988 0.009900 0.004279 0.055184 -0.000775 0.003940
# 5 -0.003352 -0.003449 -0.005095 -0.000775 0.058888 0.031003
# 6 -0.001047 0.002069 -0.000820 0.003940 0.031003 0.054059
#
#
# Mechanical properties :
#
#
# Convention : Reuss Voigt Hill
#
# Bulk Modulus (GPa) = 25.13019 56.62844 40.87931
# Shear Modulus (GPa) = 22.21666 34.91211 28.56439
#
# Velocity S-wave (km/s) = 3.15090 3.94987 3.57279
# Velocity P-wave (km/s) = 4.94648 6.79029 5.94036
#
# Compressibility (1/GPa) = 0.03979278
#
# Stress axis : x y z
#
# Youngs Moduli (GPa) = 144.81498 54.47115 60.74034
#
# Poissons Ratio (x) = 0.11129 0.22569
# Poissons Ratio (y) = 0.29588 -0.29104
# Poissons Ratio (z) = 0.53808 -0.26100
#
# Static dielectric constant tensor:
#      x y z
#    x 1.973270 0.002980 -0.017030 
#    y 0.002980 1.892150 0.041110 
#    z -0.017030 0.041110 1.870480 
# 
# From -- ./inp_files/288625.got.cif
#   From: 2010.05.17/outbox.cif.g08.bks.cpg/sg2_145_cif.got.tgz:288625.got - 2010.06.03 11:33:40.
