data_PCOD9003563
_publ_section_title
;
Structure prediction by ZEFSAII (Michael W. Deem and Ramdas Pophale) SiO2 
 PCOD9003563
Probable space group: P -1
;
_chemical_formula_sum "Si O2"
_cell_formula_units_Z 14
_cell_length_a 11.097485
_cell_length_b 14.563652
_cell_length_c 5.586912
_cell_angle_alpha 109.267461
_cell_angle_beta 99.345999
_cell_angle_gamma 42.636821
_cell_volume 572.781375
_symmetry_space_group_name_H-M "P -1"
_symmetry_group_IT_number 2
_symmetry_cell_setting 'triclinic'
loop_
_space_group_symop_operation_xyz
x,y,z
-x,-y,-z
loop_
_atom_site_type_symbol
_atom_site_label
_atom_site_fract_x
_atom_site_fract_y
_atom_site_fract_z
Si Si1 0.649042 0.456342 0.686297
Si Si2 0.227964 0.792996 0.310062
Si Si3 0.940067 0.747480 0.439945
Si Si4 0.043418 0.377372 0.167385
Si Si5 0.703976 0.636748 0.034137
Si Si6 0.868712 0.027486 0.172502
Si Si7 0.342263 0.930458 0.236062
O O1 0.500000 0.500000 0.500000
O O2 0.669187 0.366128 0.830132
O O3 0.621527 0.582770 0.871157
O O4 0.853411 0.335086 0.540005
O O5 0.241303 0.822834 0.611465
O O6 0.293762 0.850392 0.245491
O O7 0.017319 0.897939 0.286442
O O8 0.935114 0.700370 0.135528
O O9 0.777175 0.919673 0.545645
O O10 0.918791 0.694743 0.629411
O O11 0.838358 0.533484 0.205652
O O12 0.175191 0.389964 0.162841
O O13 0.555402 0.803360 0.198016
O O14 0.736197 0.026480 0.020979
O O15 0.000000 0.000000 0.000000
#
# Coordination Sequence:
#
# PCOD9003563 Si02
#       7
#     2   2   2   2   2   2   2
#     4  11  24  43  70 111 145 197 238 298 367 452
#     4  10  21  37  60  99 145 186 234 288 362 441
#     4  11  26  48  79 107 145 194 246 306 363 434
#     4  10  26  53  76 104 144 196 252 302 364 430
#     4  10  25  47  72 105 144 192 246 307 362 434
#     4   9  18  35  58  89 138 182 228 281 351 427
#     4  11  24  40  70 105 139 190 237 310 364 435
#
# _framework density 24.442138
#
# number of rings (size 3 to 8) (size 9 to 14) (size 15 to 20)
#    0.000    1.714    0.000    3.429    8.000    8.000 
#    2.571    0.000    0.000    0.000    0.000    0.000 
#    0.000    0.000    0.000    0.000    0.000    0.000 
#
# Total GULP energy -78184.049889 kJ/mol
# GULP energy per Si atom -5584.574992 kJ/mol
# Density = 2.438651 g / cm^3
# Si number density = 24.442138 Si / 1000 Ang^3
#
#
#
# Elastic Constant Matrix: (Units=GPa)
#
#
# Indices 1 2 3 4 5 6 
#
# 1 86.1753 40.8009 29.0138 0.3403 7.5237 5.6941
# 2 40.8009 157.6822 56.3273 27.7517 -0.2341 -9.5536
# 3 29.0138 56.3273 106.3594 14.0983 11.0823 -2.5252
# 4 0.3403 27.7517 14.0983 39.1835 6.0065 -13.8784
# 5 7.5237 -0.2341 11.0823 6.0065 27.2059 -0.4673
# 6 5.6941 -9.5536 -2.5252 -13.8784 -0.4673 34.3595
#
#
#
# Elastic Compliance Matrix: (Units=1/GPa)
#
#
# Indices 1 2 3 4 5 6 
#
# 1 0.014541 -0.003708 -0.002046 0.002971 -0.003917 -0.002444
# 2 -0.003708 0.009722 -0.003756 -0.005847 0.003943 0.000734
# 3 -0.002046 -0.003756 0.012563 -0.001315 -0.004300 -0.000371
# 4 0.002971 -0.005847 -0.001315 0.035605 -0.007990 0.012058
# 5 -0.003917 0.003943 -0.004300 -0.007990 0.041368 -0.001235
# 6 -0.002444 0.000734 -0.000371 0.012058 -0.001235 0.034540
#
#
# Mechanical properties :
#
#
# Convention : Reuss Voigt Hill
#
# Bulk Modulus (GPa) = 56.16322 66.94452 61.55387
# Shear Modulus (GPa) = 28.85259 35.08809 31.97034
#
# Velocity S-wave (km/s) = 3.43949 3.79299 3.62055
# Velocity P-wave (km/s) = 6.22907 6.82867 6.53575
#
# Compressibility (1/GPa) = 0.01780525
#
# Stress axis : x y z
#
# Youngs Moduli (GPa) = 68.77205 102.85571 79.60008
#
# Poissons Ratio (x) = 0.38142 0.16289
# Poissons Ratio (y) = 0.25503 0.29895
# Poissons Ratio (z) = 0.14073 0.38629
#
# Static dielectric constant tensor:
#      x y z
#    x 1.991880 0.025450 0.005780 
#    y 0.025450 2.087170 -0.041200 
#    z 0.005780 -0.041200 2.019330 
# 
# From -- ./inp_files/78418.got.cif
#   From: 2010.05.17/outbox.cif.g08.bks.cpg/sg2_40_cif.got.tgz:78418.got - 2010.06.03 11:33:40.
