data_PCOD9003431
_publ_section_title
;
Structure prediction by ZEFSAII (Michael W. Deem and Ramdas Pophale) SiO2 
 PCOD9003431
Probable space group: P -1
;
_chemical_formula_sum "Si O2"
_cell_formula_units_Z 14
_cell_length_a 13.278243
_cell_length_b 5.684109
_cell_length_c 13.083267
_cell_angle_alpha 125.427172
_cell_angle_beta 86.258828
_cell_angle_gamma 125.223736
_cell_volume 601.210875
_symmetry_space_group_name_H-M "P -1"
_symmetry_group_IT_number 2
_symmetry_cell_setting 'triclinic'
loop_
_space_group_symop_operation_xyz
x,y,z
-x,-y,-z
loop_
_atom_site_type_symbol
_atom_site_label
_atom_site_fract_x
_atom_site_fract_y
_atom_site_fract_z
Si Si1 0.359864 0.480002 0.214798
Si Si2 0.428216 0.544139 0.784168
Si Si3 0.670007 0.467811 0.002577
Si Si4 0.205101 0.300280 0.581124
Si Si5 0.873744 0.389156 0.922982
Si Si6 0.047599 0.264771 0.422041
Si Si7 0.828625 0.384124 0.696556
O O1 0.503141 0.636935 0.283811
O O2 0.350962 0.417054 0.076297
O O3 0.311942 0.715423 0.298316
O O4 0.246891 0.069474 0.171940
O O5 0.334905 0.503574 0.692993
O O6 0.554165 0.002728 0.899880
O O7 0.348844 0.383939 0.856667
O O8 0.811420 0.568167 0.015472
O O9 0.182316 0.474553 0.532980
O O10 0.189232 0.961232 0.440254
O O11 0.079387 0.144076 0.625003
O O12 0.899689 0.488761 0.826885
O O13 0.000000 0.500000 0.000000
O O14 0.083502 0.276040 0.306258
O O15 0.000000 0.500000 0.500000
#
# Coordination Sequence:
#
# PCOD9003431 Si02
#       7
#     2   2   2   2   2   2   2
#     4  10  21  39  58  83 119 152 190 241 290 342
#     4  10  21  38  59  84 116 154 196 239 285 342
#     4   9  21  38  57  85 117 150 194 243 287 341
#     4  10  21  37  60  87 116 153 194 237 287 346
#     4  10  22  38  60  87 114 150 193 240 292 343
#     4   9  20  37  56  84 118 149 188 238 288 342
#     4  10  21  38  58  85 120 151 189 241 289 344
#
# _framework density 23.286337
#
# number of rings (size 3 to 8) (size 9 to 14) (size 15 to 20)
#    0.000    2.286    0.000    1.286    0.000   10.857 
#    0.000   10.000    0.000    0.000    0.000    0.000 
#    0.000    0.000    0.000    0.000    0.000    0.000 
#
# Total GULP energy -78216.896762 kJ/mol
# GULP energy per Si atom -5586.921197 kJ/mol
# Density = 2.323334 g / cm^3
# Si number density = 23.286337 Si / 1000 Ang^3
#
#
#
# Elastic Constant Matrix: (Units=GPa)
#
#
# Indices 1 2 3 4 5 6 
#
# 1 166.4730 24.5517 85.2031 -19.0382 34.0535 6.1599
# 2 24.5517 62.0938 38.3407 -40.0215 5.6246 9.5051
# 3 85.2031 38.3407 97.5252 -34.5861 20.5464 20.9251
# 4 -19.0382 -40.0215 -34.5861 42.3507 -5.3713 -0.2061
# 5 34.0535 5.6246 20.5464 -5.3713 45.4946 -4.4614
# 6 6.1599 9.5051 20.9251 -0.2061 -4.4614 28.6267
#
#
#
# Elastic Compliance Matrix: (Units=1/GPa)
#
#
# Indices 1 2 3 4 5 6 
#
# 1 0.013427 -0.003383 -0.015110 -0.009853 -0.003116 0.008722
# 2 -0.003383 0.048317 0.005862 0.048542 -0.002280 -0.019606
# 3 -0.015110 0.005862 0.038982 0.029652 -0.006260 -0.027952
# 4 -0.009853 0.048542 0.029652 0.088451 -0.005088 -0.035828
# 5 -0.003116 -0.002280 -0.006260 -0.005088 0.027832 0.010304
# 6 0.008722 -0.019606 -0.027952 -0.035828 0.010304 0.061345
#
#
# Mechanical properties :
#
#
# Convention : Reuss Voigt Hill
#
# Bulk Modulus (GPa) = 13.25125 69.14256 41.19691
# Shear Modulus (GPa) = 15.20809 35.16083 25.18446
#
# Velocity S-wave (km/s) = 2.55834 3.89000 3.29220
# Velocity P-wave (km/s) = 3.79865 7.06632 5.67286
#
# Compressibility (1/GPa) = 0.07546456
#
# Stress axis : x y z
#
# Youngs Moduli (GPa) = 74.47473 20.69653 25.65269
#
# Poissons Ratio (x) = 0.07001 0.38762
# Poissons Ratio (y) = 0.25194 -0.15038
# Poissons Ratio (z) = 1.12533 -0.12132
#
# Static dielectric constant tensor:
#      x y z
#    x 1.880060 -0.014920 0.002050 
#    y -0.014920 1.950190 -0.005370 
#    z 0.002050 -0.005370 1.856200 
# 
# From -- ./inp_files/65877.got.cif
#   From: 2010.05.17/outbox.cif.g08.bks.cpg/sg2_33_cif.got.tgz:65877.got - 2010.06.03 11:33:40.
