data_PCOD9003919
_publ_section_title
;
Structure prediction by ZEFSAII (Michael W. Deem and Ramdas Pophale) SiO2 
 PCOD9003919
Probable space group: P -1
;
_chemical_formula_sum "Si O2"
_cell_formula_units_Z 14
_cell_length_a 8.939208
_cell_length_b 15.108207
_cell_length_c 23.947365
_cell_angle_alpha 16.812996
_cell_angle_beta 37.691027
_cell_angle_gamma 37.796320
_cell_volume 562.101304
_symmetry_space_group_name_H-M "P -1"
_symmetry_group_IT_number 2
_symmetry_cell_setting 'triclinic'
loop_
_space_group_symop_operation_xyz
x,y,z
-x,-y,-z
loop_
_atom_site_type_symbol
_atom_site_label
_atom_site_fract_x
_atom_site_fract_y
_atom_site_fract_z
Si Si1 0.576211 0.852695 0.653340
Si Si2 0.337304 0.135989 0.047042
Si Si3 0.754579 0.643588 0.945556
Si Si4 0.948049 0.468139 0.691930
Si Si5 0.086433 0.689790 0.720539
Si Si6 0.050930 0.246352 0.590418
Si Si7 0.834703 0.796359 0.099320
O O1 0.709083 0.700841 0.648846
O O2 0.789484 0.027873 0.509069
O O3 0.334861 0.125496 0.563275
O O4 0.439592 0.575681 0.883164
O O5 0.398202 0.145106 0.089290
O O6 0.547461 0.867180 0.123517
O O7 0.300743 0.471876 0.826776
O O8 0.073638 0.031669 0.182379
O O9 0.865739 0.784785 0.773423
O O10 0.000000 0.500000 0.000000
O O11 0.066051 0.631004 0.508386
O O12 0.116189 0.367420 0.756817
O O13 0.893814 0.143711 0.877907
O O14 0.023195 0.445028 0.841565
O O15 0.000000 0.500000 0.500000
#
# Coordination Sequence:
#
# PCOD9003919 Si02
#       7
#     2   2   2   2   2   2   2
#     4  12  23  42  70 100 129 173 222 271 333 388
#     4  11  21  40  67  95 133 170 215 280 327 385
#     4  10  21  37  63 101 129 162 217 274 326 381
#     4  11  26  42  68  90 135 185 213 267 334 402
#     4  11  23  40  70  98 131 169 223 283 320 387
#     4  12  24  40  69 105 130 163 226 282 325 389
#     4  11  24  46  61  94 136 179 221 263 336 392
#
# _framework density 24.906542999999999
#
# number of rings (size 3 to 8) (size 9 to 14) (size 15 to 20)
#    0.000    0.857    4.286    4.286    4.000    1.143 
#    0.000    2.143    0.000    0.000    0.000    0.000 
#    0.000    0.000    0.000    0.000    0.000    0.000 
#
# Total GULP energy -78087.293294 kJ/mol
# GULP energy per Si atom -5577.663807 kJ/mol
# Density = 2.484985 g / cm^3
# Si number density = 24.906543 Si / 1000 Ang^3
#
#
#
# Elastic Constant Matrix: (Units=GPa)
#
#
# Indices 1 2 3 4 5 6 
#
# 1 81.4904 33.8959 28.4632 1.1776 -11.7029 10.9055
# 2 33.8959 98.9790 28.6404 -22.3233 7.4007 5.2790
# 3 28.4632 28.6404 97.9502 3.6166 -20.7441 -9.6461
# 4 1.1776 -22.3233 3.6166 40.5644 2.6728 -14.6404
# 5 -11.7029 7.4007 -20.7441 2.6728 41.8180 -0.8176
# 6 10.9055 5.2790 -9.6461 -14.6404 -0.8176 31.6675
#
#
#
# Elastic Compliance Matrix: (Units=1/GPa)
#
#
# Indices 1 2 3 4 5 6 
#
# 1 0.018404 -0.007226 -0.002734 -0.008073 0.005402 -0.009559
# 2 -0.007226 0.016993 -0.004662 0.011756 -0.008026 0.003464
# 3 -0.002734 -0.004662 0.014569 -0.002388 0.007542 0.005247
# 4 -0.008073 0.011756 -0.002388 0.038450 -0.007636 0.017672
# 5 0.005402 -0.008026 0.007542 -0.007636 0.031056 -0.000954
# 6 -0.009559 0.003464 0.005247 0.017672 -0.000954 0.044036
#
#
# Mechanical properties :
#
#
# Convention : Reuss Voigt Hill
#
# Bulk Modulus (GPa) = 48.25765 51.15761 49.70763
# Shear Modulus (GPa) = 25.04248 35.30465 30.17357
#
# Velocity S-wave (km/s) = 3.17434 3.76903 3.48440
# Velocity P-wave (km/s) = 5.73173 6.28691 6.01573
#
# Compressibility (1/GPa) = 0.02072210
#
# Stress axis : x y z
#
# Youngs Moduli (GPa) = 54.33670 58.84621 68.63842
#
# Poissons Ratio (x) = 0.42523 0.18768
# Poissons Ratio (y) = 0.39264 0.31997
# Poissons Ratio (z) = 0.14857 0.27432
#
# Static dielectric constant tensor:
#      x y z
#    x 2.000540 0.009280 -0.007590 
#    y 0.009280 2.030950 -0.038380 
#    z -0.007590 -0.038380 1.996970 
# 
# From -- ./inp_files/608010.got.cif
#   From: 2010.05.17/outbox.cif.g08.bks.cpg/sg2_305_cif.got.tgz:608010.got - 2010.06.03 11:33:40.
