data_PCOD9003166
_publ_section_title
;
Structure prediction by ZEFSAII (Michael W. Deem and Ramdas Pophale) SiO2 
 PCOD9003166
Probable space group: P -1
;
_chemical_formula_sum "Si O2"
_cell_formula_units_Z 12
_cell_length_a 5.485106
_cell_length_b 18.544521
_cell_length_c 6.554646
_cell_angle_alpha 65.021078
_cell_angle_beta 54.716490
_cell_angle_gamma 71.319165
_cell_volume 490.711352
_symmetry_space_group_name_H-M "P -1"
_symmetry_group_IT_number 2
_symmetry_cell_setting 'triclinic'
loop_
_space_group_symop_operation_xyz
x,y,z
-x,-y,-z
loop_
_atom_site_type_symbol
_atom_site_label
_atom_site_fract_x
_atom_site_fract_y
_atom_site_fract_z
Si Si1 0.153826 0.566852 0.722126
Si Si2 0.571075 0.053818 0.091075
Si Si3 0.751231 0.613028 0.504831
Si Si4 0.109829 0.284955 0.071721
Si Si5 0.840634 0.907208 0.397640
Si Si6 0.477132 0.763618 0.721892
O O1 0.496018 0.442846 0.384117
O O2 0.050803 0.655565 0.753193
O O3 0.025317 0.570579 0.551868
O O4 0.000000 0.500000 0.000000
O O5 0.270619 0.086518 0.320388
O O6 0.742082 0.994012 0.245499
O O7 0.811207 0.110239 0.815302
O O8 0.500000 0.000000 0.000000
O O9 0.596423 0.682786 0.643241
O O10 0.843578 0.658633 0.207288
O O11 0.874787 0.225788 0.173483
O O12 0.417160 0.250693 0.076375
O O13 0.649238 0.838870 0.481884
#
# Coordination Sequence:
#
# PCOD9003166 Si02
#       6
#     2   2   2   2   2   2
#     4  10  21  37  58  87 118 154 198 247 300 364
#     4  10  22  41  62  88 126 157 211 260 317 371
#     4  10  21  38  58  84 121 152 200 248 299 364
#     4  10  22  39  58  86 121 154 202 251 298 371
#     4  10  23  39  61  92 120 164 209 261 311 382
#     4  10  23  38  59  88 117 157 204 248 308 363
#
# _framework density 24.454294999999998
#
# number of rings (size 3 to 8) (size 9 to 14) (size 15 to 20)
#    0.000    2.000    0.000    2.000    4.667    2.667 
#    0.000    0.000    0.000    0.000    0.000    0.000 
#    0.000    0.000    0.000    0.000    0.000    0.000 
#
# Total GULP energy -67004.699096 kJ/mol
# GULP energy per Si atom -5583.724925 kJ/mol
# Density = 2.439864 g / cm^3
# Si number density = 24.454295 Si / 1000 Ang^3
#
#
#
# Elastic Constant Matrix: (Units=GPa)
#
#
# Indices 1 2 3 4 5 6 
#
# 1 185.1129 58.4903 97.5975 3.2005 -2.1161 30.1051
# 2 58.4903 68.3428 32.0507 -0.6342 -10.2220 11.4693
# 3 97.5975 32.0507 145.1438 -0.0821 -12.4671 16.7478
# 4 3.2005 -0.6342 -0.0821 36.7755 14.6066 -9.9388
# 5 -2.1161 -10.2220 -12.4671 14.6066 44.2409 -13.0288
# 6 30.1051 11.4693 16.7478 -9.9388 -13.0288 50.3216
#
#
#
# Elastic Compliance Matrix: (Units=1/GPa)
#
#
# Indices 1 2 3 4 5 6 
#
# 1 0.011371 -0.006759 -0.005966 -0.000832 -0.003722 -0.004405
# 2 -0.006759 0.020965 0.000315 -0.000966 0.005007 0.000266
# 3 -0.005966 0.000315 0.011048 -0.000598 0.003259 0.000546
# 4 -0.000832 -0.000966 -0.000598 0.032403 -0.009716 0.004801
# 5 -0.003722 0.005007 0.003259 -0.009716 0.029384 0.005690
# 6 -0.004405 0.000266 0.000546 0.004801 0.005690 0.024686
#
#
# Mechanical properties :
#
#
# Convention : Reuss Voigt Hill
#
# Bulk Modulus (GPa) = 53.86976 86.09740 69.98358
# Shear Modulus (GPa) = 31.08174 40.29832 35.69003
#
# Velocity S-wave (km/s) = 3.56900 4.06384 3.82443
# Velocity P-wave (km/s) = 6.24982 7.56992 6.94132
#
# Compressibility (1/GPa) = 0.01856329
#
# Stress axis : x y z
#
# Youngs Moduli (GPa) = 87.94058 47.69899 90.51251
#
# Poissons Ratio (x) = 0.32242 0.53996
# Poissons Ratio (y) = 0.59443 -0.02847
# Poissons Ratio (z) = 0.52461 -0.01500
#
# Static dielectric constant tensor:
#      x y z
#    x 1.965880 -0.023900 -0.029810 
#    y -0.023900 1.978960 0.053810 
#    z -0.029810 0.053810 1.961250 
# 
# From -- ./inp_files/5774.got.cif
#   From: 2010.05.17/outbox.cif.g08.bks.cpg/sg2_3_cif.got.tgz:5774.got - 2010.06.03 11:33:40.
