data_PCOD9003667
_publ_section_title
;
Structure prediction by ZEFSAII (Michael W. Deem and Ramdas Pophale) SiO2 
 PCOD9003667
Probable space group: P -1
;
_chemical_formula_sum "Si O2"
_cell_formula_units_Z 16
_cell_length_a 12.198678
_cell_length_b 12.832593
_cell_length_c 12.941554
_cell_angle_alpha 45.245263
_cell_angle_beta 34.546416
_cell_angle_gamma 32.094683
_cell_volume 610.259708
_symmetry_space_group_name_H-M "P -1"
_symmetry_group_IT_number 2
_symmetry_cell_setting 'triclinic'
loop_
_space_group_symop_operation_xyz
x,y,z
-x,-y,-z
loop_
_atom_site_type_symbol
_atom_site_label
_atom_site_fract_x
_atom_site_fract_y
_atom_site_fract_z
Si Si1 0.760861 0.568908 0.710044
Si Si2 0.664760 0.941797 0.593513
Si Si3 0.642167 0.672601 0.355900
Si Si4 0.887515 0.766895 0.744718
Si Si5 0.833065 0.282390 0.235685
Si Si6 0.777911 0.237579 0.996061
Si Si7 0.875234 0.114875 0.791341
Si Si8 0.555237 0.709613 0.151625
O O1 0.677279 0.763126 0.694400
O O2 0.836554 0.382987 0.845328
O O3 0.000000 0.500000 0.500000
O O4 0.484140 0.663300 0.805557
O O5 0.795414 0.912590 0.622217
O O6 0.868906 0.913383 0.378200
O O7 0.394302 0.160728 0.665359
O O8 0.431517 0.669947 0.571839
O O9 0.578009 0.717104 0.251747
O O10 0.914019 0.453211 0.300696
O O11 0.026970 0.781157 0.718085
O O12 0.641670 0.810762 0.954473
O O13 0.768588 0.479615 0.119170
O O14 0.014069 0.105573 0.139938
O O15 0.699031 0.247090 0.930568
O O16 0.000000 0.000000 0.000000
O O17 0.711630 0.210182 0.746560
#
# Coordination Sequence:
#
# PCOD9003667 Si02
#       8
#     2   2   2   2   2   2   2   2
#     4  11  25  50  74 103 139 178 229 290 354 415
#     4  11  23  41  67  92 128 176 222 273 336 406
#     4  10  21  38  59  93 129 173 223 265 323 400
#     4  11  22  36  58  94 132 173 215 269 331 392
#     4  10  21  37  61  91 130 172 219 268 324 399
#     4  11  27  49  75 106 138 176 231 294 352 416
#     4  11  23  42  65  94 127 174 224 273 338 405
#     4  11  22  36  60  90 135 174 213 275 325 395
#
# _framework density 26.218343999999998
#
# number of rings (size 3 to 8) (size 9 to 14) (size 15 to 20)
#    0.000    1.250    1.250    6.000    0.000   11.500 
#    4.500    0.000    0.000    0.000    0.000    0.000 
#    0.000    0.000    0.000    0.000    0.000    0.000 
#
# Total GULP energy -89471.718362 kJ/mol
# GULP energy per Si atom -5591.982398 kJ/mol
# Density = 2.615867 g / cm^3
# Si number density = 26.218344 Si / 1000 Ang^3
#
#
#
# Elastic Constant Matrix: (Units=GPa)
#
#
# Indices 1 2 3 4 5 6 
#
# 1 31.1294 43.3229 6.9555 2.8225 -12.8309 5.2679
# 2 43.3229 142.3318 14.5245 -1.4157 -18.2279 39.1043
# 3 6.9555 14.5245 105.3478 4.0811 -17.9703 3.6859
# 4 2.8225 -1.4157 4.0811 32.5389 2.9190 -1.3515
# 5 -12.8309 -18.2279 -17.9703 2.9190 27.3386 -0.3906
# 6 5.2679 39.1043 3.6859 -1.3515 -0.3906 45.5841
#
#
#
# Elastic Compliance Matrix: (Units=1/GPa)
#
#
# Indices 1 2 3 4 5 6 
#
# 1 0.069070 -0.021502 0.001850 -0.008560 0.020357 0.010235
# 2 -0.021502 0.017005 -0.000499 0.002123 0.000520 -0.011995
# 3 0.001850 -0.000499 0.010905 -0.002290 0.007939 -0.000668
# 4 -0.008560 0.002123 -0.002290 0.032545 -0.007579 0.000253
# 5 0.020357 0.000520 0.007939 -0.007579 0.052461 -0.003216
# 6 0.010235 -0.011995 -0.000668 0.000253 -0.003216 0.031079
#
#
# Mechanical properties :
#
#
# Convention : Reuss Voigt Hill
#
# Bulk Modulus (GPa) = 17.64324 45.37942 31.51133
# Shear Modulus (GPa) = 18.36480 35.35940 26.86210
#
# Velocity S-wave (km/s) = 2.64948 3.67638 3.20434
# Velocity P-wave (km/s) = 4.01294 5.94701 5.07299
#
# Compressibility (1/GPa) = 0.05667893
#
# Stress axis : x y z
#
# Youngs Moduli (GPa) = 14.47798 58.80654 91.69857
#
# Poissons Ratio (x) = 1.26449 -0.16966
# Poissons Ratio (y) = 0.31131 0.04572
# Poissons Ratio (z) = -0.02679 0.02932
#
# Static dielectric constant tensor:
#      x y z
#    x 2.064940 -0.006500 -0.007610 
#    y -0.006500 2.082620 0.018990 
#    z -0.007610 0.018990 2.065670 
# 
# From -- ./inp_files/534237.got.cif
#   From: 2010.05.17/outbox.cif.g08.bks.cpg/sg2_268_cif.got.tgz:534237.got - 2010.06.03 11:33:40.
