data_PCOD9003471
_publ_section_title
;
Structure prediction by ZEFSAII (Michael W. Deem and Ramdas Pophale) SiO2 
 PCOD9003471
Probable space group: P -1
;
_chemical_formula_sum "Si O2"
_cell_formula_units_Z 16
_cell_length_a 7.025307
_cell_length_b 9.195639
_cell_length_c 21.802221
_cell_angle_alpha 47.705910
_cell_angle_beta 113.352698
_cell_angle_gamma 79.601806
_cell_volume 719.792259
_symmetry_space_group_name_H-M "P -1"
_symmetry_group_IT_number 2
_symmetry_cell_setting 'triclinic'
loop_
_space_group_symop_operation_xyz
x,y,z
-x,-y,-z
loop_
_atom_site_type_symbol
_atom_site_label
_atom_site_fract_x
_atom_site_fract_y
_atom_site_fract_z
Si Si1 0.254701 0.273642 0.417181
Si Si2 0.189379 0.475167 0.478619
Si Si3 0.158824 0.450504 0.970145
Si Si4 0.665372 0.629311 0.222482
Si Si5 0.679042 0.977413 0.223834
Si Si6 0.834090 0.907712 0.025656
Si Si7 0.743435 0.330619 0.755593
Si Si8 0.291966 0.973272 0.260039
O O1 0.209172 0.303645 0.475203
O O2 0.330983 0.449757 0.361346
O O3 0.973781 0.377429 0.320216
O O4 0.500000 0.000000 0.500000
O O5 0.501294 0.287000 0.597843
O O6 0.000000 0.500000 0.500000
O O7 0.998555 0.778493 0.343622
O O8 0.139596 0.279062 0.968865
O O9 0.985810 0.739795 0.836709
O O10 0.000000 0.500000 0.000000
O O11 0.483040 0.262472 0.085142
O O12 0.685464 0.797170 0.225753
O O13 0.493079 0.570976 0.253381
O O14 0.479142 0.822271 0.088365
O O15 0.497714 0.012417 0.247915
O O16 0.983219 0.767252 0.147446
O O17 0.000000 0.000000 0.000000
O O18 0.795911 0.104032 0.787303
#
# Coordination Sequence:
#
# PCOD9003471 Si02
#       8
#     2   2   2   2   2   2   2   2
#     4  11  24  38  61  90 127 161 211 262 311 367
#     4   9  18  36  60  83 116 165 208 244 309 377
#     4   9  15  26  52  86 113 148 200 255 295 359
#     4   8  17  37  57  84 122 160 200 244 312 380
#     4   7  13  28  51  80 109 146 194 241 294 354
#     4   9  17  32  59  88 123 161 202 248 319 381
#     4  10  21  37  60  89 124 165 201 256 319 372
#     4   9  17  30  54  81 112 152 204 245 297 364
#
# _framework density 22.228639000000001
#
# number of rings (size 3 to 8) (size 9 to 14) (size 15 to 20)
#    0.000    3.000    0.000    3.000    1.750    1.500 
#    0.000    0.000    8.250    6.750    0.000    0.000 
#    0.000    0.000    0.000    0.000    0.000    0.000 
#
# Total GULP energy -89103.945111 kJ/mol
# GULP energy per Si atom -5568.996569 kJ/mol
# Density = 2.217805 g / cm^3
# Si number density = 22.228639 Si / 1000 Ang^3
#
#
#
# Elastic Constant Matrix: (Units=GPa)
#
#
# Indices 1 2 3 4 5 6 
#
# 1 76.6131 17.8731 51.0714 -9.1011 23.6123 1.5411
# 2 17.8731 78.5994 55.1478 -3.9477 15.1109 -3.3274
# 3 51.0714 55.1478 191.1967 -5.0324 50.4663 -5.0226
# 4 -9.1011 -3.9477 -5.0324 32.3703 -4.9084 7.4924
# 5 23.6123 15.1109 50.4663 -4.9084 43.3536 0.5697
# 6 1.5411 -3.3274 -5.0226 7.4924 0.5697 19.7572
#
#
#
# Elastic Compliance Matrix: (Units=1/GPa)
#
#
# Indices 1 2 3 4 5 6 
#
# 1 0.017462 -0.000767 -0.003078 0.004446 -0.005106 -0.003813
# 2 -0.000767 0.016060 -0.004362 0.000741 -0.000036 0.001376
# 3 -0.003078 -0.004362 0.009466 -0.001803 -0.008063 0.002828
# 4 0.004446 0.000741 -0.001803 0.035836 0.003666 -0.014376
# 5 -0.005106 -0.000036 -0.008063 0.003666 0.035714 -0.004077
# 6 -0.003813 0.001376 0.002828 -0.014376 -0.004077 0.057432
#
#
# Mechanical properties :
#
#
# Convention : Reuss Voigt Hill
#
# Bulk Modulus (GPa) = 37.63283 66.06598 51.84941
# Shear Modulus (GPa) = 25.34937 33.91734 29.63336
#
# Velocity S-wave (km/s) = 3.38063 3.91044 3.65515
# Velocity P-wave (km/s) = 5.67493 7.08338 6.41791
#
# Compressibility (1/GPa) = 0.02657254
#
# Stress axis : x y z
#
# Youngs Moduli (GPa) = 57.26609 62.26541 105.64396
#
# Poissons Ratio (x) = 0.04778 0.32522
# Poissons Ratio (y) = 0.04394 0.46084
# Poissons Ratio (z) = 0.17629 0.27161
#
# Static dielectric constant tensor:
#      x y z
#    x 1.858720 -0.025810 -0.010520 
#    y -0.025810 1.792790 0.051450 
#    z -0.010520 0.051450 1.954180 
# 
# From -- ./inp_files/606367.got.cif
#   From: 2010.05.17/outbox.cif.g08.bks.cpg/sg2_304_cif.got.tgz:606367.got - 2010.06.03 11:33:40.
