data_PCOD9003633
_publ_section_title
;
Structure prediction by ZEFSAII (Michael W. Deem and Ramdas Pophale) SiO2 
 PCOD9003633
Probable space group: P -1
;
_chemical_formula_sum "Si O2"
_cell_formula_units_Z 14
_cell_length_a 6.012761
_cell_length_b 11.149455
_cell_length_c 11.790752
_cell_angle_alpha 58.095120
_cell_angle_beta 73.960838
_cell_angle_gamma 55.454326
_cell_volume 552.397145
_symmetry_space_group_name_H-M "P -1"
_symmetry_group_IT_number 2
_symmetry_cell_setting 'triclinic'
loop_
_space_group_symop_operation_xyz
x,y,z
-x,-y,-z
loop_
_atom_site_type_symbol
_atom_site_label
_atom_site_fract_x
_atom_site_fract_y
_atom_site_fract_z
Si Si1 0.641812 0.913458 0.857895
Si Si2 0.109168 0.041409 0.575951
Si Si3 0.372081 0.817907 0.127214
Si Si4 0.723214 0.414914 0.850573
Si Si5 0.488923 0.779630 0.360634
Si Si6 0.867876 0.391505 0.097380
Si Si7 0.650961 0.727937 0.614149
O O1 0.890138 0.785245 0.811347
O O2 0.728925 0.999179 0.900787
O O3 0.452143 0.070087 0.728516
O O4 0.514505 0.823167 0.988026
O O5 0.192196 0.175513 0.471208
O O6 0.838155 0.133054 0.642798
O O7 0.376949 0.862484 0.652269
O O8 0.000000 0.000000 0.500000
O O9 0.183524 0.745694 0.158569
O O10 0.567817 0.706260 0.259629
O O11 0.395765 0.520226 0.833791
O O12 0.798964 0.550650 0.741001
O O13 0.785445 0.364197 0.997381
O O14 0.587146 0.695467 0.509570
O O15 0.000000 0.500000 0.000000
#
# Coordination Sequence:
#
# PCOD9003633 Si02
#       7
#     2   2   2   2   2   2   2
#     4   9  19  41  63  87 121 162 202 254 290 364
#     4   9  19  38  57  87 116 165 201 240 297 354
#     4   9  20  41  62  92 122 157 206 249 304 360
#     4  11  24  40  60  98 123 157 204 250 310 364
#     4   9  19  38  62  87 118 159 200 246 302 356
#     4  11  23  40  63  90 122 163 201 254 303 350
#     4  10  21  37  61  90 125 155 199 254 298 365
#
# _framework density 25.344085
#
# number of rings (size 3 to 8) (size 9 to 14) (size 15 to 20)
#    0.857    1.429    1.429    0.857    0.000    6.857 
#    5.143    0.714    0.000    0.000    0.000    0.000 
#    0.000    0.000    0.000    0.000    0.000    0.000 
#
# Total GULP energy -78058.937792 kJ/mol
# GULP energy per Si atom -5575.638414 kJ/mol
# Density = 2.528640 g / cm^3
# Si number density = 25.344085 Si / 1000 Ang^3
#
#
#
# Elastic Constant Matrix: (Units=GPa)
#
#
# Indices 1 2 3 4 5 6 
#
# 1 61.2673 25.2682 3.9304 -2.0136 -17.5033 4.9878
# 2 25.2682 67.1216 4.4971 -14.2573 -6.9425 19.5150
# 3 3.9304 4.4971 96.3049 2.8456 -3.5704 -2.8730
# 4 -2.0136 -14.2573 2.8456 26.0175 10.4987 -4.4977
# 5 -17.5033 -6.9425 -3.5704 10.4987 33.0176 3.9469
# 6 4.9878 19.5150 -2.8730 -4.4977 3.9469 43.5163
#
#
#
# Elastic Compliance Matrix: (Units=1/GPa)
#
#
# Indices 1 2 3 4 5 6 
#
# 1 0.023758 -0.009222 0.000204 -0.008839 0.013574 -0.000719
# 2 -0.009222 0.022947 -0.001394 0.011898 -0.003063 -0.007818
# 3 0.000204 -0.001394 0.010598 -0.002403 0.001617 0.000906
# 4 -0.008839 0.011898 -0.002403 0.052923 -0.019602 0.002767
# 5 0.013574 -0.003063 0.001617 -0.019602 0.043975 -0.006090
# 6 -0.000719 -0.007818 0.000906 0.002767 -0.006090 0.027466
#
#
# Mechanical properties :
#
#
# Convention : Reuss Voigt Hill
#
# Bulk Modulus (GPa) = 27.41207 32.45393 29.93300
# Shear Modulus (GPa) = 23.29371 33.24349 28.26860
#
# Velocity S-wave (km/s) = 3.03495 3.62565 3.34337
# Velocity P-wave (km/s) = 4.80840 5.51001 5.17112
#
# Compressibility (1/GPa) = 0.03648029
#
# Stress axis : x y z
#
# Youngs Moduli (GPa) = 42.09070 43.57916 94.35376
#
# Poissons Ratio (x) = 0.40189 -0.01925
# Poissons Ratio (y) = 0.38816 0.13148
# Poissons Ratio (z) = -0.00859 0.06073
#
# Static dielectric constant tensor:
#      x y z
#    x 2.084440 -0.075280 -0.011790 
#    y -0.075280 2.039890 0.020180 
#    z -0.011790 0.020180 2.026870 
# 
# From -- ./inp_files/362650.got.cif
#   From: 2010.05.17/outbox.cif.g08.bks.cpg/sg2_182_cif.got.tgz:362650.got - 2010.06.03 11:33:40.
