data_PCOD9003265
_publ_section_title
;
Structure prediction by ZEFSAII (Michael W. Deem and Ramdas Pophale) SiO2 
 PCOD9003265
Probable space group: P -1
;
_chemical_formula_sum "Si O2"
_cell_formula_units_Z 16
_cell_length_a 8.582441
_cell_length_b 21.565814
_cell_length_c 5.981144
_cell_angle_alpha 114.453918
_cell_angle_beta 43.988083
_cell_angle_gamma 116.522517
_cell_volume 680.237353
_symmetry_space_group_name_H-M "P -1"
_symmetry_group_IT_number 2
_symmetry_cell_setting 'triclinic'
loop_
_space_group_symop_operation_xyz
x,y,z
-x,-y,-z
loop_
_atom_site_type_symbol
_atom_site_label
_atom_site_fract_x
_atom_site_fract_y
_atom_site_fract_z
Si Si1 0.981046 0.890664 0.284602
Si Si2 0.724776 0.606035 0.423815
Si Si3 0.666157 0.483030 0.993962
Si Si4 0.584534 0.855769 0.266829
Si Si5 0.522278 0.731442 0.836789
Si Si6 0.806100 0.979506 0.978524
Si Si7 0.798378 0.230832 0.159706
Si Si8 0.876639 0.358247 0.569302
O O1 0.776195 0.873044 0.288074
O O2 0.897460 0.930564 0.634351
O O3 0.194430 0.948906 0.043166
O O4 0.045952 0.818477 0.170004
O O5 0.671899 0.679226 0.513677
O O6 0.914589 0.622945 0.445543
O O7 0.492596 0.561353 0.714353
O O8 0.789303 0.556154 0.092580
O O9 0.816367 0.431039 0.669632
O O10 0.500000 0.500000 0.000000
O O11 0.586066 0.927582 0.240409
O O12 0.345086 0.816695 0.566024
O O13 0.649583 0.799459 0.945184
O O14 0.378865 0.755341 0.822077
O O15 0.342042 0.686119 0.132249
O O16 0.000000 0.000000 0.000000
O O17 0.917210 0.305732 0.255758
#
# Coordination Sequence:
#
# PCOD9003265 Si02
#       8
#     2   2   2   2   2   2   2   2
#     4  10  21  39  61  86 115 154 197 240 295 353
#     4  10  21  38  58  82 117 156 191 236 288 340
#     4  10  21  37  59  86 116 150 193 240 285 339
#     4  10  21  39  59  84 119 154 192 245 295 345
#     4  10  22  37  55  85 119 152 195 241 287 343
#     4   9  20  39  61  85 117 152 193 243 294 351
#     4  11  23  37  60  89 116 153 200 242 291 351
#     4  10  22  38  57  86 117 153 196 236 288 346
#
# _framework density 23.521201999999999
#
# number of rings (size 3 to 8) (size 9 to 14) (size 15 to 20)
#    0.000    2.000    0.000    2.625    0.000    8.000 
#    0.000    8.750    0.000    0.000    0.000    0.000 
#    0.000    0.000    0.000    0.000    0.000    0.000 
#
# Total GULP energy -89476.645325 kJ/mol
# GULP energy per Si atom -5592.290333 kJ/mol
# Density = 2.346767 g / cm^3
# Si number density = 23.521202 Si / 1000 Ang^3
#
#
#
# Elastic Constant Matrix: (Units=GPa)
#
#
# Indices 1 2 3 4 5 6 
#
# 1 93.4605 35.8649 28.2010 52.3194 16.7510 -1.1971
# 2 35.8649 152.7388 60.8069 39.7190 7.8301 -0.6497
# 3 28.2010 60.8069 101.9630 42.9094 11.6167 2.0528
# 4 52.3194 39.7190 42.9094 64.7709 4.3362 2.7620
# 5 16.7510 7.8301 11.6167 4.3362 30.9167 13.5734
# 6 -1.1971 -0.6497 2.0528 2.7620 13.5734 44.2154
#
#
#
# Elastic Compliance Matrix: (Units=1/GPa)
#
#
# Indices 1 2 3 4 5 6 
#
# 1 0.024258 -0.001204 0.004367 -0.021059 -0.014210 0.006114
# 2 -0.001204 0.008993 -0.004334 -0.001693 0.000072 0.000385
# 3 0.004367 -0.004334 0.016828 -0.011647 -0.006886 0.002115
# 4 -0.021059 -0.001693 -0.011647 0.040588 0.013475 -0.006726
# 5 -0.014210 0.000072 -0.006886 0.013475 0.047526 -0.015496
# 6 0.006114 0.000385 0.002115 -0.006726 -0.015496 0.027867
#
#
# Mechanical properties :
#
#
# Convention : Reuss Voigt Hill
#
# Bulk Modulus (GPa) = 20.94836 66.43421 43.69129
# Shear Modulus (GPa) = 27.12772 42.86659 34.99716
#
# Velocity S-wave (km/s) = 3.39976 4.27367 3.86151
# Velocity P-wave (km/s) = 4.93322 7.25658 6.20462
#
# Compressibility (1/GPa) = 0.04773643
#
# Stress axis : x y z
#
# Youngs Moduli (GPa) = 41.22388 111.19427 59.42630
#
# Poissons Ratio (x) = 0.13385 -0.25949
# Poissons Ratio (y) = 0.04962 0.25755
# Poissons Ratio (z) = -0.18001 0.48191
#
# Static dielectric constant tensor:
#      x y z
#    x 1.791910 -0.006460 -0.017670 
#    y -0.006460 1.928780 -0.044880 
#    z -0.017670 -0.044880 1.935330 
# 
# From -- ./inp_files/55084.got.cif
#   From: 2010.05.17/outbox.cif.g08.bks.cpg/sg2_28_cif.got.tgz:55084.got - 2010.06.03 11:33:40.
