data_PCOD9003139
_publ_section_title
;
Structure prediction by ZEFSAII (Michael W. Deem and Ramdas Pophale) SiO2 
 PCOD9003139
Probable space group: P -1
;
_chemical_formula_sum "Si O2"
_cell_formula_units_Z 16
_cell_length_a 10.955996
_cell_length_b 10.364303
_cell_length_c 11.503490
_cell_angle_alpha 113.374567
_cell_angle_beta 47.446620
_cell_angle_gamma 130.434781
_cell_volume 730.354504
_symmetry_space_group_name_H-M "P -1"
_symmetry_group_IT_number 2
_symmetry_cell_setting 'triclinic'
loop_
_space_group_symop_operation_xyz
x,y,z
-x,-y,-z
loop_
_atom_site_type_symbol
_atom_site_label
_atom_site_fract_x
_atom_site_fract_y
_atom_site_fract_z
Si Si1 0.353502 0.428064 0.748588
Si Si2 0.652465 0.989381 0.978659
Si Si3 0.120420 0.630154 0.363663
Si Si4 0.970949 0.944010 0.367018
Si Si5 0.480259 0.997053 0.689999
Si Si6 0.714627 0.917201 0.354232
Si Si7 0.233699 0.417263 0.582970
Si Si8 0.414561 0.589709 0.015553
O O1 0.253470 0.227370 0.762050
O O2 0.264629 0.481014 0.719194
O O3 0.573700 0.480893 0.585303
O O4 0.365907 0.519174 0.891388
O O5 0.571366 0.793324 0.982915
O O6 0.643804 0.066438 0.133850
O O7 0.856490 0.067556 0.804604
O O8 0.500000 0.000000 0.000000
O O9 0.308840 0.818165 0.352208
O O10 0.000000 0.500000 0.500000
O O11 0.959985 0.630328 0.382537
O O12 0.223520 0.559294 0.194640
O O13 0.915463 0.038393 0.344817
O O14 0.778763 0.753813 0.438807
O O15 0.000000 0.000000 0.500000
O O16 0.344661 0.017954 0.693751
O O17 0.542478 0.882174 0.545584
O O18 0.500000 0.500000 0.000000
#
# Coordination Sequence:
#
# PCOD9003139 Si02
#       8
#     2   2   2   2   2   2   2   2
#     4  10  21  39  60  88 124 158 198 246 310 362
#     4  11  23  40  63  90 123 161 203 252 303 359
#     4  11  22  39  63  88 117 157 207 252 301 362
#     4  11  21  36  61  89 118 155 203 248 298 360
#     4  10  22  40  60  86 121 160 204 248 304 360
#     4  10  21  39  61  85 120 160 199 251 302 362
#     4  10  21  37  58  85 119 158 198 247 297 361
#     4  11  23  40  64  90 123 161 200 252 305 360
#
# _framework density 21.907171000000002
#
# number of rings (size 3 to 8) (size 9 to 14) (size 15 to 20)
#    0.000    1.500    0.000    6.750    0.000    4.000 
#    0.000    7.500    0.000    0.000    0.000    0.000 
#    0.000    0.000    0.000    0.000    0.000    0.000 
#
# Total GULP energy -89189.512883 kJ/mol
# GULP energy per Si atom -5574.344555 kJ/mol
# Density = 2.185731 g / cm^3
# Si number density = 21.907171 Si / 1000 Ang^3
#
#
#
# Elastic Constant Matrix: (Units=GPa)
#
#
# Indices 1 2 3 4 5 6 
#
# 1 178.9369 -3.8056 39.9076 -4.3125 0.4688 1.6695
# 2 -3.8056 29.6116 4.5622 -1.0081 3.0068 -6.6362
# 3 39.9076 4.5622 128.1244 7.2044 24.7794 7.9736
# 4 -4.3125 -1.0081 7.2044 28.1565 3.8042 0.0771
# 5 0.4688 3.0068 24.7794 3.8042 42.6705 5.6840
# 6 1.6695 -6.6362 7.9736 0.0771 5.6840 26.2981
#
#
#
# Elastic Compliance Matrix: (Units=1/GPa)
#
#
# Indices 1 2 3 4 5 6 
#
# 1 0.006143 0.001168 -0.002247 0.001424 0.000979 0.000370
# 2 0.001168 0.036958 -0.001857 0.002374 -0.003147 0.010488
# 3 -0.002247 -0.001857 0.009810 -0.002233 -0.005049 -0.002203
# 4 0.001424 0.002374 -0.002233 0.036706 -0.002371 0.001590
# 5 0.000979 -0.003147 -0.005049 -0.002371 0.027490 -0.005260
# 6 0.000370 0.010488 -0.002203 0.001590 -0.005260 0.042449
#
#
# Mechanical properties :
#
#
# Convention : Reuss Voigt Hill
#
# Bulk Modulus (GPa) = 21.25987 46.44460 33.85223
# Shear Modulus (GPa) = 27.60772 39.15895 33.38333
#
# Velocity S-wave (km/s) = 3.55380 4.23246 3.90789
# Velocity P-wave (km/s) = 5.15412 6.71801 5.98734
#
# Compressibility (1/GPa) = 0.04703698
#
# Stress axis : x y z
#
# Youngs Moduli (GPa) = 162.78831 27.05802 101.93525
#
# Poissons Ratio (x) = -0.03160 0.22909
# Poissons Ratio (y) = -0.19011 0.18932
# Poissons Ratio (z) = 0.36586 0.05025
#
# Static dielectric constant tensor:
#      x y z
#    x 2.022780 0.091880 0.133160 
#    y 0.091880 1.857410 0.043710 
#    z 0.133160 0.043710 1.865510 
# 
# From -- ./inp_files/426450.got.cif
#   From: 2010.05.17/outbox.cif.g08.bks.cpg/sg2_214_cif.got.tgz:426450.got - 2010.06.03 11:33:40.
