data_PCOD9003939
_publ_section_title
;
Structure prediction by ZEFSAII (Michael W. Deem and Ramdas Pophale) SiO2 
 PCOD9003939
Probable space group: P -1
;
_chemical_formula_sum "Si O2"
_cell_formula_units_Z 16
_cell_length_a 9.793918
_cell_length_b 14.420215
_cell_length_c 7.816092
_cell_angle_alpha 74.038331
_cell_angle_beta 44.488267
_cell_angle_gamma 54.643594
_cell_volume 612.266096
_symmetry_space_group_name_H-M "P -1"
_symmetry_group_IT_number 2
_symmetry_cell_setting 'triclinic'
loop_
_space_group_symop_operation_xyz
x,y,z
-x,-y,-z
loop_
_atom_site_type_symbol
_atom_site_label
_atom_site_fract_x
_atom_site_fract_y
_atom_site_fract_z
Si Si1 0.902580 0.608984 0.857174
Si Si2 0.525955 0.740256 0.831191
Si Si3 0.371010 0.154428 0.858389
Si Si4 0.822247 0.958874 0.718812
Si Si5 0.981814 0.186446 0.719722
Si Si6 0.849301 0.410902 0.889826
Si Si7 0.640015 0.534898 0.643927
Si Si8 0.666255 0.045788 0.328555
O O1 0.735126 0.684926 0.807271
O O2 0.173431 0.558105 0.607950
O O3 0.789531 0.706863 0.051967
O O4 0.901703 0.493076 0.907611
O O5 0.624780 0.653922 0.622965
O O6 0.405425 0.871046 0.809400
O O7 0.299434 0.742025 0.099610
O O8 0.557346 0.123714 0.556101
O O9 0.564250 0.079521 0.871742
O O10 0.200346 0.106904 0.061890
O O11 0.883269 0.868463 0.551931
O O12 0.000000 0.000000 0.500000
O O13 0.020296 0.274093 0.748967
O O14 0.075192 0.070636 0.809854
O O15 0.621799 0.427377 0.173391
O O16 0.748061 0.474436 0.763005
O O17 0.500000 0.000000 0.500000
#
# Coordination Sequence:
#
# PCOD9003939 Si02
#       8
#     2   2   2   2   2   2   2   2
#     4  11  21  36  67  88 123 153 199 257 298 348
#     4  10  21  38  61  92 120 160 203 241 306 356
#     4  10  24  40  56  92 119 158 203 246 301 364
#     4  10  21  37  63  86 122 156 202 255 304 344
#     4  10  21  38  64  90 121 158 205 254 293 367
#     4   9  18  34  58  95 116 150 201 251 304 340
#     4   9  19  32  58  90 122 150 199 250 289 356
#     4  11  26  39  60  84 127 162 199 247 303 367
#
# _framework density 26.132431
#
# number of rings (size 3 to 8) (size 9 to 14) (size 15 to 20)
#    0.000    2.000    0.000    4.125   10.500    1.000 
#    0.000    0.625    0.000    1.500    0.000    0.000 
#    0.000    0.000    0.000    0.000    0.000    0.000 
#
# Total GULP energy -89338.004655 kJ/mol
# GULP energy per Si atom -5583.625291 kJ/mol
# Density = 2.607295 g / cm^3
# Si number density = 26.132431 Si / 1000 Ang^3
#
#
#
# Elastic Constant Matrix: (Units=GPa)
#
#
# Indices 1 2 3 4 5 6 
#
# 1 36.3285 32.8922 25.4307 -2.9246 -3.0894 -0.8369
# 2 32.8922 186.9749 44.0795 23.9196 0.9344 3.7916
# 3 25.4307 44.0795 81.1367 34.5606 -11.8803 5.1342
# 4 -2.9246 23.9196 34.5606 59.8259 0.9431 2.3080
# 5 -3.0894 0.9344 -11.8803 0.9431 38.0066 0.4177
# 6 -0.8369 3.7916 5.1342 2.3080 0.4177 43.4531
#
#
#
# Elastic Compliance Matrix: (Units=1/GPa)
#
#
# Indices 1 2 3 4 5 6 
#
# 1 0.046929 -0.005889 -0.018523 0.015276 -0.002240 0.002816
# 2 -0.005889 0.006944 -0.000976 -0.002469 -0.000888 -0.000464
# 3 -0.018523 -0.000976 0.026686 -0.015944 0.007285 -0.002648
# 4 0.015276 -0.002469 -0.015944 0.027692 -0.004379 0.000965
# 5 -0.002240 -0.000888 0.007285 -0.004379 0.028546 -0.000868
# 6 0.002816 -0.000464 -0.002648 0.000965 -0.000868 0.023378
#
#
# Mechanical properties :
#
#
# Convention : Reuss Voigt Hill
#
# Bulk Modulus (GPa) = 33.57462 56.58279 45.07870
# Shear Modulus (GPa) = 22.63686 41.72629 32.18157
#
# Velocity S-wave (km/s) = 2.94638 4.00024 3.51305
# Velocity P-wave (km/s) = 4.94476 6.56012 5.80887
#
# Compressibility (1/GPa) = 0.02978440
#
# Stress axis : x y z
#
# Youngs Moduli (GPa) = 21.30878 144.00882 37.47217
#
# Poissons Ratio (x) = 0.84807 0.69408
# Poissons Ratio (y) = 0.12549 0.03657
# Poissons Ratio (z) = 0.39470 0.14053
#
# Static dielectric constant tensor:
#      x y z
#    x 2.070710 0.039330 -0.041550 
#    y 0.039330 2.079410 -0.089470 
#    z -0.041550 -0.089470 1.973490 
# 
# From -- ./inp_files/270099.got.cif
#   From: 2010.05.17/outbox.cif.g08.bks.cpg/sg2_136_cif.got.tgz:270099.got - 2010.06.03 11:33:40.
