data_PCOD9003657
_publ_section_title
;
Structure prediction by ZEFSAII (Michael W. Deem and Ramdas Pophale) SiO2 
 PCOD9003657
Probable space group: P -1
;
_chemical_formula_sum "Si O2"
_cell_formula_units_Z 14
_cell_length_a 7.996832
_cell_length_b 18.922211
_cell_length_c 5.396503
_cell_angle_alpha 61.100829
_cell_angle_beta 117.842578
_cell_angle_gamma 123.099132
_cell_volume 575.459292
_symmetry_space_group_name_H-M "P -1"
_symmetry_group_IT_number 2
_symmetry_cell_setting 'triclinic'
loop_
_space_group_symop_operation_xyz
x,y,z
-x,-y,-z
loop_
_atom_site_type_symbol
_atom_site_label
_atom_site_fract_x
_atom_site_fract_y
_atom_site_fract_z
Si Si1 0.957378 0.860779 0.814098
Si Si2 0.126656 0.745375 0.389056
Si Si3 0.766114 0.941112 0.207820
Si Si4 0.958472 0.594117 0.193609
Si Si5 0.276271 0.546672 0.334339
Si Si6 0.565186 0.860045 0.701238
Si Si7 0.273384 0.370064 0.395026
O O1 0.902820 0.884229 0.460980
O O2 0.727452 0.814867 0.851865
O O3 0.073862 0.957003 0.862187
O O4 0.099695 0.810498 0.055020
O O5 0.327747 0.794897 0.610103
O O6 0.124354 0.660833 0.384501
O O7 0.914768 0.703710 0.467876
O O8 0.630695 0.925346 0.394407
O O9 0.625772 0.908573 0.923979
O O10 0.810639 0.504868 0.379614
O O11 0.100841 0.581643 0.096446
O O12 0.804467 0.637894 0.926125
O O13 0.290601 0.469555 0.305745
O O14 0.502016 0.623744 0.399517
#
# Coordination Sequence:
#
# PCOD9003657 Si02
#       7
#     2   2   2   2   2   2   2
#     4   9  22  41  64  93 127 173 217 276 320 395
#     4  11  25  38  58  99 131 165 215 267 341 382
#     4   9  21  44  69  89 130 174 229 263 330 382
#     4  10  21  38  61  89 122 167 211 263 320 387
#     4   9  20  40  62  85 119 168 216 261 307 397
#     4  10  22  42  63  96 129 174 216 276 324 394
#     4  10  21  37  61  91 123 164 213 262 322 386
#
# _framework density 24.328396999999999
#
# number of rings (size 3 to 8) (size 9 to 14) (size 15 to 20)
#    0.857    1.429    0.000    1.286    2.000    4.571 
#    0.000    2.857    0.000    0.000    0.000    0.000 
#    0.000    0.000    0.000    0.000    0.000    0.000 
#
# Total GULP energy -78092.388479 kJ/mol
# GULP energy per Si atom -5578.027748 kJ/mol
# Density = 2.427302 g / cm^3
# Si number density = 24.328397 Si / 1000 Ang^3
#
#
#
# Elastic Constant Matrix: (Units=GPa)
#
#
# Indices 1 2 3 4 5 6 
#
# 1 63.7232 47.9109 28.9494 21.8881 9.5572 23.3792
# 2 47.9109 118.1569 62.3113 33.2795 14.4100 29.9868
# 3 28.9494 62.3113 104.9504 24.5402 -0.0349 12.9460
# 4 21.8881 33.2795 24.5402 40.3257 3.7204 14.9018
# 5 9.5572 14.4100 -0.0349 3.7204 28.3426 9.5482
# 6 23.3792 29.9868 12.9460 14.9018 9.5482 36.6384
#
#
#
# Elastic Compliance Matrix: (Units=1/GPa)
#
#
# Indices 1 2 3 4 5 6 
#
# 1 0.026006 -0.005938 -0.001424 -0.004951 -0.002189 -0.008647
# 2 -0.005938 0.017938 -0.007252 -0.004836 -0.004767 -0.005121
# 3 -0.001424 -0.007252 0.014762 -0.003309 0.003966 0.001940
# 4 -0.004951 -0.004836 -0.003309 0.035818 0.001687 -0.006722
# 5 -0.002189 -0.004767 0.003966 0.001687 0.040721 -0.007401
# 6 -0.008647 -0.005121 0.001940 -0.006722 -0.007401 0.040980
#
#
# Mechanical properties :
#
#
# Convention : Reuss Voigt Hill
#
# Bulk Modulus (GPa) = 33.92265 62.79709 48.35987
# Shear Modulus (GPa) = 23.22556 30.90526 27.06541
#
# Velocity S-wave (km/s) = 3.09312 3.56804 3.33904
# Velocity P-wave (km/s) = 5.17015 6.54545 5.89802
#
# Compressibility (1/GPa) = 0.02947883
#
# Stress axis : x y z
#
# Youngs Moduli (GPa) = 38.45284 55.74655 67.73992
#
# Poissons Ratio (x) = 0.33101 0.09649
# Poissons Ratio (y) = 0.22833 0.49122
# Poissons Ratio (z) = 0.05477 0.40425
#
# Static dielectric constant tensor:
#      x y z
#    x 1.982110 -0.070440 -0.011040 
#    y -0.070440 1.948180 -0.009250 
#    z -0.011040 -0.009250 2.007260 
# 
# From -- ./inp_files/51096.got.cif
#   From: 2010.05.17/outbox.cif.g08.bks.cpg/sg2_26_cif.got.tgz:51096.got - 2010.06.03 11:33:40.
