data_PCOD9003074
_publ_section_title
;
Structure prediction by ZEFSAII (Michael W. Deem and Ramdas Pophale) SiO2 
 PCOD9003074
Probable space group: P -1
;
_chemical_formula_sum "Si O2"
_cell_formula_units_Z 14
_cell_length_a 19.415427
_cell_length_b 23.133361
_cell_length_c 8.042342
_cell_angle_alpha 136.376790
_cell_angle_beta 132.925488
_cell_angle_gamma 14.796119
_cell_volume 632.779043
_symmetry_space_group_name_H-M "P -1"
_symmetry_group_IT_number 2
_symmetry_cell_setting 'triclinic'
loop_
_space_group_symop_operation_xyz
x,y,z
-x,-y,-z
loop_
_atom_site_type_symbol
_atom_site_label
_atom_site_fract_x
_atom_site_fract_y
_atom_site_fract_z
Si Si1 0.602950 0.307736 0.397896
Si Si2 0.681573 0.747602 0.636338
Si Si3 0.687330 0.760254 0.312602
Si Si4 0.116912 0.967952 0.387469
Si Si5 0.488881 0.562347 0.941796
Si Si6 0.390208 0.993347 0.990081
Si Si7 0.851731 0.352428 0.871214
O O1 0.667336 0.211687 0.479705
O O2 0.470268 0.508273 0.653554
O O3 0.419307 0.406606 0.179758
O O4 0.887008 0.093983 0.331544
O O5 0.640009 0.749310 0.384049
O O6 0.994570 0.481801 0.657127
O O7 0.492719 0.870886 0.728172
O O8 0.611541 0.904780 0.825260
O O9 0.500000 0.000000 0.500000
O O10 0.594749 0.795591 0.061850
O O11 0.252607 0.825118 0.142822
O O12 0.995600 0.160837 0.598157
O O13 0.751634 0.395144 0.968615
O O14 0.500000 0.500000 0.000000
O O15 0.082239 0.227584 0.014327
#
# Coordination Sequence:
#
# PCOD9003074 Si02
#       7
#     2   2   2   2   2   2   2
#     4   9  19  34  56  76 109 146 191 233 275 344
#     4   9  19  39  62  83 112 158 193 228 288 356
#     4   9  18  37  63  85 109 151 198 230 281 360
#     4   9  18  36  55  77 106 153 189 230 285 329
#     4   9  18  36  57  76 107 151 191 227 277 338
#     4  10  21  37  57  87 120 150 188 241 295 339
#     4  11  22  35  52  88 115 140 192 238 284 340
#
# _framework density 22.124625999999999
#
# number of rings (size 3 to 8) (size 9 to 14) (size 15 to 20)
#    0.000    2.571    0.000    3.000    0.000    3.429 
#   12.857    0.000    0.000    0.000    0.000    0.000 
#    0.000    0.000    0.000    0.000    0.000    0.000 
#
# Total GULP energy -78027.357267 kJ/mol
# GULP energy per Si atom -5573.382662 kJ/mol
# Density = 2.207427 g / cm^3
# Si number density = 22.124626 Si / 1000 Ang^3
#
#
#
# Elastic Constant Matrix: (Units=GPa)
#
#
# Indices 1 2 3 4 5 6 
#
# 1 69.2482 40.4646 39.2421 -18.9608 -39.2145 -18.0082
# 2 40.4646 83.2603 36.6630 -9.1973 -30.1594 -1.7245
# 3 39.2421 36.6630 67.5851 5.6417 -29.4258 -13.9931
# 4 -18.9608 -9.1973 5.6417 47.2602 4.9934 -6.8974
# 5 -39.2145 -30.1594 -29.4258 4.9934 30.1174 5.9073
# 6 -18.0082 -1.7245 -13.9931 -6.8974 5.9073 36.2629
#
#
#
# Elastic Compliance Matrix: (Units=1/GPa)
#
#
# Indices 1 2 3 4 5 6 
#
# 1 0.098080 -0.001966 -0.003355 0.032951 0.110000 0.035666
# 2 -0.001966 0.019992 -0.004923 0.001764 0.013088 -0.003722
# 3 -0.003355 -0.004923 0.029752 -0.007248 0.020002 0.004943
# 4 0.032951 0.001764 -0.007248 0.034825 0.028757 0.015590
# 5 0.110000 0.013088 0.020002 0.028757 0.197188 0.036314
# 6 0.035666 -0.003722 0.004943 0.015590 0.036314 0.044069
#
#
# Mechanical properties :
#
#
# Convention : Reuss Voigt Hill
#
# Bulk Modulus (GPa) = 7.85324 50.31478 29.08401
# Shear Modulus (GPa) = 10.27031 29.64303 19.95667
#
# Velocity S-wave (km/s) = 2.15687 3.66433 3.00661
# Velocity P-wave (km/s) = 3.12411 6.37918 5.02265
#
# Compressibility (1/GPa) = 0.12733592
#
# Stress axis : x y z
#
# Youngs Moduli (GPa) = 10.19574 50.01880 33.61067
#
# Poissons Ratio (x) = 0.09832 0.11278
# Poissons Ratio (y) = 0.02004 0.16548
# Poissons Ratio (z) = 0.03421 0.24626
#
# Static dielectric constant tensor:
#      x y z
#    x 1.834280 0.041040 -0.001080 
#    y 0.041040 1.867010 0.022570 
#    z -0.001080 0.022570 1.888630 
# 
# From -- ./inp_files/355693.got.cif
#   From: 2010.05.17/outbox.cif.g08.bks.cpg/sg2_178_cif.got.tgz:355693.got - 2010.06.03 11:33:40.
