data_PCOD9003960
_publ_section_title
;
Structure prediction by ZEFSAII (Michael W. Deem and Ramdas Pophale) SiO2 
 PCOD9003960
Probable space group: P -1
;
_chemical_formula_sum "Si O2"
_cell_formula_units_Z 14
_cell_length_a 24.813825
_cell_length_b 5.232357
_cell_length_c 15.017169
_cell_angle_alpha 82.368280
_cell_angle_beta 19.763463
_cell_angle_gamma 92.420128
_cell_volume 566.306993
_symmetry_space_group_name_H-M "P -1"
_symmetry_group_IT_number 2
_symmetry_cell_setting 'triclinic'
loop_
_space_group_symop_operation_xyz
x,y,z
-x,-y,-z
loop_
_atom_site_type_symbol
_atom_site_label
_atom_site_fract_x
_atom_site_fract_y
_atom_site_fract_z
Si Si1 0.328476 0.837197 0.490508
Si Si2 0.665296 0.927954 0.169818
Si Si3 0.302708 0.395864 0.265277
Si Si4 0.274668 0.921649 0.187623
Si Si5 0.874304 0.603255 0.813727
Si Si6 0.248693 0.726538 0.816196
Si Si7 0.169410 0.227490 0.665264
O O1 0.220419 0.738125 0.756262
O O2 0.240184 0.560056 0.573992
O O3 0.314910 0.116038 0.463340
O O4 0.541373 0.929955 0.164449
O O5 0.721477 0.990048 0.185026
O O6 0.446358 0.742907 0.516373
O O7 0.742049 0.267607 0.003157
O O8 0.767482 0.782647 0.968361
O O9 0.289987 0.673568 0.233999
O O10 0.152830 0.233760 0.584428
O O11 0.277870 0.173371 0.234695
O O12 0.500000 0.500000 0.000000
O O13 0.078022 0.763596 0.452399
O O14 0.894850 0.550788 0.890105
O O15 0.000000 0.000000 0.000000
#
# Coordination Sequence:
#
# PCOD9003960 Si02
#       7
#     2   2   2   2   2   2   2
#     4  12  25  42  59  94 124 156 198 257 301 348
#     4   9  20  39  63  90 115 164 196 241 303 360
#     4  12  23  45  64  81 126 166 201 241 300 368
#     4  12  24  40  64  92 119 165 202 244 300 363
#     4  10  21  37  63  90 117 153 211 237 292 366
#     4   9  23  37  66  84 128 151 203 247 302 348
#     4  12  28  41  63  90 121 157 208 250 303 348
#
# _framework density 24.721571000000001
#
# number of rings (size 3 to 8) (size 9 to 14) (size 15 to 20)
#    0.857    0.286    2.857    3.000    6.000    0.000 
#    0.000    1.429    0.000    0.000    0.000    0.000 
#    0.000    0.000    0.000    0.000    0.000    0.000 
#
# Total GULP energy -78342.578813 kJ/mol
# GULP energy per Si atom -5595.898487 kJ/mol
# Density = 2.466530 g / cm^3
# Si number density = 24.721571 Si / 1000 Ang^3
#
#
#
# Elastic Constant Matrix: (Units=GPa)
#
#
# Indices 1 2 3 4 5 6 
#
# 1 57.6238 16.1505 0.6965 1.6500 26.3457 6.6974
# 2 16.1505 99.5310 4.4282 8.2077 -0.4228 4.1930
# 3 0.6965 4.4282 135.6651 7.5862 10.4912 2.3101
# 4 1.6500 8.2077 7.5862 26.6194 -3.1677 -2.1229
# 5 26.3457 -0.4228 10.4912 -3.1677 50.3493 -0.8613
# 6 6.6974 4.1930 2.3101 -2.1229 -0.8613 28.5328
#
#
#
# Elastic Compliance Matrix: (Units=1/GPa)
#
#
# Indices 1 2 3 4 5 6 
#
# 1 0.025602 -0.003767 0.001346 -0.002970 -0.014002 -0.006208
# 2 -0.003767 0.010955 -0.000311 -0.002894 0.001931 -0.000858
# 3 0.001346 -0.000311 0.007732 -0.002581 -0.002500 -0.001164
# 4 -0.002970 -0.002894 -0.002581 0.040292 0.004679 0.004471
# 5 -0.014002 0.001931 -0.002500 0.004679 0.028095 0.004401
# 6 -0.006208 -0.000858 -0.001164 0.004471 0.004401 0.037190
#
#
# Mechanical properties :
#
#
# Convention : Reuss Voigt Hill
#
# Bulk Modulus (GPa) = 25.75702 37.26336 31.51019
# Shear Modulus (GPa) = 29.71383 39.20327 34.45855
#
# Velocity S-wave (km/s) = 3.47066 3.98652 3.73750
# Velocity P-wave (km/s) = 5.14802 6.02459 5.60347
#
# Compressibility (1/GPa) = 0.03882437
#
# Stress axis : x y z
#
# Youngs Moduli (GPa) = 39.05992 91.28045 129.33510
#
# Poissons Ratio (x) = 0.34387 -0.17410
# Poissons Ratio (y) = 0.14715 0.04024
# Poissons Ratio (z) = -0.05258 0.02840
#
# Static dielectric constant tensor:
#      x y z
#    x 1.982150 -0.026170 0.012480 
#    y -0.026170 1.910880 0.016620 
#    z 0.012480 0.016620 1.952820 
# 
# From -- ./inp_files/542136.got.cif
#   From: 2010.05.17/outbox.cif.g08.bks.cpg/sg2_272_cif.got.tgz:542136.got - 2010.06.03 11:33:40.
