data_PCOD9003767
_publ_section_title
;
Structure prediction by ZEFSAII (Michael W. Deem and Ramdas Pophale) SiO2 
 PCOD9003767
Probable space group: P -1
;
_chemical_formula_sum "Si O2"
_cell_formula_units_Z 16
_cell_length_a 27.384423
_cell_length_b 13.144783
_cell_length_c 5.358748
_cell_angle_alpha 118.988515
_cell_angle_beta 65.732691
_cell_angle_gamma 153.298741
_cell_volume 756.977087
_symmetry_space_group_name_H-M "P -1"
_symmetry_group_IT_number 2
_symmetry_cell_setting 'triclinic'
loop_
_space_group_symop_operation_xyz
x,y,z
-x,-y,-z
loop_
_atom_site_type_symbol
_atom_site_label
_atom_site_fract_x
_atom_site_fract_y
_atom_site_fract_z
Si Si1 0.631928 0.771341 0.542823
Si Si2 0.925022 0.965067 0.519763
Si Si3 0.409566 0.871628 0.849026
Si Si4 0.137408 0.477148 0.527052
Si Si5 0.612603 0.638458 0.925141
Si Si6 0.592543 0.337528 0.736392
Si Si7 0.196195 0.319317 0.082755
Si Si8 0.248719 0.759930 0.145978
O O1 0.500000 0.500000 0.500000
O O2 0.672763 0.785657 0.721934
O O3 0.670718 0.977365 0.708901
O O4 0.673771 0.792192 0.228137
O O5 0.010531 0.224985 0.564999
O O6 0.177935 0.420160 0.320470
O O7 0.852922 0.848959 0.781098
O O8 0.000000 0.000000 0.500000
O O9 0.365409 0.677019 0.567138
O O10 0.472740 0.071597 0.754090
O O11 0.321311 0.782474 0.060183
O O12 0.500000 0.000000 0.000000
O O13 0.138880 0.191163 0.784057
O O14 0.165236 0.600948 0.364309
O O15 0.196362 0.641786 0.842513
O O16 0.587546 0.455933 0.779505
O O17 0.500000 0.500000 0.000000
O O18 0.678201 0.483477 0.954135
#
# Coordination Sequence:
#
# PCOD9003767 Si02
#       8
#     2   2   2   2   2   2   2   2
#     4  10  22  39  57  82 112 159 209 257 293 340
#     4  10  21  37  62  88 128 166 198 251 307 381
#     4  11  25  36  56  87 132 170 202 239 316 373
#     4  11  21  38  59  94 121 159 201 247 317 375
#     4  10  22  39  60  79 114 158 218 254 290 339
#     4  11  25  39  58  90 125 173 207 254 303 377
#     4  11  21  38  58  91 130 165 204 245 308 381
#     4  12  23  38  62  88 127 161 204 256 303 370
#
# _framework density 21.136704999999999
#
# number of rings (size 3 to 8) (size 9 to 14) (size 15 to 20)
#    0.000    1.250    1.250    6.750    8.750    0.000 
#    0.000    0.000    0.000    0.000    0.000   17.500 
#    0.000    0.000    0.000    0.000    0.000    0.000 
#
# Total GULP energy -89347.705899 kJ/mol
# GULP energy per Si atom -5584.231619 kJ/mol
# Density = 2.108860 g / cm^3
# Si number density = 21.136705 Si / 1000 Ang^3
#
#
#
# Elastic Constant Matrix: (Units=GPa)
#
#
# Indices 1 2 3 4 5 6 
#
# 1 61.2406 27.7012 45.3279 5.4698 5.7423 -21.9993
# 2 27.7012 118.4119 69.0216 -0.2362 1.9259 -20.4492
# 3 45.3279 69.0216 138.6467 0.0080 30.3064 -30.1574
# 4 5.4698 -0.2362 0.0080 35.6802 -12.3825 4.9690
# 5 5.7423 1.9259 30.3064 -12.3825 37.1590 3.1814
# 6 -21.9993 -20.4492 -30.1574 4.9690 3.1814 32.3682
#
#
#
# Elastic Compliance Matrix: (Units=1/GPa)
#
#
# Indices 1 2 3 4 5 6 
#
# 1 0.026254 -0.001448 -0.003310 -0.008045 -0.005298 0.015600
# 2 -0.001448 0.013007 -0.007761 0.002871 0.006932 -0.001119
# 3 -0.003310 -0.007761 0.019223 -0.007919 -0.018584 0.013799
# 4 -0.008045 0.002871 -0.007919 0.039770 0.022462 -0.019345
# 5 -0.005298 0.006932 -0.018584 0.022462 0.052163 -0.025112
# 6 0.015600 -0.001119 0.013799 -0.019345 -0.025112 0.059084
#
#
# Mechanical properties :
#
#
# Convention : Reuss Voigt Hill
#
# Bulk Modulus (GPa) = 29.89980 66.93340 48.41660
# Shear Modulus (GPa) = 20.35106 32.79138 26.57122
#
# Velocity S-wave (km/s) = 3.10632 3.94305 3.54942
# Velocity P-wave (km/s) = 5.20021 7.24333 6.30508
#
# Compressibility (1/GPa) = 0.03344504
#
# Stress axis : x y z
#
# Youngs Moduli (GPa) = 38.09007 76.88035 52.02227
#
# Poissons Ratio (x) = 0.11132 0.17222
# Poissons Ratio (y) = 0.05515 0.40373
# Poissons Ratio (z) = 0.12609 0.59665
#
# Static dielectric constant tensor:
#      x y z
#    x 1.750520 -0.016390 0.044940 
#    y -0.016390 1.853010 -0.023350 
#    z 0.044940 -0.023350 1.828250 
# 
# From -- ./inp_files/126774.got.cif
#   From: 2010.05.17/outbox.cif.g08.bks.cpg/sg2_64_cif.got.tgz:126774.got - 2010.06.03 11:33:40.
