data_PCOD9003751
_publ_section_title
;
Structure prediction by ZEFSAII (Michael W. Deem and Ramdas Pophale) SiO2 
 PCOD9003751
Probable space group: P -1
;
_chemical_formula_sum "Si O2"
_cell_formula_units_Z 14
_cell_length_a 15.433486
_cell_length_b 21.660860
_cell_length_c 14.061864
_cell_angle_alpha 156.959536
_cell_angle_beta 28.242358
_cell_angle_gamma 154.606214
_cell_volume 753.704085
_symmetry_space_group_name_H-M "P -1"
_symmetry_group_IT_number 2
_symmetry_cell_setting 'triclinic'
loop_
_space_group_symop_operation_xyz
x,y,z
-x,-y,-z
loop_
_atom_site_type_symbol
_atom_site_label
_atom_site_fract_x
_atom_site_fract_y
_atom_site_fract_z
Si Si1 0.268374 0.493280 0.543135
Si Si2 0.543192 0.064631 0.687254
Si Si3 0.454399 0.440686 0.808789
Si Si4 0.191205 0.567036 0.130047
Si Si5 0.885841 0.934238 0.915682
Si Si6 0.747979 0.395208 0.080798
Si Si7 0.696749 0.795360 0.198333
O O1 0.437484 0.582994 0.423067
O O2 0.342846 0.575304 0.692784
O O3 0.056736 0.502099 0.733573
O O4 0.197806 0.280039 0.315770
O O5 0.687994 0.211463 0.674592
O O6 0.564863 0.888665 0.421785
O O7 0.648285 0.182979 0.849785
O O8 0.311195 0.033908 0.857003
O O9 0.362836 0.276940 0.739754
O O10 0.273827 0.486810 0.016670
O O11 0.633061 0.619761 0.945106
O O12 0.271690 0.530287 0.897962
O O13 0.061089 0.052137 0.835241
O O14 0.000000 0.000000 0.000000
O O15 0.000000 0.500000 0.000000
#
# Coordination Sequence:
#
# PCOD9003751 Si02
#       7
#     2   2   2   2   2   2   2
#     4  11  19  37  64  88 116 148 202 244 285 351
#     4  10  21  37  62  86 115 158 191 247 296 330
#     4  11  24  37  56  87 119 163 189 237 302 346
#     4   9  19  35  60  89 109 148 197 241 286 338
#     4  12  22  35  60  93 113 153 204 238 289 351
#     4   8  17  36  62  91 113 147 201 250 286 333
#     4  11  24  40  53  84 132 150 193 247 288 353
#
# _framework density 18.574929000000001
#
# number of rings (size 3 to 8) (size 9 to 14) (size 15 to 20)
#    0.857    0.857    4.286    0.000    2.000    4.571 
#    0.000    3.571    0.000   10.286    0.000    0.000 
#    0.000    0.000    0.000    0.000    0.000    0.000 
#
# Total GULP energy -78043.790275 kJ/mol
# GULP energy per Si atom -5574.556448 kJ/mol
# Density = 1.853265 g / cm^3
# Si number density = 18.574929 Si / 1000 Ang^3
#
#
#
# Elastic Constant Matrix: (Units=GPa)
#
#
# Indices 1 2 3 4 5 6 
#
# 1 65.5565 33.6630 18.8220 -5.0496 -7.0759 -11.0753
# 2 33.6630 80.0004 24.8905 -11.0890 -0.6698 -13.8563
# 3 18.8220 24.8905 66.6965 -13.5968 4.1185 -7.1290
# 4 -5.0496 -11.0890 -13.5968 22.2346 2.3484 -0.6110
# 5 -7.0759 -0.6698 4.1185 2.3484 41.8886 -3.2240
# 6 -11.0753 -13.8563 -7.1290 -0.6110 -3.2240 26.7176
#
#
#
# Elastic Compliance Matrix: (Units=1/GPa)
#
#
# Indices 1 2 3 4 5 6 
#
# 1 0.021000 -0.007144 -0.003247 -0.001093 0.004169 0.004612
# 2 -0.007144 0.018234 -0.002939 0.005887 -0.000511 0.005784
# 3 -0.003247 -0.002939 0.019475 0.010074 -0.002905 0.002206
# 4 -0.001093 0.005887 0.010074 0.054377 -0.003661 0.006090
# 5 0.004169 -0.000511 -0.002905 -0.003661 0.025342 0.003662
# 6 0.004612 0.005784 0.002206 0.006090 0.003662 0.043510
#
#
# Mechanical properties :
#
#
# Convention : Reuss Voigt Hill
#
# Bulk Modulus (GPa) = 31.20258 40.77827 35.99043
# Shear Modulus (GPa) = 22.80192 27.16002 24.98097
#
# Velocity S-wave (km/s) = 3.50746 3.82800 3.67123
# Velocity P-wave (km/s) = 5.76522 6.44509 6.11461
#
# Compressibility (1/GPa) = 0.03204863
#
# Stress axis : x y z
#
# Youngs Moduli (GPa) = 47.62011 54.84313 51.34706
#
# Poissons Ratio (x) = 0.39179 0.16675
# Poissons Ratio (y) = 0.34019 0.15090
# Poissons Ratio (z) = 0.15465 0.16117
#
# Static dielectric constant tensor:
#      x y z
#    x 1.700570 0.022970 0.029820 
#    y 0.022970 1.629320 -0.009760 
#    z 0.029820 -0.009760 1.675120 
# 
# From -- ./inp_files/456821.got.cif
#   From: 2010.05.17/outbox.cif.g08.bks.cpg/sg2_229_cif.got.tgz:456821.got - 2010.06.03 11:33:40.
