data_PCOD9003456
_publ_section_title
;
Structure prediction by ZEFSAII (Michael W. Deem and Ramdas Pophale) SiO2 
 PCOD9003456
Probable space group: P -1
;
_chemical_formula_sum "Si O2"
_cell_formula_units_Z 16
_cell_length_a 13.130887
_cell_length_b 6.999276
_cell_length_c 15.408908
_cell_angle_alpha 70.993365
_cell_angle_beta 149.149577
_cell_angle_gamma 91.370680
_cell_volume 583.392243
_symmetry_space_group_name_H-M "P -1"
_symmetry_group_IT_number 2
_symmetry_cell_setting 'triclinic'
loop_
_space_group_symop_operation_xyz
x,y,z
-x,-y,-z
loop_
_atom_site_type_symbol
_atom_site_label
_atom_site_fract_x
_atom_site_fract_y
_atom_site_fract_z
Si Si1 0.357075 0.911436 0.564890
Si Si2 0.198348 0.138100 0.691484
Si Si3 0.982333 0.097939 0.111007
Si Si4 0.333280 0.961070 0.996946
Si Si5 0.700961 0.572724 0.746621
Si Si6 0.768090 0.423281 0.637436
Si Si7 0.008063 0.377991 0.346242
Si Si8 0.513395 0.707649 0.874960
O O1 0.599586 0.796252 0.704746
O O2 0.419225 0.704946 0.711973
O O3 0.215214 0.132705 0.493282
O O4 0.176400 0.996966 0.342193
O O5 0.161506 0.102934 0.769573
O O6 0.019228 0.332099 0.464273
O O7 0.304442 0.875019 0.763859
O O8 0.413966 0.183405 0.841929
O O9 0.751249 0.169408 0.985565
O O10 0.920212 0.335113 0.981604
O O11 0.078287 0.845167 0.171005
O O12 0.371600 0.128276 0.065772
O O13 0.739402 0.597709 0.669485
O O14 0.483595 0.526424 0.584300
O O15 0.902915 0.455954 0.652317
O O16 0.745383 0.466124 0.109815
#
# Coordination Sequence:
#
# PCOD9003456 Si02
#       8
#     2   2   2   2   2   2   2   2
#     4  10  23  37  55  84 120 149 186 228 288 331
#     4   8  18  33  55  91 113 137 190 237 272 331
#     4  11  20  39  59  84 111 156 183 234 280 333
#     4   9  17  36  59  85 114 141 194 229 274 335
#     4  10  22  38  57  83 119 147 185 238 278 334
#     4  10  21  37  60  89 107 145 198 232 278 331
#     4  11  19  36  62  81 114 152 184 233 282 333
#     4   9  18  36  54  83 114 146 183 231 272 333
#
# _framework density 27.425799999999999
#
# number of rings (size 3 to 8) (size 9 to 14) (size 15 to 20)
#    0.750    1.500    1.250    1.875    0.000    1.000 
#    0.000    5.000    0.000    4.500    0.000    0.000 
#    0.000    0.000    0.000    0.000    0.000    0.000 
#
# Total GULP energy -89200.446295 kJ/mol
# GULP energy per Si atom -5575.027893 kJ/mol
# Density = 2.736338 g / cm^3
# Si number density = 27.425800 Si / 1000 Ang^3
#
#
#
# Elastic Constant Matrix: (Units=GPa)
#
#
# Indices 1 2 3 4 5 6 
#
# 1 83.8381 29.8610 29.9573 -8.1478 -13.7164 -15.0616
# 2 29.8610 62.3425 29.1363 -13.1387 -4.7583 -26.7353
# 3 29.9573 29.1363 164.0793 -8.3858 -14.0837 -10.6621
# 4 -8.1478 -13.1387 -8.3858 37.4963 -12.7614 0.5353
# 5 -13.7164 -4.7583 -14.0837 -12.7614 34.1619 -4.5334
# 6 -15.0616 -26.7353 -10.6621 0.5353 -4.5334 54.8117
#
#
#
# Elastic Compliance Matrix: (Units=1/GPa)
#
#
# Indices 1 2 3 4 5 6 
#
# 1 0.015989 -0.004726 -0.001111 0.003952 0.007101 0.002421
# 2 -0.004726 0.026935 -0.002107 0.009900 0.006256 0.011850
# 3 -0.001111 -0.002107 0.007000 0.001517 0.002745 0.000241
# 4 0.003952 0.009900 0.001517 0.037562 0.018602 0.007381
# 5 0.007101 0.006256 0.002745 0.018602 0.042250 0.008849
# 6 0.002421 0.011850 0.000241 0.007381 0.008849 0.025396
#
#
# Mechanical properties :
#
#
# Convention : Reuss Voigt Hill
#
# Bulk Modulus (GPa) = 29.38128 54.24100 41.81114
# Shear Modulus (GPa) = 27.41758 40.04768 33.73263
#
# Velocity S-wave (km/s) = 3.16523 3.82543 3.51088
# Velocity P-wave (km/s) = 4.90862 6.27154 5.63146
#
# Compressibility (1/GPa) = 0.03403528
#
# Stress axis : x y z
#
# Youngs Moduli (GPa) = 62.54374 37.12702 142.84870
#
# Poissons Ratio (x) = 0.17546 0.15873
# Poissons Ratio (y) = 0.29558 0.30099
# Poissons Ratio (z) = 0.06950 0.07823
#
# Static dielectric constant tensor:
#      x y z
#    x 2.093910 -0.027920 0.031320 
#    y -0.027920 2.311090 -0.016540 
#    z 0.031320 -0.016540 2.160500 
# 
# From -- ./inp_files/529559.got.cif
#   From: 2010.05.17/outbox.cif.g08.bks.cpg/sg2_265_cif.got.tgz:529559.got - 2010.06.03 11:33:40.
