data_PCOD9003708
_publ_section_title
;
Structure prediction by ZEFSAII (Michael W. Deem and Ramdas Pophale) SiO2 
 PCOD9003708
Probable space group: P -1
;
_chemical_formula_sum "Si O2"
_cell_formula_units_Z 16
_cell_length_a 12.048204
_cell_length_b 11.194939
_cell_length_c 9.166904
_cell_angle_alpha 52.139126
_cell_angle_beta 134.337331
_cell_angle_gamma 107.469280
_cell_volume 679.798170
_symmetry_space_group_name_H-M "P -1"
_symmetry_group_IT_number 2
_symmetry_cell_setting 'triclinic'
loop_
_space_group_symop_operation_xyz
x,y,z
-x,-y,-z
loop_
_atom_site_type_symbol
_atom_site_label
_atom_site_fract_x
_atom_site_fract_y
_atom_site_fract_z
Si Si1 0.156339 0.472366 0.556753
Si Si2 0.161428 0.545888 0.170229
Si Si3 0.059401 0.892533 0.774850
Si Si4 0.851454 0.841521 0.877503
Si Si5 0.691004 0.354745 0.205561
Si Si6 0.048901 0.187827 0.698643
Si Si7 0.617463 0.630797 0.719537
Si Si8 0.601294 0.130840 0.496317
O O1 0.148573 0.542398 0.335528
O O2 0.284683 0.533510 0.722099
O O3 0.172856 0.288778 0.687138
O O4 0.000000 0.500000 0.500000
O O5 0.310115 0.419918 0.334229
O O6 0.165469 0.718710 0.986636
O O7 0.000000 0.500000 0.000000
O O8 0.915032 0.854722 0.764842
O O9 0.119077 0.012403 0.845417
O O10 0.000000 0.000000 0.500000
O O11 0.739225 0.718623 0.851107
O O12 0.772038 0.017137 0.721032
O O13 0.969109 0.793516 0.157156
O O14 0.587525 0.240642 0.259241
O O15 0.873130 0.256325 0.417706
O O16 0.623007 0.469244 0.927495
O O17 0.451551 0.754698 0.501255
O O18 0.500000 0.000000 0.500000
#
# Coordination Sequence:
#
# PCOD9003708 Si02
#       8
#     2   2   2   2   2   2   2   2
#     4  10  21  37  61  95 126 162 205 254 318 382
#     4  12  23  37  62  92 134 165 205 265 322 377
#     4  12  23  35  57  95 133 162 198 261 330 377
#     4  11  22  41  64  92 128 164 210 263 318 378
#     4  11  20  39  66  93 124 161 218 263 312 371
#     4  11  22  37  64  99 125 158 207 266 326 373
#     4  11  23  42  63  91 125 170 216 260 311 374
#     4  10  24  41  65  90 124 171 219 259 305 380
#
# _framework density 23.536397000000001
#
# number of rings (size 3 to 8) (size 9 to 14) (size 15 to 20)
#    0.000    1.000    3.750    5.250    1.750    0.000 
#    0.000    0.625    0.000    0.750    0.000    0.000 
#    0.000    0.000    0.000    0.000    0.000    0.000 
#
# Total GULP energy -89266.743324 kJ/mol
# GULP energy per Si atom -5579.171458 kJ/mol
# Density = 2.348283 g / cm^3
# Si number density = 23.536397 Si / 1000 Ang^3
#
#
#
# Elastic Constant Matrix: (Units=GPa)
#
#
# Indices 1 2 3 4 5 6 
#
# 1 91.3998 32.1790 45.1437 -16.0589 -19.3870 -23.5626
# 2 32.1790 112.8635 27.5495 -38.0332 -15.3247 -7.7502
# 3 45.1437 27.5495 73.8303 -23.4241 -27.2479 -13.3397
# 4 -16.0589 -38.0332 -23.4241 46.2168 -6.6786 -4.9264
# 5 -19.3870 -15.3247 -27.2479 -6.6786 45.6900 -16.3535
# 6 -23.5626 -7.7502 -13.3397 -4.9264 -16.3535 64.0943
#
#
#
# Elastic Compliance Matrix: (Units=1/GPa)
#
#
# Indices 1 2 3 4 5 6 
#
# 1 0.018428 -0.000188 -0.004063 0.006492 0.009437 0.008813
# 2 -0.000188 0.017749 0.009982 0.023523 0.019147 0.010848
# 3 -0.004063 0.009982 0.042565 0.036468 0.040070 0.021599
# 4 0.006492 0.023523 0.036468 0.073086 0.054668 0.032387
# 5 0.009437 0.019147 0.040070 0.054668 0.077871 0.038194
# 6 0.008813 0.010848 0.021599 0.032387 0.038194 0.036884
#
#
# Mechanical properties :
#
#
# Convention : Reuss Voigt Hill
#
# Bulk Modulus (GPa) = 11.08602 54.20425 32.64513
# Shear Modulus (GPa) = 17.53219 42.74832 30.14026
#
# Velocity S-wave (km/s) = 2.73224 4.26639 3.58240
# Velocity P-wave (km/s) = 3.83065 6.88109 5.56881
#
# Compressibility (1/GPa) = 0.09020368
#
# Stress axis : x y z
#
# Youngs Moduli (GPa) = 54.26462 56.34124 23.49332
#
# Poissons Ratio (x) = 0.01060 0.09545
# Poissons Ratio (y) = 0.01021 -0.23450
# Poissons Ratio (z) = 0.22047 -0.56237
#
# Static dielectric constant tensor:
#      x y z
#    x 1.996480 -0.012520 0.050920 
#    y -0.012520 1.967860 -0.054700 
#    z 0.050920 -0.054700 1.960100 
# 
# From -- ./inp_files/261716.got.cif
#   From: 2010.05.17/outbox.cif.g08.bks.cpg/sg2_131_cif.got.tgz:261716.got - 2010.06.03 11:33:40.
