data_PCOD9003486
_publ_section_title
;
Structure prediction by ZEFSAII (Michael W. Deem and Ramdas Pophale) SiO2 
 PCOD9003486
Probable space group: P -1
;
_chemical_formula_sum "Si O2"
_cell_formula_units_Z 14
_cell_length_a 18.796581
_cell_length_b 12.981551
_cell_length_c 9.316548
_cell_angle_alpha 53.203956
_cell_angle_beta 150.054935
_cell_angle_gamma 145.897003
_cell_volume 576.376333
_symmetry_space_group_name_H-M "P -1"
_symmetry_group_IT_number 2
_symmetry_cell_setting 'triclinic'
loop_
_space_group_symop_operation_xyz
x,y,z
-x,-y,-z
loop_
_atom_site_type_symbol
_atom_site_label
_atom_site_fract_x
_atom_site_fract_y
_atom_site_fract_z
Si Si1 0.285318 0.772635 0.487130
Si Si2 0.994382 0.922786 0.709695
Si Si3 0.119698 0.479490 0.837199
Si Si4 0.468487 0.121720 0.900008
Si Si5 0.951979 0.808657 0.228836
Si Si6 0.491108 0.519186 0.799268
Si Si7 0.449637 0.140269 0.383152
O O1 0.359365 0.776625 0.458892
O O2 0.019803 0.590025 0.204781
O O3 0.398681 0.991911 0.529391
O O4 0.409565 0.772986 0.822465
O O5 0.746032 0.698163 0.485545
O O6 0.000000 0.000000 0.500000
O O7 0.046789 0.039816 0.850444
O O8 0.203066 0.972447 0.016368
O O9 0.065938 0.294295 0.856127
O O10 0.000000 0.500000 0.500000
O O11 0.384989 0.688688 0.111666
O O12 0.204144 0.954022 0.599668
O O13 0.500000 0.000000 0.000000
O O14 0.716184 0.609247 0.058976
O O15 0.496719 0.674957 0.643998
O O16 0.500000 0.500000 0.000000
#
# Coordination Sequence:
#
# PCOD9003486 Si02
#       7
#     2   2   2   2   2   2   2
#     4  10  22  42  61  93 135 159 200 257 313 379
#     4  11  21  39  61  89 120 164 215 253 300 367
#     4  10  21  37  60  90 123 163 207 250 302 366
#     4  11  21  37  63  94 123 162 205 251 307 367
#     4  11  21  37  62  93 120 154 215 259 304 347
#     4  11  23  38  64  90 122 164 211 260 299 368
#     4  10  23  42  62  93 130 164 199 258 319 363
#
# _framework density 24.289687000000001
#
# number of rings (size 3 to 8) (size 9 to 14) (size 15 to 20)
#    0.000    1.429    5.714    1.714    4.000    0.000 
#    2.571    4.286    0.000    5.143    0.000    0.000 
#    0.000    0.000    0.000    0.000    0.000    0.000 
#
# Total GULP energy -78015.663810 kJ/mol
# GULP energy per Si atom -5572.547415 kJ/mol
# Density = 2.423440 g / cm^3
# Si number density = 24.289687 Si / 1000 Ang^3
#
#
#
# Elastic Constant Matrix: (Units=GPa)
#
#
# Indices 1 2 3 4 5 6 
#
# 1 64.5997 29.3508 39.9400 7.4108 30.1778 3.6207
# 2 29.3508 134.9611 46.4632 25.0051 6.5768 -5.5890
# 3 39.9400 46.4632 102.7553 33.2153 31.0012 15.1930
# 4 7.4108 25.0051 33.2153 50.3363 6.6472 3.4341
# 5 30.1778 6.5768 31.0012 6.6472 43.4086 12.8705
# 6 3.6207 -5.5890 15.1930 3.4341 12.8705 40.4239
#
#
#
# Elastic Compliance Matrix: (Units=1/GPa)
#
#
# Indices 1 2 3 4 5 6 
#
# 1 0.027824 -0.003679 -0.006005 0.003560 -0.016268 0.004133
# 2 -0.003679 0.009824 -0.003484 -0.002625 0.003318 0.002164
# 3 -0.006005 -0.003484 0.019016 -0.008812 -0.006237 -0.004357
# 4 0.003560 -0.002625 -0.008812 0.026428 0.000061 0.000366
# 5 -0.016268 0.003318 -0.006237 0.000061 0.040886 -0.008763
# 6 0.004133 0.002164 -0.004357 0.000366 -0.008763 0.029063
#
#
# Mechanical properties :
#
#
# Convention : Reuss Voigt Hill
#
# Bulk Modulus (GPa) = 32.97581 59.31380 46.14481
# Shear Modulus (GPa) = 26.38704 39.27124 32.82914
#
# Velocity S-wave (km/s) = 3.29955 4.02529 3.68035
# Velocity P-wave (km/s) = 5.30298 6.78795 6.09089
#
# Compressibility (1/GPa) = 0.03032526
#
# Stress axis : x y z
#
# Youngs Moduli (GPa) = 35.94044 101.79661 52.58784
#
# Poissons Ratio (x) = 0.37454 0.31580
# Poissons Ratio (y) = 0.13224 0.18324
# Poissons Ratio (z) = 0.21583 0.35470
#
# Static dielectric constant tensor:
#      x y z
#    x 1.917500 0.122780 -0.082550 
#    y 0.122780 1.742180 0.126560 
#    z -0.082550 0.126560 1.870380 
# 
# From -- ./inp_files/471725.got.cif
#   From: 2010.05.17/outbox.cif.g08.bks.cpg/sg2_236_cif.got.tgz:471725.got - 2010.06.03 11:33:40.
