data_PCOD9003270
_publ_section_title
;
Structure prediction by ZEFSAII (Michael W. Deem and Ramdas Pophale) SiO2 
 PCOD9003270
Probable space group: P -1
;
_chemical_formula_sum "Si O2"
_cell_formula_units_Z 16
_cell_length_a 20.750330
_cell_length_b 7.017817
_cell_length_c 5.569271
_cell_angle_alpha 106.193996
_cell_angle_beta 122.165244
_cell_angle_gamma 78.624257
_cell_volume 658.104701
_symmetry_space_group_name_H-M "P -1"
_symmetry_group_IT_number 2
_symmetry_cell_setting 'triclinic'
loop_
_space_group_symop_operation_xyz
x,y,z
-x,-y,-z
loop_
_atom_site_type_symbol
_atom_site_label
_atom_site_fract_x
_atom_site_fract_y
_atom_site_fract_z
Si Si1 0.207973 0.827922 0.842516
Si Si2 0.079699 0.260760 0.270025
Si Si3 0.949920 0.119772 0.240384
Si Si4 0.578712 0.097377 0.248352
Si Si5 0.813482 0.467854 0.669053
Si Si6 0.216604 0.252190 0.907371
Si Si7 0.666990 0.703883 0.215893
Si Si8 0.382455 0.698203 0.117435
O O1 0.127677 0.777209 0.777708
O O2 0.194786 0.755319 0.513472
O O3 0.210931 0.059608 0.990410
O O4 0.292846 0.736725 0.026764
O O5 0.107931 0.440439 0.227677
O O6 0.149124 0.226936 0.578730
O O7 0.001148 0.277499 0.267343
O O8 0.071589 0.057525 0.039060
O O9 0.000000 0.000000 0.500000
O O10 0.575326 0.228200 0.533054
O O11 0.636176 0.905385 0.347632
O O12 0.602801 0.200386 0.078838
O O13 0.500000 0.000000 0.000000
O O14 0.740998 0.594644 0.450054
O O15 0.799427 0.534486 0.933586
O O16 0.299551 0.236259 0.952387
O O17 0.606735 0.537620 0.997378
#
# Coordination Sequence:
#
# PCOD9003270 Si02
#       8
#     2   2   2   2   2   2   2   2
#     4  11  22  40  68  95 126 180 226 284 338 416
#     4  10  21  37  59  86 124 172 218 284 345 403
#     4  11  21  38  60  85 125 173 224 276 354 399
#     4  12  27  48  76 109 145 186 227 281 353 420
#     4  10  22  40  62  98 125 173 233 277 345 402
#     4  11  20  41  65  89 134 172 224 282 342 398
#     4  10  25  41  71 102 141 185 224 292 338 410
#     4  11  27  46  73 109 142 183 242 279 343 425
#
# _framework density 24.312239999999999
#
# number of rings (size 3 to 8) (size 9 to 14) (size 15 to 20)
#    0.000    1.250    3.750    1.125    5.250    1.500 
#    4.500    2.500    0.000    0.000    0.000    0.000 
#    0.000    0.000    0.000    0.000    0.000    0.000 
#
# Total GULP energy -89306.131303 kJ/mol
# GULP energy per Si atom -5581.633206 kJ/mol
# Density = 2.425690 g / cm^3
# Si number density = 24.312240 Si / 1000 Ang^3
#
#
#
# Elastic Constant Matrix: (Units=GPa)
#
#
# Indices 1 2 3 4 5 6 
#
# 1 60.5986 9.7962 7.0552 -0.5613 10.2690 18.1526
# 2 9.7962 49.2748 11.4351 6.3871 0.5406 9.0316
# 3 7.0552 11.4351 146.6738 23.6403 1.4331 7.3493
# 4 -0.5613 6.3871 23.6403 35.6239 -3.5601 1.1238
# 5 10.2690 0.5406 1.4331 -3.5601 28.0013 9.7340
# 6 18.1526 9.0316 7.3493 1.1238 9.7340 17.3787
#
#
#
# Elastic Compliance Matrix: (Units=1/GPa)
#
#
# Indices 1 2 3 4 5 6 
#
# 1 0.024072 -0.000344 -0.000085 0.001293 0.000053 -0.025042
# 2 -0.000344 0.023341 -0.000697 -0.002895 0.004058 -0.013561
# 3 -0.000085 -0.000697 0.007805 -0.004992 -0.000138 -0.002450
# 4 0.001293 -0.002895 -0.004992 0.032489 0.004856 -0.002556
# 5 0.000053 0.004058 -0.000138 0.004856 0.046046 -0.028210
# 6 -0.025042 -0.013561 -0.002450 -0.002556 -0.028210 0.107749
#
#
# Mechanical properties :
#
#
# Convention : Reuss Voigt Hill
#
# Bulk Modulus (GPa) = 18.88003 34.79114 26.83558
# Shear Modulus (GPa) = 19.12704 31.41816 25.27260
#
# Velocity S-wave (km/s) = 2.80790 3.59873 3.22763
# Velocity P-wave (km/s) = 4.27726 5.62219 4.99519
#
# Compressibility (1/GPa) = 0.05296603
#
# Stress axis : x y z
#
# Youngs Moduli (GPa) = 41.54174 42.84337 128.12285
#
# Poissons Ratio (x) = 0.01474 0.01091
# Poissons Ratio (y) = 0.01429 0.08927
# Poissons Ratio (z) = 0.00354 0.02985
#
# Static dielectric constant tensor:
#      x y z
#    x 2.019870 0.046140 -0.102980 
#    y 0.046140 1.954640 -0.062950 
#    z -0.102980 -0.062950 2.007430 
# 
# From -- ./inp_files/117491.got.cif
#   From: 2010.05.17/outbox.cif.g08.bks.cpg/sg2_59_cif.got.tgz:117491.got - 2010.06.03 11:33:40.
