data_PCOD9003521
_publ_section_title
;
Structure prediction by ZEFSAII (Michael W. Deem and Ramdas Pophale) SiO2 
 PCOD9003521
Probable space group: P -1
;
_chemical_formula_sum "Si O2"
_cell_formula_units_Z 12
_cell_length_a 7.436818
_cell_length_b 14.168862
_cell_length_c 8.749530
_cell_angle_alpha 46.475022
_cell_angle_beta 53.607061
_cell_angle_gamma 63.804208
_cell_volume 537.253048
_symmetry_space_group_name_H-M "P -1"
_symmetry_group_IT_number 2
_symmetry_cell_setting 'triclinic'
loop_
_space_group_symop_operation_xyz
x,y,z
-x,-y,-z
loop_
_atom_site_type_symbol
_atom_site_label
_atom_site_fract_x
_atom_site_fract_y
_atom_site_fract_z
Si Si1 0.421673 0.597360 0.116918
Si Si2 0.905377 0.186446 0.433408
Si Si3 0.649046 0.985162 0.595011
Si Si4 0.433014 0.812712 0.125551
Si Si5 0.300261 0.419473 0.619566
Si Si6 0.159519 0.561372 0.000140
O O1 0.500000 0.500000 0.500000
O O2 0.377766 0.715282 0.123669
O O3 0.315212 0.625559 0.976247
O O4 0.683662 0.559000 0.006143
O O5 0.769734 0.167547 0.678051
O O6 0.158094 0.130384 0.390231
O O7 0.785478 0.106929 0.447682
O O8 0.886539 0.335925 0.225587
O O9 0.500000 0.000000 0.500000
O O10 0.504041 0.941932 0.861800
O O11 0.630681 0.731278 0.210864
O O12 0.068862 0.460005 0.772233
O O13 0.309669 0.468851 0.385949
#
# Coordination Sequence:
#
# PCOD9003521 Si02
#       6
#     2   2   2   2   2   2
#     4  10  23  38  64  98 131 172 214 256 323 388
#     4  11  24  43  69  94 128 171 213 271 327 374
#     4  11  25  46  67  94 125 170 220 270 325 385
#     4  11  22  42  63  96 129 166 213 265 321 386
#     4  10  21  37  60  92 129 169 211 253 316 380
#     4  11  21  41  64  95 135 170 214 263 316 392
#
# _framework density 22.335844999999999
#
# number of rings (size 3 to 8) (size 9 to 14) (size 15 to 20)
#    0.000    1.333    3.333    2.000    0.000    6.000 
#    3.000    0.000    0.000    0.000    0.000    0.000 
#    0.000    0.000    0.000    0.000    0.000    0.000 
#
# Total GULP energy -67093.561278 kJ/mol
# GULP energy per Si atom -5591.130106 kJ/mol
# Density = 2.228501 g / cm^3
# Si number density = 22.335845 Si / 1000 Ang^3
#
#
#
# Elastic Constant Matrix: (Units=GPa)
#
#
# Indices 1 2 3 4 5 6 
#
# 1 115.7113 29.7170 36.9917 2.0735 5.0423 -22.4856
# 2 29.7170 43.9198 6.3569 11.0056 3.2586 -11.8085
# 3 36.9917 6.3569 119.3919 2.2260 -12.3023 -30.3172
# 4 2.0735 11.0056 2.2260 42.0534 -7.4523 -4.1036
# 5 5.0423 3.2586 -12.3023 -7.4523 43.2386 10.4064
# 6 -22.4856 -11.8085 -30.3172 -4.1036 10.4064 29.7690
#
#
#
# Elastic Compliance Matrix: (Units=1/GPa)
#
#
# Indices 1 2 3 4 5 6 
#
# 1 0.012230 -0.006642 -0.002395 0.001307 -0.002650 0.005271
# 2 -0.006642 0.032275 0.002852 -0.008044 -0.004956 0.011313
# 3 -0.002395 0.002852 0.011875 -0.000035 0.000754 0.011148
# 4 0.001307 -0.008044 -0.000035 0.026697 0.005130 -0.000353
# 5 -0.002650 -0.004956 0.000754 0.005130 0.027852 -0.012229
# 6 0.005271 0.011313 0.011148 -0.000353 -0.012229 0.057640
#
#
# Mechanical properties :
#
#
# Convention : Reuss Voigt Hill
#
# Bulk Modulus (GPa) = 22.72197 47.23933 34.98065
# Shear Modulus (GPa) = 25.56119 36.74270 31.15195
#
# Velocity S-wave (km/s) = 3.38657 4.06027 3.73863
# Velocity P-wave (km/s) = 5.04844 6.57089 5.85932
#
# Compressibility (1/GPa) = 0.04401026
#
# Stress axis : x y z
#
# Youngs Moduli (GPa) = 81.76713 30.98328 84.21092
#
# Poissons Ratio (x) = 0.20579 0.20165
# Poissons Ratio (y) = 0.54310 -0.24014
# Poissons Ratio (z) = 0.19580 -0.08835
#
# Static dielectric constant tensor:
#      x y z
#    x 1.843790 0.030270 0.017960 
#    y 0.030270 1.831990 -0.031760 
#    z 0.017960 -0.031760 1.851420 
# 
# From -- ./inp_files/42981.got.cif
#   From: 2010.05.17/outbox.cif.g08.bks.cpg/sg2_22_cif.got.tgz:42981.got - 2010.06.03 11:33:40.
