data_PCOD9003698
_publ_section_title
;
Structure prediction by ZEFSAII (Michael W. Deem and Ramdas Pophale) SiO2 
 PCOD9003698
Probable space group: P -1
;
_chemical_formula_sum "Si O2"
_cell_formula_units_Z 16
_cell_length_a 8.139293
_cell_length_b 5.618810
_cell_length_c 28.740797
_cell_angle_alpha 95.843028
_cell_angle_beta 141.767778
_cell_angle_gamma 62.187592
_cell_volume 629.734889
_symmetry_space_group_name_H-M "P -1"
_symmetry_group_IT_number 2
_symmetry_cell_setting 'triclinic'
loop_
_space_group_symop_operation_xyz
x,y,z
-x,-y,-z
loop_
_atom_site_type_symbol
_atom_site_label
_atom_site_fract_x
_atom_site_fract_y
_atom_site_fract_z
Si Si1 0.593746 0.308778 0.151363
Si Si2 0.383332 0.801333 0.951819
Si Si3 0.271832 0.324324 0.513935
Si Si4 0.716073 0.441550 0.821991
Si Si5 0.767375 0.149330 0.496477
Si Si6 0.832044 0.569843 0.330651
Si Si7 0.512980 0.169451 0.306440
Si Si8 0.945467 0.631932 0.254369
O O1 0.505418 0.306944 0.078485
O O2 0.288082 0.468029 0.124378
O O3 0.747313 0.494876 0.192642
O O4 0.825935 0.950809 0.211716
O O5 0.500000 0.500000 0.000000
O O6 0.976763 0.076177 0.868720
O O7 0.500000 0.000000 0.000000
O O8 0.450172 0.970383 0.553692
O O9 0.103339 0.383539 0.427363
O O10 0.000000 0.500000 0.500000
O O11 0.435075 0.489105 0.545706
O O12 0.329840 0.577209 0.728238
O O13 0.737518 0.611075 0.787288
O O14 0.078673 0.995700 0.600827
O O15 0.000000 0.000000 0.500000
O O16 0.895686 0.679444 0.299775
O O17 0.541303 0.869574 0.302478
O O18 0.322801 0.374022 0.313317
#
# Coordination Sequence:
#
# PCOD9003698 Si02
#       8
#     2   2   2   2   2   2   2   2
#     4  11  24  44  64  96 125 157 202 257 300 369
#     4  12  28  45  67  93 128 162 198 252 310 370
#     4   9  17  31  54  82 118 160 200 244 301 355
#     4  11  23  40  69  90 124 163 210 248 309 366
#     4   9  18  31  53  84 118 159 205 244 299 358
#     4  10  21  37  61  94 123 162 211 256 305 360
#     4  11  20  36  64  90 121 166 207 254 308 358
#     4  11  23  36  64  96 126 154 210 260 301 355
#
# _framework density 25.407519000000001
#
# number of rings (size 3 to 8) (size 9 to 14) (size 15 to 20)
#    0.000    1.500    3.750    1.500    1.750    1.000 
#    0.000    0.000    0.000   13.500    0.000    0.000 
#    0.000    0.000    0.000    0.000    0.000    0.000 
#
# Total GULP energy -89172.337718 kJ/mol
# GULP energy per Si atom -5573.271107 kJ/mol
# Density = 2.534969 g / cm^3
# Si number density = 25.407519 Si / 1000 Ang^3
#
#
#
# Elastic Constant Matrix: (Units=GPa)
#
#
# Indices 1 2 3 4 5 6 
#
# 1 63.4273 43.9936 40.6168 0.1902 -29.3815 -10.0459
# 2 43.9936 164.6131 45.6942 -0.7899 -16.3060 26.2307
# 3 40.6168 45.6942 97.5605 8.6384 -36.5789 -0.7252
# 4 0.1902 -0.7899 8.6384 52.0857 3.2474 -13.2865
# 5 -29.3815 -16.3060 -36.5789 3.2474 50.4535 8.0389
# 6 -10.0459 26.2307 -0.7252 -13.2865 8.0389 62.9883
#
#
#
# Elastic Compliance Matrix: (Units=1/GPa)
#
#
# Indices 1 2 3 4 5 6 
#
# 1 0.029303 -0.006284 -0.005698 0.001752 0.009779 0.006346
# 2 -0.006284 0.008935 -0.002125 -0.000587 -0.001530 -0.004676
# 3 -0.005698 -0.002125 0.017377 -0.003927 0.009136 -0.001818
# 4 0.001752 -0.000587 -0.003927 0.021522 -0.004288 0.005566
# 5 0.009779 -0.001530 0.009136 -0.004288 0.032355 -0.002732
# 6 0.006346 -0.004676 -0.001818 0.005566 -0.002732 0.020337
#
#
# Mechanical properties :
#
#
# Convention : Reuss Voigt Hill
#
# Bulk Modulus (GPa) = 36.49456 65.13444 50.81450
# Shear Modulus (GPa) = 29.90834 46.12527 38.01680
#
# Velocity S-wave (km/s) = 3.43468 4.26539 3.87238
# Velocity P-wave (km/s) = 5.48855 7.06751 6.32747
#
# Compressibility (1/GPa) = 0.02740135
#
# Stress axis : x y z
#
# Youngs Moduli (GPa) = 34.12595 111.92040 57.54715
#
# Poissons Ratio (x) = 0.70330 0.32790
# Poissons Ratio (y) = 0.21445 0.12229
# Poissons Ratio (z) = 0.19445 0.23783
#
# Static dielectric constant tensor:
#      x y z
#    x 2.266610 0.141980 0.089240 
#    y 0.141980 2.091340 0.062780 
#    z 0.089240 0.062780 2.097470 
# 
# From -- ./inp_files/44405.got.cif
#   From: 2010.05.17/outbox.cif.g08.bks.cpg/sg2_23_cif.got.tgz:44405.got - 2010.06.03 11:33:40.
