data_PCOD9003920
_publ_section_title
;
Structure prediction by ZEFSAII (Michael W. Deem and Ramdas Pophale) SiO2 
 PCOD9003920
Probable space group: P -1
;
_chemical_formula_sum "Si O2"
_cell_formula_units_Z 16
_cell_length_a 11.289153
_cell_length_b 12.681652
_cell_length_c 7.573393
_cell_angle_alpha 126.068556
_cell_angle_beta 128.340613
_cell_angle_gamma 73.773381
_cell_volume 681.078577
_symmetry_space_group_name_H-M "P -1"
_symmetry_group_IT_number 2
_symmetry_cell_setting 'triclinic'
loop_
_space_group_symop_operation_xyz
x,y,z
-x,-y,-z
loop_
_atom_site_type_symbol
_atom_site_label
_atom_site_fract_x
_atom_site_fract_y
_atom_site_fract_z
Si Si1 0.812070 0.712985 0.459449
Si Si2 0.128405 0.755731 0.618743
Si Si3 0.143039 0.931388 0.495598
Si Si4 0.021121 0.335450 0.078436
Si Si5 0.434308 0.517362 0.168687
Si Si6 0.385425 0.682523 0.969991
Si Si7 0.612691 0.921898 0.407558
Si Si8 0.196975 0.526979 0.197925
O O1 0.890290 0.660188 0.652178
O O2 0.691872 0.599302 0.145572
O O3 0.727640 0.840951 0.545350
O O4 0.953887 0.759840 0.507772
O O5 0.198772 0.875200 0.677295
O O6 0.221782 0.730021 0.855131
O O7 0.153110 0.629881 0.400903
O O8 0.279639 0.003394 0.571095
O O9 0.000000 0.000000 0.500000
O O10 0.064880 0.807892 0.185802
O O11 0.143238 0.383986 0.085634
O O12 0.896495 0.434942 0.025256
O O13 0.433678 0.646283 0.175346
O O14 0.588405 0.453107 0.236050
O O15 0.370868 0.548226 0.327307
O O16 0.496527 0.801057 0.102926
O O17 0.500000 0.000000 0.500000
#
# Coordination Sequence:
#
# PCOD9003920 Si02
#       8
#     2   2   2   2   2   2   2   2
#     4  11  22  42  69  96 125 166 222 262 316 389
#     4  11  23  40  68  98 123 168 219 266 317 383
#     4  11  24  45  67  92 129 170 217 273 317 368
#     4  10  22  36  66 100 121 162 211 271 311 371
#     4  10  21  41  64  92 136 167 203 262 332 381
#     4  10  24  41  63  92 131 174 206 262 325 385
#     4  11  27  45  64  93 132 172 216 266 321 382
#     4  10  21  37  63 101 130 158 206 272 321 375
#
# _framework density 23.492149999999999
#
# number of rings (size 3 to 8) (size 9 to 14) (size 15 to 20)
#    0.000    1.500    1.250    3.750    7.000    4.000 
#    2.250    0.000    0.000    0.000    0.000    0.000 
#    0.000    0.000    0.000    0.000    0.000    0.000 
#
# Total GULP energy -89232.614632 kJ/mol
# GULP energy per Si atom -5577.038415 kJ/mol
# Density = 2.343868 g / cm^3
# Si number density = 23.492150 Si / 1000 Ang^3
#
#
#
# Elastic Constant Matrix: (Units=GPa)
#
#
# Indices 1 2 3 4 5 6 
#
# 1 172.5845 62.5215 13.8432 9.3728 17.1551 3.2879
# 2 62.5215 126.3126 37.6659 -9.1108 12.6915 8.0893
# 3 13.8432 37.6659 28.0721 -7.2030 3.7627 1.3821
# 4 9.3728 -9.1108 -7.2030 41.0521 6.2722 8.5574
# 5 17.1551 12.6915 3.7627 6.2722 32.9659 3.6271
# 6 3.2879 8.0893 1.3821 8.5574 3.6271 48.2888
#
#
#
# Elastic Compliance Matrix: (Units=1/GPa)
#
#
# Indices 1 2 3 4 5 6 
#
# 1 0.007495 -0.004172 0.001597 -0.002174 -0.002139 0.000689
# 2 -0.004172 0.015976 -0.018495 0.001992 -0.002020 -0.002064
# 3 0.001597 -0.018495 0.061606 0.006606 -0.002022 0.000207
# 4 -0.002174 0.001992 0.006606 0.028296 -0.005224 -0.004997
# 5 -0.002139 -0.002020 -0.002022 -0.005224 0.033566 -0.001054
# 6 0.000689 -0.002064 0.000207 -0.004997 -0.001054 0.021966
#
#
# Mechanical properties :
#
#
# Convention : Reuss Voigt Hill
#
# Bulk Modulus (GPa) = 23.28986 61.67004 42.47995
# Shear Modulus (GPa) = 22.18694 38.65729 30.42212
#
# Velocity S-wave (km/s) = 3.07651 4.06093 3.60250
# Velocity P-wave (km/s) = 4.74924 6.94957 5.95197
#
# Compressibility (1/GPa) = 0.04293715
#
# Stress axis : x y z
#
# Youngs Moduli (GPa) = 133.42065 62.59457 16.23214
#
# Poissons Ratio (x) = 0.26115 -0.02592
# Poissons Ratio (y) = 0.55664 0.30021
# Poissons Ratio (z) = -0.21304 1.15767
#
# Static dielectric constant tensor:
#      x y z
#    x 1.958550 0.007920 0.021150 
#    y 0.007920 1.929370 -0.029300 
#    z 0.021150 -0.029300 1.979730 
# 
# From -- ./inp_files/263172.got.cif
#   From: 2010.05.17/outbox.cif.g08.bks.cpg/sg2_132_cif.got.tgz:263172.got - 2010.06.03 11:33:40.
