data_PCOD9003609
_publ_section_title
;
Structure prediction by ZEFSAII (Michael W. Deem and Ramdas Pophale) SiO2 
 PCOD9003609
Probable space group: P -1
;
_chemical_formula_sum "Si O2"
_cell_formula_units_Z 14
_cell_length_a 6.955178
_cell_length_b 21.400079
_cell_length_c 5.441309
_cell_angle_alpha 104.865389
_cell_angle_beta 82.920749
_cell_angle_gamma 136.571197
_cell_volume 535.698286
_symmetry_space_group_name_H-M "P -1"
_symmetry_group_IT_number 2
_symmetry_cell_setting 'triclinic'
loop_
_space_group_symop_operation_xyz
x,y,z
-x,-y,-z
loop_
_atom_site_type_symbol
_atom_site_label
_atom_site_fract_x
_atom_site_fract_y
_atom_site_fract_z
Si Si1 0.637045 0.878883 0.229138
Si Si2 0.673595 0.029993 0.254350
Si Si3 0.728849 0.522951 0.656649
Si Si4 0.199287 0.207846 0.133976
Si Si5 0.611651 0.249846 0.479227
Si Si6 0.013993 0.713183 0.925799
Si Si7 0.814421 0.419017 0.746890
O O1 0.598730 0.856011 0.501234
O O2 0.753791 0.974248 0.214633
O O3 0.817209 0.861628 0.092427
O O4 0.308410 0.796928 0.104059
O O5 0.941982 0.140744 0.298242
O O6 0.500000 0.000000 0.500000
O O7 0.500000 0.000000 0.000000
O O8 0.500000 0.500000 0.500000
O O9 0.618208 0.429980 0.699155
O O10 0.843816 0.606389 0.906740
O O11 0.979579 0.557571 0.476472
O O12 0.478013 0.262497 0.301944
O O13 0.168054 0.266100 0.046689
O O14 0.879990 0.278684 0.359128
O O15 0.666646 0.317042 0.747303
O O16 0.000000 0.500000 0.000000
#
# Coordination Sequence:
#
# PCOD9003609 Si02
#       7
#     2   2   2   2   2   2   2
#     4  11  24  42  68  95 128 172 223 270 339 398
#     4  12  27  47  74 102 141 181 223 280 344 405
#     4  10  21  37  61  88 125 169 214 273 330 397
#     4  11  24  42  68  95 130 171 225 272 336 404
#     4  10  23  39  63  93 126 172 218 279 333 405
#     4  10  21  41  61  90 129 168 217 275 336 398
#     4  10  21  39  59  90 128 166 218 274 334 390
#
# _framework density 26.134112999999999
#
# number of rings (size 3 to 8) (size 9 to 14) (size 15 to 20)
#    0.000    1.429    1.429    3.000    4.000    5.714 
#    0.000    0.000    0.000    0.000    0.000    0.000 
#    0.000    0.000    0.000    0.000    0.000    0.000 
#
# Total GULP energy -78286.567125 kJ/mol
# GULP energy per Si atom -5591.897652 kJ/mol
# Density = 2.607463 g / cm^3
# Si number density = 26.134113 Si / 1000 Ang^3
#
#
#
# Elastic Constant Matrix: (Units=GPa)
#
#
# Indices 1 2 3 4 5 6 
#
# 1 164.8003 32.5343 29.2838 6.4374 -1.8212 -35.8257
# 2 32.5343 93.8298 2.4340 1.1015 -3.7691 -34.7097
# 3 29.2838 2.4340 60.0079 -0.4879 -12.2728 -8.4630
# 4 6.4374 1.1015 -0.4879 35.7945 2.7302 -0.9764
# 5 -1.8212 -3.7691 -12.2728 2.7302 43.5503 5.4528
# 6 -35.8257 -34.7097 -8.4630 -0.9764 5.4528 56.8820
#
#
#
# Elastic Compliance Matrix: (Units=1/GPa)
#
#
# Indices 1 2 3 4 5 6 
#
# 1 0.007772 -0.001271 -0.003465 -0.001218 -0.001148 0.003693
# 2 -0.001271 0.014002 0.001272 -0.000011 0.000531 0.007882
# 3 -0.003465 0.001272 0.019536 0.000472 0.005316 0.000999
# 4 -0.001218 -0.000011 0.000472 0.028290 -0.001685 -0.000056
# 5 -0.001148 0.000531 0.005316 -0.001685 0.024816 -0.002016
# 6 0.003693 0.007882 0.000999 -0.000056 -0.002016 0.025057
#
#
# Mechanical properties :
#
#
# Convention : Reuss Voigt Hill
#
# Bulk Modulus (GPa) = 29.08346 49.68245 39.38295
# Shear Modulus (GPa) = 36.26824 44.20442 40.23633
#
# Velocity S-wave (km/s) = 3.72933 4.11718 3.92804
# Velocity P-wave (km/s) = 5.44945 6.45395 5.97285
#
# Compressibility (1/GPa) = 0.03438381
#
# Stress axis : x y z
#
# Youngs Moduli (GPa) = 128.66229 71.41610 51.18826
#
# Poissons Ratio (x) = 0.09074 0.17737
# Poissons Ratio (y) = 0.16347 -0.06513
# Poissons Ratio (z) = 0.44582 -0.09086
#
# Static dielectric constant tensor:
#      x y z
#    x 2.017990 -0.006890 0.029840 
#    y -0.006890 2.201760 -0.002190 
#    z 0.029840 -0.002190 2.167070 
# 
# From -- ./inp_files/6258.got.cif
#   From: 2010.05.17/outbox.cif.g08.bks.cpg/sg2_4_cif.got.tgz:6258.got - 2010.06.03 11:33:40.
