data_PCOD9003443
_publ_section_title
;
Structure prediction by ZEFSAII (Michael W. Deem and Ramdas Pophale) SiO2 
 PCOD9003443
Probable space group: P -1
;
_chemical_formula_sum "Si O2"
_cell_formula_units_Z 16
_cell_length_a 19.875773
_cell_length_b 7.479106
_cell_length_c 21.928124
_cell_angle_alpha 42.259743
_cell_angle_beta 161.641647
_cell_angle_gamma 130.693804
_cell_volume 670.578923
_symmetry_space_group_name_H-M "P -1"
_symmetry_group_IT_number 2
_symmetry_cell_setting 'triclinic'
loop_
_space_group_symop_operation_xyz
x,y,z
-x,-y,-z
loop_
_atom_site_type_symbol
_atom_site_label
_atom_site_fract_x
_atom_site_fract_y
_atom_site_fract_z
Si Si1 0.268883 0.069286 0.249114
Si Si2 0.299047 0.903363 0.819690
Si Si3 0.511641 0.376068 0.193646
Si Si4 0.971467 0.517914 0.543626
Si Si5 0.442491 0.864928 0.330678
Si Si6 0.552666 0.869320 0.923386
Si Si7 0.693703 0.320296 0.869085
Si Si8 0.895209 0.797277 0.806000
O O1 0.277984 0.892978 0.240387
O O2 0.256202 0.389986 0.143478
O O3 0.128480 0.019959 0.199445
O O4 0.500000 0.000000 0.500000
O O5 0.088858 0.157014 0.576074
O O6 0.311375 0.635174 0.939152
O O7 0.402999 0.831438 0.860661
O O8 0.500000 0.000000 0.000000
O O9 0.748041 0.439130 0.395240
O O10 0.435704 0.172480 0.225615
O O11 0.556828 0.210734 0.211055
O O12 0.000000 0.500000 0.500000
O O13 0.201202 0.325117 0.811926
O O14 0.414450 0.695093 0.288145
O O15 0.680007 0.774153 0.590127
O O16 0.573277 0.181499 0.851413
O O17 0.934060 0.125534 0.112751
O O18 0.000000 0.500000 0.000000
#
# Coordination Sequence:
#
# PCOD9003443 Si02
#       8
#     2   2   2   2   2   2   2   2
#     4   9  20  36  61  88 114 154 194 240 299 361
#     4  10  21  37  60  88 115 163 205 243 302 359
#     4  10  22  39  59  87 123 157 205 253 295 364
#     4  11  22  37  60  84 115 162 203 248 304 347
#     4  10  21  38  61  88 120 159 195 247 303 350
#     4  11  22  41  60  87 123 159 203 253 301 355
#     4  10  22  38  62  86 121 159 194 249 303 353
#     4   9  19  38  59  88 116 151 196 241 295 363
#
# _framework density 23.859981999999999
#
# number of rings (size 3 to 8) (size 9 to 14) (size 15 to 20)
#    0.000    2.000    2.500    1.125    3.500    5.500 
#    0.000    3.750   11.000    0.000    0.000    0.000 
#    0.000    0.000    0.000    0.000    0.000    0.000 
#
# Total GULP energy -89169.467273 kJ/mol
# GULP energy per Si atom -5573.091705 kJ/mol
# Density = 2.380568 g / cm^3
# Si number density = 23.859982 Si / 1000 Ang^3
#
#
#
# Elastic Constant Matrix: (Units=GPa)
#
#
# Indices 1 2 3 4 5 6 
#
# 1 84.1097 3.9196 16.5409 -9.2244 6.9241 -9.7592
# 2 3.9196 57.5273 5.2282 -10.3059 -7.3130 4.3837
# 3 16.5409 5.2282 83.0300 -8.1545 5.3503 -5.6122
# 4 -9.2244 -10.3059 -8.1545 43.8301 0.9240 -17.0383
# 5 6.9241 -7.3130 5.3503 0.9240 24.4695 4.7342
# 6 -9.7592 4.3837 -5.6122 -17.0383 4.7342 35.1548
#
#
#
# Elastic Compliance Matrix: (Units=1/GPa)
#
#
# Indices 1 2 3 4 5 6 
#
# 1 0.014096 -0.001140 -0.001361 0.005360 -0.005626 0.007193
# 2 -0.001140 0.019135 -0.001277 0.002960 0.006667 -0.002369
# 3 -0.001361 -0.001277 0.013275 0.003578 -0.003837 0.004151
# 4 0.005360 0.002960 0.003578 0.032549 -0.006184 0.018298
# 5 -0.005626 0.006667 -0.003837 -0.006184 0.047934 -0.012458
# 6 0.007193 -0.002369 0.004151 0.018298 -0.012458 0.041947
#
#
# Mechanical properties :
#
#
# Convention : Reuss Voigt Hill
#
# Bulk Modulus (GPa) = 25.67400 30.67160 28.17280
# Shear Modulus (GPa) = 26.38885 33.95609 30.17247
#
# Velocity S-wave (km/s) = 3.32925 3.77655 3.55993
# Velocity P-wave (km/s) = 5.05590 5.64793 5.36010
#
# Compressibility (1/GPa) = 0.03894991
#
# Stress axis : x y z
#
# Youngs Moduli (GPa) = 70.94375 52.25976 75.33172
#
# Poissons Ratio (x) = 0.05956 0.10254
# Poissons Ratio (y) = 0.08086 0.09619
# Poissons Ratio (z) = 0.09656 0.06673
#
# Static dielectric constant tensor:
#      x y z
#    x 1.996070 0.028620 0.078840 
#    y 0.028620 2.271510 -0.071690 
#    z 0.078840 -0.071690 2.016090 
# 
# From -- ./inp_files/613494.got.cif
#   From: 2010.05.17/outbox.cif.g08.bks.cpg/sg2_307_cif.got.tgz:613494.got - 2010.06.03 11:33:40.
