data_PCOD9003661
_publ_section_title
;
Structure prediction by ZEFSAII (Michael W. Deem and Ramdas Pophale) SiO2 
 PCOD9003661
Probable space group: P -1
;
_chemical_formula_sum "Si O2"
_cell_formula_units_Z 14
_cell_length_a 12.175821
_cell_length_b 9.348935
_cell_length_c 27.431893
_cell_angle_alpha 28.167872
_cell_angle_beta 29.227626
_cell_angle_gamma 35.932881
_cell_volume 708.620082
_symmetry_space_group_name_H-M "P -1"
_symmetry_group_IT_number 2
_symmetry_cell_setting 'triclinic'
loop_
_space_group_symop_operation_xyz
x,y,z
-x,-y,-z
loop_
_atom_site_type_symbol
_atom_site_label
_atom_site_fract_x
_atom_site_fract_y
_atom_site_fract_z
Si Si1 0.650689 0.261622 0.870483
Si Si2 0.069820 0.743917 0.329997
Si Si3 0.083749 0.213753 0.017457
Si Si4 0.545103 0.752759 0.841821
Si Si5 0.103174 0.705584 0.091787
Si Si6 0.779059 0.410922 0.233562
Si Si7 0.705915 0.355069 0.621918
O O1 0.750037 0.351393 0.754193
O O2 0.522971 0.555555 0.861119
O O3 0.500000 0.000000 0.000000
O O4 0.836564 0.066693 0.892305
O O5 0.192251 0.764270 0.328717
O O6 0.897747 0.505436 0.475779
O O7 0.926834 0.073952 0.270533
O O8 0.241657 0.377265 0.870634
O O9 0.000000 0.500000 0.000000
O O10 0.981163 0.008562 0.077505
O O11 0.757393 0.551436 0.849411
O O12 0.619896 0.081120 0.708490
O O13 0.316426 0.779546 0.954663
O O14 0.923609 0.564937 0.171291
O O15 0.524267 0.400805 0.352766
#
# Coordination Sequence:
#
# PCOD9003661 Si02
#       7
#     2   2   2   2   2   2   2
#     4  11  23  38  62  92 124 157 198 261 314 356
#     4  11  24  43  61  90 126 161 210 256 298 361
#     4  11  22  34  57  92 122 151 193 252 316 353
#     4  10  21  38  61  91 123 163 205 245 312 365
#     4  10  21  37  61  91 125 156 202 256 298 373
#     4  12  21  40  65  90 120 163 206 251 306 364
#     4  11  24  41  65  87 120 172 211 242 302 375
#
# _framework density 19.756708
#
# number of rings (size 3 to 8) (size 9 to 14) (size 15 to 20)
#    0.000    1.143    4.286    2.571    2.000    0.571 
#    0.000    0.000    0.000    3.429    0.000    0.000 
#    0.000    0.000    0.000    0.000    0.000    0.000 
#
# Total GULP energy -77992.211609 kJ/mol
# GULP energy per Si atom -5570.872258 kJ/mol
# Density = 1.971174 g / cm^3
# Si number density = 19.756708 Si / 1000 Ang^3
#
#
#
# Elastic Constant Matrix: (Units=GPa)
#
#
# Indices 1 2 3 4 5 6 
#
# 1 53.6713 20.0288 33.7748 9.9481 2.4304 16.0928
# 2 20.0288 108.2034 20.8277 -1.5526 -5.5490 30.9914
# 3 33.7748 20.8277 95.1303 10.8295 -3.0124 26.5817
# 4 9.9481 -1.5526 10.8295 28.8824 1.5908 -1.6479
# 5 2.4304 -5.5490 -3.0124 1.5908 30.7078 -4.3752
# 6 16.0928 30.9914 26.5817 -1.6479 -4.3752 42.5538
#
#
#
# Elastic Compliance Matrix: (Units=1/GPa)
#
#
# Indices 1 2 3 4 5 6 
#
# 1 0.026790 -0.002605 -0.007032 -0.006789 -0.003566 -0.004471
# 2 -0.002605 0.011961 0.000438 0.000860 0.001249 -0.007838
# 3 -0.007032 0.000438 0.015434 -0.003831 0.001306 -0.007315
# 4 -0.006789 0.000860 -0.003831 0.038820 -0.000875 0.005747
# 5 -0.003566 0.001249 0.001306 -0.000875 0.033681 0.003052
# 6 -0.004471 -0.007838 -0.007315 0.005747 0.003052 0.036004
#
#
# Mechanical properties :
#
#
# Convention : Reuss Voigt Hill
#
# Bulk Modulus (GPa) = 27.94330 45.14085 36.54207
# Shear Modulus (GPa) = 25.90447 32.58705 29.24576
#
# Velocity S-wave (km/s) = 3.62494 4.06571 3.85163
# Velocity P-wave (km/s) = 5.62980 6.70358 6.19002
#
# Compressibility (1/GPa) = 0.03578676
#
# Stress axis : x y z
#
# Youngs Moduli (GPa) = 37.32799 83.60486 64.79262
#
# Poissons Ratio (x) = 0.21779 0.45560
# Poissons Ratio (y) = 0.09724 -0.02837
# Poissons Ratio (z) = 0.26248 -0.03660
#
# Static dielectric constant tensor:
#      x y z
#    x 1.566150 0.100900 0.010290 
#    y 0.100900 1.675130 -0.016900 
#    z 0.010290 -0.016900 1.651730 
# 
# From -- ./inp_files/203091.got.cif
#   From: 2010.05.17/outbox.cif.g08.bks.cpg/sg2_102_cif.got.tgz:203091.got - 2010.06.03 11:33:40.
