data_PCOD9003031
_publ_section_title
;
Structure prediction by ZEFSAII (Michael W. Deem and Ramdas Pophale) SiO2 
 PCOD9003031
Probable space group: P -1
;
_chemical_formula_sum "Si O2"
_cell_formula_units_Z 14
_cell_length_a 11.726699
_cell_length_b 21.310116
_cell_length_c 7.764666
_cell_angle_alpha 129.973939
_cell_angle_beta 129.685590
_cell_angle_gamma 23.404494
_cell_volume 582.956168
_symmetry_space_group_name_H-M "P -1"
_symmetry_group_IT_number 2
_symmetry_cell_setting 'triclinic'
loop_
_space_group_symop_operation_xyz
x,y,z
-x,-y,-z
loop_
_atom_site_type_symbol
_atom_site_label
_atom_site_fract_x
_atom_site_fract_y
_atom_site_fract_z
Si Si1 0.562931 0.848790 0.165746
Si Si2 0.012302 0.204385 0.148273
Si Si3 0.630874 0.084321 0.559688
Si Si4 0.738443 0.176660 0.258851
Si Si5 0.374110 0.746033 0.329785
Si Si6 0.914623 0.788190 0.149159
Si Si7 0.560100 0.540656 0.407301
O O1 0.614981 0.819337 0.367591
O O2 0.799491 0.768745 0.119153
O O3 0.440689 0.818428 0.943744
O O4 0.295306 0.038263 0.221459
O O5 0.810510 0.356447 0.339581
O O6 0.824169 0.215119 0.917937
O O7 0.105362 0.206731 0.066896
O O8 0.537833 0.210331 0.591558
O O9 0.733788 0.955814 0.326549
O O10 0.935002 0.965489 0.742580
O O11 0.793449 0.151858 0.475055
O O12 0.522443 0.356478 0.340493
O O13 0.610694 0.572643 0.339771
O O14 0.254247 0.641223 0.254935
#
# Coordination Sequence:
#
# PCOD9003031 Si02
#       7
#     2   2   2   2   2   2   2
#     4  12  23  32  58  91 116 135 185 241 283 308
#     4  11  19  37  62  85 105 149 190 232 268 333
#     4  11  19  35  56  85 113 148 183 228 275 337
#     4   9  19  35  57  85 104 149 191 228 259 335
#     4   9  17  32  61  78 106 138 202 216 264 316
#     4  10  21  37  57  83 113 148 185 231 273 332
#     4   8  20  37  66  75 106 151 198 215 273 334
#
# _framework density 24.015526000000001
#
# number of rings (size 3 to 8) (size 9 to 14) (size 15 to 20)
#    0.857    1.143    2.857    4.286    0.000    0.000 
#    0.000    3.571    6.286    3.429    0.000    0.000 
#    0.000    0.000    0.000    0.000    0.000    0.000 
#
# Total GULP energy -78182.399230 kJ/mol
# GULP energy per Si atom -5584.457088 kJ/mol
# Density = 2.396087 g / cm^3
# Si number density = 24.015526 Si / 1000 Ang^3
#
#
#
# Elastic Constant Matrix: (Units=GPa)
#
#
# Indices 1 2 3 4 5 6 
#
# 1 145.4901 6.7608 48.8403 5.6604 -22.0958 -7.0225
# 2 6.7608 38.5710 36.0197 9.2457 -15.3744 -22.7483
# 3 48.8403 36.0197 29.3317 23.0479 53.1525 21.0893
# 4 5.6604 9.2457 23.0479 13.6469 -12.9541 -8.6771
# 5 -22.0958 -15.3744 53.1525 -12.9541 -20.2572 -43.7490
# 6 -7.0225 -22.7483 21.0893 -8.6771 -43.7490 -10.9591
#
#
#
# Elastic Compliance Matrix: (Units=1/GPa)
#
#
# Indices 1 2 3 4 5 6 
#
# 1 0.008024 -0.002442 -0.004357 0.000228 -0.000024 -0.008544
# 2 -0.002442 0.031134 0.002818 -0.029967 -0.010343 0.007378
# 3 -0.004357 0.002818 0.019948 -0.012325 0.004532 0.026997
# 4 0.000228 -0.029967 -0.012325 0.093233 -0.000939 -0.031730
# 5 -0.000024 -0.010343 0.004532 -0.000939 0.012575 -0.019249
# 6 -0.008544 0.007378 0.026997 -0.031730 -0.019249 0.052830
#
#
# Mechanical properties :
#
#
# Convention : Reuss Voigt Hill
#
# Bulk Modulus (GPa) = 19.55177 44.07048 31.81113
# Shear Modulus (GPa) = 20.59693 4.60426 12.60060
#
# Velocity S-wave (km/s) = 2.93174 1.38613 2.29309
# Velocity P-wave (km/s) = 4.42935 4.57739 4.50398
#
# Compressibility (1/GPa) = 0.05114626
#
# Stress axis : x y z
#
# Youngs Moduli (GPa) = 124.62041 32.11885 50.13015
#
# Poissons Ratio (x) = 0.07842 0.21839
# Poissons Ratio (y) = 0.30427 -0.14126
# Poissons Ratio (z) = 0.54292 -0.09051
#
# Static dielectric constant tensor:
#      x y z
#    x 1.966030 0.026290 0.019020 
#    y 0.026290 1.922840 -0.004200 
#    z 0.019020 -0.004200 1.974460 
# 
# From -- ./inp_files/282336.got.cif
#   From: 2010.05.17/outbox.cif.g08.bks.cpg/sg2_142_cif.got.tgz:282336.got - 2010.06.03 11:33:40.
