data_PCOD9003726
_publ_section_title
;
Structure prediction by ZEFSAII (Michael W. Deem and Ramdas Pophale) SiO2 
 PCOD9003726
Probable space group: P -1
;
_chemical_formula_sum "Si O2"
_cell_formula_units_Z 16
_cell_length_a 7.571637
_cell_length_b 14.844976
_cell_length_c 11.304057
_cell_angle_alpha 54.309840
_cell_angle_beta 66.939339
_cell_angle_gamma 38.616367
_cell_volume 638.866365
_symmetry_space_group_name_H-M "P -1"
_symmetry_group_IT_number 2
_symmetry_cell_setting 'triclinic'
loop_
_space_group_symop_operation_xyz
x,y,z
-x,-y,-z
loop_
_atom_site_type_symbol
_atom_site_label
_atom_site_fract_x
_atom_site_fract_y
_atom_site_fract_z
Si Si1 0.221865 0.510932 0.293428
Si Si2 0.234830 0.009172 0.684821
Si Si3 0.037426 0.065278 0.328628
Si Si4 0.009879 0.481207 0.872017
Si Si5 0.421413 0.843131 0.090791
Si Si6 0.581507 0.729818 0.381007
Si Si7 0.902764 0.765263 0.666383
Si Si8 0.043272 0.826474 0.115314
O O1 0.420743 0.363771 0.447953
O O2 0.237996 0.452176 0.203351
O O3 0.902819 0.624188 0.344306
O O4 0.225450 0.640270 0.187991
O O5 0.127722 0.931981 0.731883
O O6 0.578996 0.865902 0.706252
O O7 0.131431 0.139800 0.510314
O O8 0.100069 0.108643 0.766701
O O9 0.964190 0.219685 0.272755
O O10 0.000000 0.000000 0.500000
O O11 0.380746 0.915753 0.333264
O O12 0.255526 0.285409 0.934396
O O13 0.072444 0.580285 0.735608
O O14 0.000000 0.500000 0.000000
O O15 0.439159 0.763946 0.266770
O O16 0.260475 0.835997 0.043850
O O17 0.226890 0.034682 0.005317
#
# Coordination Sequence:
#
# PCOD9003726 Si02
#       8
#     2   2   2   2   2   2   2   2
#     4  10  25  38  70  93 127 172 216 271 330 387
#     4  10  21  38  66  96 128 173 219 277 317 397
#     4  10  21  37  61  97 130 173 213 271 331 384
#     4  11  25  46  62  94 131 174 215 270 332 401
#     4  10  24  42  65  91 136 167 215 270 330 393
#     4  10  21  42  61  99 130 162 221 272 316 394
#     4  10  23  38  64  94 132 173 223 264 330 388
#     4  11  22  42  64  98 125 172 218 269 333 389
#
# _framework density 25.044362
#
# number of rings (size 3 to 8) (size 9 to 14) (size 15 to 20)
#    0.000    1.750    1.250    1.500   10.500    5.500 
#    0.000    0.625    0.000    0.000    0.000    0.000 
#    0.000    0.000    0.000    0.000    0.000    0.000 
#
# Total GULP energy -89367.114197 kJ/mol
# GULP energy per Si atom -5585.444637 kJ/mol
# Density = 2.498736 g / cm^3
# Si number density = 25.044362 Si / 1000 Ang^3
#
#
#
# Elastic Constant Matrix: (Units=GPa)
#
#
# Indices 1 2 3 4 5 6 
#
# 1 71.2132 7.7109 10.9403 0.9165 5.3822 19.7086
# 2 7.7109 69.4082 10.8602 3.0860 7.0585 15.9825
# 3 10.9403 10.8602 105.6794 8.7396 29.4161 19.9864
# 4 0.9165 3.0860 8.7396 37.7741 6.1320 -3.9567
# 5 5.3822 7.0585 29.4161 6.1320 28.1283 -2.3687
# 6 19.7086 15.9825 19.9864 -3.9567 -2.3687 48.0902
#
#
#
# Elastic Compliance Matrix: (Units=1/GPa)
#
#
# Indices 1 2 3 4 5 6 
#
# 1 0.016299 0.000270 0.001109 -0.000678 -0.004832 -0.007524
# 2 0.000270 0.016301 0.001189 -0.001372 -0.005627 -0.006413
# 3 0.001109 0.001189 0.015797 -0.001847 -0.017337 -0.008421
# 4 -0.000678 -0.001372 -0.001847 0.027959 -0.003384 0.003635
# 5 -0.004832 -0.005627 -0.017337 -0.003384 0.057904 0.013630
# 6 -0.007524 -0.006413 -0.008421 0.003635 0.013630 0.030479
#
#
# Mechanical properties :
#
#
# Convention : Reuss Voigt Hill
#
# Bulk Modulus (GPa) = 18.67992 33.92483 26.30238
# Shear Modulus (GPa) = 28.17735 37.25115 32.71425
#
# Velocity S-wave (km/s) = 3.35789 3.86087 3.61813
# Velocity P-wave (km/s) = 4.74434 5.78364 5.28958
#
# Compressibility (1/GPa) = 0.05353341
#
# Stress axis : x y z
#
# Youngs Moduli (GPa) = 61.35344 61.34483 63.30458
#
# Poissons Ratio (x) = -0.01655 -0.07020
# Poissons Ratio (y) = -0.01656 -0.07529
# Poissons Ratio (z) = -0.06804 -0.07296
#
# Static dielectric constant tensor:
#      x y z
#    x 1.995390 -0.036090 0.015200 
#    y -0.036090 2.025530 0.010450 
#    z 0.015200 0.010450 2.019410 
# 
# From -- ./inp_files/398790.got.cif
#   From: 2010.05.17/outbox.cif.g08.bks.cpg/sg2_200_cif.got.tgz:398790.got - 2010.06.03 11:33:40.
