data_PCOD9003433
_publ_section_title
;
Structure prediction by ZEFSAII (Michael W. Deem and Ramdas Pophale) SiO2 
 PCOD9003433
Probable space group: P -1
;
_chemical_formula_sum "Si O2"
_cell_formula_units_Z 14
_cell_length_a 7.750109
_cell_length_b 8.718904
_cell_length_c 17.181898
_cell_angle_alpha 111.471927
_cell_angle_beta 151.810495
_cell_angle_gamma 68.664283
_cell_volume 508.143671
_symmetry_space_group_name_H-M "P -1"
_symmetry_group_IT_number 2
_symmetry_cell_setting 'triclinic'
loop_
_space_group_symop_operation_xyz
x,y,z
-x,-y,-z
loop_
_atom_site_type_symbol
_atom_site_label
_atom_site_fract_x
_atom_site_fract_y
_atom_site_fract_z
Si Si1 0.080034 0.701886 0.245877
Si Si2 0.130568 0.188268 0.224778
Si Si3 0.974042 0.224803 0.526243
Si Si4 0.956938 0.409946 0.056988
Si Si5 0.964308 0.996532 0.348017
Si Si6 0.878814 0.483257 0.273305
Si Si7 0.747191 0.857942 0.000573
O O1 0.997811 0.590425 0.266650
O O2 0.217080 0.865740 0.371383
O O3 0.217484 0.552494 0.213243
O O4 0.749331 0.788422 0.076575
O O5 0.549894 0.194473 0.366316
O O6 0.053871 0.297929 0.292623
O O7 0.905180 0.293939 0.088792
O O8 0.011353 0.005147 0.140796
O O9 0.108641 0.145562 0.483259
O O10 0.997688 0.417858 0.584826
O O11 0.171169 0.119805 0.656707
O O12 0.556657 0.494328 0.893951
O O13 0.093474 0.285770 0.020759
O O14 0.627641 0.072363 0.176458
#
# Coordination Sequence:
#
# PCOD9003433 Si02
#       7
#     2   2   2   2   2   2   2
#     4  10  22  40  60  89 124 157 190 251 303 349
#     4  11  21  37  65  93 114 155 207 249 285 350
#     4  10  21  37  62  88 122 155 201 246 290 350
#     4  11  22  39  64  91 119 154 205 246 292 351
#     4  10  21  37  60  87 119 155 200 240 295 343
#     4  10  22  41  64  89 118 157 202 244 295 353
#     4  12  23  37  64  93 122 151 200 249 302 346
#
# _framework density 27.551262999999999
#
# number of rings (size 3 to 8) (size 9 to 14) (size 15 to 20)
#    0.000    1.429    1.429    6.000    6.000    0.000 
#    0.000    2.857    0.000    5.143    0.000    0.000 
#    0.000    0.000    0.000    0.000    0.000    0.000 
#
# Total GULP energy -78264.305996 kJ/mol
# GULP energy per Si atom -5590.307571 kJ/mol
# Density = 2.748856 g / cm^3
# Si number density = 27.551263 Si / 1000 Ang^3
#
#
#
# Elastic Constant Matrix: (Units=GPa)
#
#
# Indices 1 2 3 4 5 6 
#
# 1 90.8494 74.9697 35.3566 30.7696 -16.2823 -31.2913
# 2 74.9697 167.4558 76.0102 54.6514 -16.3559 -55.9580
# 3 35.3566 76.0102 104.1210 13.2330 -14.2546 -6.5232
# 4 30.7696 54.6514 13.2330 69.5805 -16.1350 -20.1626
# 5 -16.2823 -16.3559 -14.2546 -16.1350 44.3170 11.7604
# 6 -31.2913 -55.9580 -6.5232 -20.1626 11.7604 63.2990
#
#
#
# Elastic Compliance Matrix: (Units=1/GPa)
#
#
# Indices 1 2 3 4 5 6 
#
# 1 0.018402 -0.006048 -0.001055 -0.001786 0.002865 0.002541
# 2 -0.006048 0.020241 -0.011528 -0.008710 -0.004769 0.011828
# 3 -0.001055 -0.011528 0.017936 0.004902 0.005101 -0.008250
# 4 -0.001786 -0.008710 0.004902 0.021865 0.006271 -0.002278
# 5 0.002865 -0.004769 0.005101 0.006271 0.027195 -0.005329
# 6 0.002541 0.011828 -0.008250 -0.002278 -0.005329 0.026924
#
#
# Mechanical properties :
#
#
# Convention : Reuss Voigt Hill
#
# Bulk Modulus (GPa) = 51.76536 81.67768 66.72152
# Shear Modulus (GPa) = 28.36639 47.17860 37.77250
#
# Velocity S-wave (km/s) = 3.21220 4.14260 3.70670
# Velocity P-wave (km/s) = 5.70852 7.25200 6.52605
#
# Compressibility (1/GPa) = 0.01931794
#
# Stress axis : x y z
#
# Youngs Moduli (GPa) = 54.34151 49.40460 55.75224
#
# Poissons Ratio (x) = 0.29879 0.05885
# Poissons Ratio (y) = 0.32864 0.64269
# Poissons Ratio (z) = 0.05736 0.56952
#
# Static dielectric constant tensor:
#      x y z
#    x 2.125610 -0.004530 -0.018180 
#    y -0.004530 2.205120 0.036750 
#    z -0.018180 0.036750 2.185740 
# 
# From -- ./inp_files/295069.got.cif
#   From: 2010.05.17/outbox.cif.g08.bks.cpg/sg2_148_cif.got.tgz:295069.got - 2010.06.03 11:33:40.
