data_PCOD9003963
_publ_section_title
;
Structure prediction by ZEFSAII (Michael W. Deem and Ramdas Pophale) SiO2 
 PCOD9003963
Probable space group: P -1
;
_chemical_formula_sum "Si O2"
_cell_formula_units_Z 16
_cell_length_a 6.016840
_cell_length_b 9.735786
_cell_length_c 16.964539
_cell_angle_alpha 130.182486
_cell_angle_beta 96.870568
_cell_angle_gamma 67.772938
_cell_volume 691.842982
_symmetry_space_group_name_H-M "P -1"
_symmetry_group_IT_number 2
_symmetry_cell_setting 'triclinic'
loop_
_space_group_symop_operation_xyz
x,y,z
-x,-y,-z
loop_
_atom_site_type_symbol
_atom_site_label
_atom_site_fract_x
_atom_site_fract_y
_atom_site_fract_z
Si Si1 0.915698 0.012744 0.696279
Si Si2 0.255987 0.233450 0.522458
Si Si3 0.110675 0.694719 0.857924
Si Si4 0.374651 0.554951 0.187428
Si Si5 0.285434 0.861112 0.782793
Si Si6 0.215393 0.463530 0.312682
Si Si7 0.236359 0.971004 0.552903
Si Si8 0.695686 0.838005 0.004906
O O1 0.755272 0.240225 0.785629
O O2 0.045730 0.898625 0.736606
O O3 0.142411 0.004992 0.649045
O O4 0.780258 0.904711 0.598432
O O5 0.522672 0.231612 0.515648
O O6 0.992168 0.409246 0.587273
O O7 0.302125 0.137837 0.576767
O O8 0.337859 0.498781 0.817656
O O9 0.236495 0.797655 0.844299
O O10 0.909830 0.661455 0.784374
O O11 0.964755 0.796515 0.966684
O O12 0.272239 0.576383 0.281620
O O13 0.337405 0.367545 0.078562
O O14 0.527747 0.685039 0.697149
O O15 0.327953 0.059367 0.873280
O O16 0.000000 0.000000 0.500000
O O17 0.500000 0.000000 0.000000
#
# Coordination Sequence:
#
# PCOD9003963 Si02
#       8
#     2   2   2   2   2   2   2   2
#     4  11  24  40  58  93 132 161 193 259 313 359
#     4  10  21  37  63  90 121 165 212 241 305 359
#     4  10  21  37  65  88 117 155 213 254 294 371
#     4  10  22  37  63  93 118 158 209 254 301 363
#     4  11  24  40  61  91 128 159 201 255 319 357
#     4  10  21  38  63  92 115 163 215 250 290 368
#     4   9  20  36  60  86 119 162 203 247 291 359
#     4  11  20  41  66  92 113 161 212 252 301 367
#
# _framework density 23.126638
#
# number of rings (size 3 to 8) (size 9 to 14) (size 15 to 20)
#    0.000    1.750    5.000    0.375    5.250    3.000 
#    0.000    1.875    0.000    0.000    0.000    0.000 
#    0.000    0.000    0.000    0.000    0.000    0.000 
#
# Total GULP energy -89218.783789 kJ/mol
# GULP energy per Si atom -5576.173987 kJ/mol
# Density = 2.307400 g / cm^3
# Si number density = 23.126638 Si / 1000 Ang^3
#
#
#
# Elastic Constant Matrix: (Units=GPa)
#
#
# Indices 1 2 3 4 5 6 
#
# 1 65.3754 29.7441 17.8331 17.3496 -20.6007 -34.9755
# 2 29.7441 80.6911 31.5840 18.7290 -9.8968 -35.1333
# 3 17.8331 31.5840 81.8777 30.5435 2.8866 -18.0116
# 4 17.3496 18.7290 30.5435 33.4244 -11.5181 -7.6413
# 5 -20.6007 -9.8968 2.8866 -11.5181 38.4115 8.8401
# 6 -34.9755 -35.1333 -18.0116 -7.6413 8.8401 30.1945
#
#
#
# Elastic Compliance Matrix: (Units=1/GPa)
#
#
# Indices 1 2 3 4 5 6 
#
# 1 0.065181 0.022724 0.009223 -0.029704 0.008809 0.097349
# 2 0.022724 0.035402 0.002605 -0.019156 0.000632 0.064036
# 3 0.009223 0.002605 0.025055 -0.026939 -0.010047 0.024784
# 4 -0.029704 -0.019156 -0.026939 0.072888 0.016637 -0.059190
# 5 0.008809 0.000632 -0.010047 0.016637 0.037054 -0.001693
# 6 0.097349 0.064036 0.024784 -0.059190 -0.001693 0.220692
#
#
# Mechanical properties :
#
#
# Convention : Reuss Voigt Hill
#
# Bulk Modulus (GPa) = 5.13501 42.91850 24.02675
# Shear Modulus (GPa) = 11.05989 30.32496 20.69242
#
# Velocity S-wave (km/s) = 2.18922 3.62506 2.99447
# Velocity P-wave (km/s) = 2.93521 6.00997 4.72944
#
# Compressibility (1/GPa) = 0.19474163
#
# Stress axis : x y z
#
# Youngs Moduli (GPa) = 15.34182 28.24677 39.91189
#
# Poissons Ratio (x) = -0.64188 -0.36809
# Poissons Ratio (y) = -0.34863 -0.10396
# Poissons Ratio (z) = -0.14149 -0.07357
#
# Static dielectric constant tensor:
#      x y z
#    x 1.951130 0.028540 0.000850 
#    y 0.028540 1.893350 0.072290 
#    z 0.000850 0.072290 1.924440 
# 
# From -- ./inp_files/582875.got.cif
#   From: 2010.05.17/outbox.cif.g08.bks.cpg/sg2_292_cif.got.tgz:582875.got - 2010.06.03 11:33:40.
