data_PCOD9003664
_publ_section_title
;
Structure prediction by ZEFSAII (Michael W. Deem and Ramdas Pophale) SiO2 
 PCOD9003664
Probable space group: P -1
;
_chemical_formula_sum "Si O2"
_cell_formula_units_Z 16
_cell_length_a 8.609174
_cell_length_b 15.048387
_cell_length_c 11.466589
_cell_angle_alpha 116.366813
_cell_angle_beta 112.165783
_cell_angle_gamma 123.977561
_cell_volume 595.689449
_symmetry_space_group_name_H-M "P -1"
_symmetry_group_IT_number 2
_symmetry_cell_setting 'triclinic'
loop_
_space_group_symop_operation_xyz
x,y,z
-x,-y,-z
loop_
_atom_site_type_symbol
_atom_site_label
_atom_site_fract_x
_atom_site_fract_y
_atom_site_fract_z
Si Si1 0.745889 0.772173 0.974121
Si Si2 0.548834 0.776425 0.571233
Si Si3 0.785207 0.242109 0.388379
Si Si4 0.870560 0.339265 0.800565
Si Si5 0.126408 0.780462 0.037663
Si Si6 0.121136 0.212529 0.473228
Si Si7 0.647653 0.247245 0.102040
Si Si8 0.406812 0.338137 0.878783
O O1 0.410994 0.670518 0.816239
O O2 0.808095 0.693807 0.896668
O O3 0.801332 0.794002 0.142344
O O4 0.069690 0.998668 0.143791
O O5 0.273055 0.676124 0.528132
O O6 0.454651 0.798087 0.446978
O O7 0.610608 0.699061 0.490050
O O8 0.732865 0.225939 0.226454
O O9 0.085532 0.313748 0.532253
O O10 0.458224 0.014654 0.223250
O O11 0.825017 0.230644 0.820953
O O12 0.000000 0.500000 0.000000
O O13 0.203515 0.500685 0.906041
O O14 0.120867 0.679700 0.895117
O O15 0.223786 0.223689 0.636865
O O16 0.741257 0.978618 0.189331
O O17 0.500000 0.500000 0.000000
#
# Coordination Sequence:
#
# PCOD9003664 Si02
#       8
#     2   2   2   2   2   2   2   2
#     4  10  23  38  63  97 125 164 211 260 313 375
#     4  10  23  38  63  97 125 164 211 260 313 375
#     4  10  22  40  65  95 125 162 215 269 310 361
#     4  12  23  39  61  93 134 167 200 254 324 387
#     4  10  21  37  61  91 125 163 207 254 315 370
#     4  10  21  37  61  91 125 163 207 254 315 370
#     4  10  22  40  65  95 125 162 215 269 310 361
#     4  12  23  39  61  93 134 167 200 254 324 387
#
# _framework density 26.859632999999999
#
# number of rings (size 3 to 8) (size 9 to 14) (size 15 to 20)
#    0.000    1.500    2.500    3.000    3.500    7.500 
#    0.000    0.000    0.000   11.250    0.000    0.000 
#    0.000    0.000    0.000    0.000    0.000    0.000 
#
# Total GULP energy -89340.202337 kJ/mol
# GULP energy per Si atom -5583.762646 kJ/mol
# Density = 2.679850 g / cm^3
# Si number density = 26.859633 Si / 1000 Ang^3
#
#
#
# Elastic Constant Matrix: (Units=GPa)
#
#
# Indices 1 2 3 4 5 6 
#
# 1 686.1487 495.1728 -12.4702 164.9294 178.0684 137.6697
# 2 495.1728 593.4017 -26.6430 135.6097 189.7356 154.7143
# 3 -12.4702 -26.6430 64.1717 -38.9256 -14.1871 2.9238
# 4 164.9294 135.6097 -38.9256 91.0957 69.7639 50.1880
# 5 178.0684 189.7356 -14.1871 69.7639 116.8335 75.9365
# 6 137.6697 154.7143 2.9238 50.1880 75.9365 88.7505
#
#
#
# Elastic Compliance Matrix: (Units=1/GPa)
#
#
# Indices 1 2 3 4 5 6 
#
# 1 0.005373 -0.003578 -0.005651 -0.008494 0.000287 0.002647
# 2 -0.003578 0.006331 0.003890 0.004247 -0.003789 -0.004775
# 3 -0.005651 0.003890 0.032397 0.026189 -0.000854 -0.013161
# 4 -0.008494 0.004247 0.026189 0.045722 -0.010045 -0.012352
# 5 0.000287 -0.003789 -0.000854 -0.010045 0.028060 -0.012140
# 6 0.002647 -0.004775 -0.013161 -0.012352 -0.012140 0.033292
#
#
# Mechanical properties :
#
#
# Convention : Reuss Voigt Hill
#
# Bulk Modulus (GPa) = 29.91998 250.64902 140.28450
# Shear Modulus (GPa) = 28.90261 118.51344 73.70802
#
# Velocity S-wave (km/s) = 3.28390 6.64974 5.24419
# Velocity P-wave (km/s) = 5.05393 12.34826 9.43455
#
# Compressibility (1/GPa) = 0.03342248
#
# Stress axis : x y z
#
# Youngs Moduli (GPa) = 186.11148 157.94142 30.86721
#
# Poissons Ratio (x) = 0.56513 0.17443
# Poissons Ratio (y) = 0.66592 -0.12006
# Poissons Ratio (z) = 1.05173 -0.61434
#
# Static dielectric constant tensor:
#      x y z
#    x 2.132110 -0.070430 -0.085320 
#    y -0.070430 2.129390 0.021670 
#    z -0.085320 0.021670 2.126000 
# 
# From -- ./inp_files/307682.got.cif
#   From: 2010.05.17/outbox.cif.g08.bks.cpg/sg2_154_cif.got.tgz:307682.got - 2010.06.03 11:33:40.
