data_PCOD9003047
_publ_section_title
;
Structure prediction by ZEFSAII (Michael W. Deem and Ramdas Pophale) SiO2 
 PCOD9003047
Probable space group: P -1
;
_chemical_formula_sum "Si O2"
_cell_formula_units_Z 16
_cell_length_a 23.204925
_cell_length_b 5.089128
_cell_length_c 7.123632
_cell_angle_alpha 81.355173
_cell_angle_beta 54.993501
_cell_angle_gamma 82.858117
_cell_volume 680.474116
_symmetry_space_group_name_H-M "P -1"
_symmetry_group_IT_number 2
_symmetry_cell_setting 'triclinic'
loop_
_space_group_symop_operation_xyz
x,y,z
-x,-y,-z
loop_
_atom_site_type_symbol
_atom_site_label
_atom_site_fract_x
_atom_site_fract_y
_atom_site_fract_z
Si Si1 0.178383 0.774560 0.470016
Si Si2 0.931673 0.201206 0.631840
Si Si3 0.548991 0.229829 0.200488
Si Si4 0.413784 0.323284 0.642689
Si Si5 0.305811 0.122986 0.602579
Si Si6 0.333694 0.673801 0.315668
Si Si7 0.151344 0.206797 0.778526
Si Si8 0.970987 0.530263 0.842247
O O1 0.142110 0.837307 0.330257
O O2 0.263633 0.783965 0.320752
O O3 0.162156 0.489778 0.624338
O O4 0.143542 0.993972 0.652167
O O5 0.929226 0.308440 0.835776
O O6 0.961558 0.435216 0.417241
O O7 0.000000 0.000000 0.500000
O O8 0.467579 0.327944 0.364948
O O9 0.585878 0.401952 0.276354
O O10 0.553563 0.914372 0.262705
O O11 0.593679 0.283532 0.928642
O O12 0.341291 0.214122 0.717402
O O13 0.323962 0.362741 0.401454
O O14 0.222199 0.126426 0.765435
O O15 0.331919 0.843029 0.493765
O O16 0.088228 0.236537 0.041014
O O17 0.000000 0.500000 0.000000
#
# Coordination Sequence:
#
# PCOD9003047 Si02
#       8
#     2   2   2   2   2   2   2   2
#     4  10  22  41  61  85 122 154 196 247 298 363
#     4  11  25  39  61  93 118 156 208 246 299 369
#     4  10  21  37  57  84 118 160 192 239 302 339
#     4  10  21  37  57  84 120 154 198 242 286 358
#     4  10  21  38  59  88 116 150 200 242 288 354
#     4  10  21  38  60  86 116 155 192 243 298 341
#     4  10  22  40  63  85 117 162 192 243 310 350
#     4  11  23  41  63  87 121 160 199 249 305 356
#
# _framework density 23.513020000000001
#
# number of rings (size 3 to 8) (size 9 to 14) (size 15 to 20)
#    0.000    1.750    1.250    2.250    3.500    3.000 
#    2.250    0.000    0.000    0.000    0.000    0.000 
#    0.000    0.000    0.000    0.000    0.000    0.000 
#
# Total GULP energy -89334.486570 kJ/mol
# GULP energy per Si atom -5583.405411 kJ/mol
# Density = 2.345950 g / cm^3
# Si number density = 23.513020 Si / 1000 Ang^3
#
#
#
# Elastic Constant Matrix: (Units=GPa)
#
#
# Indices 1 2 3 4 5 6 
#
# 1 72.4636 -5.9409 4.3085 14.5647 32.7783 12.9359
# 2 -5.9409 97.3870 13.9446 20.2562 10.4250 10.4402
# 3 4.3085 13.9446 63.2859 8.2051 -7.4407 2.6273
# 4 14.5647 20.2562 8.2051 30.5645 11.2115 0.4742
# 5 32.7783 10.4250 -7.4407 11.2115 30.1799 7.6281
# 6 12.9359 10.4402 2.6273 0.4742 7.6281 22.7849
#
#
#
# Elastic Compliance Matrix: (Units=1/GPa)
#
#
# Indices 1 2 3 4 5 6 
#
# 1 0.036558 0.010361 -0.008018 -0.007400 -0.039698 -0.011134
# 2 0.010361 0.015673 -0.003936 -0.009782 -0.011872 -0.008432
# 3 -0.008018 -0.003936 0.020015 -0.005297 0.017391 -0.001664
# 4 -0.007400 -0.009782 -0.005297 0.047881 -0.010678 0.011873
# 5 -0.039698 -0.011872 0.017391 -0.010678 0.089564 -0.003790
# 6 -0.011134 -0.008432 -0.001664 0.011873 -0.003790 0.055287
#
#
# Mechanical properties :
#
#
# Convention : Reuss Voigt Hill
#
# Bulk Modulus (GPa) = 14.48015 28.64010 21.56013
# Shear Modulus (GPa) = 17.17114 31.42747 24.29930
#
# Velocity S-wave (km/s) = 2.70530 3.65992 3.21820
# Velocity P-wave (km/s) = 3.99123 5.48334 4.79567
#
# Compressibility (1/GPa) = 0.06906006
#
# Stress axis : x y z
#
# Youngs Moduli (GPa) = 27.35353 63.80242 49.96246
#
# Poissons Ratio (x) = -0.66103 0.40058
# Poissons Ratio (y) = -0.28340 0.19667
# Poissons Ratio (z) = 0.21931 0.25115
#
# Static dielectric constant tensor:
#      x y z
#    x 1.945860 -0.058010 0.024130 
#    y -0.058010 2.053390 -0.117140 
#    z 0.024130 -0.117140 1.893980 
# 
# From -- ./inp_files/10768.got.cif
#   From: 2010.05.17/outbox.cif.g08.bks.cpg/sg2_6_cif.got.tgz:10768.got - 2010.06.03 11:33:40.
