data_PCOD9003356
_publ_section_title
;
Structure prediction by ZEFSAII (Michael W. Deem and Ramdas Pophale) SiO2 
 PCOD9003356
Probable space group: P -1
;
_chemical_formula_sum "Si O2"
_cell_formula_units_Z 12
_cell_length_a 14.416858
_cell_length_b 8.085451
_cell_length_c 13.561135
_cell_angle_alpha 132.283691
_cell_angle_beta 150.548374
_cell_angle_gamma 59.225003
_cell_volume 562.941445
_symmetry_space_group_name_H-M "P -1"
_symmetry_group_IT_number 2
_symmetry_cell_setting 'triclinic'
loop_
_space_group_symop_operation_xyz
x,y,z
-x,-y,-z
loop_
_atom_site_type_symbol
_atom_site_label
_atom_site_fract_x
_atom_site_fract_y
_atom_site_fract_z
Si Si1 0.322329 0.613538 0.959644
Si Si2 0.972831 0.848658 0.511866
Si Si3 0.024912 0.957613 0.826455
Si Si4 0.412556 0.241662 0.289707
Si Si5 0.599274 0.917076 0.464176
Si Si6 0.609921 0.093925 0.040839
O O1 0.205188 0.358502 0.745534
O O2 0.150694 0.759745 0.873285
O O3 0.475301 0.675975 0.214423
O O4 0.431746 0.722907 0.005289
O O5 0.962821 0.965361 0.656472
O O6 0.000000 0.000000 0.500000
O O7 0.177364 0.775379 0.678766
O O8 0.825024 0.921976 0.685121
O O9 0.190437 0.175470 0.094949
O O10 0.500000 0.500000 0.500000
O O11 0.553377 0.095543 0.412111
O O12 0.392414 0.137416 0.118471
O O13 0.500000 0.000000 0.500000
O O14 0.500000 0.000000 0.000000
#
# Coordination Sequence:
#
# PCOD9003356 Si02
#       6
#     2   2   2   2   2   2
#     4   9  21  41  59  86 123 156 202 245 305 367
#     4  10  21  37  59  91 119 152 201 248 309 362
#     4   9  20  40  60  80 123 159 192 256 294 358
#     4   9  21  40  57  87 124 156 202 247 301 364
#     4  10  22  39  59  85 118 158 208 240 297 364
#     4   9  19  38  60  85 123 155 199 250 299 360
#
# _framework density 21.316604999999999
#
# number of rings (size 3 to 8) (size 9 to 14) (size 15 to 20)
#    0.000    3.333    0.000    2.000    4.667    6.667 
#   12.000    0.000    0.000    0.000    0.000    0.000 
#    0.000    0.000    0.000    0.000    0.000    0.000 
#
# Total GULP energy -66805.218984 kJ/mol
# GULP energy per Si atom -5567.101582 kJ/mol
# Density = 2.126809 g / cm^3
# Si number density = 21.316605 Si / 1000 Ang^3
#
#
#
# Elastic Constant Matrix: (Units=GPa)
#
#
# Indices 1 2 3 4 5 6 
#
# 1 108.6024 14.5380 52.9880 -2.1518 33.9532 -1.3210
# 2 14.5380 42.6028 47.3143 6.9221 9.5954 -1.0593
# 3 52.9880 47.3143 205.5493 18.4636 24.2635 -18.6665
# 4 -2.1518 6.9221 18.4636 42.1336 -10.4524 9.1537
# 5 33.9532 9.5954 24.2635 -10.4524 35.3198 -7.3946
# 6 -1.3210 -1.0593 -18.6665 9.1537 -7.3946 19.2698
#
#
#
# Elastic Compliance Matrix: (Units=1/GPa)
#
#
# Indices 1 2 3 4 5 6 
#
# 1 0.014864 0.001427 -0.003179 0.000043 -0.014026 -0.007385
# 2 0.001427 0.033291 -0.007598 -0.002346 -0.007388 -0.007153
# 3 -0.003179 -0.007598 0.008862 -0.005107 -0.000334 0.010247
# 4 0.000043 -0.002346 -0.005107 0.032505 0.010253 -0.016579
# 5 -0.014026 -0.007388 -0.000334 0.010253 0.049685 0.012505
# 6 -0.007385 -0.007153 0.010247 -0.016579 0.012505 0.073595
#
#
# Mechanical properties :
#
#
# Convention : Reuss Voigt Hill
#
# Bulk Modulus (GPa) = 26.09769 65.15947 45.62858
# Shear Modulus (GPa) = 20.46884 35.47225 27.97054
#
# Velocity S-wave (km/s) = 3.10212 4.08372 3.62629
# Velocity P-wave (km/s) = 5.01002 7.27114 6.24379
#
# Compressibility (1/GPa) = 0.03831757
#
# Stress axis : x y z
#
# Youngs Moduli (GPa) = 67.27622 30.03824 112.84175
#
# Poissons Ratio (x) = -0.04286 0.35872
# Poissons Ratio (y) = -0.09599 0.85732
# Poissons Ratio (z) = 0.21387 0.22822
#
# Static dielectric constant tensor:
#      x y z
#    x 1.905130 0.050060 -0.043810 
#    y 0.050060 1.925460 -0.067260 
#    z -0.043810 -0.067260 1.807080 
# 
# From -- ./inp_files/530188.got.cif
#   From: 2010.05.17/outbox.cif.g08.bks.cpg/sg2_266_cif.got.tgz:530188.got - 2010.06.03 11:33:40.
