data_PCOD9003596
_publ_section_title
;
Structure prediction by ZEFSAII (Michael W. Deem and Ramdas Pophale) SiO2 
 PCOD9003596
Probable space group: P -1
;
_chemical_formula_sum "Si O2"
_cell_formula_units_Z 16
_cell_length_a 8.734770
_cell_length_b 14.959756
_cell_length_c 10.093026
_cell_angle_alpha 116.682779
_cell_angle_beta 144.572549
_cell_angle_gamma 70.206053
_cell_volume 682.141214
_symmetry_space_group_name_H-M "P -1"
_symmetry_group_IT_number 2
_symmetry_cell_setting 'triclinic'
loop_
_space_group_symop_operation_xyz
x,y,z
-x,-y,-z
loop_
_atom_site_type_symbol
_atom_site_label
_atom_site_fract_x
_atom_site_fract_y
_atom_site_fract_z
Si Si1 0.300415 0.535089 0.209167
Si Si2 0.523606 0.894807 0.520430
Si Si3 0.067604 0.920032 0.820716
Si Si4 0.080325 0.226504 0.619262
Si Si5 0.026040 0.922734 0.345021
Si Si6 0.630404 0.235872 0.924065
Si Si7 0.730890 0.405234 0.485104
Si Si8 0.241318 0.558528 0.899683
O O1 0.483090 0.441751 0.254543
O O2 0.374201 0.589725 0.433687
O O3 0.311752 0.595121 0.122847
O O4 0.000000 0.500000 0.000000
O O5 0.412495 0.809775 0.283718
O O6 0.841504 0.898469 0.759522
O O7 0.330950 0.901811 0.513452
O O8 0.500000 0.000000 0.500000
O O9 0.956505 0.858347 0.574680
O O10 0.093887 0.029785 0.842796
O O11 0.309907 0.861339 0.009470
O O12 0.093367 0.180178 0.744365
O O13 0.358223 0.278413 0.811260
O O14 0.842485 0.297769 0.478583
O O15 0.000000 0.000000 0.500000
O O16 0.822336 0.335594 0.143330
O O17 0.978915 0.484080 0.677052
O O18 0.500000 0.500000 0.000000
#
# Coordination Sequence:
#
# PCOD9003596 Si02
#       8
#     2   2   2   2   2   2   2   2
#     4   9  22  41  60  85 122 160 211 256 306 361
#     4   9  20  40  63  85 121 155 200 263 305 367
#     4   9  21  39  60  88 121 155 202 251 313 369
#     4  10  21  37  61  87 120 159 208 252 302 364
#     4   9  19  39  62  87 117 154 197 257 310 361
#     4  11  23  39  60  92 123 163 207 249 309 371
#     4  10  21  40  63  85 121 171 203 256 310 360
#     4  11  23  39  59  90 129 163 209 258 301 366
#
# _framework density 23.455553999999999
#
# number of rings (size 3 to 8) (size 9 to 14) (size 15 to 20)
#    0.000    2.250    1.250    0.750    3.500    5.000 
#    4.500    2.500    0.000    0.000    0.000    0.000 
#    0.000    0.000    0.000    0.000    0.000    0.000 
#
# Total GULP energy -89134.200784 kJ/mol
# GULP energy per Si atom -5570.887549 kJ/mol
# Density = 2.340217 g / cm^3
# Si number density = 23.455554 Si / 1000 Ang^3
#
#
#
# Elastic Constant Matrix: (Units=GPa)
#
#
# Indices 1 2 3 4 5 6 
#
# 1 122.3806 29.0278 17.8865 -1.1567 11.9137 -8.6654
# 2 29.0278 105.6098 18.2425 -5.7166 10.9621 5.5491
# 3 17.8865 18.2425 43.9716 -15.6780 4.9745 -5.1698
# 4 -1.1567 -5.7166 -15.6780 36.7985 -4.1919 5.3156
# 5 11.9137 10.9621 4.9745 -4.1919 27.6165 -14.6481
# 6 -8.6654 5.5491 -5.1698 5.3156 -14.6481 24.0891
#
#
#
# Elastic Compliance Matrix: (Units=1/GPa)
#
#
# Indices 1 2 3 4 5 6 
#
# 1 0.009465 -0.002148 -0.003162 -0.001950 -0.001506 0.002736
# 2 -0.002148 0.012152 -0.004196 0.000482 -0.008114 -0.009513
# 3 -0.003162 -0.004196 0.030286 0.011661 0.001973 0.004955
# 4 -0.001950 0.000482 0.011661 0.032987 0.000874 -0.005058
# 5 -0.001506 -0.008114 0.001973 0.000874 0.060053 0.038075
# 6 0.002736 -0.009513 0.004955 -0.005058 0.038075 0.070020
#
#
# Mechanical properties :
#
#
# Convention : Reuss Voigt Hill
#
# Bulk Modulus (GPa) = 30.40442 44.69729 37.55085
# Shear Modulus (GPa) = 20.41312 31.48783 25.95047
#
# Velocity S-wave (km/s) = 2.95327 3.66792 3.32982
# Velocity P-wave (km/s) = 4.96183 6.08569 5.55227
#
# Compressibility (1/GPa) = 0.03288996
#
# Stress axis : x y z
#
# Youngs Moduli (GPa) = 105.65465 82.28912 33.01822
#
# Poissons Ratio (x) = 0.17678 0.10441
# Poissons Ratio (y) = 0.22698 0.13855
# Poissons Ratio (z) = 0.33409 0.34531
#
# Static dielectric constant tensor:
#      x y z
#    x 1.973980 -0.003010 0.008440 
#    y -0.003010 1.938530 -0.027710 
#    z 0.008440 -0.027710 1.974900 
# 
# From -- ./inp_files/122535.got.cif
#   From: 2010.05.17/outbox.cif.g08.bks.cpg/sg2_62_cif.got.tgz:122535.got - 2010.06.03 11:33:40.
