data_PCOD9003646
_publ_section_title
;
Structure prediction by ZEFSAII (Michael W. Deem and Ramdas Pophale) SiO2 
 PCOD9003646
Probable space group: P -1
;
_chemical_formula_sum "Si O2"
_cell_formula_units_Z 16
_cell_length_a 22.884394
_cell_length_b 11.120699
_cell_length_c 17.390439
_cell_angle_alpha 38.688329
_cell_angle_beta 150.568490
_cell_angle_gamma 157.813470
_cell_volume 813.182480
_symmetry_space_group_name_H-M "P -1"
_symmetry_group_IT_number 2
_symmetry_cell_setting 'triclinic'
loop_
_space_group_symop_operation_xyz
x,y,z
-x,-y,-z
loop_
_atom_site_type_symbol
_atom_site_label
_atom_site_fract_x
_atom_site_fract_y
_atom_site_fract_z
Si Si1 0.558275 0.489533 0.151612
Si Si2 0.832829 0.904945 0.811968
Si Si3 0.638712 0.177125 0.735085
Si Si4 0.626723 0.708261 0.818334
Si Si5 0.043060 0.161740 0.154425
Si Si6 0.196582 0.691719 0.451332
Si Si7 0.023230 0.119283 0.613514
Si Si8 0.289090 0.552164 0.478817
O O1 0.511006 0.553699 0.140474
O O2 0.786109 0.730592 0.283452
O O3 0.420237 0.120823 0.180660
O O4 0.500000 0.500000 0.000000
O O5 0.648599 0.648193 0.788395
O O6 0.833732 0.817752 0.771689
O O7 0.875282 0.188222 0.712035
O O8 0.000000 0.000000 0.000000
O O9 0.811322 0.472781 0.841271
O O10 0.716292 0.335281 0.661359
O O11 0.424612 0.003935 0.587331
O O12 0.511122 0.759065 0.644207
O O13 0.845089 0.978484 0.973966
O O14 0.992160 0.980055 0.266455
O O15 0.213790 0.580314 0.449988
O O16 0.065749 0.400728 0.507751
O O17 0.838773 0.801959 0.511580
#
# Coordination Sequence:
#
# PCOD9003646 Si02
#       8
#     2   2   2   2   2   2   2   2
#     4  11  21  38  60  93 127 152 186 256 314 352
#     4  10  23  41  60  85 120 166 206 245 289 347
#     4  10  21  37  61  91 115 159 205 240 297 354
#     4  11  20  38  64  87 123 156 194 251 299 351
#     4  10  23  41  59  88 123 165 204 237 289 362
#     4  11  20  37  64  89 122 156 199 251 302 354
#     4  10  22  38  61  95 123 152 196 248 311 357
#     4  11  20  38  63  98 118 153 199 251 306 355
#
# _framework density 19.675781000000001
#
# number of rings (size 3 to 8) (size 9 to 14) (size 15 to 20)
#    0.000    1.500    5.000    1.500    0.000    1.500 
#    4.500    0.000    0.000    2.250    0.000    0.000 
#    0.000    0.000    0.000    0.000    0.000    0.000 
#
# Total GULP energy -89072.008508 kJ/mol
# GULP energy per Si atom -5567.000532 kJ/mol
# Density = 1.963100 g / cm^3
# Si number density = 19.675781 Si / 1000 Ang^3
#
#
#
# Elastic Constant Matrix: (Units=GPa)
#
#
# Indices 1 2 3 4 5 6 
#
# 1 133.1794 32.9133 28.5693 7.1816 -1.8038 18.9903
# 2 32.9133 74.0192 28.0753 1.0721 -11.0112 17.0227
# 3 28.5693 28.0753 83.2364 -8.1154 -5.3189 -6.1594
# 4 7.1816 1.0721 -8.1154 21.1763 -2.6492 -8.8253
# 5 -1.8038 -11.0112 -5.3189 -2.6492 28.5142 -4.4044
# 6 18.9903 17.0227 -6.1594 -8.8253 -4.4044 21.8853
#
#
#
# Elastic Compliance Matrix: (Units=1/GPa)
#
#
# Indices 1 2 3 4 5 6 
#
# 1 0.013774 0.003447 -0.010299 -0.020817 -0.005839 -0.027101
# 2 0.003447 0.026968 -0.015534 -0.024514 -0.000462 -0.038318
# 3 -0.010299 -0.015534 0.028036 0.034726 0.008705 0.044665
# 4 -0.020817 -0.024514 0.034726 0.111480 0.020890 0.096064
# 5 -0.005839 -0.000462 0.008705 0.020890 0.041908 0.024733
# 6 -0.027101 -0.038318 0.044665 0.096064 0.024733 0.155299
#
#
# Mechanical properties :
#
#
# Convention : Reuss Voigt Hill
#
# Bulk Modulus (GPa) = 41.65676 52.17232 46.91454
# Shear Modulus (GPa) = 11.62148 27.70697 19.66422
#
# Velocity S-wave (km/s) = 2.43296 3.75664 3.16478
# Velocity P-wave (km/s) = 5.39537 6.73721 6.10328
#
# Compressibility (1/GPa) = 0.02400571
#
# Stress axis : x y z
#
# Youngs Moduli (GPa) = 72.60116 37.08111 35.66896
#
# Poissons Ratio (x) = -0.12782 0.36734
# Poissons Ratio (y) = -0.25026 0.55410
# Poissons Ratio (z) = 0.74769 0.57603
#
# Static dielectric constant tensor:
#      x y z
#    x 1.769680 0.036320 -0.006860 
#    y 0.036320 1.719990 -0.009770 
#    z -0.006860 -0.009770 1.739350 
# 
# From -- ./inp_files/579236.got.cif
#   From: 2010.05.17/outbox.cif.g08.bks.cpg/sg2_290_cif.got.tgz:579236.got - 2010.06.03 11:33:40.
