data_PCOD9003469
_publ_section_title
;
Structure prediction by ZEFSAII (Michael W. Deem and Ramdas Pophale) SiO2 
 PCOD9003469
Probable space group: P -1
;
_chemical_formula_sum "Si O2"
_cell_formula_units_Z 14
_cell_length_a 6.172010
_cell_length_b 6.106966
_cell_length_c 19.007452
_cell_angle_alpha 62.610366
_cell_angle_beta 98.960369
_cell_angle_gamma 86.297137
_cell_volume 620.730947
_symmetry_space_group_name_H-M "P -1"
_symmetry_group_IT_number 2
_symmetry_cell_setting 'triclinic'
loop_
_space_group_symop_operation_xyz
x,y,z
-x,-y,-z
loop_
_atom_site_type_symbol
_atom_site_label
_atom_site_fract_x
_atom_site_fract_y
_atom_site_fract_z
Si Si1 0.245018 0.811436 0.120206
Si Si2 0.337206 0.283028 0.257853
Si Si3 0.143029 0.723483 0.972058
Si Si4 0.724996 0.086455 0.404146
Si Si5 0.997345 0.110186 0.692110
Si Si6 0.081116 0.382524 0.446769
Si Si7 0.615128 0.090817 0.164391
O O1 0.228146 0.569087 0.202093
O O2 0.451423 0.934864 0.139226
O O3 0.265418 0.734554 0.050795
O O4 0.028561 0.020089 0.082565
O O5 0.490244 0.218476 0.343669
O O6 0.491727 0.227513 0.204972
O O7 0.162772 0.092014 0.274028
O O8 0.302105 0.717379 0.914148
O O9 0.000000 0.500000 0.000000
O O10 0.873715 0.273716 0.418464
O O11 0.729826 0.852211 0.492077
O O12 0.861820 0.973680 0.358837
O O13 0.867796 0.387614 0.631395
O O14 0.175144 0.091737 0.766127
O O15 0.000000 0.500000 0.500000
#
# Coordination Sequence:
#
# PCOD9003469 Si02
#       7
#     2   2   2   2   2   2   2
#     4  11  24  40  63  91 122 161 203 249 310 366
#     4  11  24  40  62  93 124 161 205 251 303 362
#     4  11  25  44  64  90 122 158 204 255 305 365
#     4   9  20  38  61  88 123 161 201 249 302 356
#     4  10  21  37  60  89 124 160 202 251 298 356
#     4   9  18  38  62  87 121 162 202 247 299 354
#     4  11  23  41  63  89 123 161 201 252 304 361
#
# _framework density 22.554055000000002
#
# number of rings (size 3 to 8) (size 9 to 14) (size 15 to 20)
#    0.000    1.714    0.000    3.857    0.000    9.714 
#    0.000    6.429    0.000    0.000    0.000    0.000 
#    0.000    0.000    0.000    0.000    0.000    0.000 
#
# Total GULP energy -78353.509110 kJ/mol
# GULP energy per Si atom -5596.679222 kJ/mol
# Density = 2.250272 g / cm^3
# Si number density = 22.554055 Si / 1000 Ang^3
#
#
#
# Elastic Constant Matrix: (Units=GPa)
#
#
# Indices 1 2 3 4 5 6 
#
# 1 54.0642 19.0929 51.3621 -10.2654 11.3776 2.9559
# 2 19.0929 92.3845 62.6140 -10.3614 18.3282 14.5219
# 3 51.3621 62.6140 159.9677 -16.5710 29.0737 11.2438
# 4 -10.2654 -10.3614 -16.5710 64.6728 4.4558 1.9724
# 5 11.3776 18.3282 29.0737 4.4558 42.8946 6.8188
# 6 2.9559 14.5219 11.2438 1.9724 6.8188 31.4675
#
#
#
# Elastic Compliance Matrix: (Units=1/GPa)
#
#
# Indices 1 2 3 4 5 6 
#
# 1 0.027073 0.000694 -0.008359 0.002400 -0.002130 0.000435
# 2 0.000694 0.015845 -0.005429 0.001592 -0.002651 -0.004963
# 3 -0.008359 -0.005429 0.011837 0.001089 -0.003562 -0.000235
# 4 0.002400 0.001592 0.001089 0.016670 -0.003527 -0.001630
# 5 -0.002130 -0.002651 -0.003562 -0.003527 0.028302 -0.003216
# 6 0.000435 -0.004963 -0.000235 -0.001630 -0.003216 0.034911
#
#
# Mechanical properties :
#
#
# Convention : Reuss Voigt Hill
#
# Bulk Modulus (GPa) = 35.00667 63.61717 49.31192
# Shear Modulus (GPa) = 29.35140 39.36347 34.35744
#
# Velocity S-wave (km/s) = 3.61138 4.18220 3.90723
# Velocity P-wave (km/s) = 5.73972 7.18254 6.50128
#
# Compressibility (1/GPa) = 0.02856598
#
# Stress axis : x y z
#
# Youngs Moduli (GPa) = 36.93738 63.11048 84.48200
#
# Poissons Ratio (x) = -0.04377 0.70616
# Poissons Ratio (y) = -0.02562 0.45868
# Poissons Ratio (z) = 0.30875 0.34264
#
# Static dielectric constant tensor:
#      x y z
#    x 1.813350 -0.051030 -0.002970 
#    y -0.051030 1.802630 -0.011820 
#    z -0.002970 -0.011820 1.855600 
# 
# From -- ./inp_files/6564.got.cif
#   From: 2010.05.17/outbox.cif.g08.bks.cpg/sg2_4_cif.got.tgz:6564.got - 2010.06.03 11:33:40.
