data_PCOD9003554
_publ_section_title
;
Structure prediction by ZEFSAII (Michael W. Deem and Ramdas Pophale) SiO2 
 PCOD9003554
Probable space group: P -1
;
_chemical_formula_sum "Si O2"
_cell_formula_units_Z 16
_cell_length_a 11.781212
_cell_length_b 6.754168
_cell_length_c 14.540311
_cell_angle_alpha 133.031604
_cell_angle_beta 72.449468
_cell_angle_gamma 89.678571
_cell_volume 768.392282
_symmetry_space_group_name_H-M "P -1"
_symmetry_group_IT_number 2
_symmetry_cell_setting 'triclinic'
loop_
_space_group_symop_operation_xyz
x,y,z
-x,-y,-z
loop_
_atom_site_type_symbol
_atom_site_label
_atom_site_fract_x
_atom_site_fract_y
_atom_site_fract_z
Si Si1 0.151240 0.839943 0.812244
Si Si2 0.045514 0.910576 0.356618
Si Si3 0.541608 0.307539 0.839779
Si Si4 0.705416 0.798928 0.205994
Si Si5 0.137086 0.838216 0.033280
Si Si6 0.271372 0.625274 0.310457
Si Si7 0.798195 0.805183 0.380215
Si Si8 0.781030 0.857382 0.723605
O O1 0.171376 0.507094 0.683073
O O2 0.251015 0.955053 0.773241
O O3 0.163505 0.870262 0.929155
O O4 0.011510 0.024053 0.876421
O O5 0.169604 0.648321 0.261215
O O6 0.929904 0.832310 0.316948
O O7 0.096243 0.136242 0.361759
O O8 0.000000 0.000000 0.500000
O O9 0.426594 0.214051 0.801706
O O10 0.593814 0.473004 0.800388
O O11 0.659934 0.045230 0.758390
O O12 0.500000 0.500000 0.000000
O O13 0.706139 0.831977 0.326091
O O14 0.809451 0.495991 0.063554
O O15 0.204943 0.994343 0.136065
O O16 0.237995 0.440429 0.340241
O O17 0.253311 0.938868 0.455280
#
# Coordination Sequence:
#
# PCOD9003554 Si02
#       8
#     2   2   2   2   2   2   2   2
#     4  10  22  37  62  93 128 165 200 255 321 373
#     4   9  20  38  61  93 129 157 200 254 304 374
#     4  11  25  44  61  92 126 162 219 271 302 360
#     4  11  23  40  63  88 127 167 208 262 310 366
#     4  10  21  37  60  96 123 159 211 256 310 380
#     4  10  24  41  65  94 128 166 212 256 310 375
#     4  10  22  41  62  94 130 164 203 253 313 386
#     4  11  22  38  66  91 122 170 207 256 318 364
#
# _framework density 20.822697999999999
#
# number of rings (size 3 to 8) (size 9 to 14) (size 15 to 20)
#    0.000    1.750    1.250    1.875    1.750   10.000 
#    0.000    1.250    0.000    0.000    0.000    0.000 
#    0.000    0.000    0.000    0.000    0.000    0.000 
#
# Total GULP energy -89358.733825 kJ/mol
# GULP energy per Si atom -5584.920864 kJ/mol
# Density = 2.077530 g / cm^3
# Si number density = 20.822698 Si / 1000 Ang^3
#
#
#
# Elastic Constant Matrix: (Units=GPa)
#
#
# Indices 1 2 3 4 5 6 
#
# 1 136.0487 42.4145 25.4013 1.5419 5.9750 -0.5724
# 2 42.4145 105.8125 29.9795 5.5814 -12.0239 22.6366
# 3 25.4013 29.9795 77.4274 2.1282 8.7867 8.4845
# 4 1.5419 5.5814 2.1282 14.1133 3.0266 1.6801
# 5 5.9750 -12.0239 8.7867 3.0266 24.3970 -10.9083
# 6 -0.5724 22.6366 8.4845 1.6801 -10.9083 32.2932
#
#
#
# Elastic Compliance Matrix: (Units=1/GPa)
#
#
# Indices 1 2 3 4 5 6 
#
# 1 0.009007 -0.004129 -0.001326 0.001176 -0.002845 0.002380
# 2 -0.004129 0.014930 -0.004449 -0.005688 0.007798 -0.006440
# 3 -0.001326 -0.004449 0.016727 0.002189 -0.010361 -0.004913
# 4 0.001176 -0.005688 0.002189 0.076811 -0.016090 -0.005998
# 5 -0.002845 0.007798 -0.010361 -0.016090 0.059344 0.018088
# 6 0.002380 -0.006440 -0.004913 -0.005998 0.018088 0.043235
#
#
# Mechanical properties :
#
#
# Convention : Reuss Voigt Hill
#
# Bulk Modulus (GPa) = 47.95072 57.20880 52.57976
# Shear Modulus (GPa) = 20.25807 28.92693 24.59250
#
# Velocity S-wave (km/s) = 3.12249 3.73124 3.44036
# Velocity P-wave (km/s) = 6.00650 6.78946 6.40995
#
# Compressibility (1/GPa) = 0.02085474
#
# Stress axis : x y z
#
# Youngs Moduli (GPa) = 111.02648 66.97814 59.78304
#
# Poissons Ratio (x) = 0.27656 0.07930
# Poissons Ratio (y) = 0.45843 0.26599
# Poissons Ratio (z) = 0.14727 0.29800
#
# Static dielectric constant tensor:
#      x y z
#    x 1.754770 -0.006470 -0.007250 
#    y -0.006470 1.772670 -0.007640 
#    z -0.007250 -0.007640 1.762570 
# 
# From -- ./inp_files/100008.got.cif
#   From: 2010.05.17/outbox.cif.g08.bks.cpg/sg2_51_cif.got.tgz:100008.got - 2010.06.03 11:33:40.
