data_PCOD9003610
_publ_section_title
;
Structure prediction by ZEFSAII (Michael W. Deem and Ramdas Pophale) SiO2 
 PCOD9003610
Probable space group: P -1
;
_chemical_formula_sum "Si O2"
_cell_formula_units_Z 16
_cell_length_a 11.024738
_cell_length_b 8.297850
_cell_length_c 8.587769
_cell_angle_alpha 116.792692
_cell_angle_beta 83.420276
_cell_angle_gamma 97.364074
_cell_volume 694.063313
_symmetry_space_group_name_H-M "P -1"
_symmetry_group_IT_number 2
_symmetry_cell_setting 'triclinic'
loop_
_space_group_symop_operation_xyz
x,y,z
-x,-y,-z
loop_
_atom_site_type_symbol
_atom_site_label
_atom_site_fract_x
_atom_site_fract_y
_atom_site_fract_z
Si Si1 0.940429 0.807602 0.987181
Si Si2 0.396320 0.623654 0.131407
Si Si3 0.287601 0.345340 0.227154
Si Si4 0.145773 0.717363 0.125943
Si Si5 0.215378 0.118325 0.407147
Si Si6 0.775216 0.017721 0.320358
Si Si7 0.561858 0.923187 0.107690
Si Si8 0.029503 0.675824 0.463743
O O1 0.853532 0.865658 0.164787
O O2 0.048789 0.699397 0.993207
O O3 0.853134 0.704024 0.827338
O O4 0.000000 0.000000 0.000000
O O5 0.344350 0.547986 0.271691
O O6 0.270646 0.619200 0.047102
O O7 0.461312 0.824882 0.194755
O O8 0.500000 0.500000 0.000000
O O9 0.299937 0.264012 0.360096
O O10 0.359588 0.227443 0.045815
O O11 0.081665 0.658625 0.273346
O O12 0.185757 0.933078 0.232781
O O13 0.265094 0.059003 0.538800
O O14 0.088620 0.210328 0.488966
O O15 0.660820 0.050390 0.242590
O O16 0.866609 0.194979 0.407543
O O17 0.500000 0.000000 0.000000
O O18 0.000000 0.500000 0.500000
#
# Coordination Sequence:
#
# PCOD9003610 Si02
#       8
#     2   2   2   2   2   2   2   2
#     4  11  19  34  61  96 125 160 205 252 314 385
#     4  10  23  42  58  87 125 163 211 267 303 348
#     4  10  21  37  61  88 126 157 202 267 313 357
#     4  11  20  36  63  89 123 168 205 250 314 374
#     4  11  19  39  63  93 128 162 199 249 320 392
#     4  10  21  39  62  90 126 166 210 250 304 382
#     4  10  22  42  63  84 119 173 221 253 293 362
#     4  11  21  37  59  97 136 157 194 258 326 380
#
# _framework density 23.052651000000001
#
# number of rings (size 3 to 8) (size 9 to 14) (size 15 to 20)
#    0.000    1.500    3.750    2.250    1.750    0.500 
#    2.250    7.500    0.000    0.000    0.000    0.000 
#    0.000    0.000    0.000    0.000    0.000    0.000 
#
# Total GULP energy -89414.275718 kJ/mol
# GULP energy per Si atom -5588.392232 kJ/mol
# Density = 2.300018 g / cm^3
# Si number density = 23.052651 Si / 1000 Ang^3
#
#
#
# Elastic Constant Matrix: (Units=GPa)
#
#
# Indices 1 2 3 4 5 6 
#
# 1 130.5775 43.7692 35.4213 -12.8256 8.0630 -12.4755
# 2 43.7692 128.6460 23.5526 -35.4639 6.2298 10.1199
# 3 35.4213 23.5526 59.9759 -19.6547 9.9302 4.2051
# 4 -12.8256 -35.4639 -19.6547 31.9393 -6.0687 -9.8534
# 5 8.0630 6.2298 9.9302 -6.0687 38.5274 -4.3778
# 6 -12.4755 10.1199 4.2051 -9.8534 -4.3778 38.3318
#
#
#
# Elastic Compliance Matrix: (Units=1/GPa)
#
#
# Indices 1 2 3 4 5 6 
#
# 1 0.010641 -0.003364 -0.005830 -0.001619 0.000085 0.004584
# 2 -0.003364 0.012278 0.001414 0.012840 0.000245 -0.001163
# 3 -0.005830 0.001414 0.024562 0.013057 -0.003511 -0.002010
# 4 -0.001619 0.012840 0.013057 0.056939 0.004986 0.009857
# 5 0.000085 0.000245 -0.003511 0.004986 0.028139 0.004844
# 6 0.004584 -0.001163 -0.002010 0.009857 0.004844 0.031195
#
#
# Mechanical properties :
#
#
# Convention : Reuss Voigt Hill
#
# Bulk Modulus (GPa) = 31.32653 58.29840 44.81246
# Shear Modulus (GPa) = 26.32210 36.19013 31.25611
#
# Velocity S-wave (km/s) = 3.38276 3.96648 3.68619
# Velocity P-wave (km/s) = 5.37364 6.80599 6.13178
#
# Compressibility (1/GPa) = 0.03192183
#
# Stress axis : x y z
#
# Youngs Moduli (GPa) = 93.97579 81.44443 40.71314
#
# Poissons Ratio (x) = 0.27400 0.23734
# Poissons Ratio (y) = 0.31616 -0.05757
# Poissons Ratio (z) = 0.54784 -0.11517
#
# Static dielectric constant tensor:
#      x y z
#    x 1.912060 -0.033740 -0.043910 
#    y -0.033740 1.963690 0.017860 
#    z -0.043910 0.017860 1.866240 
# 
# From -- ./inp_files/235229.got.cif
#   From: 2010.05.17/outbox.cif.g08.bks.cpg/sg2_118_cif.got.tgz:235229.got - 2010.06.03 11:33:40.
