data_PCOD9003943
_publ_section_title
;
Structure prediction by ZEFSAII (Michael W. Deem and Ramdas Pophale) SiO2 
 PCOD9003943
Probable space group: P -1
;
_chemical_formula_sum "Si O2"
_cell_formula_units_Z 16
_cell_length_a 8.115456
_cell_length_b 9.054372
_cell_length_c 16.935597
_cell_angle_alpha 29.374786
_cell_angle_beta 72.651888
_cell_angle_gamma 68.986758
_cell_volume 569.547514
_symmetry_space_group_name_H-M "P -1"
_symmetry_group_IT_number 2
_symmetry_cell_setting 'triclinic'
loop_
_space_group_symop_operation_xyz
x,y,z
-x,-y,-z
loop_
_atom_site_type_symbol
_atom_site_label
_atom_site_fract_x
_atom_site_fract_y
_atom_site_fract_z
Si Si1 0.806947 0.290173 0.290948
Si Si2 0.800479 0.645766 0.274599
Si Si3 0.551752 0.998233 0.854582
Si Si4 0.092178 0.178414 0.066685
Si Si5 0.670380 0.560652 0.506969
Si Si6 0.757547 0.549416 0.934130
Si Si7 0.551000 0.793506 0.695874
Si Si8 0.149706 0.375932 0.395418
O O1 0.775199 0.367436 0.351194
O O2 0.907460 0.539050 0.125468
O O3 0.623605 0.324951 0.253134
O O4 0.914764 0.941571 0.432753
O O5 0.652608 0.919816 0.132447
O O6 0.758822 0.589438 0.397550
O O7 0.009586 0.632189 0.249907
O O8 0.576092 0.272183 0.663340
O O9 0.585589 0.673175 0.956039
O O10 0.704807 0.008497 0.892234
O O11 0.878812 0.205011 0.084467
O O12 0.131109 0.249536 0.120286
O O13 0.820120 0.496059 0.583209
O O14 0.540655 0.871058 0.412351
O O15 0.691263 0.647056 0.811477
O O16 0.672060 0.745890 0.622241
#
# Coordination Sequence:
#
# PCOD9003943 Si02
#       8
#     2   2   2   2   2   2   2   2
#     4  11  24  38  64  87 128 160 204 245 297 368
#     4  12  23  38  62  96 122 160 198 254 306 354
#     4  10  21  37  63  87 121 157 199 246 298 360
#     4   9  21  40  60  94 114 166 203 245 296 363
#     4  11  22  40  64  91 124 157 199 253 309 352
#     4   9  20  39  64  88 120 159 204 248 294 367
#     4  11  22  43  62  91 122 162 202 249 306 354
#     4  11  25  39  61  93 127 157 200 250 307 359
#
# _framework density 28.092475
#
# number of rings (size 3 to 8) (size 9 to 14) (size 15 to 20)
#    0.750    0.750    1.250    4.875    3.500    1.000 
#    0.000    1.250    0.000    3.000    0.000    0.000 
#    0.000    0.000    0.000    0.000    0.000    0.000 
#
# Total GULP energy -89236.375232 kJ/mol
# GULP energy per Si atom -5577.273452 kJ/mol
# Density = 2.802854 g / cm^3
# Si number density = 28.092475 Si / 1000 Ang^3
#
#
#
# Elastic Constant Matrix: (Units=GPa)
#
#
# Indices 1 2 3 4 5 6 
#
# 1 142.2974 44.6636 25.0303 -9.9554 54.0598 -3.5120
# 2 44.6636 132.3872 24.5382 21.0908 9.1842 10.8392
# 3 25.0303 24.5382 48.4848 14.1312 13.4743 0.4585
# 4 -9.9554 21.0908 14.1312 46.3657 -6.2746 18.8312
# 5 54.0598 9.1842 13.4743 -6.2746 50.6545 3.1762
# 6 -3.5120 10.8392 0.4585 18.8312 3.1762 46.4356
#
#
#
# Elastic Compliance Matrix: (Units=1/GPa)
#
#
# Indices 1 2 3 4 5 6 
#
# 1 0.014024 -0.003984 -0.002436 0.003083 -0.013319 0.001675
# 2 -0.003984 0.009880 -0.002648 -0.003637 0.002796 -0.001298
# 3 -0.002436 -0.002648 0.027931 -0.010618 -0.005970 0.004872
# 4 0.003083 -0.003637 -0.010618 0.032877 0.005049 -0.012491
# 5 -0.013319 0.002796 -0.005970 0.005049 0.036046 -0.006114
# 6 0.001675 -0.001298 0.004872 -0.012491 -0.006114 0.027400
#
#
# Mechanical properties :
#
#
# Convention : Reuss Voigt Hill
#
# Bulk Modulus (GPa) = 29.67552 56.84815 43.26184
# Shear Modulus (GPa) = 28.16463 43.95363 36.05913
#
# Velocity S-wave (km/s) = 3.16977 3.95980 3.58660
# Velocity P-wave (km/s) = 4.89725 6.41769 5.70832
#
# Compressibility (1/GPa) = 0.03369780
#
# Stress axis : x y z
#
# Youngs Moduli (GPa) = 71.30838 101.21177 35.80268
#
# Poissons Ratio (x) = 0.40322 0.08723
# Poissons Ratio (y) = 0.28409 0.09482
# Poissons Ratio (z) = 0.17373 0.26804
#
# Static dielectric constant tensor:
#      x y z
#    x 2.520590 -0.104730 -0.039930 
#    y -0.104730 2.245540 -0.108560 
#    z -0.039930 -0.108560 2.305730 
# 
# From -- ./inp_files/556781.got.cif
#   From: 2010.05.17/outbox.cif.g08.bks.cpg/sg2_279_cif.got.tgz:556781.got - 2010.06.03 11:33:40.
