data_PCOD9003940
_publ_section_title
;
Structure prediction by ZEFSAII (Michael W. Deem and Ramdas Pophale) SiO2 
 PCOD9003940
Probable space group: P -1
;
_chemical_formula_sum "Si O2"
_cell_formula_units_Z 14
_cell_length_a 26.670985
_cell_length_b 14.261318
_cell_length_c 14.080408
_cell_angle_alpha 158.369061
_cell_angle_beta 158.717143
_cell_angle_gamma 21.842979
_cell_volume 634.945759
_symmetry_space_group_name_H-M "P -1"
_symmetry_group_IT_number 2
_symmetry_cell_setting 'triclinic'
loop_
_space_group_symop_operation_xyz
x,y,z
-x,-y,-z
loop_
_atom_site_type_symbol
_atom_site_label
_atom_site_fract_x
_atom_site_fract_y
_atom_site_fract_z
Si Si1 0.225349 0.790446 0.057078
Si Si2 0.502450 0.682620 0.308442
Si Si3 0.890451 0.156949 0.721123
Si Si4 0.041070 0.191959 0.824042
Si Si5 0.336910 0.148347 0.725032
Si Si6 0.612421 0.105446 0.894547
Si Si7 0.705396 0.801989 0.077892
O O1 0.336193 0.767764 0.141595
O O2 0.269356 0.959543 0.374174
O O3 0.272385 0.464452 0.862976
O O4 0.043857 0.969637 0.879321
O O5 0.508820 0.738509 0.258677
O O6 0.574929 0.873076 0.659421
O O7 0.602945 0.343568 0.175245
O O8 0.957701 0.211472 0.793631
O O9 0.801450 0.966942 0.368432
O O10 0.780789 0.469857 0.866306
O O11 0.000000 0.000000 0.500000
O O12 0.000000 0.500000 0.000000
O O13 0.226703 0.036951 0.010101
O O14 0.290435 0.187568 0.790348
O O15 0.524958 0.976096 0.892858
#
# Coordination Sequence:
#
# PCOD9003940 Si02
#       7
#     2   2   2   2   2   2   2
#     4  12  24  42  70 105 135 170 231 278 334 390
#     4  10  21  37  63  86 123 163 207 265 312 371
#     4  12  26  45  70 100 138 177 220 283 337 400
#     4  12  26  42  63  94 133 174 218 265 326 395
#     4  11  26  45  71 100 133 176 223 281 327 412
#     4  10  21  39  58  87 121 167 213 254 312 369
#     4  11  26  48  69  98 138 177 221 270 348 406
#
# _framework density 22.049126999999999
#
# number of rings (size 3 to 8) (size 9 to 14) (size 15 to 20)
#    0.000    0.857    1.429    5.143    0.000   12.571 
#    0.000    0.000    0.000    0.000    0.000    0.000 
#    0.000    0.000    0.000    0.000    0.000    0.000 
#
# Total GULP energy -78323.401223 kJ/mol
# GULP energy per Si atom -5594.528659 kJ/mol
# Density = 2.199894 g / cm^3
# Si number density = 22.049127 Si / 1000 Ang^3
#
#
#
# Elastic Constant Matrix: (Units=GPa)
#
#
# Indices 1 2 3 4 5 6 
#
# 1 44.8801 23.6149 -14.9475 5.1863 3.4932 6.3100
# 2 23.6149 135.2953 43.0609 21.3964 -1.0549 -0.0067
# 3 -14.9475 43.0609 74.4208 23.7161 14.2472 13.1850
# 4 5.1863 21.3964 23.7161 46.8600 -2.9942 -0.9851
# 5 3.4932 -1.0549 14.2472 -2.9942 35.5071 -0.7527
# 6 6.3100 -0.0067 13.1850 -0.9851 -0.7527 29.1596
#
#
#
# Elastic Compliance Matrix: (Units=1/GPa)
#
#
# Indices 1 2 3 4 5 6 
#
# 1 0.050412 -0.017259 0.034570 -0.017143 -0.021376 -0.027675
# 2 -0.017259 0.015468 -0.018104 0.004915 0.010098 0.012351
# 3 0.034570 -0.018104 0.048391 -0.022352 -0.025893 -0.030789
# 4 -0.017143 0.004915 -0.022352 0.033519 0.013953 0.015310
# 5 -0.021376 0.010098 -0.025893 0.013953 0.042512 0.017905
# 6 -0.027675 0.012351 -0.030789 0.015310 0.017905 0.055187
#
#
# Mechanical properties :
#
#
# Convention : Reuss Voigt Hill
#
# Bulk Modulus (GPa) = 8.87428 39.78364 24.32896
# Shear Modulus (GPa) = 17.56627 35.82987 26.69807
#
# Velocity S-wave (km/s) = 2.82563 4.03550 3.48349
# Velocity P-wave (km/s) = 3.83133 6.30841 5.21896
#
# Compressibility (1/GPa) = 0.11268514
#
# Stress axis : x y z
#
# Youngs Moduli (GPa) = 19.83644 64.65075 20.66510
#
# Poissons Ratio (x) = 1.11579 -0.71439
# Poissons Ratio (y) = 0.34235 0.37412
# Poissons Ratio (z) = -0.68574 1.17043
#
# Static dielectric constant tensor:
#      x y z
#    x 1.806500 0.039670 -0.018410 
#    y 0.039670 1.848430 0.044570 
#    z -0.018410 0.044570 1.916020 
# 
# From -- ./inp_files/535723.got.cif
#   From: 2010.05.17/outbox.cif.g08.bks.cpg/sg2_268_cif.got.tgz:535723.got - 2010.06.03 11:33:40.
