data_PCOD9003574
_publ_section_title
;
Structure prediction by ZEFSAII (Michael W. Deem and Ramdas Pophale) SiO2 
 PCOD9003574
Probable space group: P -1
;
_chemical_formula_sum "Si O2"
_cell_formula_units_Z 16
_cell_length_a 7.627880
_cell_length_b 24.699016
_cell_length_c 5.152202
_cell_angle_alpha 96.471682
_cell_angle_beta 88.897832
_cell_angle_gamma 46.176013
_cell_volume 689.417712
_symmetry_space_group_name_H-M "P -1"
_symmetry_group_IT_number 2
_symmetry_cell_setting 'triclinic'
loop_
_space_group_symop_operation_xyz
x,y,z
-x,-y,-z
loop_
_atom_site_type_symbol
_atom_site_label
_atom_site_fract_x
_atom_site_fract_y
_atom_site_fract_z
Si Si1 0.060788 0.795175 0.025721
Si Si2 0.067523 0.450481 0.220017
Si Si3 0.471305 0.682575 0.588179
Si Si4 0.780753 0.060356 0.740300
Si Si5 0.650690 0.191118 0.604103
Si Si6 0.743551 0.418406 0.334690
Si Si7 0.226955 0.659143 0.220465
Si Si8 0.919761 0.927264 0.870164
O O1 0.269153 0.788162 0.148765
O O2 0.034986 0.747930 0.181423
O O3 0.194326 0.744257 0.737943
O O4 0.860565 0.884109 0.999575
O O5 0.348511 0.374091 0.222708
O O6 0.000000 0.500000 0.500000
O O7 0.918095 0.427294 0.226934
O O8 0.000000 0.500000 0.000000
O O9 0.527008 0.731477 0.512217
O O10 0.455061 0.642259 0.336409
O O11 0.584957 0.143852 0.661290
O O12 0.905723 0.071896 0.958695
O O13 0.000000 0.000000 0.500000
O O14 0.716471 0.014723 0.828050
O O15 0.904330 0.128773 0.401373
O O16 0.500000 0.500000 0.500000
O O17 0.299156 0.610480 0.932033
O O18 0.851946 0.362977 0.552500
#
# Coordination Sequence:
#
# PCOD9003574 Si02
#       8
#     2   2   2   2   2   2   2   2
#     4   9  17  30  53  79 108 151 192 235 291 347
#     4  12  29  45  63  89 118 151 195 248 304 359
#     4  10  21  37  61  82 116 151 199 241 297 357
#     4   8  12  20  36  63 110 151 187 227 283 339
#     4   8  15  25  45  73 105 152 189 235 285 346
#     4  12  26  43  64  88 117 150 192 245 307 364
#     4  11  22  40  63  87 114 152 193 240 295 358
#     4   8  13  22  37  70 107 151 186 231 281 344
#
# _framework density 23.207989000000001
#
# number of rings (size 3 to 8) (size 9 to 14) (size 15 to 20)
#    0.000    2.250    1.250    1.875    5.250    0.000 
#    0.000    0.000    0.000    0.000    0.000    0.000 
#    0.000    2.000    0.250   30.125    0.000    7.125 
#
# Total GULP energy -89129.664158 kJ/mol
# GULP energy per Si atom -5570.604010 kJ/mol
# Density = 2.315517 g / cm^3
# Si number density = 23.207989 Si / 1000 Ang^3
#
#
#
# Elastic Constant Matrix: (Units=GPa)
#
#
# Indices 1 2 3 4 5 6 
#
# 1 66.9786 63.3830 35.5015 -11.9685 -6.3350 14.3385
# 2 63.3830 156.2517 72.7489 -52.1958 -11.1987 52.7433
# 3 35.5015 72.7489 148.8767 -19.9502 8.6534 24.2421
# 4 -11.9685 -52.1958 -19.9502 64.0630 24.1610 -12.2479
# 5 -6.3350 -11.1987 8.6534 24.1610 21.4029 -2.3996
# 6 14.3385 52.7433 24.2421 -12.2479 -2.3996 26.9790
#
#
#
# Elastic Compliance Matrix: (Units=1/GPa)
#
#
# Indices 1 2 3 4 5 6 
#
# 1 0.037644 -0.032049 -0.004154 -0.022955 0.026260 0.038296
# 2 -0.032049 0.055455 -0.000490 0.034906 -0.028378 -0.077618
# 3 -0.004154 -0.000490 0.010232 0.006045 -0.012943 -0.004435
# 4 -0.022955 0.034906 0.006045 0.055874 -0.058682 -0.041325
# 5 0.026260 -0.028378 -0.012943 -0.058682 0.115246 0.036763
# 6 0.038296 -0.077618 -0.004435 -0.041325 0.036763 0.156948
#
#
# Mechanical properties :
#
#
# Convention : Reuss Voigt Hill
#
# Bulk Modulus (GPa) = 33.39510 79.48599 56.44054
# Shear Modulus (GPa) = 9.71313 35.85389 22.78351
#
# Velocity S-wave (km/s) = 2.04801 3.93478 3.13662
# Velocity P-wave (km/s) = 4.47361 7.41398 6.12292
#
# Compressibility (1/GPa) = 0.02994452
#
# Stress axis : x y z
#
# Youngs Moduli (GPa) = 26.56448 18.03257 97.73726
#
# Poissons Ratio (x) = 0.57793 0.40601
# Poissons Ratio (y) = 0.85137 0.04789
# Poissons Ratio (z) = 0.11035 0.00884
#
# Static dielectric constant tensor:
#      x y z
#    x 1.963320 0.040780 0.015860 
#    y 0.040780 2.040230 -0.008690 
#    z 0.015860 -0.008690 2.029430 
# 
# From -- ./inp_files/54408.got.cif
#   From: 2010.05.17/outbox.cif.g08.bks.cpg/sg2_28_cif.got.tgz:54408.got - 2010.06.03 11:33:40.
