data_PCOD9003417
_publ_section_title
;
Structure prediction by ZEFSAII (Michael W. Deem and Ramdas Pophale) SiO2 
 PCOD9003417
Probable space group: P -1
;
_chemical_formula_sum "Si O2"
_cell_formula_units_Z 16
_cell_length_a 10.502077
_cell_length_b 8.481634
_cell_length_c 13.475277
_cell_angle_alpha 91.370151
_cell_angle_beta 121.144426
_cell_angle_gamma 53.763122
_cell_volume 756.410218
_symmetry_space_group_name_H-M "P -1"
_symmetry_group_IT_number 2
_symmetry_cell_setting 'triclinic'
loop_
_space_group_symop_operation_xyz
x,y,z
-x,-y,-z
loop_
_atom_site_type_symbol
_atom_site_label
_atom_site_fract_x
_atom_site_fract_y
_atom_site_fract_z
Si Si1 0.502923 0.152974 0.933419
Si Si2 0.370262 0.662510 0.541042
Si Si3 0.327099 0.322284 0.228235
Si Si4 0.470622 0.361355 0.745149
Si Si5 0.483239 0.657730 0.874627
Si Si6 0.025281 0.181377 0.925698
Si Si7 0.988370 0.033765 0.272066
Si Si8 0.160600 0.095714 0.190042
O O1 0.390381 0.282203 0.786632
O O2 0.456447 0.332172 0.991380
O O3 0.500000 0.000000 0.000000
O O4 0.734387 0.978743 0.989223
O O5 0.500000 0.500000 0.500000
O O6 0.507265 0.708567 0.637474
O O7 0.343788 0.551117 0.616095
O O8 0.153695 0.871636 0.417420
O O9 0.426904 0.272385 0.159630
O O10 0.117696 0.568724 0.149282
O O11 0.263850 0.191663 0.224556
O O12 0.551656 0.443111 0.851488
O O13 0.651999 0.157760 0.751748
O O14 0.239054 0.824492 0.780502
O O15 0.979125 0.097320 0.815103
O O16 0.009501 0.168505 0.038042
O O17 0.043289 0.162036 0.247266
#
# Coordination Sequence:
#
# PCOD9003417 Si02
#       8
#     2   2   2   2   2   2   2   2
#     4  10  21  38  62  93 129 157 198 265 317 362
#     4  11  21  42  65  85 121 166 213 251 293 374
#     4  11  23  39  63  92 124 164 201 257 313 363
#     4  10  21  37  60  86 117 164 202 241 302 366
#     4  10  22  38  61  90 125 162 204 252 313 368
#     4  10  21  38  61  89 122 163 205 250 307 373
#     4  11  22  39  63  90 118 165 210 254 299 363
#     4  11  22  38  61  93 123 155 210 261 307 358
#
# _framework density 21.152543999999999
#
# number of rings (size 3 to 8) (size 9 to 14) (size 15 to 20)
#    0.000    1.500    2.500    3.375    0.000    8.500 
#    0.000    0.000    0.000    9.000    0.000    0.000 
#    0.000    0.000    0.000    0.000    0.000    0.000 
#
# Total GULP energy -89172.743172 kJ/mol
# GULP energy per Si atom -5573.296448 kJ/mol
# Density = 2.110440 g / cm^3
# Si number density = 21.152544 Si / 1000 Ang^3
#
#
#
# Elastic Constant Matrix: (Units=GPa)
#
#
# Indices 1 2 3 4 5 6 
#
# 1 112.7589 29.6185 34.5621 -14.3634 -28.3524 2.9706
# 2 29.6185 71.8062 16.6050 -6.4967 4.2475 1.8954
# 3 34.5621 16.6050 106.8896 -3.5330 -12.0679 12.0192
# 4 -14.3634 -6.4967 -3.5330 25.1629 -3.8921 -6.8007
# 5 -28.3524 4.2475 -12.0679 -3.8921 29.3917 -4.1458
# 6 2.9706 1.8954 12.0192 -6.8007 -4.1458 28.1051
#
#
#
# Elastic Compliance Matrix: (Units=1/GPa)
#
#
# Indices 1 2 3 4 5 6 
#
# 1 0.017926 -0.006934 -0.002723 0.012639 0.019653 0.005695
# 2 -0.006934 0.017644 -0.001526 -0.001684 -0.010333 -0.001736
# 3 -0.002723 -0.001526 0.011081 -0.001401 0.001325 -0.004492
# 4 0.012639 -0.001684 -0.001401 0.053792 0.021172 0.015516
# 5 0.019653 -0.010333 0.001325 0.021172 0.059508 0.011954
# 6 0.005695 -0.001736 -0.004492 0.015516 0.011954 0.042535
#
#
# Mechanical properties :
#
#
# Convention : Reuss Voigt Hill
#
# Bulk Modulus (GPa) = 41.17608 50.33620 45.75614
# Shear Modulus (GPa) = 21.46419 30.57655 26.02037
#
# Velocity S-wave (km/s) = 3.18894 3.80613 3.51113
# Velocity P-wave (km/s) = 5.75045 6.56993 6.17380
#
# Compressibility (1/GPa) = 0.02428594
#
# Stress axis : x y z
#
# Youngs Moduli (GPa) = 55.78542 56.67677 90.24266
#
# Poissons Ratio (x) = 0.39298 0.24572
# Poissons Ratio (y) = 0.38680 0.13771
# Poissons Ratio (z) = 0.15189 0.08649
#
# Static dielectric constant tensor:
#      x y z
#    x 1.862370 0.057710 -0.066550 
#    y 0.057710 1.796140 0.008840 
#    z -0.066550 0.008840 1.796630 
# 
# From -- ./inp_files/514367.got.cif
#   From: 2010.05.17/outbox.cif.g08.bks.cpg/sg2_258_cif.got.tgz:514367.got - 2010.06.03 11:33:40.
