data_PCOD9003686
_publ_section_title
;
Structure prediction by ZEFSAII (Michael W. Deem and Ramdas Pophale) SiO2 
 PCOD9003686
Probable space group: P -1
;
_chemical_formula_sum "Si O2"
_cell_formula_units_Z 16
_cell_length_a 12.312418
_cell_length_b 21.665285
_cell_length_c 8.052601
_cell_angle_alpha 144.840259
_cell_angle_beta 108.757066
_cell_angle_gamma 44.747753
_cell_volume 669.780432
_symmetry_space_group_name_H-M "P -1"
_symmetry_group_IT_number 2
_symmetry_cell_setting 'triclinic'
loop_
_space_group_symop_operation_xyz
x,y,z
-x,-y,-z
loop_
_atom_site_type_symbol
_atom_site_label
_atom_site_fract_x
_atom_site_fract_y
_atom_site_fract_z
Si Si1 0.234163 0.247404 0.563795
Si Si2 0.096884 0.669169 0.385297
Si Si3 0.480782 0.575980 0.827568
Si Si4 0.810232 0.293935 0.803198
Si Si5 0.568854 0.799113 0.749270
Si Si6 0.767771 0.071811 0.699970
Si Si7 0.768230 0.106051 0.168842
Si Si8 0.592398 0.812624 0.158636
O O1 0.287153 0.281134 0.507556
O O2 0.252508 0.295482 0.853101
O O3 0.028864 0.338996 0.650138
O O4 0.405891 0.022175 0.161504
O O5 0.310341 0.526310 0.259673
O O6 0.147489 0.638996 0.148005
O O7 0.944703 0.886062 0.817324
O O8 0.500000 0.500000 0.500000
O O9 0.400362 0.552710 0.870403
O O10 0.301211 0.796626 0.189701
O O11 0.804153 0.191364 0.460833
O O12 0.004548 0.140339 0.679115
O O13 0.434810 0.795716 0.653340
O O14 0.662568 0.721676 0.810274
O O15 0.595690 0.114476 0.715310
O O16 0.763047 0.118822 0.992701
O O17 0.500000 0.000000 0.500000
#
# Coordination Sequence:
#
# PCOD9003686 Si02
#       8
#     2   2   2   2   2   2   2   2
#     4   9  17  33  55  83 119 149 198 238 294 358
#     4  10  21  39  59  87 119 161 193 243 310 362
#     4  12  25  40  54  87 129 156 196 251 306 361
#     4  11  21  38  63  85 113 160 206 244 301 363
#     4   8  16  30  54  89 112 151 190 249 295 343
#     4  10  21  37  61  93 118 152 204 252 298 354
#     4   9  18  36  64  85 116 150 204 250 294 359
#     4   9  17  33  58  88 122 150 197 256 297 347
#
# _framework density 23.888427
#
# number of rings (size 3 to 8) (size 9 to 14) (size 15 to 20)
#    0.000    2.250    0.000    6.000    1.750    0.000 
#    9.000    0.625    0.000    1.500    0.000    0.000 
#    0.000    0.000    0.000    0.000    0.000    0.000 
#
# Total GULP energy -89494.608691 kJ/mol
# GULP energy per Si atom -5593.413043 kJ/mol
# Density = 2.383406 g / cm^3
# Si number density = 23.888427 Si / 1000 Ang^3
#
#
#
# Elastic Constant Matrix: (Units=GPa)
#
#
# Indices 1 2 3 4 5 6 
#
# 1 169.4188 56.2097 22.9133 -1.4451 -47.6302 2.1542
# 2 56.2097 126.6681 32.6909 24.8932 -19.5425 -8.4082
# 3 22.9133 32.6909 60.3638 13.2121 -20.2118 -2.9504
# 4 -1.4451 24.8932 13.2121 28.6213 2.1162 0.5278
# 5 -47.6302 -19.5425 -20.2118 2.1162 37.5160 7.8207
# 6 2.1542 -8.4082 -2.9504 0.5278 7.8207 22.7038
#
#
#
# Elastic Compliance Matrix: (Units=1/GPa)
#
#
# Indices 1 2 3 4 5 6 
#
# 1 0.011245 -0.004220 0.002019 0.002365 0.014585 -0.007446
# 2 -0.004220 0.012721 -0.003221 -0.009812 -0.001011 0.005269
# 3 0.002019 -0.003221 0.024617 -0.009537 0.015364 -0.003256
# 4 0.002365 -0.009812 -0.009537 0.048743 -0.009370 -0.003003
# 5 0.014585 -0.001011 0.015364 -0.009370 0.057484 -0.019345
# 6 -0.007446 0.005269 -0.003256 -0.003003 -0.019345 0.053014
#
#
# Mechanical properties :
#
#
# Convention : Reuss Voigt Hill
#
# Bulk Modulus (GPa) = 26.49797 64.45317 45.47557
# Shear Modulus (GPa) = 21.62201 34.07733 27.84967
#
# Velocity S-wave (km/s) = 3.01179 3.78103 3.41812
# Velocity P-wave (km/s) = 4.81778 6.78978 5.88694
#
# Compressibility (1/GPa) = 0.03773875
#
# Stress axis : x y z
#
# Youngs Moduli (GPa) = 88.93089 78.61318 40.62273
#
# Poissons Ratio (x) = 0.33173 -0.08201
# Poissons Ratio (y) = 0.37527 0.13083
# Poissons Ratio (z) = -0.17953 0.25318
#
# Static dielectric constant tensor:
#      x y z
#    x 1.862290 0.013130 0.001780 
#    y 0.013130 1.879740 0.005130 
#    z 0.001780 0.005130 1.967720 
# 
# From -- ./inp_files/285043.got.cif
#   From: 2010.05.17/outbox.cif.g08.bks.cpg/sg2_143_cif.got.tgz:285043.got - 2010.06.03 11:33:40.
