data_PCOD9003525
_publ_section_title
;
Structure prediction by ZEFSAII (Michael W. Deem and Ramdas Pophale) SiO2 
 PCOD9003525
Probable space group: P -1
;
_chemical_formula_sum "Si O2"
_cell_formula_units_Z 12
_cell_length_a 6.525991
_cell_length_b 7.635503
_cell_length_c 13.719816
_cell_angle_alpha 115.269330
_cell_angle_beta 60.807559
_cell_angle_gamma 120.270985
_cell_volume 500.365540
_symmetry_space_group_name_H-M "P -1"
_symmetry_group_IT_number 2
_symmetry_cell_setting 'triclinic'
loop_
_space_group_symop_operation_xyz
x,y,z
-x,-y,-z
loop_
_atom_site_type_symbol
_atom_site_label
_atom_site_fract_x
_atom_site_fract_y
_atom_site_fract_z
Si Si1 0.496403 0.012387 0.652392
Si Si2 0.452078 0.657394 0.453537
Si Si3 0.010167 0.722123 0.329473
Si Si4 0.155813 0.507725 0.869142
Si Si5 0.736163 0.597615 0.735713
Si Si6 0.902359 0.102893 0.134324
O O1 0.366239 0.775230 0.586729
O O2 0.352820 0.042961 0.788127
O O3 0.486916 0.167160 0.605416
O O4 0.787485 0.062678 0.626247
O O5 0.282042 0.444797 0.387232
O O6 0.723773 0.652550 0.416881
O O7 0.141002 0.563243 0.293702
O O8 0.979272 0.696707 0.214388
O O9 0.446591 0.537670 0.822424
O O10 0.153521 0.704868 0.854092
O O11 0.000000 0.500000 0.000000
O O12 0.896788 0.811582 0.803540
O O13 0.000000 0.000000 0.000000
#
# Coordination Sequence:
#
# PCOD9003525 Si02
#       6
#     2   2   2   2   2   2
#     4  10  21  37  60  93 124 150 198 250 293 346
#     4   9  19  39  65  87 116 163 198 236 299 359
#     4   9  19  36  63  88 115 155 202 242 292 354
#     4  10  23  40  62  82 117 168 198 234 298 359
#     4   9  21  41  58  86 118 157 200 239 297 356
#     4  11  26  38  58  93 125 152 195 254 294 343
#
# _framework density 23.982465000000001
#
# number of rings (size 3 to 8) (size 9 to 14) (size 15 to 20)
#    0.000    2.333    0.000    0.500    9.333    4.000 
#    0.000    7.500    0.000    0.000    0.000    0.000 
#    0.000    0.000    0.000    0.000    0.000    0.000 
#
# Total GULP energy -67037.798734 kJ/mol
# GULP energy per Si atom -5586.483228 kJ/mol
# Density = 2.392788 g / cm^3
# Si number density = 23.982465 Si / 1000 Ang^3
#
#
#
# Elastic Constant Matrix: (Units=GPa)
#
#
# Indices 1 2 3 4 5 6 
#
# 1 135.2558 25.9492 31.8030 6.6524 -7.9818 22.5519
# 2 25.9492 60.8590 2.9366 11.9208 8.7582 -1.7877
# 3 31.8030 2.9366 129.3633 12.8188 -3.6144 2.4425
# 4 6.6524 11.9208 12.8188 38.4903 0.8489 8.7253
# 5 -7.9818 8.7582 -3.6144 0.8489 30.7368 1.8383
# 6 22.5519 -1.7877 2.4425 8.7253 1.8383 33.5354
#
#
#
# Elastic Compliance Matrix: (Units=1/GPa)
#
#
# Indices 1 2 3 4 5 6 
#
# 1 0.010576 -0.005776 -0.002438 0.002520 0.004523 -0.008146
# 2 -0.005776 0.021659 0.001331 -0.007650 -0.007743 0.007356
# 3 -0.002438 0.001331 0.008588 -0.003291 -0.000028 0.001943
# 4 0.002520 -0.007650 -0.003291 0.031255 0.002189 -0.010115
# 5 0.004523 -0.007743 -0.000028 0.002189 0.036211 -0.006007
# 6 -0.008146 0.007356 0.001943 -0.010115 -0.006007 0.038509
#
#
# Mechanical properties :
#
#
# Convention : Reuss Voigt Hill
#
# Bulk Modulus (GPa) = 36.95933 49.65062 43.30497
# Shear Modulus (GPa) = 29.48427 38.20512 33.84469
#
# Velocity S-wave (km/s) = 3.51010 3.99563 3.76071
# Velocity P-wave (km/s) = 5.64554 6.48340 6.07893
#
# Compressibility (1/GPa) = 0.02705677
#
# Stress axis : x y z
#
# Youngs Moduli (GPa) = 94.55363 46.17095 116.44086
#
# Poissons Ratio (x) = 0.26666 0.28393
# Poissons Ratio (y) = 0.54610 -0.15498
# Poissons Ratio (z) = 0.23056 -0.06145
#
# Static dielectric constant tensor:
#      x y z
#    x 1.926570 0.014660 0.036060 
#    y 0.014660 1.997330 0.033220 
#    z 0.036060 0.033220 1.903330 
# 
# From -- ./inp_files/18431.got.cif
#   From: 2010.05.17/outbox.cif.g08.bks.cpg/sg2_10_cif.got.tgz:18431.got - 2010.06.03 11:33:40.
