data_PCOD9003844
_publ_section_title
;
Structure prediction by ZEFSAII (Michael W. Deem and Ramdas Pophale) SiO2 
 PCOD9003844
Probable space group: P -1
;
_chemical_formula_sum "Si O2"
_cell_formula_units_Z 16
_cell_length_a 7.334100
_cell_length_b 11.377950
_cell_length_c 8.867294
_cell_angle_alpha 60.019903
_cell_angle_beta 98.015145
_cell_angle_gamma 86.021590
_cell_volume 626.286005
_symmetry_space_group_name_H-M "P -1"
_symmetry_group_IT_number 2
_symmetry_cell_setting 'triclinic'
loop_
_space_group_symop_operation_xyz
x,y,z
-x,-y,-z
loop_
_atom_site_type_symbol
_atom_site_label
_atom_site_fract_x
_atom_site_fract_y
_atom_site_fract_z
Si Si1 0.836066 0.205888 0.910250
Si Si2 0.410491 0.996984 0.732595
Si Si3 0.771915 0.756686 0.614391
Si Si4 0.600479 0.825887 0.091389
Si Si5 0.058580 0.646856 0.458950
Si Si6 0.047751 0.901570 0.716832
Si Si7 0.303959 0.466674 0.807657
Si Si8 0.725787 0.470637 0.913513
O O1 0.904763 0.244012 0.731332
O O2 0.840693 0.347906 0.911965
O O3 0.616720 0.189195 0.887025
O O4 0.955759 0.089621 0.104652
O O5 0.388933 0.114965 0.527975
O O6 0.594214 0.905652 0.879396
O O7 0.273533 0.889463 0.739704
O O8 0.344490 0.085843 0.819906
O O9 0.703149 0.617842 0.738459
O O10 0.907084 0.720515 0.510327
O O11 0.908312 0.797404 0.731271
O O12 0.721540 0.676881 0.179608
O O13 0.251415 0.590709 0.606132
O O14 0.000000 0.500000 0.500000
O O15 0.000000 0.000000 0.500000
O O16 0.517051 0.435481 0.906487
O O17 0.198081 0.513248 0.920261
#
# Coordination Sequence:
#
# PCOD9003844 Si02
#       8
#     2   2   2   2   2   2   2   2
#     4  10  21  37  62  93 125 164 200 248 316 365
#     4   9  19  39  64  85 115 161 212 250 307 346
#     4  11  22  38  65  89 127 164 201 253 311 367
#     4   9  19  38  66  85 120 163 204 257 300 364
#     4  12  24  36  58 100 134 157 198 254 310 379
#     4   9  20  39  61  84 116 163 207 250 296 362
#     4  10  23  39  61  93 127 157 207 252 307 373
#     4  10  22  40  62  92 123 167 201 250 311 378
#
# _framework density 25.547433000000002
#
# number of rings (size 3 to 8) (size 9 to 14) (size 15 to 20)
#    0.000    2.000    1.250    1.500    3.500    3.000 
#    0.000    6.250   13.750    0.000    0.000    0.000 
#    0.000    0.000    0.000    0.000    0.000    0.000 
#
# Total GULP energy -89216.114088 kJ/mol
# GULP energy per Si atom -5576.007131 kJ/mol
# Density = 2.548929 g / cm^3
# Si number density = 25.547433 Si / 1000 Ang^3
#
#
#
# Elastic Constant Matrix: (Units=GPa)
#
#
# Indices 1 2 3 4 5 6 
#
# 1 48.9649 25.4548 19.0753 2.6781 8.7181 -2.3649
# 2 25.4548 90.2579 15.9624 -5.4192 -4.6625 7.8768
# 3 19.0753 15.9624 162.8976 -13.9169 16.9556 -11.8197
# 4 2.6781 -5.4192 -13.9169 39.6930 -5.2734 2.9582
# 5 8.7181 -4.6625 16.9556 -5.2734 36.1995 1.2598
# 6 -2.3649 7.8768 -11.8197 2.9582 1.2598 26.5827
#
#
#
# Elastic Compliance Matrix: (Units=1/GPa)
#
#
# Indices 1 2 3 4 5 6 
#
# 1 0.027463 -0.008628 -0.001600 -0.005029 -0.007890 0.005222
# 2 -0.008628 0.014732 -0.001144 0.003352 0.005218 -0.006262
# 3 -0.001600 -0.001144 0.007142 0.001816 -0.002958 0.003310
# 4 -0.005029 0.003352 0.001816 0.027578 0.004947 -0.003937
# 5 -0.007890 0.005218 -0.002958 0.004947 0.032500 -0.005654
# 6 0.005222 -0.006262 0.003310 -0.003937 -0.005654 0.042116
#
#
# Mechanical properties :
#
#
# Convention : Reuss Voigt Hill
#
# Bulk Modulus (GPa) = 37.60381 47.01172 42.30777
# Shear Modulus (GPa) = 27.30164 36.60358 31.95261
#
# Velocity S-wave (km/s) = 3.27259 3.78930 3.54038
# Velocity P-wave (km/s) = 5.38804 6.13080 5.77138
#
# Compressibility (1/GPa) = 0.02659305
#
# Stress axis : x y z
#
# Youngs Moduli (GPa) = 36.41218 67.87854 140.02595
#
# Poissons Ratio (x) = 0.58563 0.22405
# Poissons Ratio (y) = 0.31415 0.16025
# Poissons Ratio (z) = 0.05826 0.07768
#
# Static dielectric constant tensor:
#      x y z
#    x 2.010870 -0.029090 0.012600 
#    y -0.029090 2.165690 -0.018610 
#    z 0.012600 -0.018610 2.075970 
# 
# From -- ./inp_files/175338.got.cif
#   From: 2010.05.17/outbox.cif.g08.bks.cpg/sg2_88_cif.got.tgz:175338.got - 2010.06.03 11:33:40.
