data_PCOD9003068
_publ_section_title
;
Structure prediction by ZEFSAII (Michael W. Deem and Ramdas Pophale) SiO2 
 PCOD9003068
Probable space group: P -1
;
_chemical_formula_sum "Si O2"
_cell_formula_units_Z 14
_cell_length_a 5.078101
_cell_length_b 23.186934
_cell_length_c 5.265902
_cell_angle_alpha 69.573721
_cell_angle_beta 96.027312
_cell_angle_gamma 70.848750
_cell_volume 531.752412
_symmetry_space_group_name_H-M "P -1"
_symmetry_group_IT_number 2
_symmetry_cell_setting 'triclinic'
loop_
_space_group_symop_operation_xyz
x,y,z
-x,-y,-z
loop_
_atom_site_type_symbol
_atom_site_label
_atom_site_fract_x
_atom_site_fract_y
_atom_site_fract_z
Si Si1 0.128916 0.046273 0.291028
Si Si2 0.464048 0.832956 0.059957
Si Si3 0.646706 0.204249 0.397653
Si Si4 0.193275 0.558731 0.835001
Si Si5 0.768915 0.328188 0.043769
Si Si6 0.125697 0.397117 0.768398
Si Si7 0.237641 0.081935 0.748860
O O1 0.334839 0.059189 0.504352
O O2 0.864687 0.117029 0.102636
O O3 0.000000 0.000000 0.500000
O O4 0.233419 0.027255 0.040563
O O5 0.490599 0.777909 0.362976
O O6 0.612189 0.877188 0.143370
O O7 0.554845 0.805883 0.827157
O O8 0.767062 0.257426 0.224582
O O9 0.911506 0.134192 0.583546
O O10 0.232961 0.628931 0.771162
O O11 0.022094 0.436867 0.961040
O O12 0.053507 0.560675 0.547274
O O13 0.500000 0.500000 0.000000
O O14 0.464879 0.369990 0.813033
O O15 0.024123 0.335468 0.897193
#
# Coordination Sequence:
#
# PCOD9003068 Si02
#       7
#     2   2   2   2   2   2   2
#     4  10  21  37  57  86 118 152 199 248 296 366
#     4  10  22  38  58  85 116 157 200 246 309 362
#     4  10  23  37  59  83 119 153 200 251 303 370
#     4  10  24  44  67  95 130 169 213 264 319 378
#     4  10  26  41  65  95 129 166 216 263 319 381
#     4  10  25  40  65  94 127 163 214 257 322 373
#     4  10  21  38  57  85 115 155 197 245 305 360
#
# _framework density 26.328046000000001
#
# number of rings (size 3 to 8) (size 9 to 14) (size 15 to 20)
#    0.857    1.143    0.000    1.714    6.000    3.429 
#    0.000    0.000    0.000    0.000    0.000    0.000 
#    0.000    0.000    0.000    0.000    0.000    0.000 
#
# Total GULP energy -78275.256722 kJ/mol
# GULP energy per Si atom -5591.089766 kJ/mol
# Density = 2.626812 g / cm^3
# Si number density = 26.328046 Si / 1000 Ang^3
#
#
#
# Elastic Constant Matrix: (Units=GPa)
#
#
# Indices 1 2 3 4 5 6 
#
# 1 67.6122 15.8537 25.8488 17.5045 2.4693 3.1200
# 2 15.8537 91.1316 63.8610 10.8090 -8.3383 20.9208
# 3 25.8488 63.8610 196.5922 46.7844 -17.4113 -3.4019
# 4 17.5045 10.8090 46.7844 46.5906 10.4289 2.7804
# 5 2.4693 -8.3383 -17.4113 10.4289 37.8795 -4.0306
# 6 3.1200 20.9208 -3.4019 2.7804 -4.0306 45.8642
#
#
#
# Elastic Compliance Matrix: (Units=1/GPa)
#
#
# Indices 1 2 3 4 5 6 
#
# 1 0.016821 -0.002193 -0.000161 -0.005642 -0.000081 0.000179
# 2 -0.002193 0.017351 -0.006595 0.004189 -0.001138 -0.008609
# 3 -0.000161 -0.006595 0.010529 -0.010833 0.006920 0.005065
# 4 -0.005642 0.004189 -0.010833 0.037090 -0.014524 -0.005855
# 5 -0.000081 -0.001138 0.006920 -0.014524 0.033854 0.004894
# 6 0.000179 -0.008609 0.005065 -0.005855 0.004894 0.026879
#
#
# Mechanical properties :
#
#
# Convention : Reuss Voigt Hill
#
# Bulk Modulus (GPa) = 37.30721 62.94032 50.12376
# Shear Modulus (GPa) = 29.52360 42.71834 36.12097
#
# Velocity S-wave (km/s) = 3.35233 4.03245 3.70801
# Velocity P-wave (km/s) = 5.40232 6.75566 6.11653
#
# Compressibility (1/GPa) = 0.02680447
#
# Stress axis : x y z
#
# Youngs Moduli (GPa) = 59.44828 57.63312 94.97992
#
# Poissons Ratio (x) = 0.12639 0.01526
# Poissons Ratio (y) = 0.13037 0.62636
# Poissons Ratio (z) = 0.00955 0.38007
#
# Static dielectric constant tensor:
#      x y z
#    x 2.135810 -0.036230 -0.067490 
#    y -0.036230 2.157340 0.020310 
#    z -0.067490 0.020310 2.014870 
# 
# From -- ./inp_files/9349.got.cif
#   From: 2010.05.17/outbox.cif.g08.bks.cpg/sg2_5_cif.got.tgz:9349.got - 2010.06.03 11:33:40.
