data_PCOD9003538
_publ_section_title
;
Structure prediction by ZEFSAII (Michael W. Deem and Ramdas Pophale) SiO2 
 PCOD9003538
Probable space group: P -1
;
_chemical_formula_sum "Si O2"
_cell_formula_units_Z 16
_cell_length_a 7.944517
_cell_length_b 12.587054
_cell_length_c 11.885668
_cell_angle_alpha 89.221824
_cell_angle_beta 122.779970
_cell_angle_gamma 52.480360
_cell_volume 679.456171
_symmetry_space_group_name_H-M "P -1"
_symmetry_group_IT_number 2
_symmetry_cell_setting 'triclinic'
loop_
_space_group_symop_operation_xyz
x,y,z
-x,-y,-z
loop_
_atom_site_type_symbol
_atom_site_label
_atom_site_fract_x
_atom_site_fract_y
_atom_site_fract_z
Si Si1 0.773002 0.881226 0.847869
Si Si2 0.559875 0.254365 0.155555
Si Si3 0.402658 0.544986 0.135616
Si Si4 0.521763 0.195613 0.368191
Si Si5 0.345300 0.326250 0.757504
Si Si6 0.642290 0.147368 0.671141
Si Si7 0.218668 0.985509 0.949938
Si Si8 0.953556 0.444833 0.820315
O O1 0.543690 0.892000 0.708223
O O2 0.762936 0.989498 0.765304
O O3 0.098144 0.705159 0.968759
O O4 0.683656 0.949257 0.943343
O O5 0.547696 0.386073 0.128243
O O6 0.688691 0.191781 0.328498
O O7 0.701862 0.106993 0.134292
O O8 0.215881 0.357265 0.007221
O O9 0.620743 0.560468 0.221117
O O10 0.281782 0.545095 0.211916
O O11 0.631468 0.149451 0.534348
O O12 0.216901 0.379236 0.260026
O O13 0.341036 0.291753 0.626633
O O14 0.110386 0.365738 0.757602
O O15 0.653183 0.155112 0.917775
O O16 0.877690 0.141627 0.800268
#
# Coordination Sequence:
#
# PCOD9003538 Si02
#       8
#     2   2   2   2   2   2   2   2
#     4  11  19  38  63  88 117 168 212 250 308 376
#     4  10  21  37  60  94 120 163 212 261 308 363
#     4  11  18  38  69  91 121 156 214 266 305 355
#     4  11  22  38  60  87 135 165 198 266 319 372
#     4  10  21  39  64  94 121 166 211 263 305 366
#     4  11  22  38  57  92 131 166 202 256 324 376
#     4  10  21  37  62  91 122 159 219 254 304 376
#     4  10  21  38  62  95 120 161 217 260 303 370
#
# _framework density 23.548244
#
# number of rings (size 3 to 8) (size 9 to 14) (size 15 to 20)
#    0.000    1.500    5.000    1.875    0.000    4.500 
#    2.250    2.500    0.000    0.000    0.000    0.000 
#    0.000    0.000    0.000    0.000    0.000    0.000 
#
# Total GULP energy -89106.982046 kJ/mol
# GULP energy per Si atom -5569.186378 kJ/mol
# Density = 2.349465 g / cm^3
# Si number density = 23.548244 Si / 1000 Ang^3
#
#
#
# Elastic Constant Matrix: (Units=GPa)
#
#
# Indices 1 2 3 4 5 6 
#
# 1 63.8350 35.5171 19.6805 8.8916 -14.2402 -3.0410
# 2 35.5171 110.5246 41.9506 21.6840 -19.6662 -8.6047
# 3 19.6805 41.9506 61.7439 24.0192 -26.1837 -8.4483
# 4 8.8916 21.6840 24.0192 30.6399 -6.5392 -9.3823
# 5 -14.2402 -19.6662 -26.1837 -6.5392 26.8028 8.7287
# 6 -3.0410 -8.6047 -8.4483 -9.3823 8.7287 47.7701
#
#
#
# Elastic Compliance Matrix: (Units=1/GPa)
#
#
# Indices 1 2 3 4 5 6 
#
# 1 0.020196 -0.005219 0.000807 -0.001528 0.007714 -0.001221
# 2 -0.005219 0.013825 -0.006337 -0.003125 0.000298 0.000369
# 3 0.000807 -0.006337 0.043048 -0.023655 0.033440 -0.004233
# 4 -0.001528 -0.003125 -0.023655 0.053014 -0.016048 0.008501
# 5 0.007714 0.000298 0.033440 -0.016048 0.073687 -0.010157
# 6 -0.001221 0.000369 -0.004233 0.008501 -0.010157 0.023699
#
#
# Mechanical properties :
#
#
# Convention : Reuss Voigt Hill
#
# Bulk Modulus (GPa) = 17.99506 47.82222 32.90864
# Shear Modulus (GPa) = 18.69223 30.30625 24.49924
#
# Velocity S-wave (km/s) = 2.82047 3.59135 3.22900
# Velocity P-wave (km/s) = 4.27377 6.12775 5.28273
#
# Compressibility (1/GPa) = 0.05557079
#
# Stress axis : x y z
#
# Youngs Moduli (GPa) = 49.51530 72.33250 23.22977
#
# Poissons Ratio (x) = 0.37751 -0.01875
# Poissons Ratio (y) = 0.25842 0.14721
# Poissons Ratio (z) = -0.03996 0.45838
#
# Static dielectric constant tensor:
#      x y z
#    x 2.078650 -0.085560 -0.023780 
#    y -0.085560 1.972000 0.005040 
#    z -0.023780 0.005040 1.887630 
# 
# From -- ./inp_files/257063.got.cif
#   From: 2010.05.17/outbox.cif.g08.bks.cpg/sg2_129_cif.got.tgz:257063.got - 2010.06.03 11:33:40.
