data_PCOD9003046
_publ_section_title
;
Structure prediction by ZEFSAII (Michael W. Deem and Ramdas Pophale) SiO2 
 PCOD9003046
Probable space group: P -1
;
_chemical_formula_sum "Si O2"
_cell_formula_units_Z 16
_cell_length_a 7.693667
_cell_length_b 9.874246
_cell_length_c 17.302655
_cell_angle_alpha 49.687621
_cell_angle_beta 110.056291
_cell_angle_gamma 134.235095
_cell_volume 703.874423
_symmetry_space_group_name_H-M "P -1"
_symmetry_group_IT_number 2
_symmetry_cell_setting 'triclinic'
loop_
_space_group_symop_operation_xyz
x,y,z
-x,-y,-z
loop_
_atom_site_type_symbol
_atom_site_label
_atom_site_fract_x
_atom_site_fract_y
_atom_site_fract_z
Si Si1 0.453099 0.785610 0.263705
Si Si2 0.358527 0.691522 0.900642
Si Si3 0.997156 0.425625 0.234899
Si Si4 0.050066 0.975766 0.678043
Si Si5 0.143469 0.707322 0.380828
Si Si6 0.754576 0.561812 0.260028
Si Si7 0.650893 0.950070 0.586804
Si Si8 0.594320 0.554901 0.870776
O O1 0.286972 0.618119 0.228439
O O2 0.281977 0.668244 0.356957
O O3 0.519962 0.037134 0.171445
O O4 0.702952 0.841936 0.301835
O O5 0.514478 0.661214 0.878587
O O6 0.096419 0.558232 0.867344
O O7 0.344833 0.577886 0.020450
O O8 0.906921 0.165089 0.319412
O O9 0.865363 0.468582 0.261029
O O10 0.935508 0.068286 0.579618
O O11 0.831537 0.768724 0.778796
O O12 0.000000 0.500000 0.500000
O O13 0.961466 0.716209 0.299233
O O14 0.338600 0.958198 0.360072
O O15 0.510379 0.327355 0.348764
O O16 0.642729 0.624297 0.156593
O O17 0.500000 0.000000 0.500000
#
# Coordination Sequence:
#
# PCOD9003046 Si02
#       8
#     2   2   2   2   2   2   2   2
#     4  10  21  38  58  83 120 154 191 233 290 339
#     4   9  18  38  60  86 114 151 199 232 280 338
#     4   9  19  36  56  79 118 156 182 231 287 340
#     4  10  21  37  57  84 118 148 184 239 294 339
#     4  11  21  38  62  82 109 154 196 239 283 339
#     4   9  19  38  58  81 114 150 191 238 285 336
#     4  11  21  37  61  83 105 145 194 237 288 340
#     4   9  18  35  62  86 116 151 189 243 282 334
#
# _framework density 22.731327
#
# number of rings (size 3 to 8) (size 9 to 14) (size 15 to 20)
#    0.000    2.250    1.250    3.000    0.000    4.000 
#    0.000   19.375    0.000    0.000    0.000    0.000 
#    0.000    0.000    0.000    0.000    0.000    0.000 
#
# Total GULP energy -89230.977555 kJ/mol
# GULP energy per Si atom -5576.936097 kJ/mol
# Density = 2.267959 g / cm^3
# Si number density = 22.731327 Si / 1000 Ang^3
#
#
#
# Elastic Constant Matrix: (Units=GPa)
#
#
# Indices 1 2 3 4 5 6 
#
# 1 104.8943 17.8179 32.8169 11.7835 20.1438 17.1022
# 2 17.8179 132.7746 44.9697 40.1208 21.9836 31.6008
# 3 32.8169 44.9697 107.4662 23.0934 24.8669 15.9141
# 4 11.7835 40.1208 23.0934 36.7434 13.9450 13.2744
# 5 20.1438 21.9836 24.8669 13.9450 39.3613 6.6854
# 6 17.1022 31.6008 15.9141 13.2744 6.6854 40.2698
#
#
#
# Elastic Compliance Matrix: (Units=1/GPa)
#
#
# Indices 1 2 3 4 5 6 
#
# 1 0.011584 0.000952 -0.002313 -0.000263 -0.004233 -0.003964
# 2 0.000952 0.012973 -0.002237 -0.010250 -0.001661 -0.006046
# 3 -0.002313 -0.002237 0.012686 -0.002885 -0.004460 -0.000584
# 4 -0.000263 -0.010250 -0.002885 0.044634 -0.007420 -0.004186
# 5 -0.004233 -0.001661 -0.004460 -0.007420 0.033654 0.001723
# 6 -0.003964 -0.006046 -0.000584 -0.004186 0.001723 0.032585
#
#
# Mechanical properties :
#
#
# Convention : Reuss Voigt Hill
#
# Bulk Modulus (GPa) = 33.28075 59.59379 46.43727
# Shear Modulus (GPa) = 30.24330 39.91027 35.07678
#
# Velocity S-wave (km/s) = 3.65151 4.19470 3.93250
# Velocity P-wave (km/s) = 5.69656 7.05225 6.41034
#
# Compressibility (1/GPa) = 0.03004740
#
# Stress axis : x y z
#
# Youngs Moduli (GPa) = 86.32705 77.08553 78.82568
#
# Poissons Ratio (x) = -0.07342 0.18233
# Poissons Ratio (y) = -0.08222 0.17633
# Poissons Ratio (z) = 0.19968 0.17244
#
# Static dielectric constant tensor:
#      x y z
#    x 1.936660 0.004830 0.005420 
#    y 0.004830 1.868420 0.015000 
#    z 0.005420 0.015000 1.879260 
# 
# From -- ./inp_files/474344.got.cif
#   From: 2010.05.17/outbox.cif.g08.bks.cpg/sg2_238_cif.got.tgz:474344.got - 2010.06.03 11:33:40.
