data_PCOD9003938
_publ_section_title
;
Structure prediction by ZEFSAII (Michael W. Deem and Ramdas Pophale) SiO2 
 PCOD9003938
Probable space group: P -1
;
_chemical_formula_sum "Si O2"
_cell_formula_units_Z 14
_cell_length_a 12.354594
_cell_length_b 5.439419
_cell_length_c 18.003183
_cell_angle_alpha 122.674820
_cell_angle_beta 149.034918
_cell_angle_gamma 58.552236
_cell_volume 519.125124
_symmetry_space_group_name_H-M "P -1"
_symmetry_group_IT_number 2
_symmetry_cell_setting 'triclinic'
loop_
_space_group_symop_operation_xyz
x,y,z
-x,-y,-z
loop_
_atom_site_type_symbol
_atom_site_label
_atom_site_fract_x
_atom_site_fract_y
_atom_site_fract_z
Si Si1 0.175634 0.197328 0.354480
Si Si2 0.800475 0.278334 0.374448
Si Si3 0.247304 0.278249 0.157307
Si Si4 0.880857 0.703897 0.075946
Si Si5 0.806567 0.714048 0.192281
Si Si6 0.554225 0.125178 0.662895
Si Si7 0.714199 0.736508 0.296308
O O1 0.346500 0.128425 0.378416
O O2 0.023546 0.492402 0.292720
O O3 0.036666 0.931769 0.230836
O O4 0.306728 0.193784 0.506995
O O5 0.644758 0.543340 0.290051
O O6 0.026694 0.330833 0.549436
O O7 0.842226 0.043564 0.292330
O O8 0.687032 0.089450 0.336235
O O9 0.019745 0.396678 0.082446
O O10 0.366060 0.029197 0.238945
O O11 0.346266 0.582078 0.253559
O O12 0.219174 0.167068 0.038833
O O13 0.737705 0.687552 0.062335
O O14 0.666406 0.639972 0.169078
#
# Coordination Sequence:
#
# PCOD9003938 Si02
#       7
#     2   2   2   2   2   2   2
#     4  10  21  31  52  72  97 128 173 211 244 282
#     4   8  15  27  42  63  97 126 146 186 250 298
#     4  10  22  37  49  66  98 138 170 203 248 291
#     4  10  21  31  52  72  97 128 173 211 244 282
#     4  10  17  28  46  76  96 124 160 210 237 290
#     4  10  22  37  49  66  98 138 170 203 248 291
#     4   8  15  27  42  63  97 126 146 186 250 298
#
# _framework density 26.968449
#
# number of rings (size 3 to 8) (size 9 to 14) (size 15 to 20)
#    0.857    1.714    1.429    0.857    4.000    3.429 
#    0.000    0.000    0.000    0.000    0.000    0.000 
#    0.000    9.143    0.000    1.143    0.000    0.000 
#
# Total GULP energy -78271.793953 kJ/mol
# GULP energy per Si atom -5590.842425 kJ/mol
# Density = 2.690707 g / cm^3
# Si number density = 26.968449 Si / 1000 Ang^3
#
#
#
# Elastic Constant Matrix: (Units=GPa)
#
#
# Indices 1 2 3 4 5 6 
#
# 1 83.7376 27.1180 25.8347 -1.3698 -35.6305 8.2541
# 2 27.1180 139.5980 28.6035 -34.4506 -14.8340 17.3728
# 3 25.8347 28.6035 128.0370 -1.7830 -34.9566 17.7966
# 4 -1.3698 -34.4506 -1.7830 34.8330 8.7101 -10.3440
# 5 -35.6305 -14.8340 -34.9566 8.7101 51.3929 -8.0194
# 6 8.2541 17.3728 17.7966 -10.3440 -8.0194 43.0518
#
#
#
# Elastic Compliance Matrix: (Units=1/GPa)
#
#
# Indices 1 2 3 4 5 6 
#
# 1 0.018633 -0.003879 0.000855 -0.006839 0.013301 -0.001526
# 2 -0.003879 0.010854 -0.002232 0.011043 -0.003044 -0.000627
# 3 0.000855 -0.002232 0.010545 -0.004462 0.007359 -0.003324
# 4 -0.006839 0.011043 -0.004462 0.044013 -0.010918 0.007240
# 5 0.013301 -0.003044 0.007359 -0.010918 0.034571 -0.000547
# 6 -0.001526 -0.000627 -0.003324 0.007240 -0.000547 0.026785
#
#
# Mechanical properties :
#
#
# Convention : Reuss Voigt Hill
#
# Bulk Modulus (GPa) = 33.87570 57.16499 45.52034
# Shear Modulus (GPa) = 30.16508 43.84331 37.00420
#
# Velocity S-wave (km/s) = 3.34807 4.03640 3.70824
# Velocity P-wave (km/s) = 5.24735 6.55488 5.93722
#
# Compressibility (1/GPa) = 0.02951969
#
# Stress axis : x y z
#
# Youngs Moduli (GPa) = 53.66922 92.12959 94.82874
#
# Poissons Ratio (x) = 0.35740 -0.08111
# Poissons Ratio (y) = 0.20820 0.21169
# Poissons Ratio (z) = -0.04591 0.20566
#
# Static dielectric constant tensor:
#      x y z
#    x 2.216750 0.040140 -0.006260 
#    y 0.040140 2.126780 0.003200 
#    z -0.006260 0.003200 2.060580 
# 
# From -- ./inp_files/41577.got.cif
#   From: 2010.05.17/outbox.cif.g08.bks.cpg/sg2_21_cif.got.tgz:41577.got - 2010.06.03 11:33:40.
