data_PCOD9003226
_publ_section_title
;
Structure prediction by ZEFSAII (Michael W. Deem and Ramdas Pophale) SiO2 
 PCOD9003226
Probable space group: P -1
;
_chemical_formula_sum "Si O2"
_cell_formula_units_Z 12
_cell_length_a 9.714504
_cell_length_b 14.259779
_cell_length_c 5.153403
_cell_angle_alpha 68.203336
_cell_angle_beta 75.666726
_cell_angle_gamma 114.856074
_cell_volume 527.924370
_symmetry_space_group_name_H-M "P -1"
_symmetry_group_IT_number 2
_symmetry_cell_setting 'triclinic'
loop_
_space_group_symop_operation_xyz
x,y,z
-x,-y,-z
loop_
_atom_site_type_symbol
_atom_site_label
_atom_site_fract_x
_atom_site_fract_y
_atom_site_fract_z
Si Si1 0.061745 0.893286 0.845086
Si Si2 0.266045 0.704103 0.973773
Si Si3 0.579326 0.142713 0.757984
Si Si4 0.215896 0.042970 0.124183
Si Si5 0.897688 0.610361 0.200104
Si Si6 0.663728 0.490730 0.931281
O O1 0.198999 0.985311 0.472324
O O2 0.139962 0.937531 0.048833
O O3 0.903352 0.907253 0.879763
O O4 0.988527 0.754536 0.964673
O O5 0.337943 0.806868 0.611575
O O6 0.291207 0.768210 0.171611
O O7 0.370991 0.641757 0.972777
O O8 0.061817 0.601585 0.134615
O O9 0.500000 0.000000 0.000000
O O10 0.411221 0.145699 0.857724
O O11 0.796340 0.574553 0.554989
O O12 0.761687 0.533889 0.116097
O O13 0.500000 0.500000 0.000000
#
# Coordination Sequence:
#
# PCOD9003226 Si02
#       6
#     2   2   2   2   2   2
#     4  10  21  37  63  90 128 174 210 264 329 384
#     4  12  26  44  70  99 136 178 221 273 335 392
#     4  12  24  41  69  99 138 173 223 268 332 396
#     4  10  21  37  58  95 131 166 218 261 319 390
#     4  12  24  46  70  93 135 173 226 273 336 393
#     4  12  28  45  70  99 132 173 230 278 334 388
#
# _framework density 22.730529000000001
#
# number of rings (size 3 to 8) (size 9 to 14) (size 15 to 20)
#    0.000    0.667    0.000    8.000    4.667    0.000 
#    0.000    0.000    0.000    0.000    0.000    0.000 
#    0.000    0.000    0.000    0.000    0.000    0.000 
#
# Total GULP energy -67201.991290 kJ/mol
# GULP energy per Si atom -5600.165941 kJ/mol
# Density = 2.267879 g / cm^3
# Si number density = 22.730529 Si / 1000 Ang^3
#
#
#
# Elastic Constant Matrix: (Units=GPa)
#
#
# Indices 1 2 3 4 5 6 
#
# 1 118.7233 9.6257 14.4118 -6.4167 -15.6988 -11.0880
# 2 9.6257 52.6105 -34.2807 -4.9481 17.4266 -5.2211
# 3 14.4118 -34.2807 72.7621 4.9014 -11.6394 -3.9131
# 4 -6.4167 -4.9481 4.9014 29.8560 -3.5035 4.5603
# 5 -15.6988 17.4266 -11.6394 -3.5035 33.2889 -5.9247
# 6 -11.0880 -5.2211 -3.9131 4.5603 -5.9247 33.0847
#
#
#
# Elastic Compliance Matrix: (Units=1/GPa)
#
#
# Indices 1 2 3 4 5 6 
#
# 1 0.010977 -0.006810 -0.004063 0.002356 0.008149 0.003258
# 2 -0.006810 0.036252 0.015996 -0.000360 -0.016193 0.002480
# 3 -0.004063 0.015996 0.022120 -0.002682 -0.002168 0.003760
# 4 0.002356 -0.000360 -0.002682 0.035368 0.003399 -0.003851
# 5 0.008149 -0.016193 -0.002168 0.003399 0.043240 0.007194
# 6 0.003258 0.002480 0.003760 -0.003851 0.007194 0.033973
#
#
# Mechanical properties :
#
#
# Convention : Reuss Voigt Hill
#
# Bulk Modulus (GPa) = 12.56329 24.84551 18.70440
# Shear Modulus (GPa) = 25.22486 36.20186 30.71336
#
# Velocity S-wave (km/s) = 3.33488 3.99514 3.67985
# Velocity P-wave (km/s) = 4.51305 5.67765 5.12851
#
# Compressibility (1/GPa) = 0.07959699
#
# Stress axis : x y z
#
# Youngs Moduli (GPa) = 91.09550 27.58433 45.20721
#
# Poissons Ratio (x) = 0.18785 0.18366
# Poissons Ratio (y) = 0.62036 -0.72313
# Poissons Ratio (z) = 0.37008 -0.44124
#
# Static dielectric constant tensor:
#      x y z
#    x 1.901420 -0.022130 0.009720 
#    y -0.022130 1.826010 -0.000110 
#    z 0.009720 -0.000110 1.793410 
# 
# From -- ./inp_files/36889.got.cif
#   From: 2010.05.17/outbox.cif.g08.bks.cpg/sg2_19_cif.got.tgz:36889.got - 2010.06.03 11:33:40.
