data_PCOD9003304
_publ_section_title
;
Structure prediction by ZEFSAII (Michael W. Deem and Ramdas Pophale) SiO2 
 PCOD9003304
Probable space group: P -1
;
_chemical_formula_sum "Si O2"
_cell_formula_units_Z 14
_cell_length_a 17.096181
_cell_length_b 7.180964
_cell_length_c 5.312168
_cell_angle_alpha 106.718765
_cell_angle_beta 85.261367
_cell_angle_gamma 117.096371
_cell_volume 555.139831
_symmetry_space_group_name_H-M "P -1"
_symmetry_group_IT_number 2
_symmetry_cell_setting 'triclinic'
loop_
_space_group_symop_operation_xyz
x,y,z
-x,-y,-z
loop_
_atom_site_type_symbol
_atom_site_label
_atom_site_fract_x
_atom_site_fract_y
_atom_site_fract_z
Si Si1 0.895044 0.526023 0.123562
Si Si2 0.759775 0.038008 0.893266
Si Si3 0.367534 0.207409 0.795419
Si Si4 0.855423 0.874208 0.448606
Si Si5 0.404808 0.938949 0.291366
Si Si6 0.980753 0.754522 0.675656
Si Si7 0.533609 0.337592 0.131107
O O1 0.831988 0.642338 0.237416
O O2 0.951561 0.581755 0.386078
O O3 0.841602 0.271385 0.998009
O O4 0.952208 0.647724 0.913255
O O5 0.677119 0.081440 0.863572
O O6 0.780939 0.916440 0.614375
O O7 0.727145 0.885772 0.087638
O O8 0.401530 0.422211 0.695992
O O9 0.378868 0.009976 0.588228
O O10 0.441174 0.311005 0.034593
O O11 0.920783 0.876744 0.662797
O O12 0.919458 0.068558 0.325934
O O13 0.497344 0.146803 0.273959
O O14 0.419635 0.733054 0.131570
#
# Coordination Sequence:
#
# PCOD9003304 Si02
#       7
#     2   2   2   2   2   2   2
#     4  10  22  42  62  93 123 166 207 263 304 373
#     4  11  25  36  56  95 123 160 203 252 326 362
#     4  10  21  38  59  86 118 158 203 251 303 376
#     4   9  22  41  62  89 122 164 208 262 304 374
#     4  10  21  37  59  88 117 158 199 257 303 374
#     4   9  21  43  67  86 124 165 218 252 311 359
#     4   9  20  39  61  83 114 157 210 245 306 362
#
# _framework density 25.218872000000001
#
# number of rings (size 3 to 8) (size 9 to 14) (size 15 to 20)
#    0.857    1.429    0.000    1.286    2.000    5.714 
#    0.000    2.857    0.000    0.000    0.000    0.000 
#    0.000    0.000    0.000    0.000    0.000    0.000 
#
# Total GULP energy -78238.097152 kJ/mol
# GULP energy per Si atom -5588.435511 kJ/mol
# Density = 2.516147 g / cm^3
# Si number density = 25.218872 Si / 1000 Ang^3
#
#
#
# Elastic Constant Matrix: (Units=GPa)
#
#
# Indices 1 2 3 4 5 6 
#
# 1 70.4461 28.3786 21.9748 1.2565 -12.5743 -4.1732
# 2 28.3786 99.1574 50.9197 -5.4674 -8.4604 10.0882
# 3 21.9748 50.9197 154.6231 -7.5206 -17.6445 -2.6041
# 4 1.2565 -5.4674 -7.5206 39.6358 -6.6247 -6.2162
# 5 -12.5743 -8.4604 -17.6445 -6.6247 45.7625 6.1070
# 6 -4.1732 10.0882 -2.6041 -6.2162 6.1070 23.4714
#
#
#
# Elastic Compliance Matrix: (Units=1/GPa)
#
#
# Indices 1 2 3 4 5 6 
#
# 1 0.017078 -0.004853 -0.000414 -0.000112 0.003052 0.004253
# 2 -0.004853 0.014438 -0.004084 0.000308 0.000827 -0.007655
# 3 -0.000414 -0.004084 0.008255 0.001780 0.002240 0.002486
# 4 -0.000112 0.000308 0.001780 0.027234 0.003819 0.006264
# 5 0.003052 0.000827 0.002240 0.003819 0.024932 -0.005040
# 6 0.004253 -0.007655 0.002486 0.006264 -0.005040 0.049898
#
#
# Mechanical properties :
#
#
# Convention : Reuss Voigt Hill
#
# Bulk Modulus (GPa) = 47.46759 58.53028 52.99894
# Shear Modulus (GPa) = 29.83952 36.63750 33.23851
#
# Velocity S-wave (km/s) = 3.44353 3.81567 3.63437
# Velocity P-wave (km/s) = 5.88843 6.53236 6.21874
#
# Compressibility (1/GPa) = 0.02106701
#
# Stress axis : x y z
#
# Youngs Moduli (GPa) = 58.55358 69.26244 121.13326
#
# Poissons Ratio (x) = 0.33616 0.05020
# Poissons Ratio (y) = 0.28419 0.49476
# Poissons Ratio (z) = 0.02427 0.28290
#
# Static dielectric constant tensor:
#      x y z
#    x 2.107500 -0.104910 0.056740 
#    y -0.104910 2.032160 -0.042400 
#    z 0.056740 -0.042400 2.005870 
# 
# From -- ./inp_files/42098.got.cif
#   From: 2010.05.17/outbox.cif.g08.bks.cpg/sg2_22_cif.got.tgz:42098.got - 2010.06.03 11:33:40.
