data_PCOD9003400
_publ_section_title
;
Structure prediction by ZEFSAII (Michael W. Deem and Ramdas Pophale) SiO2 
 PCOD9003400
Probable space group: P -1
;
_chemical_formula_sum "Si O2"
_cell_formula_units_Z 16
_cell_length_a 7.952671
_cell_length_b 17.576067
_cell_length_c 7.184811
_cell_angle_alpha 88.136351
_cell_angle_beta 122.143874
_cell_angle_gamma 114.516530
_cell_volume 750.209611
_symmetry_space_group_name_H-M "P -1"
_symmetry_group_IT_number 2
_symmetry_cell_setting 'triclinic'
loop_
_space_group_symop_operation_xyz
x,y,z
-x,-y,-z
loop_
_atom_site_type_symbol
_atom_site_label
_atom_site_fract_x
_atom_site_fract_y
_atom_site_fract_z
Si Si1 0.443883 0.866363 0.904985
Si Si2 0.821554 0.651169 0.693246
Si Si3 0.737234 0.064175 0.541993
Si Si4 0.044731 0.989702 0.810417
Si Si5 0.242601 0.370525 0.732781
Si Si6 0.444573 0.570364 0.753692
Si Si7 0.914289 0.164032 0.012999
Si Si8 0.203074 0.678696 0.645366
O O1 0.321231 0.897934 0.677164
O O2 0.320076 0.852888 0.029874
O O3 0.397861 0.772960 0.807848
O O4 0.697913 0.939246 0.071290
O O5 0.713370 0.661676 0.435974
O O6 0.625477 0.578557 0.703649
O O7 0.917279 0.736705 0.864384
O O8 0.034762 0.642715 0.731961
O O9 0.876888 0.012142 0.592506
O O10 0.500000 0.000000 0.500000
O O11 0.876165 0.132916 0.780360
O O12 0.010076 0.893051 0.806469
O O13 0.000000 0.000000 0.000000
O O14 0.300029 0.470605 0.729318
O O15 0.974709 0.316692 0.605753
O O16 0.405814 0.375166 0.988704
O O17 0.290365 0.615371 0.621097
#
# Coordination Sequence:
#
# PCOD9003400 Si02
#       8
#     2   2   2   2   2   2   2   2
#     4  11  22  42  57  85 123 150 193 255 283 343
#     4   9  22  39  60  92 122 154 201 249 286 362
#     4  11  23  38  61  83 113 159 197 239 292 349
#     4  10  21  37  60  85 113 155 204 233 289 359
#     4   9  22  42  59  98 116 154 208 235 298 372
#     4  11  20  41  69  81 128 161 185 255 303 342
#     4  10  22  40  58  85 121 151 198 246 289 344
#     4   9  23  39  60  93 121 154 204 242 295 362
#
# _framework density 21.327373000000001
#
# number of rings (size 3 to 8) (size 9 to 14) (size 15 to 20)
#    0.750    1.250    2.500    1.125    5.250    0.500 
#    2.250    2.500    0.000    0.000    0.000    0.000 
#    0.000    0.000    0.000    0.000    0.000    0.000 
#
# Total GULP energy -89165.073229 kJ/mol
# GULP energy per Si atom -5572.817077 kJ/mol
# Density = 2.127883 g / cm^3
# Si number density = 21.327373 Si / 1000 Ang^3
#
#
#
# Elastic Constant Matrix: (Units=GPa)
#
#
# Indices 1 2 3 4 5 6 
#
# 1 33.7557 13.5799 0.7635 -6.8721 -1.0268 1.8524
# 2 13.5799 45.2222 -1.1464 -0.2508 13.1744 -2.6015
# 3 0.7635 -1.1464 91.7515 5.4847 2.3718 -1.4431
# 4 -6.8721 -0.2508 5.4847 19.7724 -6.3514 -3.5462
# 5 -1.0268 13.1744 2.3718 -6.3514 26.6631 -3.6779
# 6 1.8524 -2.6015 -1.4431 -3.5462 -3.6779 19.3339
#
#
#
# Elastic Compliance Matrix: (Units=1/GPa)
#
#
# Indices 1 2 3 4 5 6 
#
# 1 0.040544 -0.016298 -0.002051 0.019057 0.014335 -0.000008
# 2 -0.016298 0.032774 0.001783 -0.012099 -0.019847 0.000110
# 3 -0.002051 0.001783 0.011308 -0.004880 -0.003158 -0.000215
# 4 0.019057 -0.012099 -0.004880 0.069040 0.025481 0.013692
# 5 0.014335 -0.019847 -0.003158 0.025481 0.055731 0.010996
# 6 -0.000008 0.000110 -0.000215 0.013692 0.010996 0.056325
#
#
# Mechanical properties :
#
#
# Convention : Reuss Voigt Hill
#
# Bulk Modulus (GPa) = 19.41967 21.90260 20.66113
# Shear Modulus (GPa) = 15.82184 23.65605 19.73895
#
# Velocity S-wave (km/s) = 2.72666 3.33406 3.04554
# Velocity P-wave (km/s) = 4.36328 5.01131 4.69848
#
# Compressibility (1/GPa) = 0.05149418
#
# Stress axis : x y z
#
# Youngs Moduli (GPa) = 24.66464 30.51238 88.43032
#
# Poissons Ratio (x) = 0.49729 0.18136
# Poissons Ratio (y) = 0.40199 -0.15769
# Poissons Ratio (z) = 0.05059 -0.05441
#
# Static dielectric constant tensor:
#      x y z
#    x 1.793610 -0.006240 -0.028430 
#    y -0.006240 1.777250 0.006880 
#    z -0.028430 0.006880 1.812700 
# 
# From -- ./inp_files/215220.got.cif
#   From: 2010.05.17/outbox.cif.g08.bks.cpg/sg2_108_cif.got.tgz:215220.got - 2010.06.03 11:33:40.
