data_PCOD9003284
_publ_section_title
;
Structure prediction by ZEFSAII (Michael W. Deem and Ramdas Pophale) SiO2 
 PCOD9003284
Probable space group: P -1
;
_chemical_formula_sum "Si O2"
_cell_formula_units_Z 14
_cell_length_a 5.008944
_cell_length_b 7.983372
_cell_length_c 17.871785
_cell_angle_alpha 122.357853
_cell_angle_beta 85.555925
_cell_angle_gamma 89.346864
_cell_volume 600.688109
_symmetry_space_group_name_H-M "P -1"
_symmetry_group_IT_number 2
_symmetry_cell_setting 'triclinic'
loop_
_space_group_symop_operation_xyz
x,y,z
-x,-y,-z
loop_
_atom_site_type_symbol
_atom_site_label
_atom_site_fract_x
_atom_site_fract_y
_atom_site_fract_z
Si Si1 0.557207 0.166307 0.100481
Si Si2 0.965385 0.688082 0.784082
Si Si3 0.769460 0.897436 0.528286
Si Si4 0.247692 0.940182 0.630591
Si Si5 0.437522 0.438100 0.903903
Si Si6 0.156703 0.545928 0.584922
Si Si7 0.024856 0.692624 0.195997
O O1 0.823841 0.173277 0.146635
O O2 0.547640 0.368857 0.101876
O O3 0.315928 0.191965 0.170059
O O4 0.500000 0.000000 0.000000
O O5 0.008884 0.629325 0.682812
O O6 0.974826 0.479728 0.781293
O O7 0.726348 0.674694 0.448584
O O8 0.947661 0.895729 0.599354
O O9 0.524014 0.003955 0.420645
O O10 0.000000 0.000000 0.500000
O O11 0.352731 0.722114 0.605620
O O12 0.166271 0.122099 0.728605
O O13 0.136040 0.377368 0.888843
O O14 0.670097 0.283946 0.829123
O O15 0.500000 0.500000 0.000000
O O16 0.000000 0.500000 0.500000
#
# Coordination Sequence:
#
# PCOD9003284 Si02
#       7
#     2   2   2   2   2   2   2
#     4  10  22  39  61  89 120 159 206 252 311 377
#     4  10  22  39  61  87 123 165 204 254 311 375
#     4  11  23  40  62  86 118 161 203 250 309 370
#     4  11  23  39  60  88 119 155 203 259 305 359
#     4  10  21  37  59  87 120 155 198 256 311 369
#     4  10  24  42  63  94 129 164 213 267 315 366
#     4  10  21  38  59  87 119 159 207 248 306 380
#
# _framework density 23.306607
#
# number of rings (size 3 to 8) (size 9 to 14) (size 15 to 20)
#    0.000    1.714    0.000    3.429    0.000    9.143 
#    0.000    0.000    0.000    0.000    0.000    0.000 
#    0.000    0.000    0.000    0.000    0.000    0.000 
#
# Total GULP energy -77996.454603 kJ/mol
# GULP energy per Si atom -5571.175329 kJ/mol
# Density = 2.325356 g / cm^3
# Si number density = 23.306607 Si / 1000 Ang^3
#
#
#
# Elastic Constant Matrix: (Units=GPa)
#
#
# Indices 1 2 3 4 5 6 
#
# 1 99.6564 11.7426 0.0164 2.3861 -8.6542 18.4293
# 2 11.7426 52.2859 9.5014 8.9554 -6.2987 2.6796
# 3 0.0164 9.5014 98.9493 -1.4058 -13.1837 8.1881
# 4 2.3861 8.9554 -1.4058 37.8627 -2.6508 -2.4152
# 5 -8.6542 -6.2987 -13.1837 -2.6508 37.9598 -2.8090
# 6 18.4293 2.6796 8.1881 -2.4152 -2.8090 12.5723
#
#
#
# Elastic Compliance Matrix: (Units=1/GPa)
#
#
# Indices 1 2 3 4 5 6 
#
# 1 0.014622 -0.002029 0.002289 -0.001641 0.002023 -0.022355
# 2 -0.002029 0.021010 -0.001747 -0.004819 0.002018 -0.000840
# 3 0.002289 -0.001747 0.011550 0.000331 0.003552 -0.009647
# 4 -0.001641 -0.004819 0.000331 0.028353 0.001589 0.009018
# 5 0.002023 0.002018 0.003552 0.001589 0.028557 0.000977
# 6 -0.022355 -0.000840 -0.009647 0.009018 0.000977 0.120722
#
#
# Mechanical properties :
#
#
# Convention : Reuss Voigt Hill
#
# Bulk Modulus (GPa) = 22.62105 32.60138 27.61121
# Shear Modulus (GPa) = 20.61632 32.98772 26.80202
#
# Velocity S-wave (km/s) = 2.97740 3.76624 3.39481
# Velocity P-wave (km/s) = 4.64185 5.73856 5.21910
#
# Compressibility (1/GPa) = 0.04420661
#
# Stress axis : x y z
#
# Youngs Moduli (GPa) = 68.38861 47.59546 86.58077
#
# Poissons Ratio (x) = 0.09659 -0.19815
# Poissons Ratio (y) = 0.13879 0.15127
# Poissons Ratio (z) = -0.15651 0.08316
#
# Static dielectric constant tensor:
#      x y z
#    x 2.001950 -0.122040 0.035830 
#    y -0.122040 2.136010 -0.010770 
#    z 0.035830 -0.010770 1.913040 
# 
# From -- ./inp_files/54410.got.cif
#   From: 2010.05.17/outbox.cif.g08.bks.cpg/sg2_28_cif.got.tgz:54410.got - 2010.06.03 11:33:40.
