data_PCOD9003792
_publ_section_title
;
Structure prediction by ZEFSAII (Michael W. Deem and Ramdas Pophale) SiO2 
 PCOD9003792
Probable space group: P -1
;
_chemical_formula_sum "Si O2"
_cell_formula_units_Z 16
_cell_length_a 23.947497
_cell_length_b 20.961166
_cell_length_c 9.332290
_cell_angle_alpha 29.995445
_cell_angle_beta 140.012226
_cell_angle_gamma 160.418817
_cell_volume 749.412637
_symmetry_space_group_name_H-M "P -1"
_symmetry_group_IT_number 2
_symmetry_cell_setting 'triclinic'
loop_
_space_group_symop_operation_xyz
x,y,z
-x,-y,-z
loop_
_atom_site_type_symbol
_atom_site_label
_atom_site_fract_x
_atom_site_fract_y
_atom_site_fract_z
Si Si1 0.097984 0.548751 0.472048
Si Si2 0.562203 0.854780 0.103078
Si Si3 0.364894 0.188746 0.399189
Si Si4 0.244227 0.549146 0.245408
Si Si5 0.138676 0.698043 0.764225
Si Si6 0.356366 0.557602 0.737644
Si Si7 0.603589 0.255615 0.267119
Si Si8 0.076958 0.016887 0.247688
O O1 0.199145 0.548844 0.718543
O O2 0.000000 0.500000 0.500000
O O3 0.954616 0.344471 0.464142
O O4 0.252674 0.838663 0.151620
O O5 0.585424 0.762807 0.430408
O O6 0.425711 0.761316 0.110222
O O7 0.460921 0.716708 0.022240
O O8 0.532601 0.410101 0.193634
O O9 0.193702 0.056759 0.324388
O O10 0.296739 0.968564 0.626675
O O11 0.279745 0.554918 0.470111
O O12 0.188354 0.620567 0.964494
O O13 0.084074 0.252530 0.462270
O O14 0.000000 0.500000 0.000000
O O15 0.444168 0.755259 0.647753
O O16 0.207330 0.284136 0.056648
O O17 0.500000 0.000000 0.500000
O O18 0.000000 0.000000 0.000000
#
# Coordination Sequence:
#
# PCOD9003792 Si02
#       8
#     2   2   2   2   2   2   2   2
#     4  11  23  36  55  85 129 162 191 243 304 365
#     4  10  22  39  57  86 123 159 197 245 302 353
#     4  11  23  37  65  93 121 156 204 253 300 353
#     4  10  21  37  62  90 121 159 199 254 299 353
#     4  12  21  35  60  95 123 150 203 250 308 351
#     4  10  23  39  64  89 121 164 203 246 297 360
#     4  10  23  39  57  88 127 160 198 240 305 362
#     4  10  21  41  62  90 122 157 204 253 296 352
#
# _framework density 21.350052999999999
#
# number of rings (size 3 to 8) (size 9 to 14) (size 15 to 20)
#    0.000    1.500    2.500    1.875   10.500    1.000 
#    0.000    1.250    0.000    0.000    0.000    0.000 
#    0.000    0.000    0.000    0.000    0.000    0.000 
#
# Total GULP energy -89152.457674 kJ/mol
# GULP energy per Si atom -5572.028605 kJ/mol
# Density = 2.130146 g / cm^3
# Si number density = 21.350053 Si / 1000 Ang^3
#
#
#
# Elastic Constant Matrix: (Units=GPa)
#
#
# Indices 1 2 3 4 5 6 
#
# 1 68.0251 32.5248 25.9317 4.9113 -11.9989 6.9245
# 2 32.5248 87.3951 23.8975 22.7830 -10.5080 7.0886
# 3 25.9317 23.8975 41.1436 0.2442 -9.8280 5.1912
# 4 4.9113 22.7830 0.2442 47.9507 6.3893 -0.3559
# 5 -11.9989 -10.5080 -9.8280 6.3893 28.4089 7.5195
# 6 6.9245 7.0886 5.1912 -0.3559 7.5195 45.0210
#
#
#
# Elastic Compliance Matrix: (Units=1/GPa)
#
#
# Indices 1 2 3 4 5 6 
#
# 1 0.021650 -0.004463 -0.009563 -0.000729 0.004974 -0.002361
# 2 -0.004463 0.017813 -0.005931 -0.008692 0.005236 -0.002378
# 3 -0.009563 -0.005931 0.035575 0.002775 0.006166 -0.002705
# 4 -0.000729 -0.008692 0.002775 0.026299 -0.009249 0.002913
# 5 0.004974 0.005236 0.006166 -0.009249 0.046118 -0.010076
# 6 -0.002361 -0.002378 -0.002705 0.002913 -0.010076 0.024967
#
#
# Mechanical properties :
#
#
# Convention : Reuss Voigt Hill
#
# Bulk Modulus (GPa) = 28.47021 40.14130 34.30576
# Shear Modulus (GPa) = 22.31688 31.89010 27.10349
#
# Velocity S-wave (km/s) = 3.23659 3.86901 3.56684
# Velocity P-wave (km/s) = 5.22793 6.22907 5.75033
#
# Compressibility (1/GPa) = 0.03512443
#
# Stress axis : x y z
#
# Youngs Moduli (GPa) = 46.18934 56.13772 28.10936
#
# Poissons Ratio (x) = 0.25053 0.26881
# Poissons Ratio (y) = 0.20613 0.16673
# Poissons Ratio (z) = 0.44171 0.33298
#
# Static dielectric constant tensor:
#      x y z
#    x 1.755310 0.025370 -0.029420 
#    y 0.025370 1.856460 -0.076290 
#    z -0.029420 -0.076290 1.946400 
# 
# From -- ./inp_files/204246.got.cif
#   From: 2010.05.17/outbox.cif.g08.bks.cpg/sg2_103_cif.got.tgz:204246.got - 2010.06.03 11:33:40.
