data_PCOD9003060
_publ_section_title
;
Structure prediction by ZEFSAII (Michael W. Deem and Ramdas Pophale) SiO2 
 PCOD9003060
Probable space group: P -1
;
_chemical_formula_sum "Si O2"
_cell_formula_units_Z 14
_cell_length_a 12.057609
_cell_length_b 8.498435
_cell_length_c 15.780346
_cell_angle_alpha 47.026023
_cell_angle_beta 131.678147
_cell_angle_gamma 146.938125
_cell_volume 627.425693
_symmetry_space_group_name_H-M "P -1"
_symmetry_group_IT_number 2
_symmetry_cell_setting 'triclinic'
loop_
_space_group_symop_operation_xyz
x,y,z
-x,-y,-z
loop_
_atom_site_type_symbol
_atom_site_label
_atom_site_fract_x
_atom_site_fract_y
_atom_site_fract_z
Si Si1 0.746989 0.510514 0.011639
Si Si2 0.093639 0.378154 0.503106
Si Si3 0.200445 0.520078 0.690047
Si Si4 0.208126 0.126809 0.962809
Si Si5 0.589460 0.998940 0.248677
Si Si6 0.269998 0.262790 0.505587
Si Si7 0.245121 0.719646 0.064618
O O1 0.679994 0.654036 0.978478
O O2 0.666840 0.342923 0.941949
O O3 0.710953 0.271895 0.142812
O O4 0.991547 0.810472 0.006288
O O5 0.226589 0.497509 0.612583
O O6 0.208892 0.420104 0.461631
O O7 0.996902 0.517076 0.393658
O O8 0.900377 0.010137 0.544544
O O9 0.166784 0.276119 0.820262
O O10 0.385291 0.847068 0.707007
O O11 0.312627 0.036776 0.997941
O O12 0.712086 0.901940 0.352366
O O13 0.348716 0.723828 0.199845
O O14 0.500000 0.500000 0.500000
O O15 0.000000 0.500000 0.000000
#
# Coordination Sequence:
#
# PCOD9003060 Si02
#       7
#     2   2   2   2   2   2   2
#     4   9  19  36  55  84 122 152 202 245 299 367
#     4   9  20  42  65  90 125 163 203 266 317 370
#     4   9  19  38  65  89 125 163 207 253 321 369
#     4   9  19  36  58  88 120 162 200 248 307 375
#     4  10  21  39  57  88 123 156 206 260 303 376
#     4  10  22  41  64  94 122 160 213 260 315 379
#     4  10  21  37  57  85 121 162 202 251 305 364
#
# _framework density 22.313399
#
# number of rings (size 3 to 8) (size 9 to 14) (size 15 to 20)
#    0.000    2.571    0.000    0.429    2.000    4.571 
#   23.143    6.429    0.000    0.000    0.000    0.000 
#    0.000    0.000    0.000    0.000    0.000    0.000 
#
# Total GULP energy -77964.544503 kJ/mol
# GULP energy per Si atom -5568.896036 kJ/mol
# Density = 2.226261 g / cm^3
# Si number density = 22.313399 Si / 1000 Ang^3
#
#
#
# Elastic Constant Matrix: (Units=GPa)
#
#
# Indices 1 2 3 4 5 6 
#
# 1 103.6181 35.4398 4.3619 2.8866 4.0112 -29.9656
# 2 35.4398 103.9265 14.8056 26.6088 -8.7132 -23.6649
# 3 4.3619 14.8056 61.2730 11.4014 2.7649 -12.6726
# 4 2.8866 26.6088 11.4014 43.1847 -8.8986 -6.5582
# 5 4.0112 -8.7132 2.7649 -8.8986 21.1969 -1.1630
# 6 -29.9656 -23.6649 -12.6726 -6.5582 -1.1630 48.5518
#
#
#
# Elastic Compliance Matrix: (Units=1/GPa)
#
#
# Indices 1 2 3 4 5 6 
#
# 1 0.012841 -0.003690 0.001207 0.001447 -0.003137 0.006562
# 2 -0.003690 0.013856 -0.001347 -0.006611 0.003977 0.003327
# 3 0.001207 -0.001347 0.018481 -0.004493 -0.004849 0.004189
# 4 0.001447 -0.006611 -0.004493 0.030616 0.010496 0.000885
# 5 -0.003137 0.003977 -0.004849 0.010496 0.054524 0.001461
# 6 0.006562 0.003327 0.004189 0.000885 0.001461 0.027516
#
#
# Mechanical properties :
#
#
# Convention : Reuss Voigt Hill
#
# Bulk Modulus (GPa) = 26.65336 42.00358 34.32847
# Shear Modulus (GPa) = 28.08982 36.86735 32.47859
#
# Velocity S-wave (km/s) = 3.55191 4.06920 3.81932
# Velocity P-wave (km/s) = 5.36585 6.39868 5.90489
#
# Compressibility (1/GPa) = 0.03751872
#
# Stress axis : x y z
#
# Youngs Moduli (GPa) = 77.87625 72.17146 54.10902
#
# Poissons Ratio (x) = 0.26631 -0.06531
# Poissons Ratio (y) = 0.28736 0.07287
# Poissons Ratio (z) = -0.09400 0.09719
#
# Static dielectric constant tensor:
#      x y z
#    x 0.873410 -1.504990 -1.502270 
#    y -1.504990 -0.401080 -2.252940 
#    z -1.502270 -2.252940 -0.405880 
# 
# From -- ./inp_files/572822.got.cif
#   From: 2010.05.17/outbox.cif.g08.bks.cpg/sg2_287_cif.got.tgz:572822.got - 2010.06.03 11:33:40.
