data_PCOD9003104
_publ_section_title
;
Structure prediction by ZEFSAII (Michael W. Deem and Ramdas Pophale) SiO2 
 PCOD9003104
Probable space group: P -1
;
_chemical_formula_sum "Si O2"
_cell_formula_units_Z 14
_cell_length_a 24.835333
_cell_length_b 15.120109
_cell_length_c 15.198246
_cell_angle_alpha 27.156430
_cell_angle_beta 162.579917
_cell_angle_gamma 161.874422
_cell_volume 522.583477
_symmetry_space_group_name_H-M "P -1"
_symmetry_group_IT_number 2
_symmetry_cell_setting 'triclinic'
loop_
_space_group_symop_operation_xyz
x,y,z
-x,-y,-z
loop_
_atom_site_type_symbol
_atom_site_label
_atom_site_fract_x
_atom_site_fract_y
_atom_site_fract_z
Si Si1 0.543216 0.844438 0.816967
Si Si2 0.178205 0.335473 0.039447
Si Si3 0.593986 0.332955 0.736102
Si Si4 0.964894 0.949417 0.686957
Si Si5 0.657787 0.988462 0.052193
Si Si6 0.738752 0.737858 0.952749
Si Si7 0.258365 0.566741 0.440697
O O1 0.324494 0.616651 0.604168
O O2 0.636816 0.138910 0.684854
O O3 0.794558 0.909586 0.127938
O O4 0.478158 0.774122 0.880277
O O5 0.344779 0.278229 0.383349
O O6 0.304542 0.600092 0.064283
O O7 0.212909 0.367588 0.960620
O O8 0.875138 0.044923 0.852030
O O9 0.830935 0.640688 0.782995
O O10 0.545439 0.088522 0.834386
O O11 0.092394 0.151930 0.792109
O O12 0.748651 0.905956 0.339112
O O13 0.944439 0.278468 0.197849
O O14 0.440391 0.563001 0.672204
#
# Coordination Sequence:
#
# PCOD9003104 Si02
#       7
#     2   2   2   2   2   2   2
#     4  10  21  37  57  94 127 157 200 240 298 382
#     4   9  19  38  63  85 116 163 208 249 300 350
#     4  10  21  40  63  90 118 160 207 250 301 364
#     4  10  22  39  58  94 127 150 206 246 300 382
#     4  12  23  39  64  94 126 163 192 252 318 356
#     4   9  19  37  61  89 118 160 204 251 300 357
#     4  10  21  37  65  93 125 158 202 249 305 371
#
# _framework density 26.789977
#
# number of rings (size 3 to 8) (size 9 to 14) (size 15 to 20)
#    0.000    2.000    1.429    1.714    4.000    2.286 
#    2.571    7.143    0.000    0.000    0.000    0.000 
#    0.000    0.000    0.000    0.000    0.000    0.000 
#
# Total GULP energy -78507.277736 kJ/mol
# GULP energy per Si atom -5607.662695 kJ/mol
# Density = 2.672900 g / cm^3
# Si number density = 26.789977 Si / 1000 Ang^3
#
#
#
# Elastic Constant Matrix: (Units=GPa)
#
#
# Indices 1 2 3 4 5 6 
#
# 1 217.1014 39.9121 36.0051 -12.5122 -19.0933 -17.7449
# 2 39.9121 64.0617 11.4238 -7.3115 -5.6108 -8.8783
# 3 36.0051 11.4238 57.0288 -8.8852 -8.6342 -14.9991
# 4 -12.5122 -7.3115 -8.8852 44.1160 4.5328 2.6371
# 5 -19.0933 -5.6108 -8.6342 4.5328 32.5302 5.3042
# 6 -17.7449 -8.8783 -14.9991 2.6371 5.3042 57.7996
#
#
#
# Elastic Compliance Matrix: (Units=1/GPa)
#
#
# Indices 1 2 3 4 5 6 
#
# 1 0.005808 -0.002862 -0.002591 0.000408 0.002095 0.000460
# 2 -0.002862 0.018048 -0.001036 0.001814 0.000664 0.001481
# 3 -0.002591 -0.001036 0.021363 0.002848 0.002890 0.004194
# 4 0.000408 0.001814 0.002848 0.023854 -0.002055 0.000243
# 5 0.002095 0.000664 0.002890 -0.002055 0.033379 -0.001474
# 6 0.000460 0.001481 0.004194 0.000243 -0.001474 0.018882
#
#
# Mechanical properties :
#
#
# Convention : Reuss Voigt Hill
#
# Bulk Modulus (GPa) = 31.01724 56.98600 44.00162
# Shear Modulus (GPa) = 34.46864 43.61255 39.04060
#
# Velocity S-wave (km/s) = 3.59085 4.03915 3.82158
# Velocity P-wave (km/s) = 5.36612 6.56282 5.99441
#
# Compressibility (1/GPa) = 0.03224014
#
# Stress axis : x y z
#
# Youngs Moduli (GPa) = 172.19101 55.40672 46.81014
#
# Poissons Ratio (x) = 0.15859 0.12131
# Poissons Ratio (y) = 0.49286 0.04848
# Poissons Ratio (z) = 0.44622 0.05738
#
# Static dielectric constant tensor:
#      x y z
#    x 2.087710 0.039790 -0.028480 
#    y 0.039790 2.188370 0.002780 
#    z -0.028480 0.002780 2.031710 
# 
# From -- ./inp_files/263040.got.cif
#   From: 2010.05.17/outbox.cif.g08.bks.cpg/sg2_132_cif.got.tgz:263040.got - 2010.06.03 11:33:40.
