data_PCOD9003202
_publ_section_title
;
Structure prediction by ZEFSAII (Michael W. Deem and Ramdas Pophale) SiO2 
 PCOD9003202
Probable space group: P -1
;
_chemical_formula_sum "Si O2"
_cell_formula_units_Z 16
_cell_length_a 30.599799
_cell_length_b 28.022698
_cell_length_c 11.809469
_cell_angle_alpha 149.896477
_cell_angle_beta 28.785614
_cell_angle_gamma 170.811045
_cell_volume 778.691680
_symmetry_space_group_name_H-M "P -1"
_symmetry_group_IT_number 2
_symmetry_cell_setting 'triclinic'
loop_
_space_group_symop_operation_xyz
x,y,z
-x,-y,-z
loop_
_atom_site_type_symbol
_atom_site_label
_atom_site_fract_x
_atom_site_fract_y
_atom_site_fract_z
Si Si1 0.614022 0.840115 0.849040
Si Si2 0.510995 0.117696 0.172834
Si Si3 0.658952 0.710913 0.906827
Si Si4 0.257180 0.539081 0.832293
Si Si5 0.576852 0.392993 0.942480
Si Si6 0.329821 0.208366 0.693112
Si Si7 0.751520 0.766847 0.385412
Si Si8 0.922827 0.639470 0.479492
O O1 0.920126 0.193867 0.879631
O O2 0.381287 0.654335 0.913704
O O3 0.671424 0.790412 0.570162
O O4 0.519579 0.735691 0.979669
O O5 0.648575 0.269904 0.049464
O O6 0.711704 0.378248 0.336068
O O7 0.196295 0.848533 0.320032
O O8 0.500000 0.000000 0.000000
O O9 0.391502 0.371065 0.827284
O O10 0.659846 0.801513 0.005566
O O11 0.672378 0.767000 0.118021
O O12 0.911890 0.895471 0.660498
O O13 0.418152 0.614233 0.551121
O O14 0.755512 0.495042 0.677678
O O15 0.749348 0.663009 0.116509
O O16 0.045973 0.862475 0.608277
O O17 0.500000 0.500000 0.500000
#
# Coordination Sequence:
#
# PCOD9003202 Si02
#       8
#     2   2   2   2   2   2   2   2
#     4  11  25  38  61  87 132 177 218 259 294 363
#     4  11  25  46  75 101 124 153 198 268 346 411
#     4  11  21  38  57  87 135 178 228 269 311 348
#     4  11  22  41  61  91 121 161 210 257 324 380
#     4  11  24  37  60  88 130 177 226 257 306 357
#     4  10  21  37  58  89 128 172 216 270 310 365
#     4  10  22  36  55  86 129 188 224 265 287 351
#     4  11  23  42  69  98 128 165 209 267 326 390
#
# _framework density 20.547284000000001
#
# number of rings (size 3 to 8) (size 9 to 14) (size 15 to 20)
#    0.000    1.250    2.500    4.125    3.500    1.500 
#    0.000    0.000    0.000    4.500    0.000    0.000 
#    0.000    0.000    0.000    0.000    0.000    0.000 
#
# Total GULP energy -89210.351031 kJ/mol
# GULP energy per Si atom -5575.646939 kJ/mol
# Density = 2.050052 g / cm^3
# Si number density = 20.547284 Si / 1000 Ang^3
#
#
#
# Elastic Constant Matrix: (Units=GPa)
#
#
# Indices 1 2 3 4 5 6 
#
# 1 133.5938 41.0382 37.1513 7.8463 2.3319 -12.3477
# 2 41.0382 71.2383 27.8993 8.2275 6.3665 -1.8350
# 3 37.1513 27.8993 37.8194 5.2590 5.7441 -6.1440
# 4 7.8463 8.2275 5.2590 26.3781 -5.6872 -1.1014
# 5 2.3319 6.3665 5.7441 -5.6872 32.8532 3.5853
# 6 -12.3477 -1.8350 -6.1440 -1.1014 3.5853 35.4816
#
#
#
# Elastic Compliance Matrix: (Units=1/GPa)
#
#
# Indices 1 2 3 4 5 6 
#
# 1 0.010908 -0.003057 -0.008214 -0.000358 0.000962 0.002107
# 2 -0.003057 0.021090 -0.011999 -0.003837 -0.002224 -0.001945
# 3 -0.008214 -0.011999 0.045694 -0.004082 -0.006327 0.004946
# 4 -0.000358 -0.003837 -0.004082 0.041899 0.008803 -0.000619
# 5 0.000962 -0.002224 -0.006327 0.008803 0.033871 -0.004025
# 6 0.002107 -0.001945 0.004946 -0.000619 -0.004025 0.030060
#
#
# Mechanical properties :
#
#
# Convention : Reuss Voigt Hill
#
# Bulk Modulus (GPa) = 32.10182 50.53656 41.31919
# Shear Modulus (GPa) = 20.79468 28.04675 24.42071
#
# Velocity S-wave (km/s) = 3.18471 3.69858 3.45122
# Velocity P-wave (km/s) = 5.40189 6.54889 6.00285
#
# Compressibility (1/GPa) = 0.03115088
#
# Stress axis : x y z
#
# Youngs Moduli (GPa) = 91.67852 47.41660 21.88460
#
# Poissons Ratio (x) = 0.14496 0.17976
# Poissons Ratio (y) = 0.28028 0.26260
# Poissons Ratio (z) = 0.75303 0.56897
#
# Static dielectric constant tensor:
#      x y z
#    x 1.975270 0.286750 0.080690 
#    y 0.286750 2.133730 0.075430 
#    z 0.080690 0.075430 1.746110 
# 
# From -- ./inp_files/477809.got.cif
#   From: 2010.05.17/outbox.cif.g08.bks.cpg/sg2_239_cif.got.tgz:477809.got - 2010.06.03 11:33:40.
