data_PCOD9003492
_publ_section_title
;
Structure prediction by ZEFSAII (Michael W. Deem and Ramdas Pophale) SiO2 
 PCOD9003492
Probable space group: P -1
;
_chemical_formula_sum "Si O2"
_cell_formula_units_Z 16
_cell_length_a 16.074167
_cell_length_b 14.345957
_cell_length_c 9.813905
_cell_angle_alpha 74.962069
_cell_angle_beta 44.085433
_cell_angle_gamma 39.672249
_cell_volume 754.563618
_symmetry_space_group_name_H-M "P -1"
_symmetry_group_IT_number 2
_symmetry_cell_setting 'triclinic'
loop_
_space_group_symop_operation_xyz
x,y,z
-x,-y,-z
loop_
_atom_site_type_symbol
_atom_site_label
_atom_site_fract_x
_atom_site_fract_y
_atom_site_fract_z
Si Si1 0.253991 0.032880 0.046980
Si Si2 0.068335 0.112424 0.702393
Si Si3 0.436683 0.468632 0.970404
Si Si4 0.195273 0.338510 0.717690
Si Si5 0.769803 0.843233 0.706725
Si Si6 0.256274 0.085345 0.724327
Si Si7 0.919385 0.088242 0.410007
Si Si8 0.759128 0.587770 0.639429
O O1 0.136962 0.162463 0.268018
O O2 0.535360 0.819454 0.835158
O O3 0.115523 0.032235 0.168874
O O4 0.232507 0.109096 0.906378
O O5 0.229706 0.079379 0.444895
O O6 0.120977 0.093343 0.805606
O O7 0.799512 0.332507 0.903783
O O8 0.095765 0.988599 0.649567
O O9 0.651114 0.312566 0.669272
O O10 0.500000 0.500000 0.000000
O O11 0.373727 0.414305 0.144707
O O12 0.160544 0.256547 0.720936
O O13 0.195618 0.420877 0.570474
O O14 0.462041 0.137125 0.543040
O O15 0.000000 0.500000 0.000000
O O16 0.970135 0.618423 0.539039
O O17 0.500000 0.000000 0.000000
O O18 0.000000 0.000000 0.500000
#
# Coordination Sequence:
#
# PCOD9003492 Si02
#       8
#     2   2   2   2   2   2   2   2
#     4  11  22  43  65  89 123 169 210 255 314 377
#     4  11  24  40  60  95 130 160 207 268 307 371
#     4  11  20  38  63  94 124 160 207 262 317 365
#     4  10  22  41  64  82 127 175 211 246 307 388
#     4  11  24  37  62  93 128 160 209 261 310 371
#     4  10  25  42  61  91 128 167 208 257 319 363
#     4  12  20  40  66  90 121 163 208 256 315 370
#     4  10  21  37  60  91 118 163 206 252 308 366
#
# _framework density 21.20431
#
# number of rings (size 3 to 8) (size 9 to 14) (size 15 to 20)
#    0.000    1.250    3.750    1.500    7.000    2.000 
#    2.250    0.625    0.000    0.000    0.000    0.000 
#    0.000    0.000    0.000    0.000    0.000    0.000 
#
# Total GULP energy -89201.580536 kJ/mol
# GULP energy per Si atom -5575.098784 kJ/mol
# Density = 2.115605 g / cm^3
# Si number density = 21.204310 Si / 1000 Ang^3
#
#
#
# Elastic Constant Matrix: (Units=GPa)
#
#
# Indices 1 2 3 4 5 6 
#
# 1 91.1045 12.9272 -8.9908 4.6158 8.2375 6.4553
# 2 12.9272 60.4287 14.5386 2.1825 0.9977 4.6134
# 3 -8.9908 14.5386 72.6391 11.6616 -7.1151 1.5385
# 4 4.6158 2.1825 11.6616 22.8725 -0.5698 7.7717
# 5 8.2375 0.9977 -7.1151 -0.5698 36.6156 4.4801
# 6 6.4553 4.6134 1.5385 7.7717 4.4801 19.2754
#
#
#
# Elastic Compliance Matrix: (Units=1/GPa)
#
#
# Indices 1 2 3 4 5 6 
#
# 1 0.012074 -0.002867 0.002356 -0.002741 -0.001981 -0.001980
# 2 -0.002867 0.018435 -0.004363 0.002411 -0.000174 -0.004036
# 3 0.002356 -0.004363 0.016596 -0.009161 0.002419 0.002062
# 4 -0.002741 0.002411 -0.009161 0.056309 0.002361 -0.022180
# 5 -0.001981 -0.000174 0.002419 0.002361 0.029151 -0.007215
# 6 -0.001980 -0.004036 0.002062 -0.022180 -0.007215 0.063964
#
#
# Mechanical properties :
#
#
# Convention : Reuss Voigt Hill
#
# Bulk Modulus (GPa) = 26.76882 29.01359 27.89120
# Shear Modulus (GPa) = 22.85931 29.46587 26.16259
#
# Velocity S-wave (km/s) = 3.28693 3.73180 3.51641
# Velocity P-wave (km/s) = 5.20162 5.68164 5.44692
#
# Compressibility (1/GPa) = 0.03735689
#
# Stress axis : x y z
#
# Youngs Moduli (GPa) = 82.82262 54.24349 60.25704
#
# Poissons Ratio (x) = 0.15551 -0.14198
# Poissons Ratio (y) = 0.23745 0.26292
# Poissons Ratio (z) = -0.19515 0.23668
#
# Static dielectric constant tensor:
#      x y z
#    x 1.823770 0.068110 -0.167120 
#    y 0.068110 1.830410 -0.110340 
#    z -0.167120 -0.110340 2.060520 
# 
# From -- ./inp_files/315042.got.cif
#   From: 2010.05.17/outbox.cif.g08.bks.cpg/sg2_158_cif.got.tgz:315042.got - 2010.06.03 11:33:40.
