data_PCOD9003679
_publ_section_title
;
Structure prediction by ZEFSAII (Michael W. Deem and Ramdas Pophale) SiO2 
 PCOD9003679
Probable space group: P -1
;
_chemical_formula_sum "Si O2"
_cell_formula_units_Z 16
_cell_length_a 11.705980
_cell_length_b 11.520906
_cell_length_c 12.014433
_cell_angle_alpha 38.122792
_cell_angle_beta 32.777651
_cell_angle_gamma 52.293688
_cell_volume 535.490795
_symmetry_space_group_name_H-M "P -1"
_symmetry_group_IT_number 2
_symmetry_cell_setting 'triclinic'
loop_
_space_group_symop_operation_xyz
x,y,z
-x,-y,-z
loop_
_atom_site_type_symbol
_atom_site_label
_atom_site_fract_x
_atom_site_fract_y
_atom_site_fract_z
Si Si1 0.535919 0.902473 0.658716
Si Si2 0.224359 0.521566 0.232632
Si Si3 0.841563 0.992263 0.778803
Si Si4 0.531718 0.470442 0.762854
Si Si5 0.982676 0.003106 0.146389
Si Si6 0.020568 0.451101 0.796190
Si Si7 0.672529 0.964908 0.722268
Si Si8 0.722632 0.536628 0.221981
O O1 0.573913 0.035595 0.636911
O O2 0.500000 0.000000 0.500000
O O3 0.777036 0.860884 0.466363
O O4 0.333761 0.742770 0.963855
O O5 0.000000 0.500000 0.500000
O O6 0.595365 0.537846 0.784937
O O7 0.144991 0.466665 0.212735
O O8 0.697704 0.069369 0.742097
O O9 0.841469 0.040001 0.873713
O O10 0.782507 0.764443 0.992779
O O11 0.083780 0.046714 0.500009
O O12 0.754462 0.517682 0.479285
O O13 0.348508 0.542110 0.783130
O O14 0.456689 0.245130 0.000762
O O15 0.959742 0.222614 0.024947
O O16 0.000000 0.000000 0.000000
O O17 0.096001 0.531082 0.796328
O O18 0.500000 0.500000 0.500000
#
# Coordination Sequence:
#
# PCOD9003679 Si02
#       8
#     2   2   2   2   2   2   2   2
#     4  10  17  28  46  69  90 115 153 194 230 269
#     4   9  16  26  43  66  92 115 142 190 239 271
#     4   8  14  25  40  59  86 118 145 182 228 270
#     4   8  14  23  38  61  89 112 138 184 234 268
#     4  10  19  29  44  66  96 127 152 185 229 277
#     4   9  15  25  40  62  88 115 146 185 224 269
#     4   8  14  24  41  64  87 111 143 191 235 262
#     4   8  13  21  35  58  86 108 140 181 226 268
#
# _framework density 29.879131000000001
#
# number of rings (size 3 to 8) (size 9 to 14) (size 15 to 20)
#    0.000    3.250    1.250    0.000    0.000    0.000 
#    0.000    0.000    0.000   12.750    0.000    0.000 
#    0.000   91.000    0.000    1.500    0.000    0.000 
#
# Total GULP energy -89422.967166 kJ/mol
# GULP energy per Si atom -5588.935448 kJ/mol
# Density = 2.981112 g / cm^3
# Si number density = 29.879131 Si / 1000 Ang^3
#
#
#
# Elastic Constant Matrix: (Units=GPa)
#
#
# Indices 1 2 3 4 5 6 
#
# 1 365.5622 82.8605 40.9074 14.8188 -11.1949 98.2144
# 2 82.8605 99.1236 45.4823 1.7959 4.9613 31.1346
# 3 40.9074 45.4823 212.1856 -19.8044 -12.5806 11.1112
# 4 14.8188 1.7959 -19.8044 60.9813 -1.1354 11.6777
# 5 -11.1949 4.9613 -12.5806 -1.1354 55.4418 12.3003
# 6 98.2144 31.1346 11.1112 11.6777 12.3003 62.5344
#
#
#
# Elastic Compliance Matrix: (Units=1/GPa)
#
#
# Indices 1 2 3 4 5 6 
#
# 1 0.005549 -0.002223 0.000068 0.000392 0.003189 -0.008321
# 2 -0.002223 0.014053 -0.002566 -0.000227 -0.001700 -0.002672
# 3 0.000068 -0.002566 0.005561 0.001995 0.001661 -0.000517
# 4 0.000392 -0.000227 0.001995 0.017870 0.001933 -0.004574
# 5 0.003189 -0.001700 0.001661 0.001933 0.021246 -0.008997
# 6 -0.008321 -0.002672 -0.000517 -0.004574 -0.008997 0.033106
#
#
# Mechanical properties :
#
#
# Convention : Reuss Voigt Hill
#
# Bulk Modulus (GPa) = 63.60529 112.81910 88.21220
# Shear Modulus (GPa) = 44.61638 69.63292 57.12465
#
# Velocity S-wave (km/s) = 3.86842 4.83275 4.37722
# Velocity P-wave (km/s) = 6.42547 8.30548 7.42522
#
# Compressibility (1/GPa) = 0.01572196
#
# Stress axis : x y z
#
# Youngs Moduli (GPa) = 180.20847 71.16143 179.80970
#
# Poissons Ratio (x) = 0.15819 -0.01224
# Poissons Ratio (y) = 0.40061 0.46133
# Poissons Ratio (z) = -0.01227 0.18258
#
# Static dielectric constant tensor:
#      x y z
#    x 2.532670 -0.082880 0.052600 
#    y -0.082880 2.332630 0.072740 
#    z 0.052600 0.072740 2.287530 
# 
# From -- ./inp_files/435554.got.cif
#   From: 2010.05.17/outbox.cif.g08.bks.cpg/sg2_218_cif.got.tgz:435554.got - 2010.06.03 11:33:40.
