data_PCOD9003741
_publ_section_title
;
Structure prediction by ZEFSAII (Michael W. Deem and Ramdas Pophale) SiO2 
 PCOD9003741
Probable space group: P -1
;
_chemical_formula_sum "Si O2"
_cell_formula_units_Z 16
_cell_length_a 23.478712
_cell_length_b 17.356872
_cell_length_c 5.156843
_cell_angle_alpha 92.174390
_cell_angle_beta 87.253944
_cell_angle_gamma 19.106668
_cell_volume 664.464951
_symmetry_space_group_name_H-M "P -1"
_symmetry_group_IT_number 2
_symmetry_cell_setting 'triclinic'
loop_
_space_group_symop_operation_xyz
x,y,z
-x,-y,-z
loop_
_atom_site_type_symbol
_atom_site_label
_atom_site_fract_x
_atom_site_fract_y
_atom_site_fract_z
Si Si1 0.793623 0.853651 0.980404
Si Si2 0.916175 0.412006 0.340086
Si Si3 0.467798 0.352585 0.304463
Si Si4 0.219177 0.791558 0.111993
Si Si5 0.335533 0.755115 0.702274
Si Si6 0.906445 0.557057 0.706049
Si Si7 0.816685 0.309074 0.207051
Si Si8 0.078875 0.698921 0.189580
O O1 0.936067 0.676878 0.168649
O O2 0.587751 0.143520 0.079046
O O3 0.785521 0.771507 0.923647
O O4 0.890221 0.792079 0.758526
O O5 0.816140 0.611536 0.537553
O O6 0.883562 0.387736 0.555907
O O7 0.890516 0.403030 0.065346
O O8 0.339327 0.582870 0.237296
O O9 0.624274 0.207723 0.358351
O O10 0.351833 0.455875 0.549983
O O11 0.312381 0.751689 0.001378
O O12 0.203590 0.755528 0.859705
O O13 0.011455 0.069456 0.266947
O O14 0.500000 0.500000 0.500000
O O15 0.129873 0.008722 0.698087
O O16 0.000000 0.500000 0.500000
O O17 0.822195 0.352206 0.948981
#
# Coordination Sequence:
#
# PCOD9003741 Si02
#       8
#     2   2   2   2   2   2   2   2
#     4  10  21  37  62 107 125 165 202 274 325 391
#     4  11  20  40  64  94 127 162 216 257 318 385
#     4  12  22  38  65  91 128 163 221 270 325 375
#     4  10  23  40  57  83 125 175 222 261 323 371
#     4  11  22  38  58  93 124 164 217 274 325 368
#     4   9  19  37  65  96 137 157 199 260 342 389
#     4  10  24  42  55  87 125 180 221 262 310 383
#     4  11  25  39  65  91 129 175 219 262 315 390
#
# _framework density 24.079522999999998
#
# number of rings (size 3 to 8) (size 9 to 14) (size 15 to 20)
#    0.000    1.500    3.750    0.750    3.500    4.000 
#    0.000    0.000    0.000    1.500    0.000    0.000 
#    0.000    0.000    0.000    0.000    0.000    0.000 
#
# Total GULP energy -89114.181980 kJ/mol
# GULP energy per Si atom -5569.636374 kJ/mol
# Density = 2.402472 g / cm^3
# Si number density = 24.079523 Si / 1000 Ang^3
#
#
#
# Elastic Constant Matrix: (Units=GPa)
#
#
# Indices 1 2 3 4 5 6 
#
# 1 96.6789 21.6396 32.1362 0.4569 -0.6651 8.4298
# 2 21.6396 44.2218 39.2310 -0.2165 -16.5000 6.2423
# 3 32.1362 39.2310 116.6746 2.2328 -22.9465 -3.9126
# 4 0.4569 -0.2165 2.2328 32.1764 -1.0778 -6.4096
# 5 -0.6651 -16.5000 -22.9465 -1.0778 60.8772 -3.4061
# 6 8.4298 6.2423 -3.9126 -6.4096 -3.4061 25.4887
#
#
#
# Elastic Compliance Matrix: (Units=1/GPa)
#
#
# Indices 1 2 3 4 5 6 
#
# 1 0.012459 -0.004007 -0.002633 -0.000904 -0.002186 -0.004063
# 2 -0.004007 0.037336 -0.010643 -0.000528 0.005560 -0.008842
# 3 -0.002633 -0.010643 0.013569 0.000300 0.002541 0.005975
# 4 -0.000904 -0.000528 0.000300 0.032871 0.001039 0.008879
# 5 -0.002186 0.005560 0.002541 0.001039 0.019029 0.002555
# 6 -0.004063 -0.008842 0.005975 0.008879 0.002555 0.046234
#
#
# Mechanical properties :
#
#
# Convention : Reuss Voigt Hill
#
# Bulk Modulus (GPa) = 34.72549 49.28766 42.00657
# Shear Modulus (GPa) = 24.31146 34.67969 29.49558
#
# Velocity S-wave (km/s) = 3.18092 3.79913 3.50369
# Velocity P-wave (km/s) = 5.28616 6.30537 5.81812
#
# Compressibility (1/GPa) = 0.02879729
#
# Stress axis : x y z
#
# Youngs Moduli (GPa) = 80.26187 26.78348 73.69680
#
# Poissons Ratio (x) = 0.10733 0.19405
# Poissons Ratio (y) = 0.32165 0.78437
# Poissons Ratio (z) = 0.21133 0.28506
#
# Static dielectric constant tensor:
#      x y z
#    x 2.104010 0.016700 0.174330 
#    y 0.016700 1.965550 -0.014520 
#    z 0.174330 -0.014520 2.099740 
# 
# From -- ./inp_files/83375.got.cif
#   From: 2010.05.17/outbox.cif.g08.bks.cpg/sg2_42_cif.got.tgz:83375.got - 2010.06.03 11:33:40.
