data_PCOD9003628
_publ_section_title
;
Structure prediction by ZEFSAII (Michael W. Deem and Ramdas Pophale) SiO2 
 PCOD9003628
Probable space group: P -1
;
_chemical_formula_sum "Si O2"
_cell_formula_units_Z 16
_cell_length_a 11.684046
_cell_length_b 12.899866
_cell_length_c 9.440424
_cell_angle_alpha 45.233412
_cell_angle_beta 139.020282
_cell_angle_gamma 122.460618
_cell_volume 662.456264
_symmetry_space_group_name_H-M "P -1"
_symmetry_group_IT_number 2
_symmetry_cell_setting 'triclinic'
loop_
_space_group_symop_operation_xyz
x,y,z
-x,-y,-z
loop_
_atom_site_type_symbol
_atom_site_label
_atom_site_fract_x
_atom_site_fract_y
_atom_site_fract_z
Si Si1 0.831636 0.427966 0.982078
Si Si2 0.451300 0.146605 0.680942
Si Si3 0.770685 0.561080 0.103956
Si Si4 0.573189 0.711096 0.999471
Si Si5 0.131211 0.703974 0.340358
Si Si6 0.315655 0.860389 0.815545
Si Si7 0.338722 0.988594 0.247552
Si Si8 0.610197 0.432348 0.503284
O O1 0.674240 0.455839 0.699850
O O2 0.791120 0.496801 0.029159
O O3 0.836797 0.251923 0.176127
O O4 0.000000 0.500000 0.000000
O O5 0.584511 0.070487 0.770925
O O6 0.453844 0.312203 0.471155
O O7 0.287255 0.035037 0.619903
O O8 0.534280 0.151715 0.910184
O O9 0.599385 0.636810 0.940875
O O10 0.809578 0.418709 0.373767
O O11 0.926601 0.678282 0.154610
O O12 0.595573 0.581360 0.258160
O O13 0.401130 0.792769 0.818273
O O14 0.711616 0.845267 0.994501
O O15 0.195861 0.868316 0.275813
O O16 0.228910 0.652227 0.339143
O O17 0.500000 0.000000 0.500000
#
# Coordination Sequence:
#
# PCOD9003628 Si02
#       8
#     2   2   2   2   2   2   2   2
#     4  11  21  35  62  91 118 158 206 239 282 357
#     4   8  17  35  57  83 109 154 194 231 294 344
#     4  10  21  37  61  90 118 157 197 246 292 352
#     4  10  22  39  58  92 121 152 193 250 312 343
#     4   9  19  38  62  83 118 162 199 234 296 357
#     4   9  19  36  59  85 116 155 197 246 291 350
#     4  10  21  38  61  89 117 154 202 246 296 356
#     4   9  18  38  61  88 117 155 196 243 293 355
#
# _framework density 24.152539000000001
#
# number of rings (size 3 to 8) (size 9 to 14) (size 15 to 20)
#    0.000    2.500    1.250    0.000    3.500    3.000 
#    6.750    0.000    0.000    0.750    0.000    0.000 
#    0.000    0.000    0.000    0.000    0.000    0.000 
#
# Total GULP energy -89243.039217 kJ/mol
# GULP energy per Si atom -5577.689951 kJ/mol
# Density = 2.409757 g / cm^3
# Si number density = 24.152539 Si / 1000 Ang^3
#
#
#
# Elastic Constant Matrix: (Units=GPa)
#
#
# Indices 1 2 3 4 5 6 
#
# 1 91.6576 81.8235 24.1387 -0.0910 -31.6057 1.1807
# 2 81.8235 231.4431 53.1984 -33.9592 -22.5127 37.0402
# 3 24.1387 53.1984 47.0170 -11.1975 -31.8288 3.8566
# 4 -0.0910 -33.9592 -11.1975 45.9173 1.6439 -19.7920
# 5 -31.6057 -22.5127 -31.8288 1.6439 39.0954 3.9509
# 6 1.1807 37.0402 3.8566 -19.7920 3.9509 65.3573
#
#
#
# Elastic Compliance Matrix: (Units=1/GPa)
#
#
# Indices 1 2 3 4 5 6 
#
# 1 0.027003 -0.011915 0.019026 -0.004354 0.030441 0.001984
# 2 -0.011915 0.012094 -0.018021 0.003661 -0.017147 -0.003430
# 3 0.019026 -0.018021 0.080020 0.004750 0.069711 0.002372
# 4 -0.004354 0.003661 0.004750 0.028311 0.000633 0.006258
# 5 0.030441 -0.017147 0.069711 0.000633 0.097104 -0.000624
# 6 0.001984 -0.003430 0.002372 0.006258 -0.000624 0.019001
#
#
# Mechanical properties :
#
#
# Convention : Reuss Voigt Hill
#
# Bulk Modulus (GPa) = 10.27793 76.49324 43.38558
# Shear Modulus (GPa) = 15.73394 44.13782 29.93588
#
# Velocity S-wave (km/s) = 2.55510 4.27952 3.52440
# Velocity P-wave (km/s) = 3.60130 7.49391 5.87912
#
# Compressibility (1/GPa) = 0.09729586
#
# Stress axis : x y z
#
# Youngs Moduli (GPa) = 37.03290 82.68902 12.49693
#
# Poissons Ratio (x) = 0.98524 -0.23776
# Poissons Ratio (y) = 0.44124 0.22521
# Poissons Ratio (z) = -0.70458 1.49014
#
# Static dielectric constant tensor:
#      x y z
#    x 1.936510 0.056360 -0.006040 
#    y 0.056360 2.007670 -0.005800 
#    z -0.006040 -0.005800 2.009070 
# 
# From -- ./inp_files/261841.got.cif
#   From: 2010.05.17/outbox.cif.g08.bks.cpg/sg2_131_cif.got.tgz:261841.got - 2010.06.03 11:33:40.
