data_PCOD9003481
_publ_section_title
;
Structure prediction by ZEFSAII (Michael W. Deem and Ramdas Pophale) SiO2 
 PCOD9003481
Probable space group: P -1
;
_chemical_formula_sum "Si O2"
_cell_formula_units_Z 12
_cell_length_a 7.353175
_cell_length_b 15.986060
_cell_length_c 8.917815
_cell_angle_alpha 49.213861
_cell_angle_beta 107.882499
_cell_angle_gamma 133.035542
_cell_volume 561.617272
_symmetry_space_group_name_H-M "P -1"
_symmetry_group_IT_number 2
_symmetry_cell_setting 'triclinic'
loop_
_space_group_symop_operation_xyz
x,y,z
-x,-y,-z
loop_
_atom_site_type_symbol
_atom_site_label
_atom_site_fract_x
_atom_site_fract_y
_atom_site_fract_z
Si Si1 0.005358 0.146328 0.628885
Si Si2 0.330747 0.924443 0.896069
Si Si3 0.983111 0.308176 0.701844
Si Si4 0.734266 0.953444 0.528963
Si Si5 0.425308 0.651721 0.389377
Si Si6 0.597115 0.820819 0.939494
O O1 0.310173 0.251501 0.563874
O O2 0.960342 0.225614 0.643743
O O3 0.830463 0.091857 0.499470
O O4 0.884322 0.982290 0.845144
O O5 0.368452 0.040032 0.659190
O O6 0.419575 0.853640 0.907838
O O7 0.051498 0.788457 0.052661
O O8 0.500000 0.000000 0.000000
O O9 0.759230 0.315385 0.654891
O O10 0.248845 0.476795 0.570191
O O11 0.577198 0.810414 0.765852
O O12 0.000000 0.000000 0.500000
O O13 0.522041 0.700411 0.182940
#
# Coordination Sequence:
#
# PCOD9003481 Si02
#       6
#     2   2   2   2   2   2
#     4  10  21  37  60  90 118 159 201 246 299 348
#     4  11  20  38  63  85 117 159 204 246 297 363
#     4  10  22  37  64  89 120 164 198 240 305 364
#     4  10  24  35  58  94 121 152 205 254 298 347
#     4  10  21  38  62  93 122 157 200 246 299 366
#     4   9  21  35  61  85 118 155 200 245 298 349
#
# _framework density 21.366864
#
# number of rings (size 3 to 8) (size 9 to 14) (size 15 to 20)
#    1.000    1.000    1.667    1.500    7.000    0.000 
#    0.000    0.833    0.000    4.000    0.000    0.000 
#    0.000    0.000    0.000    0.000    0.000    0.000 
#
# Total GULP energy -66833.284838 kJ/mol
# GULP energy per Si atom -5569.440403 kJ/mol
# Density = 2.131823 g / cm^3
# Si number density = 21.366864 Si / 1000 Ang^3
#
#
#
# Elastic Constant Matrix: (Units=GPa)
#
#
# Indices 1 2 3 4 5 6 
#
# 1 63.6039 19.6582 14.4674 -1.6629 -17.2482 -4.4042
# 2 19.6582 73.5765 63.5401 -5.1356 -13.3255 13.2165
# 3 14.4674 63.5401 136.9608 1.5008 -16.5037 9.1878
# 4 -1.6629 -5.1356 1.5008 46.0585 8.8613 -5.5894
# 5 -17.2482 -13.3255 -16.5037 8.8613 31.4236 1.2966
# 6 -4.4042 13.2165 9.1878 -5.5894 1.2966 35.0509
#
#
#
# Elastic Compliance Matrix: (Units=1/GPa)
#
#
# Indices 1 2 3 4 5 6 
#
# 1 0.019927 -0.005544 0.001386 -0.001334 0.009539 0.003666
# 2 -0.005544 0.026364 -0.010885 0.001742 0.002242 -0.007589
# 3 0.001386 -0.010885 0.012598 -0.002157 0.003348 0.000508
# 4 -0.001334 0.001742 -0.002157 0.023942 -0.008037 0.003856
# 5 0.009539 0.002242 0.003348 -0.008037 0.042174 -0.003366
# 6 0.003666 -0.007589 0.000508 0.003856 -0.003366 0.032458
#
#
# Mechanical properties :
#
#
# Convention : Reuss Voigt Hill
#
# Bulk Modulus (GPa) = 34.72204 52.16363 43.44283
# Shear Modulus (GPa) = 25.36135 34.27165 29.81650
#
# Velocity S-wave (km/s) = 3.44895 4.00929 3.73963
# Velocity P-wave (km/s) = 5.66975 6.77487 6.24680
#
# Compressibility (1/GPa) = 0.02880015
#
# Stress axis : x y z
#
# Youngs Moduli (GPa) = 50.18430 37.93073 79.37831
#
# Poissons Ratio (x) = 0.21031 -0.10998
# Poissons Ratio (y) = 0.27825 0.86404
# Poissons Ratio (z) = -0.06953 0.41288
#
# Static dielectric constant tensor:
#      x y z
#    x 1.902500 -0.003270 -0.014530 
#    y -0.003270 1.802970 0.033730 
#    z -0.014530 0.033730 1.864770 
# 
# From -- ./inp_files/191536.got.cif
#   From: 2010.05.17/outbox.cif.g08.bks.cpg/sg2_96_cif.got.tgz:191536.got - 2010.06.03 11:33:40.
