data_PCOD9003363
_publ_section_title
;
Structure prediction by ZEFSAII (Michael W. Deem and Ramdas Pophale) SiO2 
 PCOD9003363
Probable space group: P -1
;
_chemical_formula_sum "Si O2"
_cell_formula_units_Z 16
_cell_length_a 9.743291
_cell_length_b 11.705513
_cell_length_c 11.268747
_cell_angle_alpha 31.199689
_cell_angle_beta 71.825592
_cell_angle_gamma 65.776044
_cell_volume 605.064664
_symmetry_space_group_name_H-M "P -1"
_symmetry_group_IT_number 2
_symmetry_cell_setting 'triclinic'
loop_
_space_group_symop_operation_xyz
x,y,z
-x,-y,-z
loop_
_atom_site_type_symbol
_atom_site_label
_atom_site_fract_x
_atom_site_fract_y
_atom_site_fract_z
Si Si1 0.172100 0.371211 0.722519
Si Si2 0.199035 0.979126 0.365861
Si Si3 0.632794 0.083669 0.042625
Si Si4 0.679263 0.634441 0.891293
Si Si5 0.151846 0.626688 0.264746
Si Si6 0.372600 0.506726 0.723377
Si Si7 0.658916 0.854858 0.471361
Si Si8 0.875471 0.145377 0.246470
O O1 0.154554 0.578072 0.448362
O O2 0.224692 0.448369 0.764202
O O3 0.012879 0.322609 0.791553
O O4 0.302923 0.142168 0.852493
O O5 0.340088 0.774331 0.461385
O O6 0.145664 0.860358 0.599839
O O7 0.240563 0.198082 0.212293
O O8 0.053438 0.055511 0.253763
O O9 0.775326 0.171839 0.959155
O O10 0.515591 0.305356 0.817310
O O11 0.571262 0.011112 0.248356
O O12 0.588290 0.775987 0.678982
O O13 0.602819 0.527109 0.111413
O O14 0.800402 0.412034 0.998926
O O15 0.254715 0.383355 0.404054
O O16 0.781275 0.980241 0.370756
#
# Coordination Sequence:
#
# PCOD9003363 Si02
#       8
#     2   2   2   2   2   2   2   2
#     4  10  23  43  66  93 121 160 216 265 314 373
#     4   9  19  33  55  87 123 161 206 252 306 369
#     4  11  24  41  64  92 127 169 210 258 315 370
#     4  10  21  37  59  91 130 169 207 256 310 369
#     4  10  22  42  68  93 121 162 212 267 316 365
#     4  11  24  40  61  95 132 168 207 252 313 379
#     4  10  21  38  61  91 126 166 211 256 306 371
#     4   9  17  34  57  86 120 160 208 258 304 357
#
# _framework density 26.443456000000001
#
# number of rings (size 3 to 8) (size 9 to 14) (size 15 to 20)
#    0.000    2.000    0.000    2.625    0.000    8.000 
#    0.000    8.750    0.000    0.000    0.000    0.000 
#    0.000    0.000    0.000    0.000    0.000    0.000 
#
# Total GULP energy -89524.312166 kJ/mol
# GULP energy per Si atom -5595.269510 kJ/mol
# Density = 2.638327 g / cm^3
# Si number density = 26.443456 Si / 1000 Ang^3
#
#
#
# Elastic Constant Matrix: (Units=GPa)
#
#
# Indices 1 2 3 4 5 6 
#
# 1 108.8481 18.4588 26.1519 3.4212 -22.4873 19.6535
# 2 18.4588 73.9713 36.3777 -4.9661 -3.7926 21.3560
# 3 26.1519 36.3777 111.3371 -2.6331 4.8285 16.7296
# 4 3.4212 -4.9661 -2.6331 38.2383 6.5066 -5.0465
# 5 -22.4873 -3.7926 4.8285 6.5066 30.8208 -8.1511
# 6 19.6535 21.3560 16.7296 -5.0465 -8.1511 29.5227
#
#
#
# Elastic Compliance Matrix: (Units=1/GPa)
#
#
# Indices 1 2 3 4 5 6 
#
# 1 0.012752 -0.000227 -0.002667 -0.003557 0.009150 -0.004896
# 2 -0.000227 0.018984 -0.004475 0.000763 -0.000190 -0.010968
# 3 -0.002667 -0.004475 0.011770 0.000984 -0.005331 -0.002961
# 4 -0.003557 0.000763 0.000984 0.028461 -0.007600 0.004026
# 5 0.009150 -0.000190 -0.005331 -0.007600 0.043602 0.007806
# 6 -0.004896 -0.010968 -0.002961 0.004026 0.007806 0.049586
#
#
# Mechanical properties :
#
#
# Convention : Reuss Voigt Hill
#
# Bulk Modulus (GPa) = 34.76010 50.68145 42.72078
# Shear Modulus (GPa) = 26.38753 33.92756 30.15755
#
# Velocity S-wave (km/s) = 3.16236 3.58582 3.38072
# Velocity P-wave (km/s) = 5.14856 6.02924 5.60622
#
# Compressibility (1/GPa) = 0.02876861
#
# Stress axis : x y z
#
# Youngs Moduli (GPa) = 78.41610 52.67572 84.96462
#
# Poissons Ratio (x) = 0.01196 0.22656
# Poissons Ratio (y) = 0.01781 0.38023
# Poissons Ratio (z) = 0.20910 0.23573
#
# Static dielectric constant tensor:
#      x y z
#    x 2.019500 -0.067390 0.054240 
#    y -0.067390 2.137470 0.023860 
#    z 0.054240 0.023860 2.083090 
# 
# From -- ./inp_files/427226.got.cif
#   From: 2010.05.17/outbox.cif.g08.bks.cpg/sg2_214_cif.got.tgz:427226.got - 2010.06.03 11:33:40.
