data_PCOD9003107
_publ_section_title
;
Structure prediction by ZEFSAII (Michael W. Deem and Ramdas Pophale) SiO2 
 PCOD9003107
Probable space group: P -1
;
_chemical_formula_sum "Si O2"
_cell_formula_units_Z 16
_cell_length_a 22.908821
_cell_length_b 9.206655
_cell_length_c 17.973942
_cell_angle_alpha 128.789097
_cell_angle_beta 15.381925
_cell_angle_gamma 136.161670
_cell_volume 645.482025
_symmetry_space_group_name_H-M "P -1"
_symmetry_group_IT_number 2
_symmetry_cell_setting 'triclinic'
loop_
_space_group_symop_operation_xyz
x,y,z
-x,-y,-z
loop_
_atom_site_type_symbol
_atom_site_label
_atom_site_fract_x
_atom_site_fract_y
_atom_site_fract_z
Si Si1 0.203246 0.744823 0.291786
Si Si2 0.877036 0.229911 0.875734
Si Si3 0.565647 0.712983 0.437548
Si Si4 0.088243 0.949079 0.764924
Si Si5 0.779704 0.625907 0.359773
Si Si6 0.658101 0.726020 0.781178
Si Si7 0.242996 0.203509 0.142784
Si Si8 0.779121 0.465275 0.946571
O O1 0.197357 0.679361 0.191900
O O2 0.000000 0.500000 0.500000
O O3 0.051243 0.861370 0.536443
O O4 0.493926 0.832815 0.994564
O O5 0.013946 0.339240 0.820379
O O6 0.097371 0.235004 0.553842
O O7 0.785165 0.363832 0.985859
O O8 0.683703 0.959655 0.033213
O O9 0.500000 0.500000 0.500000
O O10 0.323458 0.588627 0.636387
O O11 0.654744 0.912138 0.451496
O O12 0.828908 0.825713 0.098247
O O13 0.022848 0.730822 0.728642
O O14 0.106433 0.141956 0.752468
O O15 0.508399 0.571714 0.716193
O O16 0.736012 0.787065 0.790739
O O17 0.447365 0.457503 0.946924
#
# Coordination Sequence:
#
# PCOD9003107 Si02
#       8
#     2   2   2   2   2   2   2   2
#     4  10  21  37  58  80 111 157 206 250 292 347
#     4  12  24  37  57  85 119 156 199 246 296 349
#     4   8  16  37  67  96 117 150 194 233 289 355
#     4   9  19  37  66  89 121 158 188 237 295 350
#     4  10  22  38  61  90 120 155 194 240 294 356
#     4  10  21  39  56  76 110 155 199 254 295 344
#     4  10  23  38  54  79 112 154 203 251 299 343
#     4  11  23  39  55  89 123 153 203 249 290 350
#
# _framework density 24.787676000000001
#
# number of rings (size 3 to 8) (size 9 to 14) (size 15 to 20)
#    0.000    2.000    2.500    0.375    3.500    2.500 
#    0.000    0.625    0.000   25.500    0.000    0.000 
#    0.000    0.000    0.000    0.000    0.000    0.000 
#
# Total GULP energy -89430.806899 kJ/mol
# GULP energy per Si atom -5589.425431 kJ/mol
# Density = 2.473126 g / cm^3
# Si number density = 24.787676 Si / 1000 Ang^3
#
#
#
# Elastic Constant Matrix: (Units=GPa)
#
#
# Indices 1 2 3 4 5 6 
#
# 1 88.5046 12.2432 2.8705 4.2876 -4.8984 2.4148
# 2 12.2432 102.4629 33.0254 -13.5998 -0.3104 13.7111
# 3 2.8705 33.0254 51.0188 -2.0537 14.1568 3.1337
# 4 4.2876 -13.5998 -2.0537 44.6153 2.5094 -3.4618
# 5 -4.8984 -0.3104 14.1568 2.5094 30.4385 2.7115
# 6 2.4148 13.7111 3.1337 -3.4618 2.7115 33.8803
#
#
#
# Elastic Compliance Matrix: (Units=1/GPa)
#
#
# Indices 1 2 3 4 5 6 
#
# 1 0.011734 -0.001420 -0.000402 -0.001751 0.002257 -0.000584
# 2 -0.001420 0.014268 -0.010040 0.003387 0.004733 -0.004777
# 3 -0.000402 -0.010040 0.029897 -0.000659 -0.014231 0.002398
# 4 -0.001751 0.003387 -0.000659 0.023808 -0.002029 0.001410
# 5 0.002257 0.004733 -0.014231 -0.002029 0.040425 -0.004203
# 6 -0.000584 -0.004777 0.002398 0.001410 -0.004203 0.031749
#
#
# Mechanical properties :
#
#
# Convention : Reuss Voigt Hill
#
# Bulk Modulus (GPa) = 31.07889 37.58497 34.33193
# Shear Modulus (GPa) = 26.83398 34.70998 30.77198
#
# Velocity S-wave (km/s) = 3.29379 3.74611 3.52720
# Velocity P-wave (km/s) = 5.19910 5.82295 5.51985
#
# Compressibility (1/GPa) = 0.03217618
#
# Stress axis : x y z
#
# Youngs Moduli (GPa) = 85.22229 70.08483 33.44782
#
# Poissons Ratio (x) = 0.09952 0.01345
# Poissons Ratio (y) = 0.12101 0.33581
# Poissons Ratio (z) = 0.03426 0.70364
#
# Static dielectric constant tensor:
#      x y z
#    x 1.954190 -0.023720 0.007030 
#    y -0.023720 2.211240 -0.021820 
#    z 0.007030 -0.021820 2.002680 
# 
# From -- ./inp_files/577360.got.cif
#   From: 2010.05.17/outbox.cif.g08.bks.cpg/sg2_289_cif.got.tgz:577360.got - 2010.06.03 11:33:40.
