data_PCOD9003134
_publ_section_title
;
Structure prediction by ZEFSAII (Michael W. Deem and Ramdas Pophale) SiO2 
 PCOD9003134
Probable space group: P -1
;
_chemical_formula_sum "Si O2"
_cell_formula_units_Z 10
_cell_length_a 8.017877
_cell_length_b 8.655216
_cell_length_c 10.323878
_cell_angle_alpha 111.612956
_cell_angle_beta 140.022909
_cell_angle_gamma 61.515990
_cell_volume 404.575233
_symmetry_space_group_name_H-M "P -1"
_symmetry_group_IT_number 2
_symmetry_cell_setting 'triclinic'
loop_
_space_group_symop_operation_xyz
x,y,z
-x,-y,-z
loop_
_atom_site_type_symbol
_atom_site_label
_atom_site_fract_x
_atom_site_fract_y
_atom_site_fract_z
Si Si1 0.214802 0.645245 0.917395
Si Si2 0.013097 0.696788 0.072026
Si Si3 0.106815 0.618939 0.390576
Si Si4 0.012308 0.121712 0.379959
Si Si5 0.435656 0.841019 0.675486
O O1 0.974646 0.554618 0.728210
O O2 0.237744 0.693826 0.096271
O O3 0.113919 0.808845 0.811533
O O4 0.500000 0.500000 0.000000
O O5 0.736620 0.827319 0.887153
O O6 0.018058 0.725235 0.236186
O O7 0.000000 0.500000 0.000000
O O8 0.960208 0.718146 0.463815
O O9 0.407206 0.644022 0.589927
O O10 0.772850 0.078744 0.305761
O O11 0.299279 0.965411 0.512875
#
# Coordination Sequence:
#
# PCOD9003134 Si02
#       5
#     2   2   2   2   2
#     4  11  22  38  57  86 118 146 192 237 275 334
#     4  10  21  37  58  85 116 148 189 233 280 334
#     4   9  20  39  61  84 109 156 184 228 289 331
#     4   9  19  39  59  87 112 147 189 233 281 334
#     4   9  20  39  62  82 116 146 192 229 281 341
#
# _framework density 24.717281
#
# number of rings (size 3 to 8) (size 9 to 14) (size 15 to 20)
#    1.200    1.200    0.000    3.000    0.000    4.800 
#    7.200    1.000    0.000    0.000    0.000    0.000 
#    0.000    0.000    0.000    0.000    0.000    0.000 
#
# Total GULP energy -55673.101891 kJ/mol
# GULP energy per Si atom -5567.310189 kJ/mol
# Density = 2.466102 g / cm^3
# Si number density = 24.717281 Si / 1000 Ang^3
#
#
#
# Elastic Constant Matrix: (Units=GPa)
#
#
# Indices 1 2 3 4 5 6 
#
# 1 84.0262 7.9756 24.7389 -19.4327 -13.3156 5.8793
# 2 7.9756 49.0656 17.6857 -5.4357 -12.2837 1.6676
# 3 24.7389 17.6857 61.8766 -27.9715 -3.0259 2.8029
# 4 -19.4327 -5.4357 -27.9715 55.1678 2.3844 -12.9896
# 5 -13.3156 -12.2837 -3.0259 2.3844 42.3736 -5.9385
# 6 5.8793 1.6676 2.8029 -12.9896 -5.9385 24.7510
#
#
#
# Elastic Compliance Matrix: (Units=1/GPa)
#
#
# Indices 1 2 3 4 5 6 
#
# 1 0.014482 0.000655 -0.004618 0.002491 0.004180 -0.000651
# 2 0.000655 0.024579 -0.007646 -0.001547 0.006856 -0.000113
# 3 -0.004618 -0.007646 0.025071 0.011430 -0.001916 0.004312
# 4 0.002491 -0.001547 0.011430 0.027664 0.001427 0.013079
# 5 0.004180 0.006856 -0.001916 0.001427 0.027541 0.006119
# 6 -0.000651 -0.000113 0.004312 0.013079 0.006119 0.048409
#
#
# Mechanical properties :
#
#
# Convention : Reuss Voigt Hill
#
# Bulk Modulus (GPa) = 24.44127 32.86320 28.65224
# Shear Modulus (GPa) = 24.43764 34.09635 29.26699
#
# Velocity S-wave (km/s) = 3.14775 3.71813 3.44477
# Velocity P-wave (km/s) = 4.80842 5.63535 5.23823
#
# Compressibility (1/GPa) = 0.04091440
#
# Stress axis : x y z
#
# Youngs Moduli (GPa) = 69.04970 40.68445 39.88749
#
# Poissons Ratio (x) = -0.02664 0.18418
# Poissons Ratio (y) = -0.04521 0.30498
# Poissons Ratio (z) = 0.31884 0.31108
#
# Static dielectric constant tensor:
#      x y z
#    x 2.008530 -0.053920 -0.028080 
#    y -0.053920 2.076390 0.052280 
#    z -0.028080 0.052280 1.993010 
# 
# From -- ./inp_files/20435.got.cif
#   From: 2010.05.17/outbox.cif.g08.bks.cpg/sg2_11_cif.got.tgz:20435.got - 2010.06.03 11:33:40.
