data_PCOD9003160
_publ_section_title
;
Structure prediction by ZEFSAII (Michael W. Deem and Ramdas Pophale) SiO2 
 PCOD9003160
Probable space group: P -1
;
_chemical_formula_sum "Si O2"
_cell_formula_units_Z 12
_cell_length_a 9.419693
_cell_length_b 4.977861
_cell_length_c 12.769767
_cell_angle_alpha 95.959092
_cell_angle_beta 81.366764
_cell_angle_gamma 74.542035
_cell_volume 564.037802
_symmetry_space_group_name_H-M "P -1"
_symmetry_group_IT_number 2
_symmetry_cell_setting 'triclinic'
loop_
_space_group_symop_operation_xyz
x,y,z
-x,-y,-z
loop_
_atom_site_type_symbol
_atom_site_label
_atom_site_fract_x
_atom_site_fract_y
_atom_site_fract_z
Si Si1 0.519932 0.607466 0.168826
Si Si2 0.068461 0.134702 0.090869
Si Si3 0.327416 0.990921 0.915292
Si Si4 0.821592 0.247146 0.733237
Si Si5 0.027906 0.335024 0.382150
Si Si6 0.205225 0.668131 0.756666
O O1 0.598562 0.335897 0.077444
O O2 0.354721 0.628954 0.223784
O O3 0.634862 0.554905 0.253077
O O4 0.539792 0.880961 0.122339
O O5 0.925735 0.382564 0.155357
O O6 0.112902 0.915410 0.172992
O O7 0.217943 0.170596 0.022712
O O8 0.000000 0.000000 0.000000
O O9 0.237967 0.945563 0.816833
O O10 0.892766 0.487851 0.695890
O O11 0.866218 0.985317 0.636188
O O12 0.000000 0.500000 0.500000
O O13 0.872094 0.315289 0.346120
#
# Coordination Sequence:
#
# PCOD9003160 Si02
#       6
#     2   2   2   2   2   2
#     4  10  21  37  58  86 126 156 187 241 294 341
#     4   9  19  37  57  92 117 165 196 235 276 350
#     4   9  20  34  59  85 124 156 200 221 290 343
#     4  11  24  41  61  89 124 148 195 251 294 345
#     4  11  24  43  66  86 111 154 201 248 300 352
#     4   8  21  37  61  84 119 152 200 244 280 342
#
# _framework density 21.275169999999999
#
# number of rings (size 3 to 8) (size 9 to 14) (size 15 to 20)
#    1.000    1.333    0.000    1.500    7.000    4.667 
#    0.000    1.667    0.000    0.000    0.000    0.000 
#    0.000    0.000    0.000    0.000    0.000    0.000 
#
# Total GULP energy -66830.725079 kJ/mol
# GULP energy per Si atom -5569.227090 kJ/mol
# Density = 2.122675 g / cm^3
# Si number density = 21.275170 Si / 1000 Ang^3
#
#
#
# Elastic Constant Matrix: (Units=GPa)
#
#
# Indices 1 2 3 4 5 6 
#
# 1 127.5284 24.3305 31.3601 -3.4879 -3.8254 -8.4470
# 2 24.3305 71.0983 -13.9754 -1.6425 -2.9225 8.3419
# 3 31.3601 -13.9754 47.8754 10.3215 12.6655 1.1960
# 4 -3.4879 -1.6425 10.3215 28.0360 7.1051 -4.8577
# 5 -3.8254 -2.9225 12.6655 7.1051 25.5484 -4.5819
# 6 -8.4470 8.3419 1.1960 -4.8577 -4.5819 38.6120
#
#
#
# Elastic Compliance Matrix: (Units=1/GPa)
#
#
# Indices 1 2 3 4 5 6 
#
# 1 0.014013 -0.008132 -0.015216 0.005982 0.008309 0.007032
# 2 -0.008132 0.020175 0.014029 -0.004859 -0.005928 -0.007887
# 3 -0.015216 0.014029 0.043715 -0.014013 -0.020585 -0.011919
# 4 0.005982 -0.004859 -0.014013 0.043512 -0.003404 0.007862
# 5 0.008309 -0.005928 -0.020585 -0.003404 0.052571 0.009546
# 6 0.007032 -0.007887 -0.011919 0.007862 0.009546 0.031632
#
#
# Mechanical properties :
#
#
# Convention : Reuss Voigt Hill
#
# Bulk Modulus (GPa) = 16.87385 36.65917 26.76651
# Shear Modulus (GPa) = 20.49082 32.09174 26.29128
#
# Velocity S-wave (km/s) = 3.10681 3.88804 3.51917
# Velocity P-wave (km/s) = 4.56269 6.11753 5.39640
#
# Compressibility (1/GPa) = 0.05926329
#
# Stress axis : x y z
#
# Youngs Moduli (GPa) = 71.36096 49.56686 22.87563
#
# Poissons Ratio (x) = 0.40307 0.34808
# Poissons Ratio (y) = 0.58030 -0.32091
# Poissons Ratio (z) = 1.08586 -0.69535
#
# Static dielectric constant tensor:
#      x y z
#    x 1.807940 -0.018670 0.038660 
#    y -0.018670 1.804490 0.001230 
#    z 0.038660 0.001230 1.810680 
# 
# From -- ./inp_files/92408.got.cif
#   From: 2010.05.17/outbox.cif.g08.bks.cpg/sg2_47_cif.got.tgz:92408.got - 2010.06.03 11:33:40.
