data_PCOD9003058
_publ_section_title
;
Structure prediction by ZEFSAII (Michael W. Deem and Ramdas Pophale) SiO2 
 PCOD9003058
Probable space group: P -1
;
_chemical_formula_sum "Si O2"
_cell_formula_units_Z 16
_cell_length_a 8.985903
_cell_length_b 12.233440
_cell_length_c 12.036397
_cell_angle_alpha 94.974684
_cell_angle_beta 75.547144
_cell_angle_gamma 144.214264
_cell_volume 733.409865
_symmetry_space_group_name_H-M "P -1"
_symmetry_group_IT_number 2
_symmetry_cell_setting 'triclinic'
loop_
_space_group_symop_operation_xyz
x,y,z
-x,-y,-z
loop_
_atom_site_type_symbol
_atom_site_label
_atom_site_fract_x
_atom_site_fract_y
_atom_site_fract_z
Si Si1 0.766725 0.746266 0.851627
Si Si2 0.850975 0.647396 0.350377
Si Si3 0.119699 0.946167 0.144561
Si Si4 0.469263 0.360676 0.877065
Si Si5 0.724173 0.742609 0.582031
Si Si6 0.704176 0.957665 0.473318
Si Si7 0.351487 0.053246 0.876491
Si Si8 0.666983 0.158455 0.639529
O O1 0.667045 0.568678 0.812171
O O2 0.770290 0.873225 0.814213
O O3 0.563295 0.645906 0.985134
O O4 0.058856 0.899580 0.864529
O O5 0.776808 0.691523 0.463687
O O6 0.568580 0.450923 0.332075
O O7 0.049959 0.821993 0.243555
O O8 0.019991 0.646118 0.371378
O O9 0.825716 0.795417 0.133066
O O10 0.302191 0.011526 0.013655
O O11 0.526829 0.265928 0.841176
O O12 0.700718 0.849297 0.542457
O O13 0.990590 0.872508 0.615799
O O14 0.483506 0.838800 0.407678
O O15 0.665770 0.044190 0.560939
O O16 0.495285 0.047833 0.774178
#
# Coordination Sequence:
#
# PCOD9003058 Si02
#       8
#     2   2   2   2   2   2   2   2
#     4   8  15  30  52  77 113 151 197 238 271 329
#     4  10  21  37  57  86 117 148 193 242 290 345
#     4   9  18  32  53  84 119 154 190 234 280 344
#     4   8  15  30  50  81 110 149 200 238 271 328
#     4   9  20  40  63  83 106 147 204 247 282 341
#     4   9  20  40  63  83 109 149 200 246 293 341
#     4   9  18  32  53  83 122 154 187 232 287 350
#     4  10  21  37  57  85 120 151 187 237 301 347
#
# _framework density 21.815905000000001
#
# number of rings (size 3 to 8) (size 9 to 14) (size 15 to 20)
#    0.000    3.000    0.000    1.500    3.500    2.000 
#    6.750    0.000    0.000    0.750    0.000    0.000 
#    0.000    0.000    0.000    0.000    0.000    0.000 
#
# Total GULP energy -89090.954841 kJ/mol
# GULP energy per Si atom -5568.184678 kJ/mol
# Density = 2.176625 g / cm^3
# Si number density = 21.815905 Si / 1000 Ang^3
#
#
#
# Elastic Constant Matrix: (Units=GPa)
#
#
# Indices 1 2 3 4 5 6 
#
# 1 119.9860 35.1660 41.8923 -18.4387 -0.9552 16.2273
# 2 35.1660 96.7250 22.6231 -26.1447 6.2333 -3.6299
# 3 41.8923 22.6231 87.6061 -4.8567 -8.1634 0.8170
# 4 -18.4387 -26.1447 -4.8567 30.1876 -6.5074 5.4905
# 5 -0.9552 6.2333 -8.1634 -6.5074 26.9231 1.0442
# 6 16.2273 -3.6299 0.8170 5.4905 1.0442 13.8026
#
#
#
# Elastic Compliance Matrix: (Units=1/GPa)
#
#
# Indices 1 2 3 4 5 6 
#
# 1 0.016326 -0.002394 -0.005993 0.012080 0.003187 -0.024515
# 2 -0.002394 0.014659 -0.002296 0.009909 -0.001897 0.003008
# 3 -0.005993 -0.002296 0.014953 -0.003671 0.003704 0.006737
# 4 0.012080 0.009909 -0.003671 0.057549 0.012297 -0.035201
# 5 0.003187 -0.001897 0.003704 0.012297 0.042277 -0.012554
# 6 -0.024515 0.003008 0.006737 -0.035201 -0.012554 0.116616
#
#
# Mechanical properties :
#
#
# Convention : Reuss Voigt Hill
#
# Bulk Modulus (GPa) = 40.69921 55.96444 48.33182
# Shear Modulus (GPa) = 17.12702 27.82504 22.47603
#
# Velocity S-wave (km/s) = 2.80495 3.57522 3.21325
# Velocity P-wave (km/s) = 5.40246 6.53847 5.99742
#
# Compressibility (1/GPa) = 0.02457050
#
# Stress axis : x y z
#
# Youngs Moduli (GPa) = 61.25359 68.21562 66.87840
#
# Poissons Ratio (x) = 0.16330 0.40082
# Poissons Ratio (y) = 0.14663 0.15358
# Poissons Ratio (z) = 0.36711 0.15665
#
# Static dielectric constant tensor:
#      x y z
#    x 1.850750 0.005810 0.058460 
#    y 0.005810 1.849880 0.017750 
#    z 0.058460 0.017750 1.886300 
# 
# From -- ./inp_files/500406.got.cif
#   From: 2010.05.17/outbox.cif.g08.bks.cpg/sg2_251_cif.got.tgz:500406.got - 2010.06.03 11:33:40.
