data_PCOD9003967
_publ_section_title
;
Structure prediction by ZEFSAII (Michael W. Deem and Ramdas Pophale) SiO2 
 PCOD9003967
Probable space group: P -1
;
_chemical_formula_sum "Si O2"
_cell_formula_units_Z 16
_cell_length_a 13.947971
_cell_length_b 8.764468
_cell_length_c 17.196109
_cell_angle_alpha 117.730770
_cell_angle_beta 157.823677
_cell_angle_gamma 73.482202
_cell_volume 631.137537
_symmetry_space_group_name_H-M "P -1"
_symmetry_group_IT_number 2
_symmetry_cell_setting 'triclinic'
loop_
_space_group_symop_operation_xyz
x,y,z
-x,-y,-z
loop_
_atom_site_type_symbol
_atom_site_label
_atom_site_fract_x
_atom_site_fract_y
_atom_site_fract_z
Si Si1 0.529188 0.578580 0.325553
Si Si2 0.873626 0.215529 0.632202
Si Si3 0.095324 0.082691 0.221249
Si Si4 0.954017 0.493264 0.304173
Si Si5 0.102646 0.857067 0.587731
Si Si6 0.629986 0.198325 0.870950
Si Si7 0.976721 0.304151 0.901109
Si Si8 0.752988 0.959783 0.097224
O O1 0.400612 0.661425 0.182233
O O2 0.307005 0.376207 0.143551
O O3 0.805913 0.564311 0.499473
O O4 0.619515 0.733458 0.500373
O O5 0.898617 0.377703 0.630406
O O6 0.643032 0.005004 0.384898
O O7 0.178072 0.209760 0.857687
O O8 0.815165 0.255888 0.685839
O O9 0.940605 0.026141 0.176505
O O10 0.121923 0.892324 0.171702
O O11 0.893282 0.150462 0.039061
O O12 0.912186 0.638551 0.365844
O O13 0.695322 0.308500 0.029473
O O14 0.129156 0.888847 0.707757
O O15 0.000000 0.000000 0.500000
O O16 0.428635 0.904858 0.823547
O O17 0.000000 0.500000 0.000000
#
# Coordination Sequence:
#
# PCOD9003967 Si02
#       8
#     2   2   2   2   2   2   2   2
#     4  11  22  42  67  93 126 171 217 259 315 385
#     4  11  20  42  66  88 129 173 207 263 320 382
#     4  10  23  43  66  91 130 177 212 261 318 387
#     4  11  23  39  68  94 123 172 222 255 315 388
#     4  11  22  36  62 100 129 168 217 272 319 368
#     4  11  22  39  67  93 120 170 222 254 312 380
#     4  11  23  41  69 101 129 165 210 264 326 384
#     4  10  21  37  63  90 128 173 211 258 326 368
#
# _framework density 25.351051999999999
#
# number of rings (size 3 to 8) (size 9 to 14) (size 15 to 20)
#    0.000    1.250    5.000    3.000    0.000    0.500 
#    0.000    6.250    0.000    0.000    0.000    0.000 
#    0.000    0.000    0.000    0.000    0.000    0.000 
#
# Total GULP energy -89514.632223 kJ/mol
# GULP energy per Si atom -5594.664514 kJ/mol
# Density = 2.529335 g / cm^3
# Si number density = 25.351052 Si / 1000 Ang^3
#
#
#
# Elastic Constant Matrix: (Units=GPa)
#
#
# Indices 1 2 3 4 5 6 
#
# 1 54.1159 3.3038 19.8659 5.7306 -24.8058 -7.5881
# 2 3.3038 151.1272 53.9497 6.4117 -21.5077 -6.5860
# 3 19.8659 53.9497 156.9734 20.8435 -22.0181 -10.4992
# 4 5.7306 6.4117 20.8435 63.4296 -1.2904 -10.6861
# 5 -24.8058 -21.5077 -22.0181 -1.2904 33.8981 11.9566
# 6 -7.5881 -6.5860 -10.4992 -10.6861 11.9566 39.6717
#
#
#
# Elastic Compliance Matrix: (Units=1/GPa)
#
#
# Indices 1 2 3 4 5 6 
#
# 1 0.029418 0.003167 -0.001365 -0.002368 0.023210 -0.001841
# 2 0.003167 0.008266 -0.002366 -0.000320 0.006229 -0.000612
# 3 -0.001365 -0.002366 0.008019 -0.002204 0.002592 0.000094
# 4 -0.002368 -0.000320 -0.002204 0.017481 -0.004452 0.004961
# 5 0.023210 0.006229 0.002592 -0.004452 0.056173 -0.011970
# 6 -0.001841 -0.000612 0.000094 0.004961 -0.011970 0.029722
#
#
# Mechanical properties :
#
#
# Convention : Reuss Voigt Hill
#
# Bulk Modulus (GPa) = 22.43392 57.38393 39.90892
# Shear Modulus (GPa) = 30.29114 46.40634 38.34874
#
# Velocity S-wave (km/s) = 3.46044 4.28313 3.89357
# Velocity P-wave (km/s) = 4.98344 6.86623 5.99916
#
# Compressibility (1/GPa) = 0.04457537
#
# Stress axis : x y z
#
# Youngs Moduli (GPa) = 33.99263 120.97956 124.70441
#
# Poissons Ratio (x) = -0.38320 0.17020
# Poissons Ratio (y) = -0.10767 0.29510
# Poissons Ratio (z) = 0.04640 0.28628
#
# Static dielectric constant tensor:
#      x y z
#    x 2.045020 -0.075510 -0.008000 
#    y -0.075510 2.045850 -0.001850 
#    z -0.008000 -0.001850 2.032730 
# 
# From -- ./inp_files/599572.got.cif
#   From: 2010.05.17/outbox.cif.g08.bks.cpg/sg2_300_cif.got.tgz:599572.got - 2010.06.03 11:33:40.
