data_PCOD9003701
_publ_section_title
;
Structure prediction by ZEFSAII (Michael W. Deem and Ramdas Pophale) SiO2 
 PCOD9003701
Probable space group: P -1
;
_chemical_formula_sum "Si O2"
_cell_formula_units_Z 16
_cell_length_a 9.819591
_cell_length_b 8.205240
_cell_length_c 11.286929
_cell_angle_alpha 84.564952
_cell_angle_beta 47.364512
_cell_angle_gamma 88.635512
_cell_volume 665.014747
_symmetry_space_group_name_H-M "P -1"
_symmetry_group_IT_number 2
_symmetry_cell_setting 'triclinic'
loop_
_space_group_symop_operation_xyz
x,y,z
-x,-y,-z
loop_
_atom_site_type_symbol
_atom_site_label
_atom_site_fract_x
_atom_site_fract_y
_atom_site_fract_z
Si Si1 0.533169 0.278665 0.747307
Si Si2 0.164345 0.210387 0.634528
Si Si3 0.085143 0.831417 0.775995
Si Si4 0.710390 0.841995 0.880985
Si Si5 0.112733 0.867577 0.372864
Si Si6 0.940135 0.343640 0.964504
Si Si7 0.475550 0.603749 0.885146
Si Si8 0.525369 0.308669 0.492008
O O1 0.743109 0.226363 0.630369
O O2 0.529201 0.472151 0.764089
O O3 0.460626 0.237193 0.662641
O O4 0.415901 0.187285 0.926612
O O5 0.382380 0.234511 0.485443
O O6 0.040749 0.247811 0.592192
O O7 0.088179 0.320682 0.776202
O O8 0.123686 0.020334 0.705504
O O9 0.266583 0.734194 0.649925
O O10 0.905436 0.768324 0.809883
O O11 0.052441 0.805484 0.936628
O O12 0.608567 0.761019 0.831571
O O13 0.764791 0.030207 0.804777
O O14 0.000000 0.000000 0.500000
O O15 0.735183 0.355036 0.026511
O O16 0.000000 0.500000 0.000000
O O17 0.500000 0.500000 0.000000
O O18 0.500000 0.500000 0.500000
#
# Coordination Sequence:
#
# PCOD9003701 Si02
#       8
#     2   2   2   2   2   2   2   2
#     4  11  22  41  66  93 127 170 216 265 321 389
#     4  11  24  44  66  93 129 173 218 269 330 396
#     4  11  24  42  63  94 130 171 217 272 328 387
#     4  10  22  42  66  95 128 168 217 268 322 387
#     4  11  25  44  66  98 134 170 212 268 326 390
#     4  12  23  41  67  98 131 170 221 273 325 391
#     4  10  21  37  61  94 126 165 215 270 320 377
#     4  12  26  43  64  95 133 175 220 273 331 389
#
# _framework density 24.059615000000001
#
# number of rings (size 3 to 8) (size 9 to 14) (size 15 to 20)
#    0.000    1.000    0.000    8.625    0.000    6.000 
#    0.000    1.875    0.000    0.000    0.000    0.000 
#    0.000    0.000    0.000    0.000    0.000    0.000 
#
# Total GULP energy -89540.076976 kJ/mol
# GULP energy per Si atom -5596.254811 kJ/mol
# Density = 2.400485 g / cm^3
# Si number density = 24.059615 Si / 1000 Ang^3
#
#
#
# Elastic Constant Matrix: (Units=GPa)
#
#
# Indices 1 2 3 4 5 6 
#
# 1 181.1438 17.9937 30.9454 1.8942 -45.9344 4.3407
# 2 17.9937 35.9422 2.4894 8.2482 -20.4636 -3.8300
# 3 30.9454 2.4894 82.0861 16.2715 -14.1286 2.0661
# 4 1.8942 8.2482 16.2715 39.2701 -10.4863 -1.3852
# 5 -45.9344 -20.4636 -14.1286 -10.4863 51.3056 3.8510
# 6 4.3407 -3.8300 2.0661 -1.3852 3.8510 34.0368
#
#
#
# Elastic Compliance Matrix: (Units=1/GPa)
#
#
# Indices 1 2 3 4 5 6 
#
# 1 0.007635 -0.000628 -0.002153 0.002361 0.006592 -0.001563
# 2 -0.000628 0.037194 0.002410 -0.005031 0.013731 0.002361
# 3 -0.002153 0.002410 0.014433 -0.005914 0.001858 -0.000781
# 4 0.002361 -0.005031 -0.005914 0.030097 0.004616 0.000194
# 5 0.006592 0.013731 0.001858 0.004616 0.032542 -0.002903
# 6 -0.001563 0.002361 -0.000781 0.000194 -0.002903 0.030229
#
#
# Mechanical properties :
#
#
# Convention : Reuss Voigt Hill
#
# Bulk Modulus (GPa) = 17.08876 44.66990 30.87933
# Shear Modulus (GPa) = 29.00576 41.43873 35.22225
#
# Velocity S-wave (km/s) = 3.47591 4.15461 3.83032
# Velocity P-wave (km/s) = 4.81948 6.45143 5.69422
#
# Compressibility (1/GPa) = 0.05851800
#
# Stress axis : x y z
#
# Youngs Moduli (GPa) = 130.97294 26.88634 69.28681
#
# Poissons Ratio (x) = 0.01690 0.14920
# Poissons Ratio (y) = 0.08231 -0.16699
# Poissons Ratio (z) = 0.28203 -0.06480
#
# Static dielectric constant tensor:
#      x y z
#    x 1.928700 0.020900 0.008890 
#    y 0.020900 1.926160 -0.030820 
#    z 0.008890 -0.030820 1.941470 
# 
# From -- ./inp_files/382209.got.cif
#   From: 2010.05.17/outbox.cif.g08.bks.cpg/sg2_192_cif.got.tgz:382209.got - 2010.06.03 11:33:40.
