data_PCOD9003968
_publ_section_title
;
Structure prediction by ZEFSAII (Michael W. Deem and Ramdas Pophale) SiO2 
 PCOD9003968
Probable space group: P -1
;
_chemical_formula_sum "Si O2"
_cell_formula_units_Z 12
_cell_length_a 11.099222
_cell_length_b 14.533388
_cell_length_c 5.299949
_cell_angle_alpha 75.411905
_cell_angle_beta 115.831080
_cell_angle_gamma 138.848012
_cell_volume 502.172299
_symmetry_space_group_name_H-M "P -1"
_symmetry_group_IT_number 2
_symmetry_cell_setting 'triclinic'
loop_
_space_group_symop_operation_xyz
x,y,z
-x,-y,-z
loop_
_atom_site_type_symbol
_atom_site_label
_atom_site_fract_x
_atom_site_fract_y
_atom_site_fract_z
Si Si1 0.916598 0.207725 0.514577
Si Si2 0.641769 0.217614 0.448789
Si Si3 0.534475 0.628801 0.603268
Si Si4 0.678150 0.674853 0.205908
Si Si5 0.123107 0.502477 0.303714
Si Si6 0.581578 0.936231 0.143753
O O1 0.808578 0.074422 0.330390
O O2 0.119656 0.266675 0.752863
O O3 0.991128 0.341296 0.349555
O O4 0.755769 0.174010 0.576246
O O5 0.801733 0.386681 0.484512
O O6 0.524501 0.163267 0.640833
O O7 0.495316 0.148683 0.126040
O O8 0.696702 0.729685 0.463865
O O9 0.476063 0.489944 0.733683
O O10 0.331013 0.566497 0.358298
O O11 0.598726 0.698101 0.891410
O O12 0.000000 0.500000 0.000000
O O13 0.500000 0.000000 0.000000
#
# Coordination Sequence:
#
# PCOD9003968 Si02
#       6
#     2   2   2   2   2   2
#     4  10  21  37  63  91 116 154 206 242 283 351
#     4  11  23  38  57  88 125 153 184 243 308 347
#     4   9  20  36  54  82 117 150 187 240 296 334
#     4   9  19  35  57  82 112 151 196 241 278 336
#     4  11  23  38  62  92 122 152 194 246 299 354
#     4  10  21  38  57  83 121 158 192 236 292 349
#
# _framework density 23.896179
#
# number of rings (size 3 to 8) (size 9 to 14) (size 15 to 20)
#    0.000    2.000    0.000    4.500    0.000   13.333 
#    0.000    0.000    0.000    6.000    0.000    0.000 
#    0.000    0.000    0.000    0.000    0.000    0.000 
#
# Total GULP energy -66910.994872 kJ/mol
# GULP energy per Si atom -5575.916239 kJ/mol
# Density = 2.384179 g / cm^3
# Si number density = 23.896179 Si / 1000 Ang^3
#
#
#
# Elastic Constant Matrix: (Units=GPa)
#
#
# Indices 1 2 3 4 5 6 
#
# 1 85.5764 14.7367 38.6569 0.8752 1.7644 1.8965
# 2 14.7367 114.8142 44.0785 12.2796 -11.5121 -2.4111
# 3 38.6569 44.0785 137.0641 -0.2546 -10.8847 5.4976
# 4 0.8752 12.2796 -0.2546 27.7924 3.7492 -5.3249
# 5 1.7644 -11.5121 -10.8847 3.7492 42.1085 6.8358
# 6 1.8965 -2.4111 5.4976 -5.3249 6.8358 24.3769
#
#
#
# Elastic Compliance Matrix: (Units=1/GPa)
#
#
# Indices 1 2 3 4 5 6 
#
# 1 0.013515 -0.000437 -0.003817 0.000012 -0.001714 0.000249
# 2 -0.000437 0.010785 -0.003145 -0.005143 0.002620 -0.000048
# 3 -0.003817 -0.003145 0.009661 0.000806 0.002151 -0.002620
# 4 0.000012 -0.005143 0.000806 0.041072 -0.006495 0.010102
# 5 -0.001714 0.002620 0.002151 -0.006495 0.027152 -0.009125
# 6 0.000249 -0.000048 -0.002620 0.010102 -0.009125 0.046355
#
#
# Mechanical properties :
#
#
# Convention : Reuss Voigt Hill
#
# Bulk Modulus (GPa) = 52.18406 59.15544 55.66975
# Shear Modulus (GPa) = 29.45953 34.85439 32.15696
#
# Velocity S-wave (km/s) = 3.51495 3.82327 3.67235
# Velocity P-wave (km/s) = 6.19342 6.65574 6.42873
#
# Compressibility (1/GPa) = 0.01916294
#
# Stress axis : x y z
#
# Youngs Moduli (GPa) = 73.99332 92.72361 103.50761
#
# Poissons Ratio (x) = 0.04052 0.39511
# Poissons Ratio (y) = 0.03234 0.32549
# Poissons Ratio (z) = 0.28245 0.29158
#
# Static dielectric constant tensor:
#      x y z
#    x 2.137630 -0.017270 -0.114840 
#    y -0.017270 2.023990 0.084040 
#    z -0.114840 0.084040 1.995350 
# 
# From -- ./inp_files/99550.got.cif
#   From: 2010.05.17/outbox.cif.g08.bks.cpg/sg2_50_cif.got.tgz:99550.got - 2010.06.03 11:33:40.
