data_PCOD9003310
_publ_section_title
;
Structure prediction by ZEFSAII (Michael W. Deem and Ramdas Pophale) SiO2 
 PCOD9003310
Probable space group: P -1
;
_chemical_formula_sum "Si O2"
_cell_formula_units_Z 12
_cell_length_a 5.483877
_cell_length_b 17.224378
_cell_length_c 16.598874
_cell_angle_alpha 15.975336
_cell_angle_beta 72.350136
_cell_angle_gamma 72.853920
_cell_volume 411.169014
_symmetry_space_group_name_H-M "P -1"
_symmetry_group_IT_number 2
_symmetry_cell_setting 'triclinic'
loop_
_space_group_symop_operation_xyz
x,y,z
-x,-y,-z
loop_
_atom_site_type_symbol
_atom_site_label
_atom_site_fract_x
_atom_site_fract_y
_atom_site_fract_z
Si Si1 0.839300 0.473843 0.742755
Si Si2 0.698506 0.742706 0.736397
Si Si3 0.832230 0.516868 0.115025
Si Si4 0.700568 0.215331 0.851250
Si Si5 0.304748 0.720660 0.385900
Si Si6 0.499756 0.010312 0.696873
O O1 0.858540 0.304795 0.824393
O O2 0.106081 0.640702 0.555526
O O3 0.646802 0.740808 0.487752
O O4 0.725055 0.226216 0.059282
O O5 0.898301 0.654543 0.734050
O O6 0.500000 0.000000 0.500000
O O7 0.500000 0.500000 0.000000
O O8 0.847252 0.707720 0.841611
O O9 0.645714 0.247534 0.392257
O O10 0.718154 0.765494 0.937535
O O11 0.483606 0.452348 0.627363
O O12 0.834158 0.205673 0.759717
O O13 0.511872 0.959035 0.139708
#
# Coordination Sequence:
#
# PCOD9003310 Si02
#       6
#     2   2   2   2   2   2
#     4  11  21  39  61  85 121 170 218 252 313 397
#     4  11  22  39  70  98 120 163 211 255 319 372
#     4  10  22  43  61  92 136 158 204 274 304 368
#     4  10  21  37  59  88 119 156 211 275 326 367
#     4  10  21  37  59  88 119 156 211 275 326 367
#     4  10  22  39  61  86 126 176 204 248 324 378
#
# _framework density 29.185075999999999
#
# number of rings (size 3 to 8) (size 9 to 14) (size 15 to 20)
#    0.000    1.667    0.000    4.500    0.000    2.667 
#    0.000   31.667    0.000    0.000    0.000    0.000 
#    0.000    0.000    0.000    0.000    0.000    0.000 
#
# Total GULP energy -66822.240562 kJ/mol
# GULP energy per Si atom -5568.520047 kJ/mol
# Density = 2.911865 g / cm^3
# Si number density = 29.185076 Si / 1000 Ang^3
#
#
#
# Elastic Constant Matrix: (Units=GPa)
#
#
# Indices 1 2 3 4 5 6 
#
# 1 66.5868 32.2883 38.0881 0.3810 -1.3689 -21.2844
# 2 32.2883 120.5974 69.9346 -9.1781 5.0143 -38.7444
# 3 38.0881 69.9346 312.6434 -19.5149 -5.8110 -26.8433
# 4 0.3810 -9.1781 -19.5149 75.3407 -16.2083 -0.4236
# 5 -1.3689 5.0143 -5.8110 -16.2083 58.9147 2.6572
# 6 -21.2844 -38.7444 -26.8433 -0.4236 2.6572 54.2418
#
#
#
# Elastic Compliance Matrix: (Units=1/GPa)
#
#
# Indices 1 2 3 4 5 6 
#
# 1 0.018604 -0.002803 -0.001282 -0.000712 0.000139 0.004651
# 2 -0.002803 0.012458 -0.001823 0.000798 -0.001400 0.006972
# 3 -0.001282 -0.001823 0.003841 0.000943 0.000761 0.000066
# 4 -0.000712 0.000798 0.000943 0.014474 0.003960 0.000676
# 5 0.000139 -0.001400 0.000761 0.003960 0.018325 -0.001436
# 6 0.004651 0.006972 0.000066 0.000676 -0.001436 0.025349
#
#
# Mechanical properties :
#
#
# Convention : Reuss Voigt Hill
#
# Bulk Modulus (GPa) = 43.31346 86.71661 65.01503
# Shear Modulus (GPa) = 44.41904 61.66721 53.04312
#
# Velocity S-wave (km/s) = 3.90549 4.60169 4.26781
# Velocity P-wave (km/s) = 5.93382 7.61651 6.82721
#
# Compressibility (1/GPa) = 0.02308751
#
# Stress axis : x y z
#
# Youngs Moduli (GPa) = 53.75121 80.26691 260.33818
#
# Poissons Ratio (x) = 0.22501 0.33373
# Poissons Ratio (y) = 0.15068 0.47458
# Poissons Ratio (z) = 0.06890 0.14632
#
# Static dielectric constant tensor:
#      x y z
#    x 2.290730 0.187760 0.047540 
#    y 0.187760 2.548910 0.057800 
#    z 0.047540 0.057800 2.085320 
# 
# From -- ./inp_files/125214.got.cif
#   From: 2010.05.17/outbox.cif.g08.bks.cpg/sg2_63_cif.got.tgz:125214.got - 2010.06.03 11:33:40.
