data_PCOD9003224
_publ_section_title
;
Structure prediction by ZEFSAII (Michael W. Deem and Ramdas Pophale) SiO2 
 PCOD9003224
Probable space group: P -1
;
_chemical_formula_sum "Si O2"
_cell_formula_units_Z 16
_cell_length_a 14.415131
_cell_length_b 8.125084
_cell_length_c 10.847281
_cell_angle_alpha 36.697522
_cell_angle_beta 76.393217
_cell_angle_gamma 88.951484
_cell_volume 705.472684
_symmetry_space_group_name_H-M "P -1"
_symmetry_group_IT_number 2
_symmetry_cell_setting 'triclinic'
loop_
_space_group_symop_operation_xyz
x,y,z
-x,-y,-z
loop_
_atom_site_type_symbol
_atom_site_label
_atom_site_fract_x
_atom_site_fract_y
_atom_site_fract_z
Si Si1 0.564809 0.459023 0.122536
Si Si2 0.081464 0.922009 0.110808
Si Si3 0.078062 0.280240 0.531226
Si Si4 0.268531 0.136632 0.297955
Si Si5 0.777514 0.820026 0.271229
Si Si6 0.868456 0.471322 0.942161
Si Si7 0.901017 0.248506 0.314049
Si Si8 0.613968 0.850852 0.484120
O O1 0.491878 0.380809 0.310186
O O2 0.599787 0.167390 0.274377
O O3 0.500000 0.500000 0.000000
O O4 0.654184 0.756319 0.902929
O O5 0.080606 0.591219 0.295484
O O6 0.030075 0.899362 0.274091
O O7 0.188287 0.140571 0.906208
O O8 0.000000 0.000000 0.000000
O O9 0.159779 0.354677 0.570535
O O10 0.106076 0.053877 0.569701
O O11 0.212137 0.379861 0.165195
O O12 0.323098 0.130357 0.417628
O O13 0.179584 0.837930 0.500483
O O14 0.669532 0.758938 0.405115
O O15 0.831246 0.145512 0.104806
O O16 0.982405 0.621604 0.777423
O O17 0.871162 0.449998 0.102502
#
# Coordination Sequence:
#
# PCOD9003224 Si02
#       8
#     2   2   2   2   2   2   2   2
#     4   9  19  28  42  59  84 118 152 185 221 261
#     4   9  18  28  43  60  81 115 150 186 225 260
#     4   9  17  30  42  61  85 115 153 187 217 256
#     4  11  16  28  41  58  85 119 149 182 218 257
#     4  10  17  28  45  62  89 119 149 180 219 264
#     4  10  19  28  42  65  90 122 153 182 215 261
#     4  10  19  29  43  64  90 121 156 182 215 263
#     4  10  18  29  41  63  85 119 152 182 221 269
#
# _framework density 22.679829000000002
#
# number of rings (size 3 to 8) (size 9 to 14) (size 15 to 20)
#    0.000    2.250    3.750    1.125    0.000    0.000 
#    0.000    0.000    0.000    0.000    0.000    0.000 
#    0.000    1.000    0.000   68.375    0.000   57.375 
#
# Total GULP energy -89107.650149 kJ/mol
# GULP energy per Si atom -5569.228134 kJ/mol
# Density = 2.262821 g / cm^3
# Si number density = 22.679829 Si / 1000 Ang^3
#
#
#
# Elastic Constant Matrix: (Units=GPa)
#
#
# Indices 1 2 3 4 5 6 
#
# 1 71.7934 14.6022 49.3970 0.4435 16.9145 -24.0568
# 2 14.6022 46.8554 33.4644 9.2946 -0.0949 -15.9761
# 3 49.3970 33.4644 193.5989 29.6527 -16.5188 -26.5175
# 4 0.4435 9.2946 29.6527 44.4907 -27.8162 -7.2371
# 5 16.9145 -0.0949 -16.5188 -27.8162 66.2355 -0.2122
# 6 -24.0568 -15.9761 -26.5175 -7.2371 -0.2122 19.6853
#
#
#
# Elastic Compliance Matrix: (Units=1/GPa)
#
#
# Indices 1 2 3 4 5 6 
#
# 1 0.029635 0.005643 -0.004761 0.002775 -0.007469 0.035322
# 2 0.005643 0.031576 -0.003061 -0.001908 -0.002872 0.027666
# 3 -0.004761 -0.003061 0.007667 -0.003152 0.001803 0.000886
# 4 0.002775 -0.001908 -0.003152 0.034924 0.013203 0.010579
# 5 -0.007469 -0.002872 0.001803 0.013203 0.022982 -0.003928
# 6 0.035322 0.027666 0.000886 0.010579 -0.003928 0.121460
#
#
# Mechanical properties :
#
#
# Convention : Reuss Voigt Hill
#
# Bulk Modulus (GPa) = 15.49917 56.35279 35.92598
# Shear Modulus (GPa) = 18.24086 40.40123 29.32104
#
# Velocity S-wave (km/s) = 2.83905 4.22521 3.59949
# Velocity P-wave (km/s) = 4.19472 6.97884 5.75760
#
# Compressibility (1/GPa) = 0.06451960
#
# Stress axis : x y z
#
# Youngs Moduli (GPa) = 33.74346 31.66975 130.42537
#
# Poissons Ratio (x) = -0.17871 0.62096
# Poissons Ratio (y) = -0.19041 0.39925
# Poissons Ratio (z) = 0.16065 0.09695
#
# Static dielectric constant tensor:
#      x y z
#    x 1.895680 -0.024510 -0.029010 
#    y -0.024510 1.933390 0.120630 
#    z -0.029010 0.120630 1.990220 
# 
# From -- ./inp_files/530869.got.cif
#   From: 2010.05.17/outbox.cif.g08.bks.cpg/sg2_266_cif.got.tgz:530869.got - 2010.06.03 11:33:40.
