data_PCOD9003730
_publ_section_title
;
Structure prediction by ZEFSAII (Michael W. Deem and Ramdas Pophale) SiO2 
 PCOD9003730
Probable space group: P -1
;
_chemical_formula_sum "Si O2"
_cell_formula_units_Z 16
_cell_length_a 11.943957
_cell_length_b 9.696806
_cell_length_c 22.101305
_cell_angle_alpha 35.810676
_cell_angle_beta 25.593324
_cell_angle_gamma 48.309373
_cell_volume 624.347734
_symmetry_space_group_name_H-M "P -1"
_symmetry_group_IT_number 2
_symmetry_cell_setting 'triclinic'
loop_
_space_group_symop_operation_xyz
x,y,z
-x,-y,-z
loop_
_atom_site_type_symbol
_atom_site_label
_atom_site_fract_x
_atom_site_fract_y
_atom_site_fract_z
Si Si1 0.813512 0.739103 0.208936
Si Si2 0.902373 0.137662 0.625961
Si Si3 0.465804 0.540918 0.107072
Si Si4 0.924525 0.293941 0.691735
Si Si5 0.633312 0.757388 0.164003
Si Si6 0.222113 0.083330 0.716697
Si Si7 0.684611 0.393240 0.175331
Si Si8 0.095790 0.326618 0.258522
O O1 0.666998 0.640063 0.253802
O O2 0.649721 0.797229 0.325641
O O3 0.959763 0.544505 0.233332
O O4 0.000000 0.000000 0.000000
O O5 0.913797 0.130846 0.695666
O O6 0.593232 0.099372 0.769408
O O7 0.029449 0.421716 0.447954
O O8 0.043862 0.956117 0.587113
O O9 0.350110 0.748497 0.121242
O O10 0.615002 0.432628 0.125831
O O11 0.222300 0.366311 0.249533
O O12 0.677821 0.634752 0.917679
O O13 0.152303 0.254498 0.639298
O O14 0.540607 0.546918 0.233815
O O15 0.920692 0.926601 0.941338
O O16 0.371742 0.893728 0.684461
O O17 0.000000 0.500000 0.000000
#
# Coordination Sequence:
#
# PCOD9003730 Si02
#       8
#     2   2   2   2   2   2   2   2
#     4  10  21  39  61  96 132 152 199 264 315 369
#     4  11  26  41  63  89 130 168 212 260 302 368
#     4  11  22  40  66  94 124 158 213 255 316 369
#     4  11  24  45  60  88 129 171 213 256 306 365
#     4  10  21  38  63  93 122 161 205 264 313 364
#     4  10  21  38  65  88 125 162 203 261 316 367
#     4  10  21  37  61  98 123 157 203 263 310 370
#     4  11  24  38  67  99 120 165 206 260 315 370
#
# _framework density 25.626746000000001
#
# number of rings (size 3 to 8) (size 9 to 14) (size 15 to 20)
#    0.000    1.500    2.500    3.000   12.250    1.500 
#    0.000    2.500    0.000    0.000    0.000    0.000 
#    0.000    0.000    0.000    0.000    0.000    0.000 
#
# Total GULP energy -89497.649672 kJ/mol
# GULP energy per Si atom -5593.603105 kJ/mol
# Density = 2.556842 g / cm^3
# Si number density = 25.626746 Si / 1000 Ang^3
#
#
#
# Elastic Constant Matrix: (Units=GPa)
#
#
# Indices 1 2 3 4 5 6 
#
# 1 192.5919 49.5534 35.8237 -12.3626 22.1229 13.3090
# 2 49.5534 149.6835 9.2200 -20.3022 7.7920 7.1696
# 3 35.8237 9.2200 53.4513 -5.0892 -5.8966 -1.4746
# 4 -12.3626 -20.3022 -5.0892 26.5475 0.4987 2.0883
# 5 22.1229 7.7920 -5.8966 0.4987 30.8858 6.7438
# 6 13.3090 7.1696 -1.4746 2.0883 6.7438 44.9649
#
#
#
# Elastic Compliance Matrix: (Units=1/GPa)
#
#
# Indices 1 2 3 4 5 6 
#
# 1 0.007398 -0.001574 -0.005206 0.001453 -0.005628 -0.001333
# 2 -0.001574 0.008030 0.000085 0.005513 -0.000763 -0.000953
# 3 -0.005206 0.000085 0.023260 0.001871 0.007895 0.001019
# 4 0.001453 0.005513 0.001871 0.043191 -0.002131 -0.002934
# 5 -0.005628 -0.000763 0.007895 -0.002131 0.038950 -0.003696
# 6 -0.001333 -0.000953 0.001019 -0.002934 -0.003696 0.023510
#
#
# Mechanical properties :
#
#
# Convention : Reuss Voigt Hill
#
# Bulk Modulus (GPa) = 39.53082 64.99121 52.26102
# Shear Modulus (GPa) = 30.09122 40.55496 35.32309
#
# Velocity S-wave (km/s) = 3.43039 3.98241 3.71667
# Velocity P-wave (km/s) = 5.58115 6.82363 6.23342
#
# Compressibility (1/GPa) = 0.02529671
#
# Stress axis : x y z
#
# Youngs Moduli (GPa) = 135.17978 124.53423 42.99207
#
# Poissons Ratio (x) = 0.19607 0.22380
# Poissons Ratio (y) = 0.21283 -0.00363
# Poissons Ratio (z) = 0.70369 -0.01053
#
# Static dielectric constant tensor:
#      x y z
#    x 1.987930 0.026980 -0.064840 
#    y 0.026980 2.075080 -0.068440 
#    z -0.064840 -0.068440 2.184180 
# 
# From -- ./inp_files/590995.got.cif
#   From: 2010.05.17/outbox.cif.g08.bks.cpg/sg2_296_cif.got.tgz:590995.got - 2010.06.03 11:33:40.
