data_PCOD9003733
_publ_section_title
;
Structure prediction by ZEFSAII (Michael W. Deem and Ramdas Pophale) SiO2 
 PCOD9003733
Probable space group: P -1
;
_chemical_formula_sum "Si O2"
_cell_formula_units_Z 16
_cell_length_a 12.602032
_cell_length_b 12.578598
_cell_length_c 4.986045
_cell_angle_alpha 74.066492
_cell_angle_beta 61.807121
_cell_angle_gamma 66.990608
_cell_volume 637.233947
_symmetry_space_group_name_H-M "P -1"
_symmetry_group_IT_number 2
_symmetry_cell_setting 'triclinic'
loop_
_space_group_symop_operation_xyz
x,y,z
-x,-y,-z
loop_
_atom_site_type_symbol
_atom_site_label
_atom_site_fract_x
_atom_site_fract_y
_atom_site_fract_z
Si Si1 0.175281 0.676401 0.300224
Si Si2 0.036750 0.374152 0.685841
Si Si3 0.203641 0.307159 0.044365
Si Si4 0.292543 0.915075 0.491853
Si Si5 0.410129 0.669071 0.709386
Si Si6 0.038773 0.884129 0.711462
Si Si7 0.671194 0.519261 0.412830
Si Si8 0.752260 0.930526 0.085496
O O1 0.095651 0.776455 0.520165
O O2 0.216337 0.552206 0.482894
O O3 0.087216 0.667733 0.162387
O O4 0.307205 0.695499 0.049266
O O5 0.091439 0.364501 0.924374
O O6 0.000000 0.500000 0.500000
O O7 0.144304 0.296733 0.409654
O O8 0.285374 0.394967 0.891928
O O9 0.276657 0.181796 0.920703
O O10 0.393992 0.789425 0.493511
O O11 0.156677 0.894125 0.739397
O O12 0.313336 0.007927 0.611570
O O13 0.278635 0.971095 0.176670
O O14 0.552901 0.600349 0.664846
O O15 0.369098 0.578510 0.631935
O O16 0.000000 0.000000 0.500000
O O17 0.904588 0.885239 0.990356
#
# Coordination Sequence:
#
# PCOD9003733 Si02
#       8
#     2   2   2   2   2   2   2   2
#     4  12  23  42  67 102 142 177 228 285 354 414
#     4  12  25  40  69 100 144 181 222 276 352 426
#     4  12  26  46  67 104 146 184 226 284 350 425
#     4  11  23  43  67  98 136 183 233 286 338 409
#     4  11  25  45  72  98 136 182 244 294 339 406
#     4  10  21  37  61  98 135 174 217 274 344 405
#     4  11  26  46  68 101 136 189 235 290 347 405
#     4  11  24  42  66 101 141 180 229 278 352 418
#
# _framework density 25.108516999999999
#
# number of rings (size 3 to 8) (size 9 to 14) (size 15 to 20)
#    0.000    0.750    3.750    4.125    5.250    0.000 
#    0.000    1.250    0.000    0.000    0.000    0.000 
#    0.000    0.000    0.000    0.000    0.000    0.000 
#
# Total GULP energy -89687.461773 kJ/mol
# GULP energy per Si atom -5605.466361 kJ/mol
# Density = 2.505137 g / cm^3
# Si number density = 25.108517 Si / 1000 Ang^3
#
#
#
# Elastic Constant Matrix: (Units=GPa)
#
#
# Indices 1 2 3 4 5 6 
#
# 1 44.7469 39.2024 14.9838 7.7679 6.6092 -11.9671
# 2 39.2024 149.6231 9.1529 -1.7434 0.9633 -22.0149
# 3 14.9838 9.1529 71.3322 1.4567 6.0092 -10.3573
# 4 7.7679 -1.7434 1.4567 39.4639 1.1205 3.8943
# 5 6.6092 0.9633 6.0092 1.1205 23.8677 5.7504
# 6 -11.9671 -22.0149 -10.3573 3.8943 5.7504 24.4457
#
#
#
# Elastic Compliance Matrix: (Units=1/GPa)
#
#
# Indices 1 2 3 4 5 6 
#
# 1 0.037134 -0.007449 -0.003597 -0.008559 -0.012084 0.014153
# 2 -0.007449 0.009310 0.001043 0.001348 0.000175 0.004924
# 3 -0.003597 0.001043 0.016100 -0.000414 -0.004814 0.007198
# 4 -0.008559 0.001348 -0.000414 0.027832 0.003117 -0.008318
# 5 -0.012084 0.000175 -0.004814 0.003117 0.051203 -0.020339
# 6 0.014153 0.004924 0.007198 -0.008318 -0.020339 0.061429
#
#
# Mechanical properties :
#
#
# Convention : Reuss Voigt Hill
#
# Bulk Modulus (GPa) = 23.50820 43.59782 33.55301
# Shear Modulus (GPa) = 21.07990 31.04634 26.06312
#
# Velocity S-wave (km/s) = 2.90065 3.52019 3.22533
# Velocity P-wave (km/s) = 4.53886 5.82441 5.22135
#
# Compressibility (1/GPa) = 0.04253835
#
# Stress axis : x y z
#
# Youngs Moduli (GPa) = 26.92954 107.40644 62.11264
#
# Poissons Ratio (x) = 0.80006 0.22340
# Poissons Ratio (y) = 0.20060 -0.06477
# Poissons Ratio (z) = 0.09686 -0.11200
#
# Static dielectric constant tensor:
#      x y z
#    x 2.023760 -0.007890 -0.024180 
#    y -0.007890 2.006500 -0.020630 
#    z -0.024180 -0.020630 1.975350 
# 
# From -- ./inp_files/94543.got.cif
#   From: 2010.05.17/outbox.cif.g08.bks.cpg/sg2_48_cif.got.tgz:94543.got - 2010.06.03 11:33:40.
