data_PCOD9003715
_publ_section_title
;
Structure prediction by ZEFSAII (Michael W. Deem and Ramdas Pophale) SiO2 
 PCOD9003715
Probable space group: P -1
;
_chemical_formula_sum "Si O2"
_cell_formula_units_Z 16
_cell_length_a 12.071659
_cell_length_b 17.740762
_cell_length_c 9.568736
_cell_angle_alpha 122.804571
_cell_angle_beta 87.115059
_cell_angle_gamma 43.488177
_cell_volume 761.276867
_symmetry_space_group_name_H-M "P -1"
_symmetry_group_IT_number 2
_symmetry_cell_setting 'triclinic'
loop_
_space_group_symop_operation_xyz
x,y,z
-x,-y,-z
loop_
_atom_site_type_symbol
_atom_site_label
_atom_site_fract_x
_atom_site_fract_y
_atom_site_fract_z
Si Si1 0.701868 0.480431 0.474733
Si Si2 0.354899 0.376328 0.665566
Si Si3 0.142707 0.825214 0.912261
Si Si4 0.211951 0.281354 0.920394
Si Si5 0.694598 0.468116 0.919327
Si Si6 0.085205 0.555376 0.335898
Si Si7 0.145385 0.816986 0.224214
Si Si8 0.418820 0.138684 0.445886
O O1 0.651907 0.556742 0.401610
O O2 0.431373 0.648637 0.720026
O O3 0.858648 0.274556 0.249393
O O4 0.831904 0.462501 0.541468
O O5 0.421241 0.387065 0.805279
O O6 0.509772 0.172392 0.436386
O O7 0.074379 0.542945 0.879812
O O8 0.055817 0.883537 0.137007
O O9 0.000000 0.000000 0.000000
O O10 0.300601 0.227901 0.700534
O O11 0.370258 0.088634 0.787968
O O12 0.234231 0.358575 0.079373
O O13 0.449325 0.608675 0.997854
O O14 0.855537 0.411551 0.748692
O O15 0.871466 0.265237 0.775671
O O16 0.796550 0.736422 0.521599
O O17 0.000000 0.000000 0.500000
#
# Coordination Sequence:
#
# PCOD9003715 Si02
#       8
#     2   2   2   2   2   2   2   2
#     4  11  26  43  62  86 130 171 202 247 314 380
#     4  11  21  41  62  89 121 166 202 249 308 367
#     4  11  26  44  61  91 131 165 205 255 314 370
#     4  10  21  37  61  96 123 149 205 261 306 357
#     4  11  22  41  66  90 128 159 212 257 302 366
#     4  11  21  41  62  89 121 166 202 249 308 367
#     4  11  26  40  65  99 121 157 215 265 302 362
#     4  10  21  37  63  92 123 155 200 264 306 351
#
# _framework density 21.017320999999999
#
# number of rings (size 3 to 8) (size 9 to 14) (size 15 to 20)
#    0.000    1.250    5.000    0.750    3.500    6.000 
#    0.000    1.250    0.000    0.000    0.000    0.000 
#    0.000    0.000    0.000    0.000    0.000    0.000 
#
# Total GULP energy -89444.412358 kJ/mol
# GULP energy per Si atom -5590.275772 kJ/mol
# Density = 2.096948 g / cm^3
# Si number density = 21.017321 Si / 1000 Ang^3
#
#
#
# Elastic Constant Matrix: (Units=GPa)
#
#
# Indices 1 2 3 4 5 6 
#
# 1 50.6040 3.6927 2.1356 8.4787 11.4285 10.7345
# 2 3.6927 66.3738 14.2536 1.2998 -2.7822 8.9899
# 3 2.1356 14.2536 53.7482 14.8001 10.7972 2.9155
# 4 8.4787 1.2998 14.8001 34.4813 7.8329 13.7217
# 5 11.4285 -2.7822 10.7972 7.8329 15.6695 -5.3689
# 6 10.7345 8.9899 2.9155 13.7217 -5.3689 46.7097
#
#
#
# Elastic Compliance Matrix: (Units=1/GPa)
#
#
# Indices 1 2 3 4 5 6 
#
# 1 0.028164 -0.002645 0.005572 0.001359 -0.028970 -0.010040
# 2 -0.002645 0.017138 -0.006390 0.001710 0.007872 -0.001889
# 3 0.005572 -0.006390 0.026209 -0.006928 -0.020483 -0.002006
# 4 0.001359 0.001710 -0.006928 0.042834 -0.022599 -0.015390
# 5 -0.028970 0.007872 -0.020483 -0.022599 0.120995 0.026967
# 6 -0.010040 -0.001889 -0.002006 -0.015390 0.026967 0.031826
#
#
# Mechanical properties :
#
#
# Convention : Reuss Voigt Hill
#
# Bulk Modulus (GPa) = 15.48297 23.43221 19.45759
# Shear Modulus (GPa) = 16.91366 29.41505 23.16436
#
# Velocity S-wave (km/s) = 2.83989 3.74513 3.32347
# Velocity P-wave (km/s) = 4.25864 5.46576 4.89952
#
# Compressibility (1/GPa) = 0.06458708
#
# Stress axis : x y z
#
# Youngs Moduli (GPa) = 35.50660 58.35032 38.15424
#
# Poissons Ratio (x) = 0.15431 -0.21260
# Poissons Ratio (y) = 0.09390 0.24379
# Poissons Ratio (z) = -0.19785 0.37284
#
# Static dielectric constant tensor:
#      x y z
#    x 1.769740 0.007600 0.007880 
#    y 0.007600 1.744070 0.010130 
#    z 0.007880 0.010130 1.756360 
# 
# From -- ./inp_files/279895.got.cif
#   From: 2010.05.17/outbox.cif.g08.bks.cpg/sg2_140_cif.got.tgz:279895.got - 2010.06.03 11:33:40.
