data_PCOD9003236
_publ_section_title
;
Structure prediction by ZEFSAII (Michael W. Deem and Ramdas Pophale) SiO2 
 PCOD9003236
Probable space group: P -1
;
_chemical_formula_sum "Si O2"
_cell_formula_units_Z 14
_cell_length_a 6.977309
_cell_length_b 16.885240
_cell_length_c 17.456672
_cell_angle_alpha 155.867515
_cell_angle_beta 53.996914
_cell_angle_gamma 130.191509
_cell_volume 642.314133
_symmetry_space_group_name_H-M "P -1"
_symmetry_group_IT_number 2
_symmetry_cell_setting 'triclinic'
loop_
_space_group_symop_operation_xyz
x,y,z
-x,-y,-z
loop_
_atom_site_type_symbol
_atom_site_label
_atom_site_fract_x
_atom_site_fract_y
_atom_site_fract_z
Si Si1 0.563329 0.307603 0.278625
Si Si2 0.293278 0.532409 0.965099
Si Si3 0.567295 0.238732 0.713135
Si Si4 0.055891 0.728344 0.718947
Si Si5 0.282485 0.347676 0.137381
Si Si6 0.017274 0.053955 0.213330
Si Si7 0.004905 0.613566 0.371629
O O1 0.500000 0.500000 0.500000
O O2 0.187716 0.262563 0.168572
O O3 0.300637 0.127281 0.179250
O O4 0.743215 0.425050 0.270665
O O5 0.413650 0.708988 0.155687
O O6 0.375627 0.341315 0.809223
O O7 0.434396 0.595551 0.906502
O O8 0.000000 0.500000 0.000000
O O9 0.844829 0.345116 0.705863
O O10 0.500000 0.000000 0.500000
O O11 0.268375 0.762757 0.762493
O O12 0.125099 0.869101 0.753002
O O13 0.000000 0.500000 0.500000
O O14 0.190881 0.544057 0.323001
O O15 0.116887 0.187344 0.971209
O O16 0.020338 0.180465 0.401957
#
# Coordination Sequence:
#
# PCOD9003236 Si02
#       7
#     2   2   2   2   2   2   2
#     4   9  18  33  53  80 112 150 184 226 281 339
#     4  10  23  43  62  90 124 157 205 260 305 364
#     4  10  21  41  66  88 120 160 204 257 310 359
#     4  11  19  35  55  81 117 151 188 232 283 348
#     4  10  21  37  59  83 114 158 187 241 300 340
#     4  11  20  36  57  81 119 148 193 232 282 356
#     4   9  19  35  56  84 112 153 189 239 293 346
#
# _framework density 21.796189999999999
#
# number of rings (size 3 to 8) (size 9 to 14) (size 15 to 20)
#    0.000    2.000    4.286    1.286    0.000    4.000 
#    0.000    7.143    0.000    0.000    0.000    0.000 
#    0.000    0.000    0.000    0.000    0.000    0.000 
#
# Total GULP energy -78063.923180 kJ/mol
# GULP energy per Si atom -5575.994513 kJ/mol
# Density = 2.174658 g / cm^3
# Si number density = 21.796190 Si / 1000 Ang^3
#
#
#
# Elastic Constant Matrix: (Units=GPa)
#
#
# Indices 1 2 3 4 5 6 
#
# 1 64.4254 21.3446 23.7917 -3.6943 -7.2506 17.8593
# 2 21.3446 88.2857 14.5838 -28.3043 -7.2527 26.5308
# 3 23.7917 14.5838 118.8318 -4.1691 -1.5282 12.5521
# 4 -3.6943 -28.3043 -4.1691 35.9807 4.3253 1.8002
# 5 -7.2506 -7.2527 -1.5282 4.3253 19.5672 -6.4751
# 6 17.8593 26.5308 12.5521 1.8002 -6.4751 38.9494
#
#
#
# Elastic Compliance Matrix: (Units=1/GPa)
#
#
# Indices 1 2 3 4 5 6 
#
# 1 0.019402 -0.002261 -0.002966 -0.000367 0.004327 -0.005664
# 2 -0.002261 0.022082 -0.000049 0.018087 -0.001651 -0.015099
# 3 -0.002966 -0.000049 0.009226 0.000963 -0.001214 -0.001826
# 4 -0.000367 0.018087 0.000963 0.043888 -0.008310 -0.015872
# 5 0.004327 -0.001651 -0.001214 -0.008310 0.056944 0.009383
# 6 -0.005664 -0.015099 -0.001826 -0.015872 0.009383 0.041439
#
#
# Mechanical properties :
#
#
# Convention : Reuss Voigt Hill
#
# Bulk Modulus (GPa) = 24.90127 43.44258 34.17192
# Shear Modulus (GPa) = 23.05001 33.02098 28.03549
#
# Velocity S-wave (km/s) = 3.25549 3.89651 3.59033
# Velocity P-wave (km/s) = 5.05770 6.34179 5.73579
#
# Compressibility (1/GPa) = 0.04015860
#
# Stress axis : x y z
#
# Youngs Moduli (GPa) = 51.54029 45.28544 108.38702
#
# Poissons Ratio (x) = 0.10238 0.32148
# Poissons Ratio (y) = 0.11652 0.00533
# Poissons Ratio (z) = 0.15287 0.00223
#
# Static dielectric constant tensor:
#      x y z
#    x 1.802940 0.012290 -0.015060 
#    y 0.012290 1.845770 -0.004950 
#    z -0.015060 -0.004950 1.837380 
# 
# From -- ./inp_files/591691.got.cif
#   From: 2010.05.17/outbox.cif.g08.bks.cpg/sg2_296_cif.got.tgz:591691.got - 2010.06.03 11:33:40.
