data_PCOD9003638
_publ_section_title
;
Structure prediction by ZEFSAII (Michael W. Deem and Ramdas Pophale) SiO2 
 PCOD9003638
Probable space group: P -1
;
_chemical_formula_sum "Si O2"
_cell_formula_units_Z 14
_cell_length_a 14.212474
_cell_length_b 9.184499
_cell_length_c 7.274133
_cell_angle_alpha 49.180942
_cell_angle_beta 61.021890
_cell_angle_gamma 69.800044
_cell_volume 628.029429
_symmetry_space_group_name_H-M "P -1"
_symmetry_group_IT_number 2
_symmetry_cell_setting 'triclinic'
loop_
_space_group_symop_operation_xyz
x,y,z
-x,-y,-z
loop_
_atom_site_type_symbol
_atom_site_label
_atom_site_fract_x
_atom_site_fract_y
_atom_site_fract_z
Si Si1 0.422516 0.946287 0.394589
Si Si2 0.359412 0.259816 0.606517
Si Si3 0.101797 0.168608 0.406874
Si Si4 0.651706 0.357715 0.526617
Si Si5 0.865826 0.170801 0.632378
Si Si6 0.327520 0.304486 0.013115
Si Si7 0.212230 0.992300 0.779370
O O1 0.534417 0.868045 0.436432
O O2 0.412573 0.828547 0.307655
O O3 0.316296 0.900053 0.650721
O O4 0.403467 0.172103 0.179624
O O5 0.380763 0.486960 0.412586
O O6 0.258473 0.194039 0.641489
O O7 0.331126 0.208823 0.885984
O O8 0.204206 0.301562 0.196931
O O9 0.982474 0.262409 0.447282
O O10 0.114909 0.028607 0.333775
O O11 0.120551 0.036187 0.679598
O O12 0.773552 0.292954 0.511821
O O13 0.639423 0.484630 0.247251
O O14 0.825062 0.125558 0.912911
#
# Coordination Sequence:
#
# PCOD9003638 Si02
#       7
#     2   2   2   2   2   2   2
#     4  11  20  40  62  89 124 167 199 245 304 359
#     4  10  21  37  61  90 126 158 203 250 300 355
#     4  10  21  39  67  85 121 164 203 243 313 359
#     4  10  21  39  62  93 124 155 209 248 297 366
#     4  11  20  40  63  92 119 162 200 254 303 360
#     4   9  20  37  63  88 119 156 203 247 288 364
#     4  11  21  40  62  93 123 157 207 249 298 367
#
# _framework density 22.291951999999998
#
# number of rings (size 3 to 8) (size 9 to 14) (size 15 to 20)
#    0.857    0.857    4.286    1.714    0.000    0.571 
#    5.143    1.429    0.000    0.000    0.000    0.000 
#    0.000    0.000    0.000    0.000    0.000    0.000 
#
# Total GULP energy -78042.875033 kJ/mol
# GULP energy per Si atom -5574.491074 kJ/mol
# Density = 2.224121 g / cm^3
# Si number density = 22.291952 Si / 1000 Ang^3
#
#
#
# Elastic Constant Matrix: (Units=GPa)
#
#
# Indices 1 2 3 4 5 6 
#
# 1 96.6421 6.5780 14.6158 13.3145 -9.2949 -24.3706
# 2 6.5780 54.2910 17.8497 9.2097 -0.9070 -7.3674
# 3 14.6158 17.8497 51.5169 7.8419 7.5034 -9.9180
# 4 13.3145 9.2097 7.8419 31.9317 5.5585 -0.0897
# 5 -9.2949 -0.9070 7.5034 5.5585 23.9524 7.3214
# 6 -24.3706 -7.3674 -9.9180 -0.0897 7.3214 33.5250
#
#
#
# Elastic Compliance Matrix: (Units=1/GPa)
#
#
# Indices 1 2 3 4 5 6 
#
# 1 0.014278 0.001549 -0.002662 -0.006644 0.005298 0.008757
# 2 0.001549 0.022087 -0.007237 -0.005962 0.004200 0.002906
# 3 -0.002662 -0.007237 0.025717 -0.001172 -0.011078 0.006499
# 4 -0.006644 -0.005962 -0.001172 0.037810 -0.009922 -0.004219
# 5 0.005298 0.004200 -0.011078 -0.009922 0.052813 -0.010063
# 6 0.008757 0.002906 0.006499 -0.004219 -0.010063 0.040942
#
#
# Mechanical properties :
#
#
# Convention : Reuss Voigt Hill
#
# Bulk Modulus (GPa) = 22.03518 31.17078 26.60298
# Shear Modulus (GPa) = 22.17559 28.77559 25.47559
#
# Velocity S-wave (km/s) = 3.15744 3.59674 3.38422
# Velocity P-wave (km/s) = 4.81651 5.59125 5.21828
#
# Compressibility (1/GPa) = 0.04538197
#
# Stress axis : x y z
#
# Youngs Moduli (GPa) = 70.03837 45.27605 38.88516
#
# Poissons Ratio (x) = -0.07014 0.10351
# Poissons Ratio (y) = -0.10851 0.28141
# Poissons Ratio (z) = 0.18644 0.32766
#
# Static dielectric constant tensor:
#      x y z
#    x 1.818830 0.027270 -0.007670 
#    y 0.027270 1.847820 0.017220 
#    z -0.007670 0.017220 1.837710 
# 
# From -- ./inp_files/289464.got.cif
#   From: 2010.05.17/outbox.cif.g08.bks.cpg/sg2_145_cif.got.tgz:289464.got - 2010.06.03 11:33:40.
