data_PCOD9003191
_publ_section_title
;
Structure prediction by ZEFSAII (Michael W. Deem and Ramdas Pophale) SiO2 
 PCOD9003191
Probable space group: P -1
;
_chemical_formula_sum "Si O2"
_cell_formula_units_Z 14
_cell_length_a 19.576323
_cell_length_b 21.283011
_cell_length_c 9.239594
_cell_angle_alpha 34.272841
_cell_angle_beta 145.410950
_cell_angle_gamma 161.104220
_cell_volume 683.712362
_symmetry_space_group_name_H-M "P -1"
_symmetry_group_IT_number 2
_symmetry_cell_setting 'triclinic'
loop_
_space_group_symop_operation_xyz
x,y,z
-x,-y,-z
loop_
_atom_site_type_symbol
_atom_site_label
_atom_site_fract_x
_atom_site_fract_y
_atom_site_fract_z
Si Si1 0.286934 0.836855 0.340875
Si Si2 0.631859 0.887266 0.217665
Si Si3 0.174367 0.498571 0.695691
Si Si4 0.008134 0.000076 0.339679
Si Si5 0.795852 0.776105 0.012061
Si Si6 0.636451 0.425709 0.413345
Si Si7 0.468412 0.348797 0.784042
O O1 0.233940 0.671803 0.510056
O O2 0.074752 0.714642 0.290660
O O3 0.500000 0.000000 0.500000
O O4 0.334022 0.960562 0.060297
O O5 0.450596 0.724809 0.330993
O O6 0.564180 0.760051 0.201968
O O7 0.860684 0.013034 0.433135
O O8 0.225617 0.521549 0.573314
O O9 0.332421 0.542070 0.982924
O O10 0.759146 0.823763 0.198215
O O11 0.151378 0.196730 0.120898
O O12 0.000000 0.000000 0.500000
O O13 0.578748 0.681119 0.824641
O O14 0.764544 0.632100 0.303509
O O15 0.000000 0.000000 0.000000
O O16 0.500000 0.500000 0.500000
#
# Coordination Sequence:
#
# PCOD9003191 Si02
#       7
#     2   2   2   2   2   2   2
#     4  11  24  47  68  88 123 168 226 262 312 368
#     4  10  22  42  61  92 134 166 206 266 309 379
#     4  11  25  42  69  95 120 171 216 265 310 376
#     4   9  20  34  58  94 122 168 198 248 312 368
#     4  10  21  37  58  88 138 170 193 245 324 385
#     4  10  24  39  59  95 130 162 208 259 319 377
#     4  11  22  34  65  98 129 163 212 254 317 378
#
# _framework density 20.476448999999999
#
# number of rings (size 3 to 8) (size 9 to 14) (size 15 to 20)
#    0.000    1.714    1.429    1.714   14.000    1.714 
#    0.000    0.714    0.000    0.000    0.000    0.000 
#    0.000    0.000    0.000    0.000    0.000    0.000 
#
# Total GULP energy -78185.225279 kJ/mol
# GULP energy per Si atom -5584.658948 kJ/mol
# Density = 2.042984 g / cm^3
# Si number density = 20.476449 Si / 1000 Ang^3
#
#
#
# Elastic Constant Matrix: (Units=GPa)
#
#
# Indices 1 2 3 4 5 6 
#
# 1 72.5916 38.7285 26.3211 -6.3411 -9.1794 17.2585
# 2 38.7285 130.7031 51.8115 0.2336 0.8667 17.5085
# 3 26.3211 51.8115 122.7609 -18.8077 0.8080 19.4699
# 4 -6.3411 0.2336 -18.8077 41.4589 4.3313 -4.9616
# 5 -9.1794 0.8667 0.8080 4.3313 22.8632 -6.0896
# 6 17.2585 17.5085 19.4699 -4.9616 -6.0896 37.1592
#
#
#
# Elastic Compliance Matrix: (Units=1/GPa)
#
#
# Indices 1 2 3 4 5 6 
#
# 1 0.018594 -0.004426 -0.001241 0.001090 0.006209 -0.004737
# 2 -0.004426 0.010646 -0.003621 -0.002370 -0.002061 -0.001717
# 3 -0.001241 -0.003621 0.011227 0.004787 -0.002565 -0.003381
# 4 0.001090 -0.002370 0.004787 0.027060 -0.004508 0.000976
# 5 0.006209 -0.002061 -0.002565 -0.004508 0.049085 0.006874
# 6 -0.004737 -0.001717 -0.003381 0.000976 0.006874 0.032949
#
#
# Mechanical properties :
#
#
# Convention : Reuss Voigt Hill
#
# Bulk Modulus (GPa) = 45.68426 62.19752 53.94089
# Shear Modulus (GPa) = 28.50093 34.24255 31.37174
#
# Velocity S-wave (km/s) = 3.73485 4.09380 3.91844
# Velocity P-wave (km/s) = 6.39983 7.26545 6.84633
#
# Compressibility (1/GPa) = 0.02188938
#
# Stress axis : x y z
#
# Youngs Moduli (GPa) = 53.78190 93.93362 89.07172
#
# Poissons Ratio (x) = 0.41575 0.11056
# Poissons Ratio (y) = 0.23804 0.32255
# Poissons Ratio (z) = 0.06675 0.34016
#
# Static dielectric constant tensor:
#      x y z
#    x 1.782510 -0.026340 -0.037710 
#    y -0.026340 1.748000 0.003940 
#    z -0.037710 0.003940 1.748990 
# 
# From -- ./inp_files/338083.got.cif
#   From: 2010.05.17/outbox.cif.g08.bks.cpg/sg2_170_cif.got.tgz:338083.got - 2010.06.03 11:33:40.
