data_PCOD9003777
_publ_section_title
;
Structure prediction by ZEFSAII (Michael W. Deem and Ramdas Pophale) SiO2 
 PCOD9003777
Probable space group: P -1
;
_chemical_formula_sum "Si O2"
_cell_formula_units_Z 14
_cell_length_a 31.051369
_cell_length_b 29.102939
_cell_length_c 15.970923
_cell_angle_alpha 17.452473
_cell_angle_beta 17.477830
_cell_angle_gamma 9.171984
_cell_volume 667.636894
_symmetry_space_group_name_H-M "P -1"
_symmetry_group_IT_number 2
_symmetry_cell_setting 'triclinic'
loop_
_space_group_symop_operation_xyz
x,y,z
-x,-y,-z
loop_
_atom_site_type_symbol
_atom_site_label
_atom_site_fract_x
_atom_site_fract_y
_atom_site_fract_z
Si Si1 0.736884 0.442071 0.051959
Si Si2 0.790560 0.702695 0.431465
Si Si3 0.370652 0.399788 0.659513
Si Si4 0.273671 0.447962 0.945691
Si Si5 0.456706 0.136176 0.559829
Si Si6 0.690519 0.209218 0.914452
Si Si7 0.857276 0.713514 0.971282
O O1 0.896029 0.460575 0.709769
O O2 0.501033 0.646998 0.062160
O O3 0.616839 0.562124 0.159520
O O4 0.981744 0.094610 0.188966
O O5 0.765590 0.662684 0.452912
O O6 0.500000 0.000000 0.500000
O O7 0.950198 0.714874 0.101772
O O8 0.328232 0.466554 0.721830
O O9 0.098385 0.566226 0.838036
O O10 0.638763 0.044534 0.772185
O O11 0.394494 0.545336 0.322408
O O12 0.384119 0.171150 0.217051
O O13 0.630100 0.130495 0.230612
O O14 0.315303 0.246593 0.719878
O O15 0.000000 0.500000 0.000000
#
# Coordination Sequence:
#
# PCOD9003777 Si02
#       7
#     2   2   2   2   2   2   2
#     4  11  22  33  58  87 128 169 216 238 285 356
#     4  11  18  32  55  89 120 159 212 253 282 335
#     4  11  25  43  64  90 129 155 197 260 321 365
#     4  11  20  35  57  87 122 170 217 247 285 342
#     4  10  21  37  62  89 123 162 212 253 299 355
#     4  11  24  39  57  91 131 166 195 250 311 361
#     4  11  24  46  71  92 113 155 210 262 311 373
#
# _framework density 20.969483
#
# number of rings (size 3 to 8) (size 9 to 14) (size 15 to 20)
#    0.000    1.143    4.286    3.429    0.000    1.143 
#    0.000    1.429    0.000    0.000    0.000    0.000 
#    0.000    0.000    0.000    0.000    0.000    0.000 
#
# Total GULP energy -78168.515495 kJ/mol
# GULP energy per Si atom -5583.465392 kJ/mol
# Density = 2.092176 g / cm^3
# Si number density = 20.969483 Si / 1000 Ang^3
#
#
#
# Elastic Constant Matrix: (Units=GPa)
#
#
# Indices 1 2 3 4 5 6 
#
# 1 49.1801 32.0406 26.6099 1.1894 13.8923 15.4117
# 2 32.0406 124.3439 38.1056 -11.8387 11.4989 10.7356
# 3 26.6099 38.1056 109.8727 -11.7917 9.5621 18.5001
# 4 1.1894 -11.8387 -11.7917 25.4511 -3.1751 5.7687
# 5 13.8923 11.4989 9.5621 -3.1751 14.2180 5.2608
# 6 15.4117 10.7356 18.5001 5.7687 5.2608 35.3131
#
#
#
# Elastic Compliance Matrix: (Units=1/GPa)
#
#
# Indices 1 2 3 4 5 6 
#
# 1 0.036364 -0.005768 -0.004218 -0.008304 -0.027495 -0.006454
# 2 -0.005768 0.010556 -0.001657 0.004437 -0.000628 -0.000455
# 3 -0.004218 -0.001657 0.012194 0.006319 0.000581 -0.005163
# 4 -0.008304 0.004437 0.006319 0.049178 0.015466 -0.011373
# 5 -0.027495 -0.000628 0.000581 0.015466 0.102983 -0.005982
# 6 -0.006454 -0.000455 -0.005163 -0.011373 -0.005982 0.036727
#
#
# Mechanical properties :
#
#
# Convention : Reuss Voigt Hill
#
# Bulk Modulus (GPa) = 27.91044 52.98989 40.45017
# Shear Modulus (GPa) = 17.65347 27.43915 22.54631
#
# Velocity S-wave (km/s) = 2.90464 3.62128 3.28258
# Velocity P-wave (km/s) = 4.95864 6.54292 5.80508
#
# Compressibility (1/GPa) = 0.03582888
#
# Stress axis : x y z
#
# Youngs Moduli (GPa) = 27.49982 94.73273 82.00499
#
# Poissons Ratio (x) = 0.54644 0.34589
# Poissons Ratio (y) = 0.15863 0.13584
# Poissons Ratio (z) = 0.11599 0.15693
#
# Static dielectric constant tensor:
#      x y z
#    x 1.778500 -0.070810 -0.027480 
#    y -0.070810 1.845060 0.019440 
#    z -0.027480 0.019440 1.811640 
# 
# From -- ./inp_files/34640.got.cif
#   From: 2010.05.17/outbox.cif.g08.bks.cpg/sg2_18_cif.got.tgz:34640.got - 2010.06.03 11:33:40.
