data_PCOD9003885
_publ_section_title
;
Structure prediction by ZEFSAII (Michael W. Deem and Ramdas Pophale) SiO2 
 PCOD9003885
Probable space group: P -1
;
_chemical_formula_sum "Si O2"
_cell_formula_units_Z 14
_cell_length_a 10.499109
_cell_length_b 14.395291
_cell_length_c 5.246333
_cell_angle_alpha 110.600788
_cell_angle_beta 118.740744
_cell_angle_gamma 90.602655
_cell_volume 634.986292
_symmetry_space_group_name_H-M "P -1"
_symmetry_group_IT_number 2
_symmetry_cell_setting 'triclinic'
loop_
_space_group_symop_operation_xyz
x,y,z
-x,-y,-z
loop_
_atom_site_type_symbol
_atom_site_label
_atom_site_fract_x
_atom_site_fract_y
_atom_site_fract_z
Si Si1 0.280147 0.122416 0.644413
Si Si2 0.054728 0.452887 0.756919
Si Si3 0.204188 0.880264 0.306912
Si Si4 0.346201 0.422165 0.836574
Si Si5 0.573681 0.617669 0.624812
Si Si6 0.979371 0.208199 0.455856
Si Si7 0.517718 0.815679 0.600454
O O1 0.384424 0.158648 0.534777
O O2 0.133580 0.170034 0.554525
O O3 0.221818 0.001024 0.442829
O O4 0.378417 0.140593 0.016173
O O5 0.231615 0.477722 0.912874
O O6 0.000000 0.500000 0.500000
O O7 0.009892 0.330740 0.598507
O O8 0.000000 0.500000 0.000000
O O9 0.104818 0.831629 0.403489
O O10 0.367772 0.856056 0.470044
O O11 0.124070 0.834494 0.925561
O O12 0.300350 0.378238 0.468654
O O13 0.500000 0.500000 0.000000
O O14 0.373521 0.345014 0.005917
O O15 0.500000 0.500000 0.500000
O O16 0.478773 0.693411 0.493856
#
# Coordination Sequence:
#
# PCOD9003885 Si02
#       7
#     2   2   2   2   2   2   2
#     4  12  25  47  72  99 135 181 235 292 348 415
#     4  12  26  44  66  99 140 180 224 281 339 407
#     4  12  26  46  70 104 138 177 231 296 352 408
#     4  10  22  41  65  91 126 177 226 269 322 389
#     4  10  21  37  62  95 132 171 218 269 327 401
#     4  12  26  45  70 101 140 187 227 275 354 428
#     4  12  24  42  71 103 135 179 233 292 348 404
#
# _framework density 22.047720999999999
#
# number of rings (size 3 to 8) (size 9 to 14) (size 15 to 20)
#    0.000    0.571    0.000    8.571    0.000    6.857 
#    0.000    0.000    0.000    0.000    0.000    0.000 
#    0.000    0.000    0.000    0.000    0.000    0.000 
#
# Total GULP energy -78265.495448 kJ/mol
# GULP energy per Si atom -5590.392532 kJ/mol
# Density = 2.199754 g / cm^3
# Si number density = 22.047721 Si / 1000 Ang^3
#
#
#
# Elastic Constant Matrix: (Units=GPa)
#
#
# Indices 1 2 3 4 5 6 
#
# 1 152.3267 62.9446 46.5973 -12.2830 -18.4498 -5.8002
# 2 62.9446 166.7780 38.8300 10.7512 -7.2773 -13.1668
# 3 46.5973 38.8300 137.0387 -6.3603 -18.4378 -0.4468
# 4 -12.2830 10.7512 -6.3603 50.5206 8.5450 -7.9403
# 5 -18.4498 -7.2773 -18.4378 8.5450 48.0868 -11.9344
# 6 -5.8002 -13.1668 -0.4468 -7.9403 -11.9344 41.4810
#
#
#
# Elastic Compliance Matrix: (Units=1/GPa)
#
#
# Indices 1 2 3 4 5 6 
#
# 1 0.008796 -0.002855 -0.001773 0.002371 0.002186 0.001387
# 2 -0.002855 0.007663 -0.001245 -0.002284 0.000415 0.001702
# 3 -0.001773 -0.001245 0.008601 0.000550 0.002392 0.000243
# 4 0.002371 -0.002284 0.000550 0.021809 -0.002327 0.003118
# 5 0.002186 0.000415 0.002392 -0.002327 0.024803 0.007154
# 6 0.001387 0.001702 0.000243 0.003118 0.007154 0.027499
#
#
# Mechanical properties :
#
#
# Convention : Reuss Voigt Hill
#
# Bulk Modulus (GPa) = 75.11211 83.65416 79.38314
# Shear Modulus (GPa) = 43.34414 48.53579 45.93996
#
# Velocity S-wave (km/s) = 4.43868 4.69699 4.56966
# Velocity P-wave (km/s) = 7.77246 8.21221 7.99536
#
# Compressibility (1/GPa) = 0.01331343
#
# Stress axis : x y z
#
# Youngs Moduli (GPa) = 113.69231 130.49577 116.26393
#
# Poissons Ratio (x) = 0.37253 0.20617
# Poissons Ratio (y) = 0.32456 0.14478
# Poissons Ratio (z) = 0.20161 0.16250
#
# Static dielectric constant tensor:
#      x y z
#    x 1.793690 -0.016670 0.004000 
#    y -0.016670 1.827490 0.026460 
#    z 0.004000 0.026460 2.089450 
# 
# From -- ./inp_files/36426.got.cif
#   From: 2010.05.17/outbox.cif.g08.bks.cpg/sg2_19_cif.got.tgz:36426.got - 2010.06.03 11:33:40.
