data_PCOD9003452
_publ_section_title
;
Structure prediction by ZEFSAII (Michael W. Deem and Ramdas Pophale) SiO2 
 PCOD9003452
Probable space group: P -1
;
_chemical_formula_sum "Si O2"
_cell_formula_units_Z 16
_cell_length_a 11.815468
_cell_length_b 8.689202
_cell_length_c 9.335148
_cell_angle_alpha 112.701187
_cell_angle_beta 128.727999
_cell_angle_gamma 48.664412
_cell_volume 560.789851
_symmetry_space_group_name_H-M "P -1"
_symmetry_group_IT_number 2
_symmetry_cell_setting 'triclinic'
loop_
_space_group_symop_operation_xyz
x,y,z
-x,-y,-z
loop_
_atom_site_type_symbol
_atom_site_label
_atom_site_fract_x
_atom_site_fract_y
_atom_site_fract_z
Si Si1 0.131351 0.041583 0.005262
Si Si2 0.124241 0.595085 0.408309
Si Si3 0.570861 0.642012 0.667549
Si Si4 0.971288 0.687666 0.689744
Si Si5 0.846581 0.081915 0.576848
Si Si6 0.384225 0.325622 0.860264
Si Si7 0.275649 0.176650 0.944070
Si Si8 0.576100 0.395911 0.826538
O O1 0.094557 0.187419 0.164667
O O2 0.273824 0.024365 0.999113
O O3 0.232154 0.810735 0.059470
O O4 0.957984 0.104550 0.798577
O O5 0.292363 0.449232 0.386621
O O6 0.119008 0.432161 0.444866
O O7 0.137708 0.792388 0.496468
O O8 0.933962 0.689137 0.213554
O O9 0.363403 0.822538 0.546932
O O10 0.667112 0.704902 0.874601
O O11 0.575036 0.462334 0.688964
O O12 0.182321 0.522267 0.798876
O O13 0.928527 0.841683 0.579783
O O14 0.446248 0.335324 0.754636
O O15 0.378793 0.145814 0.864227
O O16 0.486262 0.396596 0.063393
#
# Coordination Sequence:
#
# PCOD9003452 Si02
#       8
#     2   2   2   2   2   2   2   2
#     4  11  21  37  65  94 117 160 209 251 299 368
#     4  10  21  37  60  88 125 164 199 248 306 363
#     4  11  21  39  56  89 128 157 197 256 312 356
#     4  11  21  39  66  89 125 161 208 251 303 363
#     4  11  24  35  58  95 126 158 200 254 311 364
#     4   9  20  37  61  89 115 163 210 248 293 363
#     4   9  20  35  63  83 123 156 208 248 304 355
#     4  10  21  37  63  86 121 161 209 247 299 364
#
# _framework density 28.531188
#
# number of rings (size 3 to 8) (size 9 to 14) (size 15 to 20)
#    0.000    1.750    2.500    1.875    8.750    1.000 
#    2.250    0.625    0.000    6.750    0.000    0.000 
#    0.000    0.000    0.000    0.000    0.000    0.000 
#
# Total GULP energy -89394.446939 kJ/mol
# GULP energy per Si atom -5587.152934 kJ/mol
# Density = 2.846625 g / cm^3
# Si number density = 28.531188 Si / 1000 Ang^3
#
#
#
# Elastic Constant Matrix: (Units=GPa)
#
#
# Indices 1 2 3 4 5 6 
#
# 1 252.6406 46.5716 29.8194 -17.1310 -11.6412 54.9896
# 2 46.5716 137.2598 20.7568 -3.9845 -19.6229 36.3442
# 3 29.8194 20.7568 86.5864 8.2381 6.4024 5.5676
# 4 -17.1310 -3.9845 8.2381 49.2013 12.6748 -9.7696
# 5 -11.6412 -19.6229 6.4024 12.6748 52.0043 2.5048
# 6 54.9896 36.3442 5.5676 -9.7696 2.5048 45.8550
#
#
#
# Elastic Compliance Matrix: (Units=1/GPa)
#
#
# Indices 1 2 3 4 5 6 
#
# 1 0.005738 0.000484 -0.001823 0.000447 0.001923 -0.007054
# 2 0.000484 0.010685 -0.002341 -0.001822 0.005327 -0.009444
# 3 -0.001823 -0.002341 0.012965 -0.001907 -0.002529 0.002200
# 4 0.000447 -0.001822 -0.001907 0.023600 -0.006418 0.006518
# 5 0.001923 0.005327 -0.002529 -0.006418 0.023974 -0.008898
# 6 -0.007054 -0.009444 0.002200 0.006518 -0.008898 0.039360
#
#
# Mechanical properties :
#
#
# Convention : Reuss Voigt Hill
#
# Bulk Modulus (GPa) = 45.39848 74.53139 59.96493
# Shear Modulus (GPa) = 38.16062 54.70137 46.43100
#
# Velocity S-wave (km/s) = 3.66116 4.38339 4.03845
# Velocity P-wave (km/s) = 5.81537 7.19710 6.54281
#
# Compressibility (1/GPa) = 0.02202717
#
# Stress axis : x y z
#
# Youngs Moduli (GPa) = 174.26675 93.59329 77.12838
#
# Poissons Ratio (x) = -0.04533 0.14064
# Poissons Ratio (y) = -0.08440 0.18059
# Poissons Ratio (z) = 0.31776 0.21914
#
# Static dielectric constant tensor:
#      x y z
#    x 2.259760 -0.006480 -0.066570 
#    y -0.006480 2.263790 -0.081610 
#    z -0.066570 -0.081610 2.333700 
# 
# From -- ./inp_files/419488.got.cif
#   From: 2010.05.17/outbox.cif.g08.bks.cpg/sg2_210_cif.got.tgz:419488.got - 2010.06.03 11:33:40.
