data_PCOD9003635
_publ_section_title
;
Structure prediction by ZEFSAII (Michael W. Deem and Ramdas Pophale) SiO2 
 PCOD9003635
Probable space group: P -1
;
_chemical_formula_sum "Si O2"
_cell_formula_units_Z 15
_cell_length_a 13.857014
_cell_length_b 13.155655
_cell_length_c 10.653556
_cell_angle_alpha 97.589511
_cell_angle_beta 48.181084
_cell_angle_gamma 136.687533
_cell_volume 718.014542
_symmetry_space_group_name_H-M "P -1"
_symmetry_group_IT_number 2
_symmetry_cell_setting 'triclinic'
loop_
_space_group_symop_operation_xyz
x,y,z
-x,-y,-z
loop_
_atom_site_type_symbol
_atom_site_label
_atom_site_fract_x
_atom_site_fract_y
_atom_site_fract_z
Si Si1 0.860071 0.515099 0.492030
Si Si2 0.923738 0.245660 0.905527
Si Si3 0.712386 0.686609 0.445591
Si Si4 0.497046 0.454600 0.854011
Si Si5 0.309759 0.827340 0.350306
Si Si6 0.571069 0.949039 0.510487
Si Si7 0.929178 0.021727 0.181607
Si Si8 0.000000 0.500000 0.000000
O O1 0.644291 0.445483 0.719165
O O2 0.770893 0.336674 0.547099
O O3 0.927339 0.588333 0.304118
O O4 0.126725 0.711274 0.369944
O O5 0.037550 0.210685 0.790016
O O6 0.987270 0.361681 0.987273
O O7 0.619760 0.037787 0.102166
O O8 0.500000 0.500000 0.500000
O O9 0.631114 0.609666 0.647741
O O10 0.775032 0.846683 0.386827
O O11 0.500000 0.500000 0.000000
O O12 0.198567 0.241768 0.040928
O O13 0.263744 0.892182 0.491317
O O14 0.314488 0.717380 0.745072
O O15 0.500000 0.000000 0.500000
O O16 0.746876 0.989271 0.291616
O O17 0.000000 0.000000 0.000000
#
# Coordination Sequence:
#
# PCOD9003635 Si02
#       8
#     2   2   2   2   2   2   2   1
#     4  10  21  40  62  89 127 170 221 265 336 399
#     4  10  21  37  61  90 125 171 216 277 331 393
#     4  11  23  42  66  98 136 178 232 281 346 406
#     4  11  25  44  69  98 138 180 227 283 341 409
#     4  10  21  38  61  88 124 168 219 270 330 391
#     4  11  25  40  64  96 133 170 224 277 336 397
#     4  12  26  42  70 103 136 183 229 281 345 412
#     4  10  22  36  60  90 128 160 218 264 332 380
#
# _framework density 20.890941000000002
#
# number of rings (size 3 to 8) (size 9 to 14) (size 15 to 20)
#    0.000    1.333    1.333    3.600    7.467    1.600 
#    0.000    8.000    0.000    0.000    0.000    0.000 
#    0.000    0.000    0.000    0.000    0.000    0.000 
#
# Total GULP energy -83521.855115 kJ/mol
# GULP energy per Si atom -5568.123674 kJ/mol
# Density = 2.084339 g / cm^3
# Si number density = 20.890941 Si / 1000 Ang^3
#
#
#
# Elastic Constant Matrix: (Units=GPa)
#
#
# Indices 1 2 3 4 5 6 
#
# 1 66.3685 21.5714 25.2154 4.4227 -7.8587 -11.7796
# 2 21.5714 92.6886 41.3489 -8.8930 1.5961 1.4822
# 3 25.2154 41.3489 87.1742 -3.1628 -10.0060 -1.2886
# 4 4.4227 -8.8930 -3.1628 27.8114 3.7613 -0.0384
# 5 -7.8587 1.5961 -10.0060 3.7613 39.0445 2.2845
# 6 -11.7796 1.4822 -1.2886 -0.0384 2.2845 33.3613
#
#
#
# Elastic Compliance Matrix: (Units=1/GPa)
#
#
# Indices 1 2 3 4 5 6 
#
# 1 0.019528 -0.003555 -0.003677 -0.005088 0.003233 0.006684
# 2 -0.003555 0.015011 -0.006317 0.005094 -0.003326 -0.001933
# 3 -0.003677 -0.006317 0.015937 -0.000118 0.003652 -0.000652
# 4 -0.005088 0.005094 -0.000118 0.039045 -0.004928 -0.001645
# 5 0.003233 -0.003326 0.003652 -0.004928 0.027837 -0.000482
# 6 0.006684 -0.001933 -0.000652 -0.001645 -0.000482 0.032427
#
#
# Mechanical properties :
#
#
# Convention : Reuss Voigt Hill
#
# Bulk Modulus (GPa) = 42.77730 46.94472 44.86101
# Shear Modulus (GPa) = 27.07434 30.58315 28.82875
#
# Velocity S-wave (km/s) = 3.60388 3.83030 3.71882
# Velocity P-wave (km/s) = 6.15128 6.48704 6.32139
#
# Compressibility (1/GPa) = 0.02337689
#
# Stress axis : x y z
#
# Youngs Moduli (GPa) = 51.20823 66.61621 62.74866
#
# Poissons Ratio (x) = 0.23683 0.23073
# Poissons Ratio (y) = 0.18205 0.39641
# Poissons Ratio (z) = 0.18829 0.42084
#
# Static dielectric constant tensor:
#      x y z
#    x 1.770310 -0.011740 0.014650 
#    y -0.011740 1.775580 0.060970 
#    z 0.014650 0.060970 1.774060 
# 
# From -- ./inp_files/451508.got.cif
#   From: 2010.05.17/outbox.cif.g08.bks.cpg/sg2_226_cif.got.tgz:451508.got - 2010.06.03 11:33:40.
