data_PCOD9003218
_publ_section_title
;
Structure prediction by ZEFSAII (Michael W. Deem and Ramdas Pophale) SiO2 
 PCOD9003218
Probable space group: P -1
;
_chemical_formula_sum "Si O2"
_cell_formula_units_Z 16
_cell_length_a 26.874341
_cell_length_b 6.445313
_cell_length_c 12.484695
_cell_angle_alpha 122.311715
_cell_angle_beta 25.651129
_cell_angle_gamma 128.399489
_cell_volume 731.587566
_symmetry_space_group_name_H-M "P -1"
_symmetry_group_IT_number 2
_symmetry_cell_setting 'triclinic'
loop_
_space_group_symop_operation_xyz
x,y,z
-x,-y,-z
loop_
_atom_site_type_symbol
_atom_site_label
_atom_site_fract_x
_atom_site_fract_y
_atom_site_fract_z
Si Si1 0.907112 0.590173 0.131579
Si Si2 0.272253 0.898014 0.557404
Si Si3 0.831794 0.811411 0.991905
Si Si4 0.715183 0.864316 0.007379
Si Si5 0.889797 0.161935 0.349527
Si Si6 0.917676 0.204306 0.540319
Si Si7 0.379643 0.705180 0.723702
Si Si8 0.484408 0.662490 0.735673
O O1 0.771643 0.368399 0.358553
O O2 0.899538 0.873199 0.248160
O O3 0.000000 0.500000 0.000000
O O4 0.974679 0.629324 0.895484
O O5 0.211061 0.838123 0.542732
O O6 0.417792 0.082849 0.324743
O O7 0.204000 0.061741 0.800057
O O8 0.770989 0.868923 0.017989
O O9 0.977715 0.914208 0.721416
O O10 0.765016 0.494489 0.044115
O O11 0.820573 0.017408 0.760449
O O12 0.637760 0.560533 0.037964
O O13 0.624867 0.026174 0.238404
O O14 0.857556 0.220066 0.547032
O O15 0.000000 0.500000 0.500000
O O16 0.439939 0.755356 0.738274
O O17 0.439370 0.520500 0.497593
#
# Coordination Sequence:
#
# PCOD9003218 Si02
#       8
#     2   2   2   2   2   2   2   2
#     4   9  18  36  59  84 114 150 192 251 294 333
#     4  10  21  38  65  89 117 154 194 255 299 341
#     4  10  21  37  58  93 120 151 205 242 297 352
#     4  11  22  37  59  87 125 163 193 241 296 354
#     4  10  22  39  56  87 121 150 202 241 290 358
#     4  12  24  40  59  87 125 165 194 237 296 364
#     4   9  18  37  56  88 121 153 196 252 293 346
#     4   9  20  36  59  89 121 149 205 246 293 349
#
# _framework density 21.870246999999999
#
# number of rings (size 3 to 8) (size 9 to 14) (size 15 to 20)
#    0.000    2.000    1.250    3.750    1.750    3.000 
#    4.500    0.625    0.000    1.500    0.000    0.000 
#    0.000    0.000    0.000    0.000    0.000    0.000 
#
# Total GULP energy -89301.456994 kJ/mol
# GULP energy per Si atom -5581.341062 kJ/mol
# Density = 2.182047 g / cm^3
# Si number density = 21.870247 Si / 1000 Ang^3
#
#
#
# Elastic Constant Matrix: (Units=GPa)
#
#
# Indices 1 2 3 4 5 6 
#
# 1 81.5401 27.2198 10.6038 -25.4742 0.7050 18.2047
# 2 27.2198 77.3343 3.6756 -33.6502 -5.0473 -4.4699
# 3 10.6038 3.6756 47.2602 -23.8103 -9.6638 9.0962
# 4 -25.4742 -33.6502 -23.8103 35.2595 0.8268 -4.8166
# 5 0.7050 -5.0473 -9.6638 0.8268 22.1112 -1.2531
# 6 18.2047 -4.4699 9.0962 -4.8166 -1.2531 25.9609
#
#
#
# Elastic Compliance Matrix: (Units=1/GPa)
#
#
# Indices 1 2 3 4 5 6 
#
# 1 0.019601 -0.001428 0.005846 0.014928 0.000294 -0.013255
# 2 -0.001428 0.036470 0.025621 0.051852 0.018128 0.008799
# 3 0.005846 0.025621 0.058445 0.066597 0.028350 -0.006441
# 4 0.014928 0.051852 0.066597 0.132976 0.035580 0.001514
# 5 0.000294 0.018128 0.028350 0.035580 0.060557 0.002506
# 6 -0.013255 0.008799 -0.006441 0.001514 0.002506 0.051988
#
#
# Mechanical properties :
#
#
# Convention : Reuss Voigt Hill
#
# Bulk Modulus (GPa) = 5.72764 32.12587 18.92676
# Shear Modulus (GPa) = 13.96036 27.64201 20.80119
#
# Velocity S-wave (km/s) = 2.52925 3.55901 3.08737
# Velocity P-wave (km/s) = 3.33978 5.62227 4.62407
#
# Compressibility (1/GPa) = 0.17459206
#
# Stress axis : x y z
#
# Youngs Moduli (GPa) = 51.01755 27.42014 17.11024
#
# Poissons Ratio (x) = 0.03916 -0.10002
# Poissons Ratio (y) = 0.07286 -0.43838
# Poissons Ratio (z) = -0.29824 -0.70253
#
# Static dielectric constant tensor:
#      x y z
#    x 1.794590 0.017970 -0.017100 
#    y 0.017970 1.837550 -0.018190 
#    z -0.017100 -0.018190 1.891410 
# 
# From -- ./inp_files/473454.got.cif
#   From: 2010.05.17/outbox.cif.g08.bks.cpg/sg2_237_cif.got.tgz:473454.got - 2010.06.03 11:33:40.
