data_PCOD9003004
_publ_section_title
;
Structure prediction by ZEFSAII (Michael W. Deem and Ramdas Pophale) SiO2 
 PCOD9003004
Probable space group: P -1
;
_chemical_formula_sum "Si O2"
_cell_formula_units_Z 16
_cell_length_a 11.780850
_cell_length_b 18.533776
_cell_length_c 23.034328
_cell_angle_alpha 162.414479
_cell_angle_beta 30.043449
_cell_angle_gamma 139.594655
_cell_volume 689.981282
_symmetry_space_group_name_H-M "P -1"
_symmetry_group_IT_number 2
_symmetry_cell_setting 'triclinic'
loop_
_space_group_symop_operation_xyz
x,y,z
-x,-y,-z
loop_
_atom_site_type_symbol
_atom_site_label
_atom_site_fract_x
_atom_site_fract_y
_atom_site_fract_z
Si Si1 0.655067 0.573145 0.653820
Si Si2 0.882314 0.358175 0.505753
Si Si3 0.260143 0.005316 0.641423
Si Si4 0.143846 0.862391 0.466926
Si Si5 0.344481 0.222718 0.396290
Si Si6 0.677337 0.204201 0.128838
Si Si7 0.632290 0.749042 0.105923
Si Si8 0.745293 0.017270 0.154026
O O1 0.912748 0.547057 0.488116
O O2 0.423457 0.782881 0.882243
O O3 0.623160 0.307151 0.457637
O O4 0.726482 0.559127 0.678994
O O5 0.714082 0.271528 0.555187
O O6 0.078472 0.062640 0.171097
O O7 0.233910 0.204039 0.858968
O O8 0.500000 0.000000 0.500000
O O9 0.089064 0.034226 0.682229
O O10 0.332979 0.916374 0.380226
O O11 0.887191 0.853076 0.553731
O O12 0.312787 0.550584 0.163141
O O13 0.463404 0.200191 0.262815
O O14 0.290852 0.526610 0.668402
O O15 0.560125 0.028643 0.193659
O O16 0.745301 0.833446 0.065238
O O17 0.000000 0.000000 0.000000
#
# Coordination Sequence:
#
# PCOD9003004 Si02
#       8
#     2   2   2   2   2   2   2   2
#     4  10  22  34  56  90 117 165 202 254 318 377
#     4  11  20  36  59  86 126 161 207 260 318 377
#     4  10  21  38  65  91 120 167 213 261 312 376
#     4  10  22  40  65  92 122 164 220 254 311 387
#     4  10  22  36  59  93 122 165 211 257 319 380
#     4  10  21  37  56  88 128 163 204 261 320 374
#     4  10  22  41  65  90 124 170 206 263 317 372
#     4  11  23  38  61  90 128 165 209 263 320 380
#
# _framework density 23.189032999999998
#
# number of rings (size 3 to 8) (size 9 to 14) (size 15 to 20)
#    0.000    1.750    1.250    2.625    7.000    0.500 
#    0.000    0.000    0.000    0.750    0.000    0.000 
#    0.000    0.000    0.000    0.000    0.000    0.000 
#
# Total GULP energy -89147.043654 kJ/mol
# GULP energy per Si atom -5571.690228 kJ/mol
# Density = 2.313625 g / cm^3
# Si number density = 23.189033 Si / 1000 Ang^3
#
#
#
# Elastic Constant Matrix: (Units=GPa)
#
#
# Indices 1 2 3 4 5 6 
#
# 1 115.6732 31.2217 37.6348 -21.1256 3.9494 4.1153
# 2 31.2217 144.1959 18.0391 -28.3463 -1.3033 -9.5355
# 3 37.6348 18.0391 52.0362 -10.3497 8.0467 -7.8027
# 4 -21.1256 -28.3463 -10.3497 40.3284 15.8860 -1.2859
# 5 3.9494 -1.3033 8.0467 15.8860 24.3369 4.3006
# 6 4.1153 -9.5355 -7.8027 -1.2859 4.3006 41.4076
#
#
#
# Elastic Compliance Matrix: (Units=1/GPa)
#
#
# Indices 1 2 3 4 5 6 
#
# 1 0.012452 -0.001027 -0.007857 0.004461 -0.001927 -0.002616
# 2 -0.001027 0.008808 0.000545 0.007969 -0.005279 0.003029
# 3 -0.007857 0.000545 0.031251 0.011797 -0.018331 0.009065
# 4 0.004461 0.007969 0.011797 0.051641 -0.039555 0.009327
# 5 -0.001927 -0.005279 -0.018331 -0.039555 0.075392 -0.013537
# 6 -0.002616 0.003029 0.009065 0.009327 -0.013537 0.028511
#
#
# Mechanical properties :
#
#
# Convention : Reuss Voigt Hill
#
# Bulk Modulus (GPa) = 27.90675 53.96626 40.93650
# Shear Modulus (GPa) = 21.12567 36.21525 28.67046
#
# Velocity S-wave (km/s) = 3.02159 3.95617 3.52003
# Velocity P-wave (km/s) = 4.92279 6.64765 5.84915
#
# Compressibility (1/GPa) = 0.03583363
#
# Stress axis : x y z
#
# Youngs Moduli (GPa) = 80.30875 113.52821 31.99857
#
# Poissons Ratio (x) = 0.11657 0.25141
# Poissons Ratio (y) = 0.08246 -0.01742
# Poissons Ratio (z) = 0.63097 -0.06182
#
# Static dielectric constant tensor:
#      x y z
#    x 1.976280 -0.008370 0.045290 
#    y -0.008370 1.901830 -0.031120 
#    z 0.045290 -0.031120 1.927670 
# 
# From -- ./inp_files/306167.got.cif
#   From: 2010.05.17/outbox.cif.g08.bks.cpg/sg2_154_cif.got.tgz:306167.got - 2010.06.03 11:33:40.
