data_PCOD9003936
_publ_section_title
;
Structure prediction by ZEFSAII (Michael W. Deem and Ramdas Pophale) SiO2 
 PCOD9003936
Probable space group: P -1
;
_chemical_formula_sum "Si O2"
_cell_formula_units_Z 16
_cell_length_a 11.264892
_cell_length_b 8.584184
_cell_length_c 9.768008
_cell_angle_alpha 65.422333
_cell_angle_beta 112.266689
_cell_angle_gamma 77.004508
_cell_volume 708.094325
_symmetry_space_group_name_H-M "P -1"
_symmetry_group_IT_number 2
_symmetry_cell_setting 'triclinic'
loop_
_space_group_symop_operation_xyz
x,y,z
-x,-y,-z
loop_
_atom_site_type_symbol
_atom_site_label
_atom_site_fract_x
_atom_site_fract_y
_atom_site_fract_z
Si Si1 0.263890 0.071309 0.855391
Si Si2 0.640103 0.114366 0.429294
Si Si3 0.833142 0.590815 0.522054
Si Si4 0.456893 0.062876 0.138208
Si Si5 0.952475 0.746593 0.706301
Si Si6 0.522065 0.689027 0.441038
Si Si7 0.858659 0.254920 0.460547
Si Si8 0.034599 0.939751 0.878866
O O1 0.186237 0.224159 0.644708
O O2 0.419741 0.941538 0.906333
O O3 0.181005 0.951786 0.904666
O O4 0.300560 0.174227 0.961823
O O5 0.569029 0.188073 0.516704
O O6 0.707390 0.255222 0.358418
O O7 0.511015 0.116437 0.281160
O O8 0.781906 0.905461 0.572333
O O9 0.949067 0.561392 0.701427
O O10 0.691889 0.619151 0.532861
O O11 0.853155 0.438491 0.468882
O O12 0.470151 0.848657 0.240723
O O13 0.046840 0.792864 0.617778
O O14 0.019960 0.755401 0.879885
O O15 0.500000 0.500000 0.500000
O O16 0.922981 0.100444 0.668307
O O17 0.000000 0.000000 0.000000
#
# Coordination Sequence:
#
# PCOD9003936 Si02
#       8
#     2   2   2   2   2   2   2   2
#     4  10  21  38  60  87 124 158 209 247 308 364
#     4  11  20  36  63  92 118 158 208 252 307 369
#     4  11  22  40  64  91 122 166 216 250 310 372
#     4  10  21  37  63  86 118 165 204 254 298 373
#     4  11  22  39  66  93 117 167 215 247 301 384
#     4  11  22  37  59  91 124 156 201 261 316 361
#     4  11  22  40  68  90 127 164 208 263 302 370
#     4  11  24  38  62  94 125 157 207 263 313 363
#
# _framework density 22.595859999999998
#
# number of rings (size 3 to 8) (size 9 to 14) (size 15 to 20)
#    0.000    1.250    5.000    3.000    3.500    0.000 
#    0.000    1.250    5.500    0.000    0.000    0.000 
#    0.000    0.000    0.000    0.000    0.000    0.000 
#
# Total GULP energy -89106.245586 kJ/mol
# GULP energy per Si atom -5569.140349 kJ/mol
# Density = 2.254443 g / cm^3
# Si number density = 22.595860 Si / 1000 Ang^3
#
#
#
# Elastic Constant Matrix: (Units=GPa)
#
#
# Indices 1 2 3 4 5 6 
#
# 1 122.5996 44.7666 41.0002 18.2186 -14.9759 10.3833
# 2 44.7666 97.8248 34.6435 34.8484 -3.7754 16.7920
# 3 41.0002 34.6435 79.1858 26.6667 -6.5908 13.6316
# 4 18.2186 34.8484 26.6667 23.5780 7.0706 5.1180
# 5 -14.9759 -3.7754 -6.5908 7.0706 37.3033 12.0096
# 6 10.3833 16.7920 13.6316 5.1180 12.0096 39.9878
#
#
#
# Elastic Compliance Matrix: (Units=1/GPa)
#
#
# Indices 1 2 3 4 5 6 
#
# 1 0.011279 -0.003010 -0.003407 -0.001380 0.004415 -0.001653
# 2 -0.003010 0.034699 0.014229 -0.068350 0.023201 -0.016860
# 3 -0.003407 0.014229 0.032020 -0.057799 0.021539 -0.015077
# 4 -0.001380 -0.068350 -0.057799 0.222731 -0.073532 0.042341
# 5 0.004415 0.023201 0.021539 -0.073532 0.057025 -0.025947
# 6 -0.001653 -0.016860 -0.015077 0.042341 -0.025947 0.040030
#
#
# Mechanical properties :
#
#
# Convention : Reuss Voigt Hill
#
# Bulk Modulus (GPa) = 10.68113 60.04786 35.36450
# Shear Modulus (GPa) = 12.09580 32.12047 22.10814
#
# Velocity S-wave (km/s) = 2.31619 3.77440 3.13136
# Velocity P-wave (km/s) = 3.44823 6.75479 5.36271
#
# Compressibility (1/GPa) = 0.09362302
#
# Stress axis : x y z
#
# Youngs Moduli (GPa) = 88.65860 28.81967 31.23027
#
# Poissons Ratio (x) = 0.08673 0.10639
# Poissons Ratio (y) = 0.26682 -0.44437
# Poissons Ratio (z) = 0.30204 -0.41007
#
# Static dielectric constant tensor:
#      x y z
#    x 1.851920 0.020940 0.046090 
#    y 0.020940 2.024130 0.022780 
#    z 0.046090 0.022780 1.980110 
# 
# From -- ./inp_files/237850.got.cif
#   From: 2010.05.17/outbox.cif.g08.bks.cpg/sg2_119_cif.got.tgz:237850.got - 2010.06.03 11:33:40.
