data_PCOD9003027
_publ_section_title
;
Structure prediction by ZEFSAII (Michael W. Deem and Ramdas Pophale) SiO2 
 PCOD9003027
Probable space group: P -1
;
_chemical_formula_sum "Si O2"
_cell_formula_units_Z 14
_cell_length_a 22.386566
_cell_length_b 5.284359
_cell_length_c 16.563347
_cell_angle_alpha 95.322367
_cell_angle_beta 20.777456
_cell_angle_gamma 107.402769
_cell_volume 553.029961
_symmetry_space_group_name_H-M "P -1"
_symmetry_group_IT_number 2
_symmetry_cell_setting 'triclinic'
loop_
_space_group_symop_operation_xyz
x,y,z
-x,-y,-z
loop_
_atom_site_type_symbol
_atom_site_label
_atom_site_fract_x
_atom_site_fract_y
_atom_site_fract_z
Si Si1 0.814371 0.633762 0.232169
Si Si2 0.990079 0.563152 0.153818
Si Si3 0.580393 0.924645 0.318548
Si Si4 0.308437 0.204210 0.057232
Si Si5 0.360759 0.728603 0.906234
Si Si6 0.812865 0.714627 0.616215
Si Si7 0.129499 0.762015 0.541827
O O1 0.571230 0.455584 0.511047
O O2 0.826020 0.568469 0.308909
O O3 0.890113 0.489367 0.068044
O O4 0.000000 0.000000 0.000000
O O5 0.885940 0.293851 0.344727
O O6 0.171014 0.896560 0.978813
O O7 0.500000 0.000000 0.500000
O O8 0.545828 0.077889 0.289915
O O9 0.306052 0.304567 0.153926
O O10 0.414455 0.512065 0.874693
O O11 0.062077 0.954442 0.332970
O O12 0.389712 0.991332 0.938490
O O13 0.113183 0.471514 0.189406
O O14 0.764629 0.387940 0.637471
O O15 0.781572 0.892015 0.590658
#
# Coordination Sequence:
#
# PCOD9003027 Si02
#       7
#     2   2   2   2   2   2   2
#     4  10  21  37  57  82 113 150 195 237 290 345
#     4   9  20  37  54  81 117 150 190 241 284 349
#     4   9  19  39  56  83 115 153 192 236 294 341
#     4   9  16  28  46  73 114 141 186 235 283 340
#     4   9  17  31  47  76 108 149 186 232 282 343
#     4   9  16  26  46  77 107 147 181 235 289 336
#     4   9  17  28  49  76 109 144 189 230 286 340
#
# _framework density 25.315083000000001
#
# number of rings (size 3 to 8) (size 9 to 14) (size 15 to 20)
#    0.000    2.857    0.000    0.857    2.000    4.000 
#   15.429    0.000    0.000    0.000    0.000    6.000 
#    0.000    0.000    0.000    0.000    0.000    0.000 
#
# Total GULP energy -78262.846885 kJ/mol
# GULP energy per Si atom -5590.203349 kJ/mol
# Density = 2.525746 g / cm^3
# Si number density = 25.315083 Si / 1000 Ang^3
#
#
#
# Elastic Constant Matrix: (Units=GPa)
#
#
# Indices 1 2 3 4 5 6 
#
# 1 97.7363 7.9642 34.0538 -2.5740 8.7660 6.1498
# 2 7.9642 55.0268 24.0593 -9.0770 -15.2460 -14.5315
# 3 34.0538 24.0593 81.9953 -14.4749 -11.6414 7.2952
# 4 -2.5740 -9.0770 -14.4749 34.2492 20.8407 1.5574
# 5 8.7660 -15.2460 -11.6414 20.8407 37.8375 -1.8614
# 6 6.1498 -14.5315 7.2952 1.5574 -1.8614 20.3188
#
#
#
# Elastic Compliance Matrix: (Units=1/GPa)
#
#
# Indices 1 2 3 4 5 6 
#
# 1 0.013206 -0.002847 -0.004710 0.003139 -0.007645 -0.005283
# 2 -0.002847 0.035464 -0.010957 -0.007411 0.017250 0.032308
# 3 -0.004710 -0.010957 0.019561 0.006667 -0.001671 -0.014098
# 4 0.003139 -0.007411 0.006667 0.048786 -0.029274 -0.015066
# 5 -0.007645 0.017250 -0.001671 -0.029274 0.051855 0.022245
# 6 -0.005283 0.032308 -0.014098 -0.015066 0.022245 0.082174
#
#
# Mechanical properties :
#
#
# Convention : Reuss Voigt Hill
#
# Bulk Modulus (GPa) = 32.04954 40.76811 36.40883
# Shear Modulus (GPa) = 16.75176 29.72651 23.23913
#
# Velocity S-wave (km/s) = 2.57520 3.43047 3.03313
# Velocity P-wave (km/s) = 4.64004 5.64181 5.16527
#
# Compressibility (1/GPa) = 0.03120170
#
# Stress axis : x y z
#
# Youngs Moduli (GPa) = 75.72574 28.19728 51.12176
#
# Poissons Ratio (x) = 0.08029 0.24079
# Poissons Ratio (y) = 0.21561 0.56015
# Poissons Ratio (z) = 0.35668 0.30896
#
# Static dielectric constant tensor:
#      x y z
#    x 1.996750 0.005400 -0.053710 
#    y 0.005400 2.015930 -0.057440 
#    z -0.053710 -0.057440 2.081360 
# 
# From -- ./inp_files/39269.got.cif
#   From: 2010.05.17/outbox.cif.g08.bks.cpg/sg2_20_cif.got.tgz:39269.got - 2010.06.03 11:33:40.
