data_PCOD9003172
_publ_section_title
;
Structure prediction by ZEFSAII (Michael W. Deem and Ramdas Pophale) SiO2 
 PCOD9003172
Probable space group: P -1
;
_chemical_formula_sum "Si O2"
_cell_formula_units_Z 16
_cell_length_a 10.799302
_cell_length_b 13.710151
_cell_length_c 5.731699
_cell_angle_alpha 54.052789
_cell_angle_beta 76.624709
_cell_angle_gamma 61.272011
_cell_volume 600.909239
_symmetry_space_group_name_H-M "P -1"
_symmetry_group_IT_number 2
_symmetry_cell_setting 'triclinic'
loop_
_space_group_symop_operation_xyz
x,y,z
-x,-y,-z
loop_
_atom_site_type_symbol
_atom_site_label
_atom_site_fract_x
_atom_site_fract_y
_atom_site_fract_z
Si Si1 0.869093 0.918642 0.097746
Si Si2 0.117519 0.459136 0.278778
Si Si3 0.375244 0.353868 0.965768
Si Si4 0.682590 0.363230 0.550931
Si Si5 0.173689 0.852623 0.880732
Si Si6 0.973477 0.310619 0.303229
Si Si7 0.331820 0.205084 0.805733
Si Si8 0.587671 0.207204 0.469719
O O1 0.757369 0.877793 0.080763
O O2 0.006105 0.892077 0.913469
O O3 0.918218 0.832835 0.441178
O O4 0.805471 0.067410 0.018413
O O5 0.222927 0.361804 0.565031
O O6 0.003016 0.403512 0.351775
O O7 0.227271 0.413982 0.081166
O O8 0.033294 0.619507 0.043533
O O9 0.379419 0.478038 0.653899
O O10 0.379206 0.225604 0.010954
O O11 0.499584 0.307004 0.162979
O O12 0.744976 0.302423 0.860089
O O13 0.822569 0.313435 0.397804
O O14 0.594945 0.295149 0.559450
O O15 0.256274 0.875808 0.592949
O O16 0.476876 0.148327 0.672108
#
# Coordination Sequence:
#
# PCOD9003172 Si02
#       8
#     2   2   2   2   2   2   2   2
#     4   9  20  42  64  85 118 155 197 243 287 345
#     4   8  16  32  55  86 119 148 185 235 295 352
#     4  10  21  37  59  88 121 154 191 242 298 351
#     4  10  21  37  58  87 121 155 196 241 290 350
#     4  10  22  41  63  87 117 156 198 240 287 344
#     4   8  15  33  57  82 115 148 187 241 286 339
#     4  10  21  38  61  90 120 152 191 239 297 351
#     4  11  23  38  58  88 119 155 197 240 294 346
#
# _framework density 26.626317
#
# number of rings (size 3 to 8) (size 9 to 14) (size 15 to 20)
#    0.000    2.500    0.000    1.125    0.000    6.500 
#    0.000   33.125    0.000    0.000    0.000    0.000 
#    0.000    0.000    0.000    0.000    0.000    0.000 
#
# Total GULP energy -89350.940542 kJ/mol
# GULP energy per Si atom -5584.433784 kJ/mol
# Density = 2.656571 g / cm^3
# Si number density = 26.626317 Si / 1000 Ang^3
#
#
#
# Elastic Constant Matrix: (Units=GPa)
#
#
# Indices 1 2 3 4 5 6 
#
# 1 178.8882 58.6932 43.1912 12.9370 -28.6176 15.9094
# 2 58.6932 79.3254 27.7452 3.0901 -13.0124 -2.5787
# 3 43.1912 27.7452 70.6100 -9.0329 -12.3450 -17.2166
# 4 12.9370 3.0901 -9.0329 34.7844 -14.9698 -10.3048
# 5 -28.6176 -13.0124 -12.3450 -14.9698 65.9447 1.1461
# 6 15.9094 -2.5787 -17.2166 -10.3048 1.1461 41.9016
#
#
#
# Elastic Compliance Matrix: (Units=1/GPa)
#
#
# Indices 1 2 3 4 5 6 
#
# 1 0.010672 -0.005067 -0.007851 -0.008208 0.000466 -0.009621
# 2 -0.005067 0.017656 -0.003258 0.000286 0.000710 0.001723
# 3 -0.007851 -0.003258 0.027966 0.018121 0.004976 0.018592
# 4 -0.008208 0.000286 0.018121 0.047404 0.010266 0.021957
# 5 0.000466 0.000710 0.004976 0.010266 0.018700 0.003925
# 6 -0.009621 0.001723 0.018592 0.021957 0.003925 0.040556
#
#
# Mechanical properties :
#
#
# Convention : Reuss Voigt Hill
#
# Bulk Modulus (GPa) = 41.76646 65.34254 53.55450
# Shear Modulus (GPa) = 24.59588 41.80573 33.20081
#
# Velocity S-wave (km/s) = 3.04261 3.96674 3.53500
# Velocity P-wave (km/s) = 5.29750 6.75084 6.06784
#
# Compressibility (1/GPa) = 0.02394265
#
# Stress axis : x y z
#
# Youngs Moduli (GPa) = 93.70524 56.63827 35.75753
#
# Poissons Ratio (x) = 0.28696 0.28074
# Poissons Ratio (y) = 0.47477 0.11649
# Poissons Ratio (z) = 0.73571 0.18451
#
# Static dielectric constant tensor:
#      x y z
#    x 2.086430 -0.057550 -0.020070 
#    y -0.057550 2.021390 -0.037760 
#    z -0.020070 -0.037760 2.167120 
# 
# From -- ./inp_files/69111.got.cif
#   From: 2010.05.17/outbox.cif.g08.bks.cpg/sg2_35_cif.got.tgz:69111.got - 2010.06.03 11:33:40.
