data_PCOD9003272
_publ_section_title
;
Structure prediction by ZEFSAII (Michael W. Deem and Ramdas Pophale) SiO2 
 PCOD9003272
Probable space group: P -1
;
_chemical_formula_sum "Si O2"
_cell_formula_units_Z 14
_cell_length_a 8.188332
_cell_length_b 7.105781
_cell_length_c 22.490810
_cell_angle_alpha 49.386154
_cell_angle_beta 147.985214
_cell_angle_gamma 121.954705
_cell_volume 525.794499
_symmetry_space_group_name_H-M "P -1"
_symmetry_group_IT_number 2
_symmetry_cell_setting 'triclinic'
loop_
_space_group_symop_operation_xyz
x,y,z
-x,-y,-z
loop_
_atom_site_type_symbol
_atom_site_label
_atom_site_fract_x
_atom_site_fract_y
_atom_site_fract_z
Si Si1 0.052730 0.845348 0.893575
Si Si2 0.681432 0.067631 0.922444
Si Si3 0.343555 0.448977 0.563478
Si Si4 0.729144 0.194197 0.635556
Si Si5 0.779798 0.169099 0.460574
Si Si6 0.570138 0.388955 0.233404
Si Si7 0.514016 0.402197 0.091301
O O1 0.722630 0.780627 0.831531
O O2 0.223645 0.578081 0.989814
O O3 0.980601 0.991286 0.780178
O O4 0.240729 0.990306 0.971654
O O5 0.555861 0.352019 0.829342
O O6 0.469390 0.889441 0.857767
O O7 0.000000 0.000000 0.000000
O O8 0.621732 0.335139 0.633688
O O9 0.172937 0.632569 0.423446
O O10 0.419858 0.623585 0.605682
O O11 0.128510 0.240235 0.566644
O O12 0.413571 0.071916 0.541383
O O13 0.765863 0.231401 0.373729
O O14 0.726478 0.430242 0.209450
O O15 0.500000 0.500000 0.000000
#
# Coordination Sequence:
#
# PCOD9003272 Si02
#       7
#     2   2   2   2   2   2   2
#     4  10  21  37  59  87 113 151 197 228 280 356
#     4  11  19  35  61  80 113 153 185 228 277 341
#     4  10  22  40  60  88 114 154 194 242 296 346
#     4  10  22  39  62  86 119 150 195 242 292 344
#     4  10  22  39  62  86 119 150 195 242 292 344
#     4  10  21  37  59  87 113 151 197 228 280 356
#     4  11  23  37  55  87 121 149 187 241 286 332
#
# _framework density 26.626372
#
# number of rings (size 3 to 8) (size 9 to 14) (size 15 to 20)
#    0.000    1.714    2.857    1.714    2.000    4.571 
#    0.000    7.143    0.000    0.000    0.000    0.000 
#    0.000    0.000    0.000    0.000    0.000    0.000 
#
# Total GULP energy -78136.645052 kJ/mol
# GULP energy per Si atom -5581.188932 kJ/mol
# Density = 2.656577 g / cm^3
# Si number density = 26.626372 Si / 1000 Ang^3
#
#
#
# Elastic Constant Matrix: (Units=GPa)
#
#
# Indices 1 2 3 4 5 6 
#
# 1 107.5438 43.1398 15.2657 16.8638 -18.7032 -12.7096
# 2 43.1398 136.7536 13.4258 1.8718 3.2817 -21.6658
# 3 15.2657 13.4258 79.0161 -18.3784 -15.1886 -2.4069
# 4 16.8638 1.8718 -18.3784 29.3182 5.5542 -7.8323
# 5 -18.7032 3.2817 -15.1886 5.5542 35.6275 3.1928
# 6 -12.7096 -21.6658 -2.4069 -7.8323 3.1928 39.1591
#
#
#
# Elastic Compliance Matrix: (Units=1/GPa)
#
#
# Indices 1 2 3 4 5 6 
#
# 1 0.014982 -0.004620 -0.003310 -0.012378 0.008908 -0.001099
# 2 -0.004620 0.009672 -0.000586 0.003874 -0.004615 0.004967
# 3 -0.003310 -0.000586 0.017011 0.012444 0.003462 0.001854
# 4 -0.012378 0.003874 0.012444 0.053645 -0.010854 0.010505
# 5 0.008908 -0.004615 0.003462 -0.010854 0.036751 -0.004617
# 6 -0.001099 0.004967 0.001854 0.010505 -0.004617 0.030520
#
#
# Mechanical properties :
#
#
# Convention : Reuss Voigt Hill
#
# Bulk Modulus (GPa) = 40.59363 51.88625 46.23994
# Shear Modulus (GPa) = 26.62094 37.58645 32.10370
#
# Velocity S-wave (km/s) = 3.16539 3.76124 3.47610
# Velocity P-wave (km/s) = 5.35148 6.19610 5.78921
#
# Compressibility (1/GPa) = 0.02463441
#
# Stress axis : x y z
#
# Youngs Moduli (GPa) = 66.74773 103.39324 58.78550
#
# Poissons Ratio (x) = 0.47763 0.19457
# Poissons Ratio (y) = 0.30835 0.03443
# Poissons Ratio (z) = 0.22093 0.06055
#
# Static dielectric constant tensor:
#      x y z
#    x 2.123830 0.065580 -0.043440 
#    y 0.065580 2.096990 -0.020950 
#    z -0.043440 -0.020950 2.390910 
# 
# From -- ./inp_files/34320.got.cif
#   From: 2010.05.17/outbox.cif.g08.bks.cpg/sg2_18_cif.got.tgz:34320.got - 2010.06.03 11:33:40.
