data_PCOD9003326
_publ_section_title
;
Structure prediction by ZEFSAII (Michael W. Deem and Ramdas Pophale) SiO2 
 PCOD9003326
Probable space group: P -1
;
_chemical_formula_sum "Si O2"
_cell_formula_units_Z 16
_cell_length_a 12.074106
_cell_length_b 12.973904
_cell_length_c 14.420188
_cell_angle_alpha 79.491930
_cell_angle_beta 159.746028
_cell_angle_gamma 102.284826
_cell_volume 763.090717
_symmetry_space_group_name_H-M "P -1"
_symmetry_group_IT_number 2
_symmetry_cell_setting 'triclinic'
loop_
_space_group_symop_operation_xyz
x,y,z
-x,-y,-z
loop_
_atom_site_type_symbol
_atom_site_label
_atom_site_fract_x
_atom_site_fract_y
_atom_site_fract_z
Si Si1 0.719955 0.112854 0.645739
Si Si2 0.257658 0.256361 0.311065
Si Si3 0.517962 0.886594 0.741792
Si Si4 0.593581 0.896092 0.138636
Si Si5 0.364105 0.476223 0.294089
Si Si6 0.793582 0.206207 0.305237
Si Si7 0.367672 0.873362 0.159032
Si Si8 0.774143 0.676508 0.521805
O O1 0.570369 0.196490 0.580360
O O2 0.659416 0.146518 0.487229
O O3 0.500000 0.000000 0.500000
O O4 0.095381 0.109033 0.958256
O O5 0.348040 0.350439 0.293763
O O6 0.119319 0.307437 0.287789
O O7 0.988573 0.165055 0.079254
O O8 0.374696 0.808692 0.724343
O O9 0.472866 0.011265 0.702476
O O10 0.341310 0.884636 0.025745
O O11 0.938927 0.877890 0.456187
O O12 0.498329 0.815774 0.993931
O O13 0.500000 0.000000 0.000000
O O14 0.500000 0.500000 0.500000
O O15 0.576540 0.560235 0.382457
O O16 0.000000 0.500000 0.000000
O O17 0.000899 0.302006 0.395995
O O18 0.564682 0.774221 0.338628
#
# Coordination Sequence:
#
# PCOD9003326 Si02
#       8
#     2   2   2   2   2   2   2   2
#     4  12  26  41  59  82 120 163 203 234 276 339
#     4  11  22  38  61  85 120 153 194 245 294 343
#     4  12  26  39  57  86 120 162 201 232 276 342
#     4  11  21  33  52  85 116 155 184 231 295 349
#     4  10  21  37  59  89 118 145 187 245 302 354
#     4  11  23  37  58  82 121 152 192 239 290 350
#     4  11  21  32  60  83 123 150 190 234 295 347
#     4  10  22  37  61  91 117 148 192 241 312 348
#
# _framework density 20.967364
#
# number of rings (size 3 to 8) (size 9 to 14) (size 15 to 20)
#    0.000    1.000    5.000    2.250    3.500    0.000 
#    0.000    0.000    0.000    1.500    0.000    0.000 
#    0.000    0.000    0.000    0.000    0.000    0.000 
#
# Total GULP energy -89069.976343 kJ/mol
# GULP energy per Si atom -5566.873521 kJ/mol
# Density = 2.091964 g / cm^3
# Si number density = 20.967364 Si / 1000 Ang^3
#
#
#
# Elastic Constant Matrix: (Units=GPa)
#
#
# Indices 1 2 3 4 5 6 
#
# 1 100.6707 34.6311 9.9772 15.3672 -7.0096 27.2409
# 2 34.6311 83.2714 -2.3204 -2.5324 9.1018 31.3710
# 3 9.9772 -2.3204 75.3240 -8.4824 -3.6852 3.6216
# 4 15.3672 -2.5324 -8.4824 21.5028 3.9057 6.9817
# 5 -7.0096 9.1018 -3.6852 3.9057 33.7149 2.0397
# 6 27.2409 31.3710 3.6216 6.9817 2.0397 30.1047
#
#
#
# Elastic Compliance Matrix: (Units=1/GPa)
#
#
# Indices 1 2 3 4 5 6 
#
# 1 0.016171 -0.005738 -0.003169 -0.012779 0.006392 -0.005741
# 2 -0.005738 0.025834 0.004535 0.018911 -0.008283 -0.026099
# 3 -0.003169 0.004535 0.015324 0.011056 -0.001114 -0.006190
# 4 -0.012779 0.018911 0.011056 0.072944 -0.013462 -0.025477
# 5 0.006392 -0.008283 -0.001114 -0.013462 0.034435 0.003771
# 6 -0.005741 -0.026099 -0.006190 -0.025477 0.003771 0.072007
#
#
# Mechanical properties :
#
#
# Convention : Reuss Voigt Hill
#
# Bulk Modulus (GPa) = 20.58238 38.20465 29.39352
# Shear Modulus (GPa) = 19.10919 31.52969 25.31944
#
# Velocity S-wave (km/s) = 3.02218 3.88203 3.47877
# Velocity P-wave (km/s) = 4.69210 6.19307 5.49408
#
# Compressibility (1/GPa) = 0.04858525
#
# Stress axis : x y z
#
# Youngs Moduli (GPa) = 61.84032 38.70809 65.25896
#
# Poissons Ratio (x) = 0.22210 0.20680
# Poissons Ratio (y) = 0.35482 -0.29595
# Poissons Ratio (z) = 0.19597 -0.17554
#
# Static dielectric constant tensor:
#      x y z
#    x 1.832270 0.034990 -0.025660 
#    y 0.034990 1.833020 0.026360 
#    z -0.025660 0.026360 1.792870 
# 
# From -- ./inp_files/78169.got.cif
#   From: 2010.05.17/outbox.cif.g08.bks.cpg/sg2_40_cif.got.tgz:78169.got - 2010.06.03 11:33:40.
