data_PCOD9003125
_publ_section_title
;
Structure prediction by ZEFSAII (Michael W. Deem and Ramdas Pophale) SiO2 
 PCOD9003125
Probable space group: P -1
;
_chemical_formula_sum "Si O2"
_cell_formula_units_Z 16
_cell_length_a 6.378440
_cell_length_b 16.997449
_cell_length_c 22.167608
_cell_angle_alpha 19.314290
_cell_angle_beta 79.774128
_cell_angle_gamma 88.114255
_cell_volume 712.228000
_symmetry_space_group_name_H-M "P -1"
_symmetry_group_IT_number 2
_symmetry_cell_setting 'triclinic'
loop_
_space_group_symop_operation_xyz
x,y,z
-x,-y,-z
loop_
_atom_site_type_symbol
_atom_site_label
_atom_site_fract_x
_atom_site_fract_y
_atom_site_fract_z
Si Si1 0.589158 0.935522 0.978891
Si Si2 0.494813 0.520481 0.914219
Si Si3 0.950125 0.701464 0.696674
Si Si4 0.507420 0.220405 0.657495
Si Si5 0.222828 0.968148 0.315083
Si Si6 0.901280 0.706896 0.331457
Si Si7 0.581847 0.074593 0.532646
Si Si8 0.265019 0.352799 0.383878
O O1 0.460083 0.626008 0.198747
O O2 0.500000 0.000000 0.000000
O O3 0.523127 0.075632 0.823880
O O4 0.872484 0.054609 0.878079
O O5 0.741847 0.522551 0.879353
O O6 0.495292 0.801727 0.699232
O O7 0.500000 0.500000 0.000000
O O8 0.280850 0.269994 0.080928
O O9 0.836504 0.618570 0.696505
O O10 0.206016 0.708157 0.672330
O O11 0.000000 0.000000 0.500000
O O12 0.691245 0.526194 0.429071
O O13 0.245044 0.201406 0.680101
O O14 0.608920 0.104831 0.683436
O O15 0.298305 0.957314 0.388164
O O16 0.951751 0.771583 0.469142
O O17 0.000000 0.500000 0.500000
O O18 0.379141 0.153824 0.505971
#
# Coordination Sequence:
#
# PCOD9003125 Si02
#       8
#     2   2   2   2   2   2   2   2
#     4  11  24  39  58  88 125 161 203 247 296 365
#     4   9  18  36  57  81 114 152 193 242 296 348
#     4   9  19  38  59  82 116 151 194 247 299 358
#     4  10  21  40  64  87 118 161 197 247 310 351
#     4  10  21  37  58  84 117 154 201 248 297 363
#     4   9  21  40  62  88 116 149 198 248 298 359
#     4   9  21  37  58  85 117 156 197 251 304 353
#     4  11  23  38  59  89 120 158 204 246 300 360
#
# _framework density 22.464717
#
# number of rings (size 3 to 8) (size 9 to 14) (size 15 to 20)
#    0.000    2.250    0.000    2.250    0.000   11.000 
#    0.000    3.750    0.000    0.000    0.000    0.000 
#    0.000    0.000    0.000    0.000    0.000    0.000 
#
# Total GULP energy -89259.012275 kJ/mol
# GULP energy per Si atom -5578.688267 kJ/mol
# Density = 2.241359 g / cm^3
# Si number density = 22.464717 Si / 1000 Ang^3
#
#
#
# Elastic Constant Matrix: (Units=GPa)
#
#
# Indices 1 2 3 4 5 6 
#
# 1 90.3927 36.6398 47.9022 11.3862 -25.3181 -31.2559
# 2 36.6398 113.5701 50.1738 7.2435 -27.5354 -26.5386
# 3 47.9022 50.1738 135.7098 -4.6980 -46.4996 -21.0061
# 4 11.3862 7.2435 -4.6980 39.0730 -4.6471 -4.0699
# 5 -25.3181 -27.5354 -46.4996 -4.6471 35.3001 7.5944
# 6 -31.2559 -26.5386 -21.0061 -4.0699 7.5944 44.8842
#
#
#
# Elastic Compliance Matrix: (Units=1/GPa)
#
#
# Indices 1 2 3 4 5 6 
#
# 1 0.018421 -0.000658 -0.002579 -0.003742 0.006709 0.009757
# 2 -0.000658 0.012389 -0.001598 -0.001076 0.005863 0.005029
# 3 -0.002579 -0.001598 0.015268 0.005141 0.017273 0.001948
# 4 -0.003742 -0.001076 0.005141 0.028377 0.006861 0.000576
# 5 0.006709 0.005863 0.017273 0.006861 0.059928 0.006705
# 6 0.009757 0.005029 0.001948 0.000576 0.006705 0.031877
#
#
# Mechanical properties :
#
#
# Convention : Reuss Voigt Hill
#
# Bulk Modulus (GPa) = 27.46702 67.67824 47.57263
# Shear Modulus (GPa) = 26.58651 37.51526 32.05089
#
# Velocity S-wave (km/s) = 3.44390 4.09095 3.78129
# Velocity P-wave (km/s) = 5.29785 7.24613 6.34719
#
# Compressibility (1/GPa) = 0.03640730
#
# Stress axis : x y z
#
# Youngs Moduli (GPa) = 54.28701 80.71823 65.49757
#
# Poissons Ratio (x) = 0.05312 0.16893
# Poissons Ratio (y) = 0.03573 0.10465
# Poissons Ratio (z) = 0.14001 0.12896
#
# Static dielectric constant tensor:
#      x y z
#    x 1.880720 0.004010 0.021050 
#    y 0.004010 1.840150 -0.005220 
#    z 0.021050 -0.005220 1.904210 
# 
# From -- ./inp_files/56984.got.cif
#   From: 2010.05.17/outbox.cif.g08.bks.cpg/sg2_29_cif.got.tgz:56984.got - 2010.06.03 11:33:40.
