data_PCOD9003088
_publ_section_title
;
Structure prediction by ZEFSAII (Michael W. Deem and Ramdas Pophale) SiO2 
 PCOD9003088
Probable space group: P -1
;
_chemical_formula_sum "Si O2"
_cell_formula_units_Z 16
_cell_length_a 15.045097
_cell_length_b 12.788179
_cell_length_c 7.835560
_cell_angle_alpha 89.640309
_cell_angle_beta 96.823912
_cell_angle_gamma 27.476152
_cell_volume 669.786659
_symmetry_space_group_name_H-M "P -1"
_symmetry_group_IT_number 2
_symmetry_cell_setting 'triclinic'
loop_
_space_group_symop_operation_xyz
x,y,z
-x,-y,-z
loop_
_atom_site_type_symbol
_atom_site_label
_atom_site_fract_x
_atom_site_fract_y
_atom_site_fract_z
Si Si1 0.984843 0.360543 0.444739
Si Si2 0.710404 0.669740 0.892681
Si Si3 0.219979 0.582778 0.867553
Si Si4 0.380781 0.720432 0.053309
Si Si5 0.651778 0.829280 0.231440
Si Si6 0.925434 0.924767 0.326151
Si Si7 0.862105 0.093924 0.676590
Si Si8 0.319632 0.134588 0.351373
O O1 0.869014 0.402162 0.293012
O O2 0.832903 0.618170 0.404307
O O3 0.189502 0.181181 0.402403
O O4 0.023005 0.248768 0.617094
O O5 0.803706 0.641338 0.764072
O O6 0.468765 0.934800 0.802306
O O7 0.783851 0.477892 0.954833
O O8 0.736915 0.710495 0.069315
O O9 0.447485 0.373020 0.886650
O O10 0.074871 0.833243 0.809314
O O11 0.214691 0.924398 0.873129
O O12 0.500000 0.500000 0.000000
O O13 0.293487 0.779031 0.216657
O O14 0.465680 0.945759 0.231295
O O15 0.833948 0.069577 0.483164
O O16 0.113066 0.807485 0.341891
O O17 0.500000 0.000000 0.500000
#
# Coordination Sequence:
#
# PCOD9003088 Si02
#       8
#     2   2   2   2   2   2   2   2
#     4  10  22  41  63  90 131 168 216 260 319 397
#     4   8  18  39  59  86 125 161 211 257 315 376
#     4  10  22  41  64  97 127 169 224 265 326 396
#     4  12  25  44  69  98 134 169 224 280 324 393
#     4   8  18  39  58  85 123 164 208 260 306 379
#     4  10  23  43  68  96 134 175 220 265 337 389
#     4  10  23  48  64  97 137 172 215 277 329 397
#     4  10  21  37  57  88 127 162 210 266 313 377
#
# _framework density 23.888203000000001
#
# number of rings (size 3 to 8) (size 9 to 14) (size 15 to 20)
#    0.750    1.500    1.250    0.375    1.750    7.000 
#    6.750    0.000    0.000    0.000    0.000    0.000 
#    0.000    0.000    0.000    0.000    0.000    0.000 
#
# Total GULP energy -89139.894753 kJ/mol
# GULP energy per Si atom -5571.243422 kJ/mol
# Density = 2.383383 g / cm^3
# Si number density = 23.888203 Si / 1000 Ang^3
#
#
#
# Elastic Constant Matrix: (Units=GPa)
#
#
# Indices 1 2 3 4 5 6 
#
# 1 95.3383 34.5233 48.7851 10.2806 0.3116 -32.3846
# 2 34.5233 55.7354 22.9725 -0.1029 -1.8865 -9.5834
# 3 48.7851 22.9725 127.8825 11.8739 -26.4723 -13.4312
# 4 10.2806 -0.1029 11.8739 29.7339 1.7573 -3.2864
# 5 0.3116 -1.8865 -26.4723 1.7573 38.7081 -0.3130
# 6 -32.3846 -9.5834 -13.4312 -3.2864 -0.3130 32.0785
#
#
#
# Elastic Compliance Matrix: (Units=1/GPa)
#
#
# Indices 1 2 3 4 5 6 
#
# 1 0.023291 -0.009041 -0.005971 -0.003459 -0.004410 0.017915
# 2 -0.009041 0.023721 -0.001344 0.003489 0.000133 -0.002245
# 3 -0.005971 -0.001344 0.012263 -0.003514 0.008516 -0.001572
# 4 -0.003459 0.003489 -0.003514 0.036446 -0.003862 -0.000225
# 5 -0.004410 0.000133 0.008516 -0.003862 0.031868 -0.000931
# 6 0.017915 -0.002245 -0.001572 -0.000225 -0.000931 0.047898
#
#
# Mechanical properties :
#
#
# Convention : Reuss Voigt Hill
#
# Bulk Modulus (GPa) = 37.64760 54.61311 46.13036
# Shear Modulus (GPa) = 23.03558 31.61581 27.32569
#
# Velocity S-wave (km/s) = 3.10870 3.64193 3.38583
# Velocity P-wave (km/s) = 5.35532 6.37153 5.88540
#
# Compressibility (1/GPa) = 0.02656212
#
# Stress axis : x y z
#
# Youngs Moduli (GPa) = 42.93489 42.15654 81.54503
#
# Poissons Ratio (x) = 0.38114 0.48692
# Poissons Ratio (y) = 0.38817 0.10963
# Poissons Ratio (z) = 0.25637 0.05668
#
# Static dielectric constant tensor:
#      x y z
#    x 1.957220 0.086070 0.027430 
#    y 0.086070 2.026460 0.085400 
#    z 0.027430 0.085400 2.140700 
# 
# From -- ./inp_files/312663.got.cif
#   From: 2010.05.17/outbox.cif.g08.bks.cpg/sg2_157_cif.got.tgz:312663.got - 2010.06.03 11:33:40.
