data_PCOD9003931
_publ_section_title
;
Structure prediction by ZEFSAII (Michael W. Deem and Ramdas Pophale) SiO2 
 PCOD9003931
Probable space group: P -1
;
_chemical_formula_sum "Si O2"
_cell_formula_units_Z 16
_cell_length_a 13.786369
_cell_length_b 21.952281
_cell_length_c 7.343312
_cell_angle_alpha 101.046698
_cell_angle_beta 77.822794
_cell_angle_gamma 159.814311
_cell_volume 749.480148
_symmetry_space_group_name_H-M "P -1"
_symmetry_group_IT_number 2
_symmetry_cell_setting 'triclinic'
loop_
_space_group_symop_operation_xyz
x,y,z
-x,-y,-z
loop_
_atom_site_type_symbol
_atom_site_label
_atom_site_fract_x
_atom_site_fract_y
_atom_site_fract_z
Si Si1 0.328145 0.345256 0.203493
Si Si2 0.249571 0.076225 0.306693
Si Si3 0.166541 0.816549 0.020719
Si Si4 0.335599 0.490027 0.195488
Si Si5 0.754332 0.008325 0.055443
Si Si6 0.099569 0.651274 0.096628
Si Si7 0.656201 0.728379 0.511007
Si Si8 0.857255 0.406733 0.306785
O O1 0.396261 0.457986 0.239639
O O2 0.424224 0.366184 0.354996
O O3 0.988988 0.142867 0.194760
O O4 0.480007 0.403556 0.001284
O O5 0.291450 0.173278 0.374192
O O6 0.523526 0.203175 0.352621
O O7 0.956261 0.884005 0.398072
O O8 0.246220 0.056716 0.085676
O O9 0.049713 0.696085 0.136602
O O10 0.140117 0.875818 0.062699
O O11 0.991619 0.698181 0.839106
O O12 0.500000 0.000000 0.000000
O O13 0.434681 0.599038 0.360218
O O14 0.428949 0.833185 0.126239
O O15 0.912627 0.501962 0.222497
O O16 0.058759 0.597806 0.877481
O O17 0.000000 0.500000 0.500000
#
# Coordination Sequence:
#
# PCOD9003931 Si02
#       8
#     2   2   2   2   2   2   2   2
#     4  10  21  37  63  85 114 160 192 241 304 339
#     4  10  23  40  54  87 124 153 203 242 286 348
#     4   9  19  37  67  88 115 152 193 245 295 352
#     4  10  21  39  61  89 117 149 199 246 291 352
#     4   9  18  40  62  85 119 154 195 244 297 345
#     4   9  20  38  61  87 111 156 196 235 297 346
#     4  11  23  39  58  88 121 158 197 243 288 352
#     4  10  22  38  58  84 120 155 194 244 287 344
#
# _framework density 21.348129
#
# number of rings (size 3 to 8) (size 9 to 14) (size 15 to 20)
#    0.000    2.250    1.250    0.375    5.250    0.500 
#    0.000    0.000    0.000    3.750    0.000    0.000 
#    0.000    0.000    0.000    0.000    0.000    0.000 
#
# Total GULP energy -89194.637427 kJ/mol
# GULP energy per Si atom -5574.664839 kJ/mol
# Density = 2.129954 g / cm^3
# Si number density = 21.348129 Si / 1000 Ang^3
#
#
#
# Elastic Constant Matrix: (Units=GPa)
#
#
# Indices 1 2 3 4 5 6 
#
# 1 39.3629 9.8062 18.6618 -0.1729 2.7491 -4.0857
# 2 9.8062 103.2298 29.9549 15.6751 2.8186 10.1451
# 3 18.6618 29.9549 49.8996 8.5921 12.9944 13.4630
# 4 -0.1729 15.6751 8.5921 24.1000 -1.7770 2.2339
# 5 2.7491 2.8186 12.9944 -1.7770 18.2422 -1.4479
# 6 -4.0857 10.1451 13.4630 2.2339 -1.4479 24.5809
#
#
#
# Elastic Compliance Matrix: (Units=1/GPa)
#
#
# Indices 1 2 3 4 5 6 
#
# 1 0.038374 -0.000053 -0.024961 0.008404 0.014424 0.020157
# 2 -0.000053 0.012560 -0.007059 -0.005404 0.002515 -0.000687
# 3 -0.024961 -0.007059 0.054810 -0.014965 -0.038200 -0.032145
# 4 0.008404 -0.005404 -0.014965 0.050817 0.015825 0.008138
# 5 0.014424 0.002515 -0.038200 0.015825 0.083050 0.025736
# 6 0.020157 -0.000687 -0.032145 0.008138 0.025736 0.062698
#
#
# Mechanical properties :
#
#
# Convention : Reuss Voigt Hill
#
# Bulk Modulus (GPa) = 24.03992 34.37091 29.20542
# Shear Modulus (GPa) = 13.14678 22.32257 17.73468
#
# Velocity S-wave (km/s) = 2.48428 3.23715 2.88538
# Velocity P-wave (km/s) = 4.41749 5.48702 4.98104
#
# Compressibility (1/GPa) = 0.04159747
#
# Stress axis : x y z
#
# Youngs Moduli (GPa) = 26.05965 79.61834 18.24480
#
# Poissons Ratio (x) = 0.00422 0.45541
# Poissons Ratio (y) = 0.00138 0.12879
# Poissons Ratio (z) = 0.65048 0.56202
#
# Static dielectric constant tensor:
#      x y z
#    x 1.792390 0.007860 -0.021650 
#    y 0.007860 1.813450 0.002950 
#    z -0.021650 0.002950 1.769490 
# 
# From -- ./inp_files/77978.got.cif
#   From: 2010.05.17/outbox.cif.g08.bks.cpg/sg2_39_cif.got.tgz:77978.got - 2010.06.03 11:33:40.
