data_PCOD9003896
_publ_section_title
;
Structure prediction by ZEFSAII (Michael W. Deem and Ramdas Pophale) SiO2 
 PCOD9003896
Probable space group: P -1
;
_chemical_formula_sum "Si O2"
_cell_formula_units_Z 16
_cell_length_a 12.595153
_cell_length_b 9.883031
_cell_length_c 11.211620
_cell_angle_alpha 122.987334
_cell_angle_beta 85.909851
_cell_angle_gamma 129.405677
_cell_volume 819.501537
_symmetry_space_group_name_H-M "P -1"
_symmetry_group_IT_number 2
_symmetry_cell_setting 'triclinic'
loop_
_space_group_symop_operation_xyz
x,y,z
-x,-y,-z
loop_
_atom_site_type_symbol
_atom_site_label
_atom_site_fract_x
_atom_site_fract_y
_atom_site_fract_z
Si Si1 0.834834 0.029184 0.490301
Si Si2 0.989765 0.929218 0.288921
Si Si3 0.376561 0.897420 0.126696
Si Si4 0.961202 0.518553 0.669447
Si Si5 0.091709 0.458219 0.044638
Si Si6 0.711784 0.234234 0.203694
Si Si7 0.773700 0.550389 0.534226
Si Si8 0.448213 0.276429 0.457234
O O1 0.864164 0.924346 0.337550
O O2 0.674072 0.846656 0.485311
O O3 0.879355 0.254989 0.549766
O O4 0.960503 0.121307 0.624751
O O5 0.943651 0.752865 0.108693
O O6 0.138495 0.188001 0.360541
O O7 0.268012 0.684369 0.119943
O O8 0.546996 0.013766 0.162765
O O9 0.383123 0.085973 0.268947
O O10 0.305579 0.804400 0.955316
O O11 0.942852 0.567241 0.826755
O O12 0.883343 0.548699 0.594673
O O13 0.142519 0.701446 0.728905
O O14 0.000000 0.500000 0.000000
O O15 0.740707 0.446076 0.353629
O O16 0.611908 0.381404 0.531664
O O17 0.500000 0.500000 0.500000
#
# Coordination Sequence:
#
# PCOD9003896 Si02
#       8
#     2   2   2   2   2   2   2   2
#     4  11  22  38  65  92 123 164 218 261 309 376
#     4  11  23  39  64  96 126 165 218 263 310 376
#     4  10  21  37  62  97 119 165 215 263 311 368
#     4  12  23  41  66  94 130 174 211 257 326 385
#     4  12  22  40  64  93 128 170 215 266 308 379
#     4  10  21  38  62  91 131 160 208 264 312 374
#     4  11  25  40  63  99 131 167 213 259 328 383
#     4  11  22  40  65  95 127 163 213 273 314 373
#
# _framework density 19.524063000000002
#
# number of rings (size 3 to 8) (size 9 to 14) (size 15 to 20)
#    0.000    1.000    6.250    0.375    1.750    2.000 
#    0.000    0.000    0.000    1.500    0.000    0.000 
#    0.000    0.000    0.000    0.000    0.000    0.000 
#
# Total GULP energy -89320.402889 kJ/mol
# GULP energy per Si atom -5582.525181 kJ/mol
# Density = 1.947963 g / cm^3
# Si number density = 19.524063 Si / 1000 Ang^3
#
#
#
# Elastic Constant Matrix: (Units=GPa)
#
#
# Indices 1 2 3 4 5 6 
#
# 1 95.4203 28.5909 38.1465 3.7699 5.0138 26.0422
# 2 28.5909 62.4034 42.5525 6.8333 0.5036 12.4704
# 3 38.1465 42.5525 145.2154 7.3121 -25.7402 9.7061
# 4 3.7699 6.8333 7.3121 31.7770 5.2563 -5.7413
# 5 5.0138 0.5036 -25.7402 5.2563 33.0888 0.1867
# 6 26.0422 12.4704 9.7061 -5.7413 0.1867 42.6558
#
#
#
# Elastic Compliance Matrix: (Units=1/GPa)
#
#
# Indices 1 2 3 4 5 6 
#
# 1 0.015091 -0.002932 -0.003365 -0.001008 -0.004656 -0.007706
# 2 -0.002932 0.022765 -0.006239 -0.003105 -0.004241 -0.003845
# 3 -0.003365 -0.006239 0.011398 -0.002342 0.009839 0.000926
# 4 -0.001008 -0.003105 -0.002342 0.035230 -0.007257 0.006830
# 5 -0.004656 -0.004241 0.009839 -0.007257 0.039794 0.000693
# 6 -0.007706 -0.003845 0.000926 0.006830 0.000693 0.029978
#
#
# Mechanical properties :
#
#
# Convention : Reuss Voigt Hill
#
# Bulk Modulus (GPa) = 41.35079 57.95764 49.65421
# Shear Modulus (GPa) = 26.68257 34.42094 30.55175
#
# Velocity S-wave (km/s) = 3.70083 4.20337 3.96008
# Velocity P-wave (km/s) = 6.28386 7.30119 6.81155
#
# Compressibility (1/GPa) = 0.02418333
#
# Stress axis : x y z
#
# Youngs Moduli (GPa) = 66.26418 43.92704 87.73228
#
# Poissons Ratio (x) = 0.12880 0.29518
# Poissons Ratio (y) = 0.19429 0.54736
# Poissons Ratio (z) = 0.22295 0.27406
#
# Static dielectric constant tensor:
#      x y z
#    x 1.747100 0.034630 -0.033860 
#    y 0.034630 1.666920 0.000340 
#    z -0.033860 0.000340 1.690030 
# 
# From -- ./inp_files/257014.got.cif
#   From: 2010.05.17/outbox.cif.g08.bks.cpg/sg2_129_cif.got.tgz:257014.got - 2010.06.03 11:33:40.
