data_PCOD9003425
_publ_section_title
;
Structure prediction by ZEFSAII (Michael W. Deem and Ramdas Pophale) SiO2 
 PCOD9003425
Probable space group: P -1
;
_chemical_formula_sum "Si O2"
_cell_formula_units_Z 16
_cell_length_a 20.826839
_cell_length_b 8.327436
_cell_length_c 19.930468
_cell_angle_alpha 40.956850
_cell_angle_beta 19.891223
_cell_angle_gamma 41.335682
_cell_volume 757.951432
_symmetry_space_group_name_H-M "P -1"
_symmetry_group_IT_number 2
_symmetry_cell_setting 'triclinic'
loop_
_space_group_symop_operation_xyz
x,y,z
-x,-y,-z
loop_
_atom_site_type_symbol
_atom_site_label
_atom_site_fract_x
_atom_site_fract_y
_atom_site_fract_z
Si Si1 0.474512 0.519496 0.938210
Si Si2 0.142464 0.701209 0.717433
Si Si3 0.790469 0.020820 0.905156
Si Si4 0.996514 0.190835 0.029801
Si Si5 0.515138 0.306671 0.711829
Si Si6 0.161066 0.746442 0.358561
Si Si7 0.265042 0.079914 0.273041
Si Si8 0.333766 0.858873 0.735990
O O1 0.688655 0.512702 0.702725
O O2 0.500000 0.500000 0.000000
O O3 0.403348 0.273833 0.058667
O O4 0.315882 0.763901 0.009290
O O5 0.099832 0.769408 0.815095
O O6 0.353676 0.666096 0.490188
O O7 0.008347 0.921448 0.740186
O O8 0.063340 0.447079 0.862674
O O9 0.784908 0.115186 0.804642
O O10 0.668713 0.802263 0.096397
O O11 0.827552 0.138341 0.164027
O O12 0.195573 0.989483 0.890550
O O13 0.439376 0.575106 0.735019
O O14 0.636881 0.104592 0.706676
O O15 0.938698 0.740550 0.568216
O O16 0.205549 0.908119 0.327022
O O17 0.500000 0.000000 0.500000
#
# Coordination Sequence:
#
# PCOD9003425 Si02
#       8
#     2   2   2   2   2   2   2   2
#     4  10  21  37  60  86 123 163 208 254 311 362
#     4  11  23  43  65  97 124 166 211 261 315 382
#     4  11  23  40  62  92 127 169 209 263 308 368
#     4  10  24  44  68  91 132 162 204 263 327 373
#     4  12  23  38  68  92 128 165 217 255 312 381
#     4  10  22  39  61  88 127 168 209 255 317 362
#     4  11  22  39  63  91 123 172 208 259 309 372
#     4  11  23  43  68  97 125 164 204 264 320 381
#
# _framework density 21.109534
#
# number of rings (size 3 to 8) (size 9 to 14) (size 15 to 20)
#    0.000    1.250    6.250    0.375    0.000    5.500 
#    0.000    1.250    0.000    0.000    0.000    0.000 
#    0.000    0.000    0.000    0.000    0.000    0.000 
#
# Total GULP energy -89242.245840 kJ/mol
# GULP energy per Si atom -5577.640365 kJ/mol
# Density = 2.106149 g / cm^3
# Si number density = 21.109534 Si / 1000 Ang^3
#
#
#
# Elastic Constant Matrix: (Units=GPa)
#
#
# Indices 1 2 3 4 5 6 
#
# 1 12.2615 -9.4250 1.8989 -0.9061 -4.4177 -0.9872
# 2 -9.4250 90.4931 14.2828 25.6607 2.7984 2.5576
# 3 1.8989 14.2828 97.6078 24.7519 -0.7270 -5.6844
# 4 -0.9061 25.6607 24.7519 40.5184 2.6804 2.4378
# 5 -4.4177 2.7984 -0.7270 2.6804 23.4668 0.4025
# 6 -0.9872 2.5576 -5.6844 2.4378 0.4025 11.1780
#
#
#
# Elastic Compliance Matrix: (Units=1/GPa)
#
#
# Indices 1 2 3 4 5 6 
#
# 1 0.096706 0.011163 -0.001697 -0.005358 0.017337 0.005668
# 2 0.011163 0.014785 -0.000086 -0.009123 0.001386 -0.000501
# 3 -0.001697 -0.000086 0.012915 -0.008429 0.000912 0.008243
# 4 -0.005358 -0.009123 -0.008429 0.036392 -0.004159 -0.010459
# 5 0.017337 0.001386 0.000912 -0.004159 0.046199 0.000921
# 6 0.005668 -0.000501 0.008243 -0.010459 0.000921 0.096517
#
#
# Mechanical properties :
#
#
# Convention : Reuss Voigt Hill
#
# Bulk Modulus (GPa) = 6.98487 23.76397 15.37442
# Shear Modulus (GPa) = 15.03868 27.93967 21.48917
#
# Velocity S-wave (km/s) = 2.67200 3.64202 3.19405
# Velocity P-wave (km/s) = 3.58267 5.38216 4.57182
#
# Compressibility (1/GPa) = 0.14316668
#
# Stress axis : x y z
#
# Youngs Moduli (GPa) = 10.34060 67.63601 77.42875
#
# Poissons Ratio (x) = -0.75503 0.13138
# Poissons Ratio (y) = -0.11543 0.00666
# Poissons Ratio (z) = 0.01755 0.00582
#
# Static dielectric constant tensor:
#      x y z
#    x 1.759300 0.005470 0.020050 
#    y 0.005470 1.828940 0.058250 
#    z 0.020050 0.058250 1.768970 
# 
# From -- ./inp_files/580149.got.cif
#   From: 2010.05.17/outbox.cif.g08.bks.cpg/sg2_291_cif.got.tgz:580149.got - 2010.06.03 11:33:40.
