data_PCOD9003928
_publ_section_title
;
Structure prediction by ZEFSAII (Michael W. Deem and Ramdas Pophale) SiO2 
 PCOD9003928
Probable space group: P -1
;
_chemical_formula_sum "Si O2"
_cell_formula_units_Z 16
_cell_length_a 5.328032
_cell_length_b 25.507265
_cell_length_c 14.896564
_cell_angle_alpha 153.250320
_cell_angle_beta 51.901154
_cell_angle_gamma 120.445731
_cell_volume 711.454338
_symmetry_space_group_name_H-M "P -1"
_symmetry_group_IT_number 2
_symmetry_cell_setting 'triclinic'
loop_
_space_group_symop_operation_xyz
x,y,z
-x,-y,-z
loop_
_atom_site_type_symbol
_atom_site_label
_atom_site_fract_x
_atom_site_fract_y
_atom_site_fract_z
Si Si1 0.334108 0.734541 0.326983
Si Si2 0.295410 0.837749 0.763028
Si Si3 0.101985 0.313073 0.506950
Si Si4 0.535484 0.090010 0.708525
Si Si5 0.285165 0.528961 0.680889
Si Si6 0.630994 0.670858 0.970853
Si Si7 0.787359 0.910534 0.508570
Si Si8 0.847291 0.967113 0.773020
O O1 0.172950 0.648037 0.296665
O O2 0.407464 0.700113 0.154386
O O3 0.651355 0.788488 0.373370
O O4 0.072608 0.849342 0.568717
O O5 0.056365 0.780267 0.662992
O O6 0.487736 0.930716 0.810037
O O7 0.566964 0.741997 0.601575
O O8 0.123831 0.917054 0.000817
O O9 0.177103 0.415335 0.580186
O O10 0.328723 0.210437 0.911508
O O11 0.905916 0.119375 0.668727
O O12 0.500000 0.000000 0.500000
O O13 0.525531 0.007110 0.669418
O O14 0.500000 0.500000 0.500000
O O15 0.473997 0.591278 0.811661
O O16 0.966096 0.609474 0.841138
O O17 0.893194 0.976401 0.672238
#
# Coordination Sequence:
#
# PCOD9003928 Si02
#       8
#     2   2   2   2   2   2   2   2
#     4  11  23  41  73 109 147 172 227 302 361 425
#     4  10  23  39  69 101 142 193 227 271 351 423
#     4  11  25  48  72 102 140 189 246 292 348 406
#     4  11  23  39  65 106 143 183 223 274 354 444
#     4  12  30  55  72  98 139 188 253 302 339 420
#     4  12  26  48  78 103 138 186 237 300 369 400
#     4  11  20  38  61 100 157 175 220 277 343 427
#     4  10  21  37  63 103 152 181 219 278 348 434
#
# _framework density 22.489145000000001
#
# number of rings (size 3 to 8) (size 9 to 14) (size 15 to 20)
#    0.000    1.000    3.750    1.875    3.500    3.500 
#    4.500    0.000    0.000    0.000    0.000    0.000 
#    0.000    0.000    0.000    0.000    0.000    0.000 
#
# Total GULP energy -89350.004231 kJ/mol
# GULP energy per Si atom -5584.375264 kJ/mol
# Density = 2.243796 g / cm^3
# Si number density = 22.489145 Si / 1000 Ang^3
#
#
#
# Elastic Constant Matrix: (Units=GPa)
#
#
# Indices 1 2 3 4 5 6 
#
# 1 111.9224 13.3871 35.5244 -6.7117 11.2713 -14.5691
# 2 13.3871 125.8939 30.2107 -1.2411 -5.2314 -2.1679
# 3 35.5244 30.2107 79.2600 -8.5971 5.8086 -1.8162
# 4 -6.7117 -1.2411 -8.5971 26.5791 -4.0103 -5.0988
# 5 11.2713 -5.2314 5.8086 -4.0103 49.0604 2.8864
# 6 -14.5691 -2.1679 -1.8162 -5.0988 2.8864 36.2183
#
#
#
# Elastic Compliance Matrix: (Units=1/GPa)
#
#
# Indices 1 2 3 4 5 6 
#
# 1 0.011360 -0.000101 -0.004568 0.001973 -0.002200 0.004788
# 2 -0.000101 0.008840 -0.003473 -0.000510 0.001327 0.000137
# 3 -0.004568 -0.003473 0.016448 0.003746 -0.000926 -0.000619
# 4 0.001973 -0.000510 0.003746 0.040867 0.002004 0.006544
# 5 -0.002200 0.001327 -0.000926 0.002004 0.021438 -0.002278
# 6 0.004788 0.000137 -0.000619 0.006544 -0.002278 0.030616
#
#
# Mechanical properties :
#
#
# Convention : Reuss Voigt Hill
#
# Bulk Modulus (GPa) = 49.11040 52.81342 50.96191
# Shear Modulus (GPa) = 32.75640 38.23516 35.49578
#
# Velocity S-wave (km/s) = 3.82061 4.12777 3.97716
# Velocity P-wave (km/s) = 6.43020 6.80095 6.61818
#
# Compressibility (1/GPa) = 0.02036229
#
# Stress axis : x y z
#
# Youngs Moduli (GPa) = 88.02947 113.12234 60.79780
#
# Poissons Ratio (x) = 0.01146 0.27772
# Poissons Ratio (y) = 0.00892 0.21118
# Poissons Ratio (z) = 0.40211 0.39293
#
# Static dielectric constant tensor:
#      x y z
#    x 1.901750 0.022340 -0.075750 
#    y 0.022340 1.956640 -0.024680 
#    z -0.075750 -0.024680 1.872990 
# 
# From -- ./inp_files/485828.got.cif
#   From: 2010.05.17/outbox.cif.g08.bks.cpg/sg2_243_cif.got.tgz:485828.got - 2010.06.03 11:33:40.
