data_PCOD9003390
_publ_section_title
;
Structure prediction by ZEFSAII (Michael W. Deem and Ramdas Pophale) SiO2 
 PCOD9003390
Probable space group: P -1
;
_chemical_formula_sum "Si O2"
_cell_formula_units_Z 12
_cell_length_a 18.334670
_cell_length_b 9.916017
_cell_length_c 13.159312
_cell_angle_alpha 46.126897
_cell_angle_beta 152.049245
_cell_angle_gamma 149.157290
_cell_volume 553.233131
_symmetry_space_group_name_H-M "P -1"
_symmetry_group_IT_number 2
_symmetry_cell_setting 'triclinic'
loop_
_space_group_symop_operation_xyz
x,y,z
-x,-y,-z
loop_
_atom_site_type_symbol
_atom_site_label
_atom_site_fract_x
_atom_site_fract_y
_atom_site_fract_z
Si Si1 0.743892 0.752834 0.350532
Si Si2 0.576818 0.277195 0.925454
Si Si3 0.714968 0.567354 0.143858
Si Si4 0.083228 0.500201 0.941909
Si Si5 0.316764 0.687573 0.559443
Si Si6 0.829019 0.098526 0.019079
O O1 0.649892 0.794733 0.304932
O O2 0.560303 0.645919 0.092542
O O3 0.695154 0.492494 0.442275
O O4 0.000000 0.000000 0.500000
O O5 0.746511 0.498114 0.108750
O O6 0.706734 0.393510 0.918695
O O7 0.500000 0.000000 0.000000
O O8 0.762094 0.474416 0.345522
O O9 0.823867 0.868420 0.127774
O O10 0.859941 0.313342 0.693331
O O11 0.018200 0.331603 0.050589
O O12 0.134680 0.758520 0.905706
O O13 0.582193 0.961797 0.752160
#
# Coordination Sequence:
#
# PCOD9003390 Si02
#       6
#     2   2   2   2   2   2
#     4   9  19  34  59  90 120 160 195 246 313 360
#     4  10  21  37  59  99 124 156 208 267 304 361
#     4   9  22  37  63  92 127 157 210 261 294 382
#     4  11  24  38  68  88 128 168 200 264 309 360
#     4  11  21  37  66  92 119 166 213 248 305 379
#     4  10  22  43  60  91 127 168 214 241 311 382
#
# _framework density 21.690676
#
# number of rings (size 3 to 8) (size 9 to 14) (size 15 to 20)
#    1.000    1.000    0.000    4.500    7.000    1.333 
#    0.000    1.667    0.000    3.000    0.000    0.000 
#    0.000    0.000    0.000    0.000    0.000    0.000 
#
# Total GULP energy -66907.220983 kJ/mol
# GULP energy per Si atom -5575.601749 kJ/mol
# Density = 2.164131 g / cm^3
# Si number density = 21.690676 Si / 1000 Ang^3
#
#
#
# Elastic Constant Matrix: (Units=GPa)
#
#
# Indices 1 2 3 4 5 6 
#
# 1 161.5362 45.3013 21.3300 4.3188 15.3638 7.3190
# 2 45.3013 82.0445 -6.5070 7.1420 -2.1850 -1.6740
# 3 21.3300 -6.5070 65.6092 12.7860 11.0281 1.5833
# 4 4.3188 7.1420 12.7860 22.8920 4.6846 -0.3013
# 5 15.3638 -2.1850 11.0281 4.6846 19.2708 8.8289
# 6 7.3190 -1.6740 1.5833 -0.3013 8.8289 31.4789
#
#
#
# Elastic Compliance Matrix: (Units=1/GPa)
#
#
# Indices 1 2 3 4 5 6 
#
# 1 0.008636 -0.005429 -0.002831 0.002963 -0.006457 -0.000315
# 2 -0.005429 0.016289 0.003863 -0.007362 0.005623 0.000287
# 3 -0.002831 0.003863 0.019646 -0.010222 -0.006840 0.001696
# 4 0.002963 -0.007362 -0.010222 0.053605 -0.011880 0.003279
# 5 -0.006457 0.005623 -0.006840 -0.011880 0.072919 -0.018421
# 6 -0.000315 0.000287 0.001696 0.003279 -0.018421 0.036968
#
#
# Mechanical properties :
#
#
# Convention : Reuss Voigt Hill
#
# Bulk Modulus (GPa) = 27.94978 47.71541 37.83259
# Shear Modulus (GPa) = 21.85473 31.33271 26.59372
#
# Velocity S-wave (km/s) = 3.17766 3.80481 3.50529
# Velocity P-wave (km/s) = 5.13585 6.43024 5.81915
#
# Compressibility (1/GPa) = 0.03577846
#
# Stress axis : x y z
#
# Youngs Moduli (GPa) = 115.79337 61.39041 50.90061
#
# Poissons Ratio (x) = 0.33330 0.14408
# Poissons Ratio (y) = 0.62867 -0.19665
# Poissons Ratio (z) = 0.32776 -0.23717
#
# Static dielectric constant tensor:
#      x y z
#    x 1.846850 -0.020540 -0.041250 
#    y -0.020540 1.809780 0.003280 
#    z -0.041250 0.003280 1.883340 
# 
# From -- ./inp_files/444264.got.cif
#   From: 2010.05.17/outbox.cif.g08.bks.cpg/sg2_223_cif.got.tgz:444264.got - 2010.06.03 11:33:40.
