data_PCOD9003491
_publ_section_title
;
Structure prediction by ZEFSAII (Michael W. Deem and Ramdas Pophale) SiO2 
 PCOD9003491
Probable space group: P -1
;
_chemical_formula_sum "Si O2"
_cell_formula_units_Z 16
_cell_length_a 27.595695
_cell_length_b 9.234611
_cell_length_c 27.241218
_cell_angle_alpha 35.341475
_cell_angle_beta 169.271738
_cell_angle_gamma 145.987929
_cell_volume 722.797329
_symmetry_space_group_name_H-M "P -1"
_symmetry_group_IT_number 2
_symmetry_cell_setting 'triclinic'
loop_
_space_group_symop_operation_xyz
x,y,z
-x,-y,-z
loop_
_atom_site_type_symbol
_atom_site_label
_atom_site_fract_x
_atom_site_fract_y
_atom_site_fract_z
Si Si1 0.732844 0.951689 0.779636
Si Si2 0.173330 0.870389 0.068371
Si Si3 0.572131 0.628951 0.365460
Si Si4 0.824327 0.412643 0.484185
Si Si5 0.225783 0.394998 0.727076
Si Si6 0.663390 0.797941 0.517905
Si Si7 0.843915 0.188233 0.153797
Si Si8 0.330124 0.475477 0.027627
O O1 0.796750 0.123711 0.844814
O O2 0.616433 0.649557 0.760368
O O3 0.500000 0.000000 0.500000
O O4 0.000000 0.000000 0.000000
O O5 0.391776 0.758404 0.289037
O O6 0.239144 0.176097 0.035817
O O7 0.888724 0.753149 0.791796
O O8 0.627390 0.637888 0.476138
O O9 0.859948 0.687637 0.608346
O O10 0.390161 0.826900 0.116023
O O11 0.756670 0.502272 0.339099
O O12 0.140750 0.503803 0.785518
O O13 0.743668 0.100928 0.496690
O O14 0.642183 0.524898 0.310381
O O15 0.000000 0.500000 0.500000
O O16 0.152973 0.086719 0.744887
O O17 0.500000 0.500000 0.000000
O O18 0.748621 0.351503 0.056466
#
# Coordination Sequence:
#
# PCOD9003491 Si02
#       8
#     2   2   2   2   2   2   2   2
#     4  12  26  45  70 101 133 171 210 272 340 399
#     4  10  21  41  65  94 131 169 216 256 330 399
#     4  12  25  44  69 101 131 168 234 270 321 406
#     4  10  21  37  60  90 131 166 221 268 325 374
#     4  12  25  41  60  91 135 180 220 276 338 377
#     4  10  21  39  66  94 127 178 215 267 313 385
#     4  12  24  40  68  94 132 175 225 277 324 385
#     4  10  21  37  63  92 122 172 217 268 320 383
#
# _framework density 22.136219000000001
#
# number of rings (size 3 to 8) (size 9 to 14) (size 15 to 20)
#    0.000    1.000    1.250    6.000    3.500    3.000 
#    0.000    3.750    0.000    0.000    0.000    0.000 
#    0.000    0.000    0.000    0.000    0.000    0.000 
#
# Total GULP energy -89549.833586 kJ/mol
# GULP energy per Si atom -5596.864599 kJ/mol
# Density = 2.208584 g / cm^3
# Si number density = 22.136219 Si / 1000 Ang^3
#
#
#
# Elastic Constant Matrix: (Units=GPa)
#
#
# Indices 1 2 3 4 5 6 
#
# 1 132.8809 27.1215 46.2304 8.8582 -12.6630 -6.6905
# 2 27.1215 61.4991 15.5171 5.0468 7.9419 -2.1965
# 3 46.2304 15.5171 153.6684 4.5271 -3.4777 1.9311
# 4 8.8582 5.0468 4.5271 17.6948 1.4146 -4.6120
# 5 -12.6630 7.9419 -3.4777 1.4146 54.5920 -4.5232
# 6 -6.6905 -2.1965 1.9311 -4.6120 -4.5232 32.4323
#
#
#
# Elastic Compliance Matrix: (Units=1/GPa)
#
#
# Indices 1 2 3 4 5 6 
#
# 1 0.009687 -0.003728 -0.002411 -0.002910 0.002866 0.001875
# 2 -0.003728 0.018803 -0.000762 -0.003117 -0.003601 -0.000396
# 3 -0.002411 -0.000762 0.007344 -0.000737 -0.000052 -0.001098
# 4 -0.002910 -0.003117 -0.000737 0.061168 -0.001210 0.007762
# 5 0.002866 -0.003601 -0.000052 -0.001210 0.019778 0.002937
# 6 0.001875 -0.000396 -0.001098 0.007762 0.002937 0.032772
#
#
# Mechanical properties :
#
#
# Convention : Reuss Voigt Hill
#
# Bulk Modulus (GPa) = 45.38679 58.42072 51.90376
# Shear Modulus (GPa) = 29.29161 38.22244 33.75702
#
# Velocity S-wave (km/s) = 3.64159 4.15986 3.90932
# Velocity P-wave (km/s) = 6.18300 7.03714 6.62385
#
# Compressibility (1/GPa) = 0.02203284
#
# Stress axis : x y z
#
# Youngs Moduli (GPa) = 103.23430 53.18195 136.16504
#
# Poissons Ratio (x) = 0.19827 0.32826
# Poissons Ratio (y) = 0.38486 0.10374
# Poissons Ratio (z) = 0.24887 0.04052
#
# Static dielectric constant tensor:
#      x y z
#    x 1.812870 0.021620 -0.052110 
#    y 0.021620 1.832310 -0.022380 
#    z -0.052110 -0.022380 1.798500 
# 
# From -- ./inp_files/226409.got.cif
#   From: 2010.05.17/outbox.cif.g08.bks.cpg/sg2_114_cif.got.tgz:226409.got - 2010.06.03 11:33:40.
