data_PCOD9003145
_publ_section_title
;
Structure prediction by ZEFSAII (Michael W. Deem and Ramdas Pophale) SiO2 
 PCOD9003145
Probable space group: P -1
;
_chemical_formula_sum "Si O2"
_cell_formula_units_Z 16
_cell_length_a 9.482912
_cell_length_b 9.195055
_cell_length_c 14.978301
_cell_angle_alpha 60.658679
_cell_angle_beta 115.073495
_cell_angle_gamma 132.665027
_cell_volume 828.562737
_symmetry_space_group_name_H-M "P -1"
_symmetry_group_IT_number 2
_symmetry_cell_setting 'triclinic'
loop_
_space_group_symop_operation_xyz
x,y,z
-x,-y,-z
loop_
_atom_site_type_symbol
_atom_site_label
_atom_site_fract_x
_atom_site_fract_y
_atom_site_fract_z
Si Si1 0.851026 0.378942 0.288658
Si Si2 0.393196 0.753371 0.556414
Si Si3 0.250599 0.159333 0.294594
Si Si4 0.777206 0.287509 0.106795
Si Si5 0.534089 0.834770 0.250740
Si Si6 0.232643 0.498318 0.131137
Si Si7 0.756466 0.219527 0.667288
Si Si8 0.912676 0.023753 0.381042
O O1 0.728323 0.325112 0.361588
O O2 0.752843 0.363046 0.173129
O O3 0.047617 0.605832 0.283825
O O4 0.895124 0.210119 0.339644
O O5 0.563607 0.729245 0.623105
O O6 0.266037 0.671945 0.457359
O O7 0.500000 0.000000 0.500000
O O8 0.263339 0.320329 0.181223
O O9 0.238275 0.969219 0.304782
O O10 0.062684 0.076579 0.327812
O O11 0.006606 0.391079 0.125856
O O12 0.651823 0.039027 0.157832
O O13 0.719767 0.363191 0.984913
O O14 0.373275 0.639635 0.207726
O O15 0.422420 0.862902 0.290198
O O16 0.699800 0.834340 0.346272
O O17 0.000000 0.000000 0.500000
#
# Coordination Sequence:
#
# PCOD9003145 Si02
#       8
#     2   2   2   2   2   2   2   2
#     4  11  21  41  60  87 121 169 200 242 310 369
#     4  10  21  37  58  85 125 165 192 239 308 367
#     4  11  21  38  56  91 122 153 204 259 293 351
#     4  10  21  41  65  86 120 156 211 256 310 352
#     4  11  21  41  64  90 120 167 202 238 315 375
#     4  11  22  40  65  90 116 160 210 263 300 350
#     4  11  22  38  60  89 125 166 197 238 309 381
#     4  11  21  36  60  91 125 158 204 255 292 356
#
# _framework density 19.310547
#
# number of rings (size 3 to 8) (size 9 to 14) (size 15 to 20)
#    0.000    1.250    3.750    6.000    0.000    2.000 
#    0.000    5.625    0.000    0.000    0.000    0.000 
#    0.000    0.000    0.000    0.000    0.000    0.000 
#
# Total GULP energy -89291.532388 kJ/mol
# GULP energy per Si atom -5580.720774 kJ/mol
# Density = 1.926660 g / cm^3
# Si number density = 19.310547 Si / 1000 Ang^3
#
#
#
# Elastic Constant Matrix: (Units=GPa)
#
#
# Indices 1 2 3 4 5 6 
#
# 1 101.8902 32.9304 32.1190 4.2146 -3.1266 13.5293
# 2 32.9304 58.4278 14.9067 11.0403 7.3467 1.8418
# 3 32.1190 14.9067 104.2356 2.4580 5.9651 -4.1598
# 4 4.2146 11.0403 2.4580 25.8853 6.0267 -7.0019
# 5 -3.1266 7.3467 5.9651 6.0267 33.3116 -3.0824
# 6 13.5293 1.8418 -4.1598 -7.0019 -3.0824 20.1812
#
#
#
# Elastic Compliance Matrix: (Units=1/GPa)
#
#
# Indices 1 2 3 4 5 6 
#
# 1 0.015015 -0.006940 -0.004182 -0.002740 0.003189 -0.010758
# 2 -0.006940 0.023325 -0.000805 -0.008035 -0.004298 -0.001086
# 3 -0.004182 -0.000805 0.011292 0.001939 -0.002073 0.005560
# 4 -0.002740 -0.008035 0.001939 0.048840 -0.005909 0.019013
# 5 0.003189 -0.004298 -0.002073 -0.005909 0.032780 0.000784
# 6 -0.010758 -0.001086 0.005560 0.019013 0.000784 0.064725
#
#
# Mechanical properties :
#
#
# Convention : Reuss Voigt Hill
#
# Bulk Modulus (GPa) = 38.79111 47.16288 42.97700
# Shear Modulus (GPa) = 21.88923 28.18212 25.03568
#
# Velocity S-wave (km/s) = 3.37046 3.82437 3.60457
# Velocity P-wave (km/s) = 5.93955 6.63156 6.29507
#
# Compressibility (1/GPa) = 0.02577910
#
# Stress axis : x y z
#
# Youngs Moduli (GPa) = 66.59852 42.87259 88.55736
#
# Poissons Ratio (x) = 0.29753 0.37031
# Poissons Ratio (y) = 0.46219 0.07130
# Poissons Ratio (z) = 0.27848 0.03452
#
# Static dielectric constant tensor:
#      x y z
#    x 1.664410 0.019020 0.005410 
#    y 0.019020 1.696150 0.013750 
#    z 0.005410 0.013750 1.716900 
# 
# From -- ./inp_files/203360.got.cif
#   From: 2010.05.17/outbox.cif.g08.bks.cpg/sg2_102_cif.got.tgz:203360.got - 2010.06.03 11:33:40.
