data_PCOD9003771
_publ_section_title
;
Structure prediction by ZEFSAII (Michael W. Deem and Ramdas Pophale) SiO2 
 PCOD9003771
Probable space group: P -1
;
_chemical_formula_sum "Si O2"
_cell_formula_units_Z 14
_cell_length_a 11.189879
_cell_length_b 13.610120
_cell_length_c 15.854969
_cell_angle_alpha 17.876373
_cell_angle_beta 88.790052
_cell_angle_gamma 95.910510
_cell_volume 678.846815
_symmetry_space_group_name_H-M "P -1"
_symmetry_group_IT_number 2
_symmetry_cell_setting 'triclinic'
loop_
_space_group_symop_operation_xyz
x,y,z
-x,-y,-z
loop_
_atom_site_type_symbol
_atom_site_label
_atom_site_fract_x
_atom_site_fract_y
_atom_site_fract_z
Si Si1 0.610058 0.241305 0.738617
Si Si2 0.965535 0.332947 0.230387
Si Si3 0.879581 0.304572 0.902448
Si Si4 0.431077 0.932772 0.679920
Si Si5 0.101064 0.432854 0.493251
Si Si6 0.329946 0.127934 0.355649
Si Si7 0.593247 0.937096 0.237872
O O1 0.753986 0.271591 0.731078
O O2 0.614381 0.622530 0.447806
O O3 0.545319 0.091596 0.772090
O O4 0.500000 0.000000 0.000000
O O5 0.048972 0.566284 0.115292
O O6 0.812817 0.176096 0.385616
O O7 0.000000 0.000000 0.500000
O O8 0.000000 0.500000 0.000000
O O9 0.931708 0.542351 0.624857
O O10 0.892603 0.938616 0.184826
O O11 0.728745 0.258983 0.951567
O O12 0.576116 0.948221 0.650289
O O13 0.397352 0.132229 0.441358
O O14 0.415230 0.091364 0.638864
O O15 0.337827 0.516588 0.020193
O O16 0.000000 0.500000 0.500000
#
# Coordination Sequence:
#
# PCOD9003771 Si02
#       7
#     2   2   2   2   2   2   2
#     4  10  21  39  60  88 119 149 208 252 286 365
#     4  12  24  40  64  91 126 163 203 254 304 366
#     4  11  23  40  64  90 122 161 209 244 302 380
#     4  10  22  39  64  87 120 161 194 255 303 358
#     4  11  24  43  62  89 127 164 198 257 312 357
#     4  10  22  41  58  91 124 151 206 246 300 361
#     4  10  21  37  62  89 116 158 201 247 306 347
#
# _framework density 20.62321
#
# number of rings (size 3 to 8) (size 9 to 14) (size 15 to 20)
#    0.000    1.429    1.429    3.857    2.000    2.286 
#    2.571    0.000    0.000    0.000    0.000    0.000 
#    0.000    0.000    0.000    0.000    0.000    0.000 
#
# Total GULP energy -78140.636459 kJ/mol
# GULP energy per Si atom -5581.474033 kJ/mol
# Density = 2.057627 g / cm^3
# Si number density = 20.623210 Si / 1000 Ang^3
#
#
#
# Elastic Constant Matrix: (Units=GPa)
#
#
# Indices 1 2 3 4 5 6 
#
# 1 94.1798 37.0109 21.3594 -9.4276 -24.4656 -2.5669
# 2 37.0109 103.6193 2.7116 6.2994 -9.9380 -5.7996
# 3 21.3594 2.7116 54.6839 13.3136 -5.6790 0.0656
# 4 -9.4276 6.2994 13.3136 33.8852 7.0906 -2.3213
# 5 -24.4656 -9.9380 -5.6790 7.0906 40.3090 3.9494
# 6 -2.5669 -5.7996 0.0656 -2.3213 3.9494 24.9896
#
#
#
# Elastic Compliance Matrix: (Units=1/GPa)
#
#
# Indices 1 2 3 4 5 6 
#
# 1 0.016985 -0.005684 -0.007461 0.007348 0.006555 0.000092
# 2 -0.005684 0.012062 0.002902 -0.004987 0.000649 0.001642
# 3 -0.007461 0.002902 0.024367 -0.012726 0.002021 -0.001658
# 4 0.007348 -0.004987 -0.012726 0.038989 -0.005830 0.004174
# 5 0.006555 0.000649 0.002021 -0.005830 0.030705 -0.004576
# 6 0.000092 0.001642 -0.001658 0.004174 -0.004576 0.041522
#
#
# Mechanical properties :
#
#
# Convention : Reuss Voigt Hill
#
# Bulk Modulus (GPa) = 30.36925 41.62744 35.99834
# Shear Modulus (GPa) = 25.49803 32.59684 29.04744
#
# Velocity S-wave (km/s) = 3.52003 3.97998 3.75705
# Velocity P-wave (km/s) = 5.59272 6.43031 6.02608
#
# Compressibility (1/GPa) = 0.03292804
#
# Stress axis : x y z
#
# Youngs Moduli (GPa) = 58.87648 82.90171 41.03854
#
# Poissons Ratio (x) = 0.47124 0.30618
# Poissons Ratio (y) = 0.33467 -0.11909
# Poissons Ratio (z) = 0.43926 -0.24057
#
# Static dielectric constant tensor:
#      x y z
#    x 1.784940 0.061860 0.001300 
#    y 0.061860 1.747290 0.007750 
#    z 0.001300 0.007750 1.736630 
# 
# From -- ./inp_files/69570.got.cif
#   From: 2010.05.17/outbox.cif.g08.bks.cpg/sg2_35_cif.got.tgz:69570.got - 2010.06.03 11:33:40.
