data_PCOD9003859
_publ_section_title
;
Structure prediction by ZEFSAII (Michael W. Deem and Ramdas Pophale) SiO2 
 PCOD9003859
Probable space group: P -1
;
_chemical_formula_sum "Si O2"
_cell_formula_units_Z 16
_cell_length_a 15.279243
_cell_length_b 18.492977
_cell_length_c 24.692393
_cell_angle_alpha 21.108163
_cell_angle_beta 31.915715
_cell_angle_gamma 19.109469
_cell_volume 790.366141
_symmetry_space_group_name_H-M "P -1"
_symmetry_group_IT_number 2
_symmetry_cell_setting 'triclinic'
loop_
_space_group_symop_operation_xyz
x,y,z
-x,-y,-z
loop_
_atom_site_type_symbol
_atom_site_label
_atom_site_fract_x
_atom_site_fract_y
_atom_site_fract_z
Si Si1 0.813135 0.147953 0.765759
Si Si2 0.662697 0.831613 0.607973
Si Si3 0.016244 0.705608 0.871442
Si Si4 0.357550 0.840326 0.037165
Si Si5 0.747047 0.709339 0.303956
Si Si6 0.183033 0.752927 0.475899
Si Si7 0.342117 0.943541 0.432367
Si Si8 0.427328 0.737425 0.729566
O O1 0.791175 0.074600 0.888411
O O2 0.563300 0.549268 0.605154
O O3 0.820418 0.969957 0.839363
O O4 0.108776 0.974699 0.729412
O O5 0.503350 0.782650 0.712483
O O6 0.987938 0.488490 0.661082
O O7 0.665610 0.908564 0.613763
O O8 0.538461 0.131635 0.427477
O O9 0.325500 0.434066 0.920127
O O10 0.956751 0.915101 0.707396
O O11 0.000000 0.500000 0.000000
O O12 0.372913 0.642262 0.124793
O O13 0.259979 0.133896 0.852419
O O14 0.798552 0.432625 0.450641
O O15 0.459796 0.969487 0.305041
O O16 0.500000 0.500000 0.500000
O O17 0.957477 0.867756 0.553926
#
# Coordination Sequence:
#
# PCOD9003859 Si02
#       8
#     2   2   2   2   2   2   2   2
#     4  11  20  41  66  89 122 169 208 251 307 372
#     4  10  21  37  62  94 125 162 211 258 305 367
#     4  11  23  41  63  93 125 157 207 258 309 371
#     4  11  23  41  62  90 128 163 205 259 312 361
#     4  11  23  41  62  90 128 163 205 259 312 361
#     4  11  23  41  63  93 125 157 207 258 309 371
#     4  11  20  41  66  89 122 169 208 251 307 372
#     4  10  21  37  62  94 125 162 211 258 305 367
#
# _framework density 20.243781999999999
#
# number of rings (size 3 to 8) (size 9 to 14) (size 15 to 20)
#    0.000    1.250    5.000    2.250    0.000    7.000 
#    0.000    1.250    0.000    0.000    0.000    0.000 
#    0.000    0.000    0.000    0.000    0.000    0.000 
#
# Total GULP energy -89250.603909 kJ/mol
# GULP energy per Si atom -5578.162744 kJ/mol
# Density = 2.019771 g / cm^3
# Si number density = 20.243782 Si / 1000 Ang^3
#
#
#
# Elastic Constant Matrix: (Units=GPa)
#
#
# Indices 1 2 3 4 5 6 
#
# 1 73.0657 27.7196 27.9842 2.0784 -30.0537 -9.9739
# 2 27.7196 73.6771 10.3576 6.2701 -17.2714 1.7760
# 3 27.9842 10.3576 94.8733 4.4376 -11.4983 1.1499
# 4 2.0784 6.2701 4.4376 24.4721 1.7233 8.4368
# 5 -30.0537 -17.2714 -11.4983 1.7233 32.9708 0.5279
# 6 -9.9739 1.7760 1.1499 8.4368 0.5279 33.1381
#
#
#
# Elastic Compliance Matrix: (Units=1/GPa)
#
#
# Indices 1 2 3 4 5 6 
#
# 1 0.027356 -0.004482 -0.004916 -0.005071 0.020985 0.009601
# 2 -0.004482 0.016754 0.000298 -0.003852 0.005018 -0.001356
# 3 -0.004916 0.000298 0.012033 -0.001292 -0.000035 -0.001583
# 4 -0.005071 -0.003852 -0.001292 0.047755 -0.009375 -0.013284
# 5 0.020985 0.005018 -0.000035 -0.009375 0.052442 0.007600
# 6 0.009601 -0.001356 -0.001583 -0.013284 0.007600 0.036455
#
#
# Mechanical properties :
#
#
# Convention : Reuss Voigt Hill
#
# Bulk Modulus (GPa) = 26.35495 41.52656 33.94076
# Shear Modulus (GPa) = 22.35722 29.81986 26.08854
#
# Velocity S-wave (km/s) = 3.32686 3.84218 3.59377
# Velocity P-wave (km/s) = 5.27298 6.34357 5.83289
#
# Compressibility (1/GPa) = 0.03794354
#
# Stress axis : x y z
#
# Youngs Moduli (GPa) = 36.55571 59.68785 83.10387
#
# Poissons Ratio (x) = 0.26749 0.40850
# Poissons Ratio (y) = 0.16383 -0.02473
# Poissons Ratio (z) = 0.17969 -0.01776
#
# Static dielectric constant tensor:
#      x y z
#    x 1.733810 0.019700 -0.027020 
#    y 0.019700 1.787500 0.047640 
#    z -0.027020 0.047640 1.387230 
# 
# From -- ./inp_files/37321.got.cif
#   From: 2010.05.17/outbox.cif.g08.bks.cpg/sg2_19_cif.got.tgz:37321.got - 2010.06.03 11:33:40.
