data_PCOD9003720
_publ_section_title
;
Structure prediction by ZEFSAII (Michael W. Deem and Ramdas Pophale) SiO2 
 PCOD9003720
Probable space group: P -1
;
_chemical_formula_sum "Si O2"
_cell_formula_units_Z 16
_cell_length_a 9.911650
_cell_length_b 9.583704
_cell_length_c 11.755322
_cell_angle_alpha 120.717720
_cell_angle_beta 128.969815
_cell_angle_gamma 55.287811
_cell_volume 692.988706
_symmetry_space_group_name_H-M "P -1"
_symmetry_group_IT_number 2
_symmetry_cell_setting 'triclinic'
loop_
_space_group_symop_operation_xyz
x,y,z
-x,-y,-z
loop_
_atom_site_type_symbol
_atom_site_label
_atom_site_fract_x
_atom_site_fract_y
_atom_site_fract_z
Si Si1 0.496930 0.005661 0.363113
Si Si2 0.507116 0.638498 0.213978
Si Si3 0.520623 0.349245 0.536542
Si Si4 0.791803 0.372962 0.116825
Si Si5 0.338195 0.907987 0.952170
Si Si6 0.274065 0.118737 0.783597
Si Si7 0.102513 0.656325 0.223989
Si Si8 0.870328 0.722015 0.899743
O O1 0.327312 0.056954 0.657330
O O2 0.424291 0.214508 0.392471
O O3 0.500000 0.000000 0.500000
O O4 0.424512 0.847815 0.240754
O O5 0.540377 0.587553 0.341694
O O6 0.352457 0.582811 0.047705
O O7 0.500000 0.500000 0.500000
O O8 0.745196 0.259981 0.634354
O O9 0.705792 0.546671 0.219217
O O10 0.757598 0.220474 0.106942
O O11 0.002381 0.305528 0.156269
O O12 0.561338 0.824355 0.053412
O O13 0.286264 0.966124 0.818130
O O14 0.278542 0.085136 0.071867
O O15 0.072645 0.268353 0.753152
O O16 0.015164 0.704246 0.073295
O O17 0.186770 0.445750 0.186359
#
# Coordination Sequence:
#
# PCOD9003720 Si02
#       8
#     2   2   2   2   2   2   2   2
#     4  10  22  42  63  87 121 176 210 253 306 381
#     4  10  22  38  64  95 124 165 217 251 325 371
#     4  11  25  41  66  90 128 171 217 258 306 379
#     4  11  20  36  66  94 129 161 203 272 316 382
#     4  10  22  34  63  97 127 162 200 270 321 367
#     4  10  21  39  61  92 125 162 214 258 314 367
#     4  10  22  39  62  93 125 165 211 261 316 374
#     4  10  21  37  61  96 132 158 201 269 324 370
#
# _framework density 23.088398000000002
#
# number of rings (size 3 to 8) (size 9 to 14) (size 15 to 20)
#    0.000    1.750    2.500    1.125    5.250    1.500 
#    0.000    0.000    2.750    2.250    0.000    0.000 
#    0.000    0.000    0.000    0.000    0.000    0.000 
#
# Total GULP energy -89243.312314 kJ/mol
# GULP energy per Si atom -5577.707020 kJ/mol
# Density = 2.303585 g / cm^3
# Si number density = 23.088398 Si / 1000 Ang^3
#
#
#
# Elastic Constant Matrix: (Units=GPa)
#
#
# Indices 1 2 3 4 5 6 
#
# 1 128.3489 15.2143 24.0464 0.8483 -25.3935 0.5202
# 2 15.2143 96.4903 28.9368 16.6560 -16.0140 19.3535
# 3 24.0464 28.9368 65.7456 9.3624 -11.0531 3.1204
# 4 0.8483 16.6560 9.3624 18.7002 5.3157 2.5679
# 5 -25.3935 -16.0140 -11.0531 5.3157 39.3778 -6.3453
# 6 0.5202 19.3535 3.1204 2.5679 -6.3453 44.1372
#
#
#
# Elastic Compliance Matrix: (Units=1/GPa)
#
#
# Indices 1 2 3 4 5 6 
#
# 1 0.009360 0.000239 -0.002437 -0.001167 0.005744 0.000851
# 2 0.000239 0.015871 -0.003828 -0.013408 0.006543 -0.004971
# 3 -0.002437 -0.003828 0.019360 -0.007343 0.003502 0.001269
# 4 -0.001167 -0.013408 -0.007343 0.074458 -0.018409 -0.000566
# 5 0.005744 0.006543 0.003502 -0.018409 0.035715 0.003021
# 6 0.000851 -0.004971 0.001269 -0.000566 0.003021 0.025204
#
#
# Mechanical properties :
#
#
# Convention : Reuss Voigt Hill
#
# Bulk Modulus (GPa) = 30.73104 47.44220 39.08662
# Shear Modulus (GPa) = 24.64669 35.26886 29.95778
#
# Velocity S-wave (km/s) = 3.27079 3.91264 3.60603
# Velocity P-wave (km/s) = 5.25387 6.40346 5.85694
#
# Compressibility (1/GPa) = 0.03254039
#
# Stress axis : x y z
#
# Youngs Moduli (GPa) = 106.83509 63.00630 51.65192
#
# Poissons Ratio (x) = -0.01506 0.12589
# Poissons Ratio (y) = -0.02554 0.19770
# Poissons Ratio (z) = 0.26039 0.24116
#
# Static dielectric constant tensor:
#      x y z
#    x 1.888660 -0.004000 -0.003310 
#    y -0.004000 1.953560 -0.036420 
#    z -0.003310 -0.036420 1.918690 
# 
# From -- ./inp_files/512419.got.cif
#   From: 2010.05.17/outbox.cif.g08.bks.cpg/sg2_257_cif.got.tgz:512419.got - 2010.06.03 11:33:40.
