data_PCOD9003213
_publ_section_title
;
Structure prediction by ZEFSAII (Michael W. Deem and Ramdas Pophale) SiO2 
 PCOD9003213
Probable space group: P -1
;
_chemical_formula_sum "Si O2"
_cell_formula_units_Z 16
_cell_length_a 5.354732
_cell_length_b 11.237617
_cell_length_c 23.115667
_cell_angle_alpha 30.203882
_cell_angle_beta 109.227211
_cell_angle_gamma 98.397360
_cell_volume 631.996393
_symmetry_space_group_name_H-M "P -1"
_symmetry_group_IT_number 2
_symmetry_cell_setting 'triclinic'
loop_
_space_group_symop_operation_xyz
x,y,z
-x,-y,-z
loop_
_atom_site_type_symbol
_atom_site_label
_atom_site_fract_x
_atom_site_fract_y
_atom_site_fract_z
Si Si1 0.362386 0.969942 0.081410
Si Si2 0.348055 0.186800 0.624226
Si Si3 0.722850 0.591474 0.796650
Si Si4 0.269460 0.422383 0.809569
Si Si5 0.699116 0.377884 0.478383
Si Si6 0.297397 0.743013 0.959863
Si Si7 0.251874 0.507278 0.296285
Si Si8 0.805784 0.282270 0.161259
O O1 0.479454 0.780833 0.117178
O O2 0.208347 0.803723 0.173556
O O3 0.615157 0.017757 0.115389
O O4 0.200618 0.236852 0.930265
O O5 0.570355 0.232488 0.577389
O O6 0.366209 0.347248 0.614750
O O7 0.029526 0.288441 0.534654
O O8 0.368508 0.907281 0.758227
O O9 0.390113 0.628785 0.759824
O O10 0.738481 0.587423 0.729604
O O11 0.919684 0.748591 0.767132
O O12 0.807732 0.366309 0.945272
O O13 0.047543 0.521499 0.700985
O O14 0.517062 0.379497 0.407053
O O15 0.110384 0.764122 0.880432
O O16 0.589191 0.550114 0.042747
#
# Coordination Sequence:
#
# PCOD9003213 Si02
#       8
#     2   2   2   2   2   2   2   2
#     4   9  18  33  56  91 126 167 205 267 320 389
#     4  10  24  48  72 101 129 168 221 288 327 394
#     4  10  21  37  58  91 130 172 206 269 310 407
#     4   9  19  33  55  88 134 166 208 254 328 382
#     4  10  24  46  75 101 127 165 228 280 341 379
#     4  10  22  39  61  94 128 169 220 260 331 406
#     4  11  21  37  66  92 130 173 213 274 328 392
#     4  11  23  41  65  88 130 175 217 266 335 391
#
# _framework density 25.316597999999999
#
# number of rings (size 3 to 8) (size 9 to 14) (size 15 to 20)
#    0.000    2.000    0.000    3.750    5.250    3.000 
#    2.250    1.250    0.000    0.000    0.000    0.000 
#    0.000    0.000    0.000    0.000    0.000    0.000 
#
# Total GULP energy -89190.807923 kJ/mol
# GULP energy per Si atom -5574.425495 kJ/mol
# Density = 2.525898 g / cm^3
# Si number density = 25.316598 Si / 1000 Ang^3
#
#
#
# Elastic Constant Matrix: (Units=GPa)
#
#
# Indices 1 2 3 4 5 6 
#
# 1 57.3088 17.0492 7.7624 -3.4471 -4.3961 15.0705
# 2 17.0492 146.1903 29.5283 25.4374 -1.0147 9.9563
# 3 7.7624 29.5283 25.1575 7.8594 -1.3728 1.2523
# 4 -3.4471 25.4374 7.8594 39.2158 14.0336 -1.4550
# 5 -4.3961 -1.0147 -1.3728 14.0336 30.0436 -0.5171
# 6 15.0705 9.9563 1.2523 -1.4550 -0.5171 38.0855
#
#
#
# Elastic Compliance Matrix: (Units=1/GPa)
#
#
# Indices 1 2 3 4 5 6 
#
# 1 0.020851 -0.001361 -0.005356 0.003082 0.001190 -0.007585
# 2 -0.001361 0.010020 -0.009353 -0.005646 0.002315 -0.001958
# 3 -0.005356 -0.009353 0.054678 -0.006944 0.004687 0.002565
# 4 0.003082 -0.005646 -0.006944 0.037098 -0.017357 0.001666
# 5 0.001190 0.002315 0.004687 -0.017357 0.041836 -0.001325
# 6 -0.007585 -0.001958 0.002565 0.001666 -0.001325 0.029731
#
#
# Mechanical properties :
#
#
# Convention : Reuss Voigt Hill
#
# Bulk Modulus (GPa) = 18.72395 37.48184 28.10290
# Shear Modulus (GPa) = 20.47845 33.09008 26.78426
#
# Velocity S-wave (km/s) = 2.84719 3.61924 3.25618
# Velocity P-wave (km/s) = 4.26856 5.68353 5.02609
#
# Compressibility (1/GPa) = 0.05340752
#
# Stress axis : x y z
#
# Youngs Moduli (GPa) = 47.95922 99.79817 18.28885
#
# Poissons Ratio (x) = 0.13585 0.09796
# Poissons Ratio (y) = 0.06529 0.17106
# Poissons Ratio (z) = 0.25688 0.93346
#
# Static dielectric constant tensor:
#      x y z
#    x 2.277380 -0.052690 -0.022500 
#    y -0.052690 2.043070 0.035340 
#    z -0.022500 0.035340 2.039490 
# 
# From -- ./inp_files/615417.got.cif
#   From: 2010.05.17/outbox.cif.g08.bks.cpg/sg2_308_cif.got.tgz:615417.got - 2010.06.03 11:33:40.
