data_PCOD9003843
_publ_section_title
;
Structure prediction by ZEFSAII (Michael W. Deem and Ramdas Pophale) SiO2 
 PCOD9003843
Probable space group: P -1
;
_chemical_formula_sum "Si O2"
_cell_formula_units_Z 14
_cell_length_a 12.161646
_cell_length_b 13.958127
_cell_length_c 22.532302
_cell_angle_alpha 163.289913
_cell_angle_beta 140.462671
_cell_angle_gamma 46.373281
_cell_volume 674.879575
_symmetry_space_group_name_H-M "P -1"
_symmetry_group_IT_number 2
_symmetry_cell_setting 'triclinic'
loop_
_space_group_symop_operation_xyz
x,y,z
-x,-y,-z
loop_
_atom_site_type_symbol
_atom_site_label
_atom_site_fract_x
_atom_site_fract_y
_atom_site_fract_z
Si Si1 0.853066 0.763412 0.714336
Si Si2 0.636690 0.449671 0.698519
Si Si3 0.253802 0.264382 0.477886
Si Si4 0.786200 0.373344 0.834153
Si Si5 0.624846 0.973029 0.173143
Si Si6 0.218663 0.867180 0.894717
Si Si7 0.492555 0.170658 0.345150
O O1 0.848769 0.839449 0.687561
O O2 0.718410 0.956931 0.803524
O O3 0.063458 0.865810 0.876909
O O4 0.756792 0.353009 0.439666
O O5 0.449613 0.481812 0.666778
O O6 0.721890 0.269690 0.678622
O O7 0.589749 0.274756 0.510589
O O8 0.764859 0.825044 0.962385
O O9 0.168610 0.500745 0.623842
O O10 0.275160 0.944240 0.335038
O O11 0.703500 0.681598 0.004148
O O12 0.000000 0.500000 0.000000
O O13 0.591532 0.943117 0.212554
O O14 0.421731 0.932451 0.041614
O O15 0.500000 0.500000 0.500000
#
# Coordination Sequence:
#
# PCOD9003843 Si02
#       7
#     2   2   2   2   2   2   2
#     4  10  21  37  62  93 123 152 206 249 301 364
#     4  11  21  39  64  88 124 162 198 252 308 352
#     4  11  21  38  58  91 126 156 203 251 299 364
#     4  12  25  40  62  89 125 163 208 248 301 360
#     4  11  22  42  62  91 124 158 201 255 304 355
#     4  12  20  35  67  91 119 159 202 249 307 349
#     4   9  19  41  61  90 127 153 196 258 301 359
#
# _framework density 20.744441999999999
#
# number of rings (size 3 to 8) (size 9 to 14) (size 15 to 20)
#    0.000    1.143    5.714    3.857    0.000    0.571 
#    0.000    3.571    0.000    0.000    0.000    0.000 
#    0.000    0.000    0.000    0.000    0.000    0.000 
#
# Total GULP energy -78115.533829 kJ/mol
# GULP energy per Si atom -5579.680988 kJ/mol
# Density = 2.069723 g / cm^3
# Si number density = 20.744442 Si / 1000 Ang^3
#
#
#
# Elastic Constant Matrix: (Units=GPa)
#
#
# Indices 1 2 3 4 5 6 
#
# 1 122.8476 54.8351 35.2311 -7.2788 13.9180 3.0304
# 2 54.8351 86.9269 30.9177 -11.7232 4.0229 13.3225
# 3 35.2311 30.9177 52.2331 4.5692 20.8313 -2.2599
# 4 -7.2788 -11.7232 4.5692 27.4513 -0.4207 6.7211
# 5 13.9180 4.0229 20.8313 -0.4207 36.4488 -19.0583
# 6 3.0304 13.3225 -2.2599 6.7211 -19.0583 31.5544
#
#
#
# Elastic Compliance Matrix: (Units=1/GPa)
#
#
# Indices 1 2 3 4 5 6 
#
# 1 0.012291 -0.005899 -0.004218 0.001518 -0.001836 -0.000424
# 2 -0.005899 0.023040 -0.011123 0.013353 -0.000691 -0.013220
# 3 -0.004218 -0.011123 0.037260 -0.012045 -0.019281 -0.001309
# 4 0.001518 0.013353 -0.012045 0.049437 -0.005232 -0.020336
# 5 -0.001836 -0.000691 -0.019281 -0.005232 0.057407 0.034875
# 6 -0.000424 -0.013220 -0.001309 -0.020336 0.034875 0.062615
#
#
# Mechanical properties :
#
#
# Convention : Reuss Voigt Hill
#
# Bulk Modulus (GPa) = 33.20937 55.99726 44.60332
# Shear Modulus (GPa) = 16.97405 28.49248 22.73326
#
# Velocity S-wave (km/s) = 2.86360 3.71010 3.31399
# Velocity P-wave (km/s) = 5.19396 6.73836 6.01593
#
# Compressibility (1/GPa) = 0.03011198
#
# Stress axis : x y z
#
# Youngs Moduli (GPa) = 81.35959 43.40263 26.83821
#
# Poissons Ratio (x) = 0.25602 0.11319
# Poissons Ratio (y) = 0.47991 0.29853
# Poissons Ratio (z) = 0.34314 0.48279
#
# Static dielectric constant tensor:
#      x y z
#    x 1.786450 0.007810 0.000940 
#    y 0.007810 1.782990 -0.060410 
#    z 0.000940 -0.060410 1.780240 
# 
# From -- ./inp_files/217438.got.cif
#   From: 2010.05.17/outbox.cif.g08.bks.cpg/sg2_109_cif.got.tgz:217438.got - 2010.06.03 11:33:40.
