data_PCOD9003544
_publ_section_title
;
Structure prediction by ZEFSAII (Michael W. Deem and Ramdas Pophale) SiO2 
 PCOD9003544
Probable space group: P -1
;
_chemical_formula_sum "Si O2"
_cell_formula_units_Z 16
_cell_length_a 13.035909
_cell_length_b 19.241658
_cell_length_c 8.153963
_cell_angle_alpha 53.980405
_cell_angle_beta 105.481853
_cell_angle_gamma 149.075621
_cell_volume 697.639166
_symmetry_space_group_name_H-M "P -1"
_symmetry_group_IT_number 2
_symmetry_cell_setting 'triclinic'
loop_
_space_group_symop_operation_xyz
x,y,z
-x,-y,-z
loop_
_atom_site_type_symbol
_atom_site_label
_atom_site_fract_x
_atom_site_fract_y
_atom_site_fract_z
Si Si1 0.856652 0.406511 0.734221
Si Si2 0.889172 0.622294 0.459694
Si Si3 0.378739 0.006077 0.945327
Si Si4 0.120623 0.856910 0.706738
Si Si5 0.385955 0.520700 0.781836
Si Si6 0.540570 0.473448 0.716377
Si Si7 0.042675 0.434179 0.048022
Si Si8 0.601585 0.782610 0.789013
O O1 0.916072 0.543676 0.641473
O O2 0.574959 0.204626 0.849686
O O3 0.000000 0.500000 0.500000
O O4 0.943891 0.384184 0.892108
O O5 0.701842 0.495326 0.400940
O O6 0.790539 0.609326 0.582276
O O7 0.139059 0.831533 0.194910
O O8 0.312387 0.987048 0.759239
O O9 0.500000 0.000000 0.000000
O O10 0.113791 0.766354 0.716433
O O11 0.199229 0.998862 0.445184
O O12 0.855646 0.667942 0.945834
O O13 0.505357 0.517643 0.782210
O O14 0.574724 0.712466 0.702797
O O15 0.500000 0.500000 0.500000
O O16 0.374334 0.271673 0.982143
O O17 0.000000 0.500000 0.000000
O O18 0.331469 0.627531 0.908596
#
# Coordination Sequence:
#
# PCOD9003544 Si02
#       8
#     2   2   2   2   2   2   2   2
#     4  12  20  35  62  90 125 168 212 247 298 368
#     4  10  21  37  60  94 129 161 209 259 307 377
#     4  11  19  35  62  95 124 171 211 252 299 361
#     4  10  21  39  62  98 128 161 223 263 300 385
#     4   9  20  41  66  90 121 163 213 264 323 375
#     4  10  22  43  66  89 122 164 207 270 335 378
#     4  11  24  39  57  90 134 174 203 250 317 372
#     4  11  22  40  65  91 122 166 217 263 316 379
#
# _framework density 22.934491000000001
#
# number of rings (size 3 to 8) (size 9 to 14) (size 15 to 20)
#    0.000    1.500    2.500    4.125    0.000    1.000 
#    0.000    7.500    0.000   13.500    0.000    0.000 
#    0.000    0.000    0.000    0.000    0.000    0.000 
#
# Total GULP energy -89270.077873 kJ/mol
# GULP energy per Si atom -5579.379867 kJ/mol
# Density = 2.288229 g / cm^3
# Si number density = 22.934491 Si / 1000 Ang^3
#
#
#
# Elastic Constant Matrix: (Units=GPa)
#
#
# Indices 1 2 3 4 5 6 
#
# 1 128.4064 -8.4721 40.7835 3.9711 11.6550 -21.3043
# 2 -8.4721 34.4547 25.8162 -0.7345 18.7785 2.7597
# 3 40.7835 25.8162 118.5514 -1.2493 38.0183 -11.7243
# 4 3.9711 -0.7345 -1.2493 27.8222 2.8182 16.6044
# 5 11.6550 18.7785 38.0183 2.8182 45.9750 10.3725
# 6 -21.3043 2.7597 -11.7243 16.6044 10.3725 42.0910
#
#
#
# Elastic Compliance Matrix: (Units=1/GPa)
#
#
# Indices 1 2 3 4 5 6 
#
# 1 0.011060 0.006724 -0.003228 -0.005599 -0.004232 0.007509
# 2 0.006724 0.043488 -0.007066 0.000093 -0.014086 0.002018
# 3 -0.003228 -0.007066 0.014803 -0.001663 -0.009794 0.006022
# 4 -0.005599 0.000093 -0.001663 0.050851 0.005200 -0.024645
# 5 -0.004232 -0.014086 -0.009794 0.005200 0.039930 -0.015837
# 6 0.007509 0.002018 0.006022 -0.024645 -0.015837 0.042729
#
#
# Mechanical properties :
#
#
# Convention : Reuss Voigt Hill
#
# Bulk Modulus (GPa) = 16.07426 44.18531 30.12979
# Shear Modulus (GPa) = 21.66955 38.06330 29.86643
#
# Velocity S-wave (km/s) = 3.07717 4.07830 3.61258
# Velocity P-wave (km/s) = 4.43275 6.44084 5.52873
#
# Compressibility (1/GPa) = 0.06221125
#
# Stress axis : x y z
#
# Youngs Moduli (GPa) = 90.41659 22.99464 67.55330
#
# Poissons Ratio (x) = -0.15461 0.21809
# Poissons Ratio (y) = -0.60795 0.47731
# Poissons Ratio (z) = 0.29190 0.16247
#
# Static dielectric constant tensor:
#      x y z
#    x 1.793220 -0.099610 0.012930 
#    y -0.099610 2.105300 0.113570 
#    z 0.012930 0.113570 1.853670 
# 
# From -- ./inp_files/279065.got.cif
#   From: 2010.05.17/outbox.cif.g08.bks.cpg/sg2_140_cif.got.tgz:279065.got - 2010.06.03 11:33:40.
