data_PCOD9003504
_publ_section_title
;
Structure prediction by ZEFSAII (Michael W. Deem and Ramdas Pophale) SiO2 
 PCOD9003504
Probable space group: P -1
;
_chemical_formula_sum "Si O2"
_cell_formula_units_Z 16
_cell_length_a 27.849735
_cell_length_b 8.906630
_cell_length_c 13.917930
_cell_angle_alpha 51.047097
_cell_angle_beta 22.852379
_cell_angle_gamma 38.009929
_cell_volume 754.075065
_symmetry_space_group_name_H-M "P -1"
_symmetry_group_IT_number 2
_symmetry_cell_setting 'triclinic'
loop_
_space_group_symop_operation_xyz
x,y,z
-x,-y,-z
loop_
_atom_site_type_symbol
_atom_site_label
_atom_site_fract_x
_atom_site_fract_y
_atom_site_fract_z
Si Si1 0.971629 0.777459 0.035101
Si Si2 0.215354 0.162547 0.831595
Si Si3 0.451854 0.969732 0.798439
Si Si4 0.900336 0.437322 0.768454
Si Si5 0.866762 0.364040 0.664853
Si Si6 0.844321 0.039455 0.367089
Si Si7 0.249490 0.907828 0.068352
Si Si8 0.605648 0.990656 0.890872
O O1 0.856062 0.874272 0.114959
O O2 0.864022 0.972712 0.245009
O O3 0.061860 0.476936 0.013673
O O4 0.121122 0.775218 0.747851
O O5 0.381078 0.108739 0.519070
O O6 0.264705 0.979350 0.905134
O O7 0.284152 0.287927 0.970420
O O8 0.390471 0.846725 0.903171
O O9 0.473346 0.917649 0.894191
O O10 0.880551 0.296698 0.779145
O O11 0.000000 0.500000 0.500000
O O12 0.005566 0.236573 0.742359
O O13 0.767796 0.671183 0.721692
O O14 0.058011 0.172028 0.349729
O O15 0.760625 0.312662 0.827935
O O16 0.670619 0.132164 0.686684
O O17 0.500000 0.000000 0.000000
#
# Coordination Sequence:
#
# PCOD9003504 Si02
#       8
#     2   2   2   2   2   2   2   2
#     4  10  24  39  61  85 117 165 196 234 292 364
#     4  11  23  41  56  86 125 156 194 237 303 346
#     4  11  22  37  60  89 114 155 198 240 302 349
#     4  11  18  38  65  85 113 152 200 245 292 338
#     4  10  21  37  60  92 110 151 204 237 300 344
#     4  11  20  40  64  86 113 157 205 238 290 350
#     4  11  21  37  62  85 119 151 193 252 287 350
#     4  11  22  39  60  84 120 153 191 250 291 348
#
# _framework density 21.218046000000001
#
# number of rings (size 3 to 8) (size 9 to 14) (size 15 to 20)
#    0.000    1.250    3.750    3.375    0.000    3.000 
#    0.000    9.375    0.000    0.000    0.000    0.000 
#    0.000    0.000    0.000    0.000    0.000    0.000 
#
# Total GULP energy -89358.007702 kJ/mol
# GULP energy per Si atom -5584.875481 kJ/mol
# Density = 2.116975 g / cm^3
# Si number density = 21.218046 Si / 1000 Ang^3
#
#
#
# Elastic Constant Matrix: (Units=GPa)
#
#
# Indices 1 2 3 4 5 6 
#
# 1 140.2927 18.3458 21.0071 -15.3657 -25.5776 18.2354
# 2 18.3458 29.5653 8.5231 -12.8230 2.4214 6.2288
# 3 21.0071 8.5231 72.4271 -14.5144 -12.3056 16.1764
# 4 -15.3657 -12.8230 -14.5144 27.1376 2.7276 -5.5992
# 5 -25.5776 2.4214 -12.3056 2.7276 28.3237 -2.9039
# 6 18.2354 6.2288 16.1764 -5.5992 -2.9039 28.2953
#
#
#
# Elastic Compliance Matrix: (Units=1/GPa)
#
#
# Indices 1 2 3 4 5 6 
#
# 1 0.010239 -0.005680 0.000595 0.001578 0.009386 -0.004413
# 2 -0.005680 0.047752 -0.001408 0.019080 -0.012020 -0.003505
# 3 0.000595 -0.001408 0.018283 0.007004 0.007064 -0.008415
# 4 0.001578 0.019080 0.007004 0.050836 -0.001993 0.000633
# 5 0.009386 -0.012020 0.007064 -0.001993 0.047770 -0.002934
# 6 -0.004413 -0.003505 -0.008415 0.000633 -0.002934 0.043593
#
#
# Mechanical properties :
#
#
# Convention : Reuss Voigt Hill
#
# Bulk Modulus (GPa) = 15.80032 37.55967 26.68000
# Shear Modulus (GPa) = 19.79774 29.71192 24.75483
#
# Velocity S-wave (km/s) = 3.05792 3.74614 3.41939
# Velocity P-wave (km/s) = 4.46437 6.03751 5.30953
#
# Compressibility (1/GPa) = 0.06328985
#
# Stress axis : x y z
#
# Youngs Moduli (GPa) = 97.66274 20.94168 54.69437
#
# Poissons Ratio (x) = 0.11894 -0.03256
# Poissons Ratio (y) = 0.55470 0.07700
# Poissons Ratio (z) = -0.05813 0.02948
#
# Static dielectric constant tensor:
#      x y z
#    x 1.858690 -0.006770 -0.039110 
#    y -0.006770 1.788230 -0.007750 
#    z -0.039110 -0.007750 1.757800 
# 
# From -- ./inp_files/205009.got.cif
#   From: 2010.05.17/outbox.cif.g08.bks.cpg/sg2_103_cif.got.tgz:205009.got - 2010.06.03 11:33:40.
