data_PCOD9003508
_publ_section_title
;
Structure prediction by ZEFSAII (Michael W. Deem and Ramdas Pophale) SiO2 
 PCOD9003508
Probable space group: P -1
;
_chemical_formula_sum "Si O2"
_cell_formula_units_Z 16
_cell_length_a 19.727702
_cell_length_b 8.514209
_cell_length_c 12.039192
_cell_angle_alpha 136.225157
_cell_angle_beta 35.976955
_cell_angle_gamma 142.012047
_cell_volume 711.045394
_symmetry_space_group_name_H-M "P -1"
_symmetry_group_IT_number 2
_symmetry_cell_setting 'triclinic'
loop_
_space_group_symop_operation_xyz
x,y,z
-x,-y,-z
loop_
_atom_site_type_symbol
_atom_site_label
_atom_site_fract_x
_atom_site_fract_y
_atom_site_fract_z
Si Si1 0.658952 0.175446 0.885960
Si Si2 0.623312 0.670391 0.770968
Si Si3 0.674069 0.502636 0.847516
Si Si4 0.922654 0.225812 0.193203
Si Si5 0.278736 0.530841 0.634172
Si Si6 0.964132 0.737509 0.349748
Si Si7 0.181946 0.909132 0.974695
Si Si8 0.216531 0.342749 0.871062
O O1 0.709520 0.301983 0.760782
O O2 0.701057 0.974382 0.780963
O O3 0.693237 0.418835 0.045716
O O4 0.500000 0.000000 0.000000
O O5 0.686954 0.581501 0.740518
O O6 0.608147 0.492777 0.593778
O O7 0.482170 0.613742 0.976789
O O8 0.755151 0.782468 0.943511
O O9 0.916962 0.205757 0.056517
O O10 0.915981 0.483980 0.361693
O O11 0.799739 0.945036 0.246073
O O12 0.065956 0.276721 0.066003
O O13 0.287891 0.812524 0.767768
O O14 0.258657 0.436112 0.737754
O O15 0.146869 0.340693 0.638780
O O16 0.098293 0.787292 0.134906
O O17 0.000000 0.000000 0.500000
#
# Coordination Sequence:
#
# PCOD9003508 Si02
#       8
#     2   2   2   2   2   2   2   2
#     4  10  22  42  67  92 123 171 217 268 321 375
#     4  10  23  41  63  96 127 166 221 265 322 381
#     4  10  21  42  67  89 125 172 216 267 323 379
#     4  10  21  37  60  92 120 171 208 250 330 382
#     4  11  22  38  61  93 129 170 212 266 324 382
#     4  11  22  38  60  92 130 165 215 264 320 387
#     4  11  19  40  61  86 128 165 214 261 317 388
#     4  11  20  39  64  88 130 166 211 265 319 393
#
# _framework density 22.502082000000001
#
# number of rings (size 3 to 8) (size 9 to 14) (size 15 to 20)
#    0.000    1.500    3.750    2.250    1.750    0.500 
#    6.750    3.125    0.000    0.000    0.000    0.000 
#    0.000    0.000    0.000    0.000    0.000    0.000 
#
# Total GULP energy -89285.816895 kJ/mol
# GULP energy per Si atom -5580.363556 kJ/mol
# Density = 2.245087 g / cm^3
# Si number density = 22.502082 Si / 1000 Ang^3
#
#
#
# Elastic Constant Matrix: (Units=GPa)
#
#
# Indices 1 2 3 4 5 6 
#
# 1 74.4296 47.3369 19.8482 1.8587 13.3267 -18.1441
# 2 47.3369 133.8556 20.6851 25.2005 4.9995 -24.2693
# 3 19.8482 20.6851 55.7810 5.7918 6.6211 -16.4666
# 4 1.8587 25.2005 5.7918 21.9796 -6.5230 7.7390
# 5 13.3267 4.9995 6.6211 -6.5230 21.4838 7.2173
# 6 -18.1441 -24.2693 -16.4666 7.7390 7.2173 39.3109
#
#
#
# Elastic Compliance Matrix: (Units=1/GPa)
#
#
# Indices 1 2 3 4 5 6 
#
# 1 0.023139 -0.001486 0.002255 -0.014799 -0.025335 0.018272
# 2 -0.001486 0.026057 0.014023 -0.060049 -0.041366 0.040691
# 3 0.002255 0.014023 0.036719 -0.056041 -0.048092 0.044941
# 4 -0.014799 -0.060049 -0.056041 0.226292 0.156379 -0.140637
# 5 -0.025335 -0.041366 -0.048092 0.156379 0.174575 -0.120213
# 6 0.018272 0.040691 0.044941 -0.140637 -0.120213 0.127576
#
#
# Mechanical properties :
#
#
# Convention : Reuss Voigt Hill
#
# Bulk Modulus (GPa) = 8.65801 48.86743 28.76272
# Shear Modulus (GPa) = 8.02217 28.30124 18.16170
#
# Velocity S-wave (km/s) = 1.89019 3.55028 2.84405
# Velocity P-wave (km/s) = 2.93594 6.21047 4.85745
#
# Compressibility (1/GPa) = 0.11549996
#
# Stress axis : x y z
#
# Youngs Moduli (GPa) = 43.21647 38.37715 27.23421
#
# Poissons Ratio (x) = 0.05704 -0.06142
# Poissons Ratio (y) = 0.06423 -0.38191
# Poissons Ratio (z) = -0.09747 -0.53817
#
# Static dielectric constant tensor:
#      x y z
#    x 1.909590 -0.044140 -0.052510 
#    y -0.044140 1.859900 0.002380 
#    z -0.052510 0.002380 1.854670 
# 
# From -- ./inp_files/209009.got.cif
#   From: 2010.05.17/outbox.cif.g08.bks.cpg/sg2_105_cif.got.tgz:209009.got - 2010.06.03 11:33:40.
