data_PCOD9003672
_publ_section_title
;
Structure prediction by ZEFSAII (Michael W. Deem and Ramdas Pophale) SiO2 
 PCOD9003672
Probable space group: P -1
;
_chemical_formula_sum "Si O2"
_cell_formula_units_Z 16
_cell_length_a 22.504150
_cell_length_b 29.222823
_cell_length_c 9.842037
_cell_angle_alpha 153.179007
_cell_angle_beta 146.355331
_cell_angle_gamma 17.121413
_cell_volume 849.579293
_symmetry_space_group_name_H-M "P -1"
_symmetry_group_IT_number 2
_symmetry_cell_setting 'triclinic'
loop_
_space_group_symop_operation_xyz
x,y,z
-x,-y,-z
loop_
_atom_site_type_symbol
_atom_site_label
_atom_site_fract_x
_atom_site_fract_y
_atom_site_fract_z
Si Si1 0.181115 0.902426 0.175407
Si Si2 0.626200 0.751152 0.176897
Si Si3 0.732864 0.193858 0.404477
Si Si4 0.037209 0.663253 0.420644
Si Si5 0.956878 0.892012 0.270042
Si Si6 0.308787 0.919272 0.218331
Si Si7 0.647576 0.423039 0.193921
Si Si8 0.222284 0.153157 0.326047
O O1 0.325650 0.845805 0.196003
O O2 0.103536 0.039661 0.508929
O O3 0.277881 0.731356 0.986826
O O4 0.000000 0.000000 0.000000
O O5 0.516835 0.794316 0.217339
O O6 0.715286 0.791908 0.477466
O O7 0.431417 0.926422 0.168778
O O8 0.806275 0.538500 0.890363
O O9 0.492447 0.394859 0.494647
O O10 0.822513 0.234270 0.664719
O O11 0.823254 0.069388 0.381742
O O12 0.778751 0.088878 0.083277
O O13 0.170609 0.649959 0.699382
O O14 0.907395 0.720877 0.450035
O O15 0.864881 0.853793 0.501774
O O16 0.911617 0.814795 0.934550
O O17 0.500000 0.500000 0.000000
#
# Coordination Sequence:
#
# PCOD9003672 Si02
#       8
#     2   2   2   2   2   2   2   2
#     4  12  24  39  58  90 129 168 196 242 320 373
#     4  10  21  38  61  89 122 156 214 253 300 354
#     4  11  20  36  61  88 125 159 193 255 308 360
#     4  11  19  36  63  88 121 156 203 250 310 351
#     4  11  20  38  60  87 128 159 198 250 313 357
#     4  11  22  41  58  88 126 163 199 249 309 364
#     4  12  22  34  60  95 124 155 206 247 297 379
#     4  10  21  37  61  92 119 159 204 264 299 352
#
# _framework density 18.832851000000002
#
# number of rings (size 3 to 8) (size 9 to 14) (size 15 to 20)
#    0.000    1.000    7.500    1.125    0.000    0.500 
#    2.250    0.625    0.000    0.750    0.000    0.000 
#    0.000    0.000    0.000    0.000    0.000    0.000 
#
# Total GULP energy -89264.543348 kJ/mol
# GULP energy per Si atom -5579.033959 kJ/mol
# Density = 1.878999 g / cm^3
# Si number density = 18.832851 Si / 1000 Ang^3
#
#
#
# Elastic Constant Matrix: (Units=GPa)
#
#
# Indices 1 2 3 4 5 6 
#
# 1 124.1678 31.4928 36.4108 -12.6187 4.3804 -11.4344
# 2 31.4928 54.9490 25.7299 6.8894 1.3438 -8.8768
# 3 36.4108 25.7299 81.0016 5.1991 -3.1272 -8.2365
# 4 -12.6187 6.8894 5.1991 34.2728 -10.0763 -1.6029
# 5 4.3804 1.3438 -3.1272 -10.0763 29.9895 -6.3449
# 6 -11.4344 -8.8768 -8.2365 -1.6029 -6.3449 33.9924
#
#
#
# Elastic Compliance Matrix: (Units=1/GPa)
#
#
# Indices 1 2 3 4 5 6 
#
# 1 0.011172 -0.005200 -0.003530 0.005977 0.000654 0.001948
# 2 -0.005200 0.024850 -0.004940 -0.006788 -0.002569 0.002743
# 3 -0.003530 -0.004940 0.015880 -0.002032 0.002061 0.001659
# 4 0.005977 -0.006788 -0.002032 0.036879 0.012415 0.003802
# 5 0.000654 -0.002569 0.002061 0.012415 0.039443 0.007996
# 6 0.001948 0.002743 0.001659 0.003802 0.007996 0.032864
#
#
# Mechanical properties :
#
#
# Convention : Reuss Voigt Hill
#
# Bulk Modulus (GPa) = 40.71726 49.70946 45.21336
# Shear Modulus (GPa) = 25.43042 30.74995 28.09019
#
# Velocity S-wave (km/s) = 3.67866 4.04515 3.86625
# Velocity P-wave (km/s) = 6.30164 6.94767 6.63252
#
# Compressibility (1/GPa) = 0.02455961
#
# Stress axis : x y z
#
# Youngs Moduli (GPa) = 89.51266 40.24219 62.97133
#
# Poissons Ratio (x) = 0.20928 0.22230
# Poissons Ratio (y) = 0.46551 0.31110
# Poissons Ratio (z) = 0.31599 0.19881
#
# Static dielectric constant tensor:
#      x y z
#    x 1.662050 -0.027860 0.002680 
#    y -0.027860 1.659750 0.017020 
#    z 0.002680 0.017020 1.698610 
# 
# From -- ./inp_files/350268.got.cif
#   From: 2010.05.17/outbox.cif.g08.bks.cpg/sg2_176_cif.got.tgz:350268.got - 2010.06.03 11:33:40.
