data_PCOD9003921
_publ_section_title
;
Structure prediction by ZEFSAII (Michael W. Deem and Ramdas Pophale) SiO2 
 PCOD9003921
Probable space group: P -1
;
_chemical_formula_sum "Si O2"
_cell_formula_units_Z 16
_cell_length_a 8.952760
_cell_length_b 15.411871
_cell_length_c 15.461263
_cell_angle_alpha 141.061731
_cell_angle_beta 31.720908
_cell_angle_gamma 141.372360
_cell_volume 657.163707
_symmetry_space_group_name_H-M "P -1"
_symmetry_group_IT_number 2
_symmetry_cell_setting 'triclinic'
loop_
_space_group_symop_operation_xyz
x,y,z
-x,-y,-z
loop_
_atom_site_type_symbol
_atom_site_label
_atom_site_fract_x
_atom_site_fract_y
_atom_site_fract_z
Si Si1 0.557747 0.234930 0.652843
Si Si2 0.107145 0.425543 0.287516
Si Si3 0.845648 0.790957 0.585969
Si Si4 0.772685 0.927320 0.462065
Si Si5 0.603561 0.626859 0.403258
Si Si6 0.482550 0.075426 0.856700
Si Si7 0.519959 0.676593 0.835347
Si Si8 0.089358 0.171461 0.981469
O O1 0.667923 0.405500 0.701178
O O2 0.498846 0.124973 0.515478
O O3 0.247783 0.186373 0.822657
O O4 0.829975 0.224962 0.569125
O O5 0.221784 0.346572 0.247201
O O6 0.761046 0.415777 0.461510
O O7 0.107936 0.332132 0.129025
O O8 0.681930 0.676066 0.501969
O O9 0.668238 0.758006 0.737358
O O10 0.933679 0.958908 0.641211
O O11 0.767957 0.771799 0.378407
O O12 0.690246 0.012357 0.647886
O O13 0.683039 0.488012 0.223853
O O14 0.285909 0.118023 0.912053
O O15 0.613158 0.221032 0.964604
O O16 0.251183 0.944812 0.928036
#
# Coordination Sequence:
#
# PCOD9003921 Si02
#       8
#     2   2   2   2   2   2   2   2
#     4  12  23  39  70 102 130 168 228 273 322 388
#     4  11  22  40  71  98 131 173 221 276 326 383
#     4  12  26  40  68 100 133 174 220 271 325 400
#     4  12  24  45  69  98 132 175 225 270 325 388
#     4  12  24  44  67  97 137 177 213 269 337 393
#     4  10  22  38  67  96 130 170 218 275 324 379
#     4  11  23  44  69  98 127 178 225 267 325 389
#     4  10  21  37  63 101 133 162 219 278 327 373
#
# _framework density 24.347052999999999
#
# number of rings (size 3 to 8) (size 9 to 14) (size 15 to 20)
#    0.000    0.750    5.000    3.375    3.500    0.000 
#    0.000    1.250    2.750    0.000    0.000    0.000 
#    0.000    0.000    0.000    0.000    0.000    0.000 
#
# Total GULP energy -89640.025141 kJ/mol
# GULP energy per Si atom -5602.501571 kJ/mol
# Density = 2.429164 g / cm^3
# Si number density = 24.347053 Si / 1000 Ang^3
#
#
#
# Elastic Constant Matrix: (Units=GPa)
#
#
# Indices 1 2 3 4 5 6 
#
# 1 95.7459 40.2984 38.6829 -4.3229 26.3623 1.3163
# 2 40.2984 185.6606 83.1268 9.4825 21.3212 -11.8926
# 3 38.6829 83.1268 145.7521 13.5906 26.1542 4.7274
# 4 -4.3229 9.4825 13.5906 37.8671 10.5188 9.4785
# 5 26.3623 21.3212 26.1542 10.5188 32.7420 0.1388
# 6 1.3163 -11.8926 4.7274 9.4785 0.1388 35.9458
#
#
#
# Elastic Compliance Matrix: (Units=1/GPa)
#
#
# Indices 1 2 3 4 5 6 
#
# 1 0.015550 -0.001855 -0.001397 0.006876 -0.012394 -0.002765
# 2 -0.001855 0.007881 -0.003974 -0.001688 0.000063 0.003643
# 3 -0.001397 -0.003974 0.010443 -0.001152 -0.004250 -0.002317
# 4 0.006876 -0.001688 -0.001152 0.034502 -0.014560 -0.009700
# 5 -0.012394 0.000063 -0.004250 -0.014560 0.048532 0.004686
# 6 -0.002765 0.003643 -0.002317 -0.009700 0.004686 0.031971
#
#
# Mechanical properties :
#
#
# Convention : Reuss Voigt Hill
#
# Bulk Modulus (GPa) = 51.48631 83.48608 67.48620
# Shear Modulus (GPa) = 29.44563 38.98102 34.21332
#
# Velocity S-wave (km/s) = 3.48143 4.00566 3.75271
# Velocity P-wave (km/s) = 6.11173 7.46714 6.82318
#
# Compressibility (1/GPa) = 0.01942264
#
# Stress axis : x y z
#
# Youngs Moduli (GPa) = 64.30759 126.89543 95.75371
#
# Poissons Ratio (x) = 0.23538 0.13373
# Poissons Ratio (y) = 0.11928 0.38055
# Poissons Ratio (z) = 0.08981 0.50432
#
# Static dielectric constant tensor:
#      x y z
#    x 1.976920 -0.007910 -0.036650 
#    y -0.007910 1.918870 0.014830 
#    z -0.036650 0.014830 1.899920 
# 
# From -- ./inp_files/505540.got.cif
#   From: 2010.05.17/outbox.cif.g08.bks.cpg/sg2_253_cif.got.tgz:505540.got - 2010.06.03 11:33:40.
