data_PCOD9003874
_publ_section_title
;
Structure prediction by ZEFSAII (Michael W. Deem and Ramdas Pophale) SiO2 
 PCOD9003874
Probable space group: P -1
;
_chemical_formula_sum "Si O2"
_cell_formula_units_Z 12
_cell_length_a 11.106950
_cell_length_b 7.987347
_cell_length_c 14.644769
_cell_angle_alpha 35.631675
_cell_angle_beta 139.928724
_cell_angle_gamma 127.376476
_cell_volume 486.851101
_symmetry_space_group_name_H-M "P -1"
_symmetry_group_IT_number 2
_symmetry_cell_setting 'triclinic'
loop_
_space_group_symop_operation_xyz
x,y,z
-x,-y,-z
loop_
_atom_site_type_symbol
_atom_site_label
_atom_site_fract_x
_atom_site_fract_y
_atom_site_fract_z
Si Si1 0.301846 0.399621 0.965131
Si Si2 0.251177 0.957759 0.358254
Si Si3 0.890794 0.288714 0.964514
Si Si4 0.403851 0.570369 0.136055
Si Si5 0.324465 0.710217 0.328842
Si Si6 0.808415 0.456245 0.354898
O O1 0.172728 0.487449 0.765956
O O2 0.500000 0.500000 0.000000
O O3 0.279329 0.573225 0.969764
O O4 0.321873 0.055690 0.149085
O O5 0.310711 0.711917 0.429227
O O6 0.239232 0.865577 0.497359
O O7 0.374380 0.237118 0.296302
O O8 0.041098 0.029896 0.167718
O O9 0.695420 0.246208 0.922693
O O10 0.843204 0.385743 0.791608
O O11 0.000000 0.500000 0.000000
O O12 0.618065 0.620903 0.210452
O O13 0.500000 0.500000 0.500000
O O14 0.000000 0.500000 0.500000
#
# Coordination Sequence:
#
# PCOD9003874 Si02
#       6
#     2   2   2   2   2   2
#     4   9  21  41  63  90 129 170 209 262 323 378
#     4  10  21  39  64  91 125 170 216 260 311 383
#     4  10  21  37  62  95 126 162 215 267 309 369
#     4   9  20  41  64  87 124 175 216 257 313 384
#     4  11  22  40  66  96 125 167 217 263 316 385
#     4  11  21  36  61  93 124 160 205 263 322 371
#
# _framework density 24.648192999999999
#
# number of rings (size 3 to 8) (size 9 to 14) (size 15 to 20)
#    0.000    2.000    0.000    3.000    0.000    9.333 
#    0.000   15.833    0.000    0.000    0.000    0.000 
#    0.000    0.000    0.000    0.000    0.000    0.000 
#
# Total GULP energy -66933.451483 kJ/mol
# GULP energy per Si atom -5577.787624 kJ/mol
# Density = 2.459209 g / cm^3
# Si number density = 24.648193 Si / 1000 Ang^3
#
#
#
# Elastic Constant Matrix: (Units=GPa)
#
#
# Indices 1 2 3 4 5 6 
#
# 1 107.3332 25.0655 32.1165 7.1455 1.0093 -21.6742
# 2 25.0655 81.3291 29.1166 24.8088 -9.5014 -0.4574
# 3 32.1165 29.1166 128.6041 37.1939 -14.9098 -12.1663
# 4 7.1455 24.8088 37.1939 44.4593 -0.2431 -3.8902
# 5 1.0093 -9.5014 -14.9098 -0.2431 63.2961 -2.9154
# 6 -21.6742 -0.4574 -12.1663 -3.8902 -2.9154 44.9010
#
#
#
# Elastic Compliance Matrix: (Units=1/GPa)
#
#
# Indices 1 2 3 4 5 6 
#
# 1 0.011797 -0.003651 -0.002545 0.002713 -0.001089 0.005132
# 2 -0.003651 0.016372 -0.000283 -0.008497 0.002312 -0.002258
# 3 -0.002545 -0.000283 0.011494 -0.008921 0.002731 0.001287
# 4 0.002713 -0.008497 -0.008921 0.034381 -0.003216 0.001576
# 5 -0.001089 0.002312 0.002731 -0.003216 0.016843 0.001053
# 6 0.005132 -0.002258 0.001287 0.001576 0.001053 0.025279
#
#
# Mechanical properties :
#
#
# Convention : Reuss Voigt Hill
#
# Bulk Modulus (GPa) = 37.44619 54.42928 45.93774
# Shear Modulus (GPa) = 36.22552 45.92912 41.07732
#
# Velocity S-wave (km/s) = 3.83783 4.32138 4.08676
# Velocity P-wave (km/s) = 5.90456 6.85781 6.39896
#
# Compressibility (1/GPa) = 0.02670498
#
# Stress axis : x y z
#
# Youngs Moduli (GPa) = 84.76911 61.08156 87.00286
#
# Poissons Ratio (x) = 0.22299 0.22142
# Poissons Ratio (y) = 0.30946 0.02462
# Poissons Ratio (z) = 0.21573 0.01729
#
# Static dielectric constant tensor:
#      x y z
#    x 2.025480 0.030970 0.042070 
#    y 0.030970 2.019400 -0.013390 
#    z 0.042070 -0.013390 2.124910 
# 
# From -- ./inp_files/512684.got.cif
#   From: 2010.05.17/outbox.cif.g08.bks.cpg/sg2_257_cif.got.tgz:512684.got - 2010.06.03 11:33:40.
