data_PCOD9003714
_publ_section_title
;
Structure prediction by ZEFSAII (Michael W. Deem and Ramdas Pophale) SiO2 
 PCOD9003714
Probable space group: P -1
;
_chemical_formula_sum "Si O2"
_cell_formula_units_Z 15
_cell_length_a 5.826428
_cell_length_b 5.863281
_cell_length_c 18.470993
_cell_angle_alpha 96.944239
_cell_angle_beta 88.746164
_cell_angle_gamma 94.540743
_cell_volume 624.362567
_symmetry_space_group_name_H-M "P -1"
_symmetry_group_IT_number 2
_symmetry_cell_setting 'triclinic'
loop_
_space_group_symop_operation_xyz
x,y,z
-x,-y,-z
loop_
_atom_site_type_symbol
_atom_site_label
_atom_site_fract_x
_atom_site_fract_y
_atom_site_fract_z
Si Si1 0.982054 0.561283 0.270937
Si Si2 0.598385 0.193435 0.327332
Si Si3 0.607490 0.122205 0.932763
Si Si4 0.767160 0.473602 0.596255
Si Si5 0.000000 0.500000 0.000000
Si Si6 0.912625 0.756101 0.859766
Si Si7 0.152077 0.832313 0.537282
Si Si8 0.310445 0.106403 0.808075
O O1 0.799216 0.367477 0.298278
O O2 0.140684 0.435285 0.208474
O O3 0.843550 0.732793 0.231416
O O4 0.129064 0.659447 0.341670
O O5 0.411725 0.357621 0.364479
O O6 0.699700 0.068794 0.392070
O O7 0.533085 0.011148 0.257374
O O8 0.804813 0.306494 0.963146
O O9 0.431623 0.229547 0.881989
O O10 0.710629 0.921017 0.878508
O O11 0.500000 0.000000 0.000000
O O12 0.691759 0.296058 0.526309
O O13 0.971835 0.640387 0.566613
O O14 0.970367 0.650458 0.931831
O O15 0.137132 0.911311 0.837870
O O16 0.000000 0.000000 0.500000
#
# Coordination Sequence:
#
# PCOD9003714 Si02
#       8
#     2   2   2   2   1   2   2   2
#     4  10  23  41  66  95 133 182 227 287 349 414
#     4  10  22  39  64  97 134 179 233 283 346 421
#     4  12  27  46  71 103 136 180 236 289 361 431
#     4  10  21  39  61  94 135 176 230 284 344 414
#     4  12  26  46  74  98 138 178 228 296 356 422
#     4  11  25  45  67 100 136 174 232 289 349 427
#     4  10  21  37  61  95 135 179 226 285 345 410
#     4  11  24  45  68  98 137 179 236 290 353 429
#
# _framework density 24.024501000000001
#
# number of rings (size 3 to 8) (size 9 to 14) (size 15 to 20)
#    0.000    1.333    1.333    3.200    1.867    6.400 
#    0.000    0.000    0.000    0.000    0.000    0.000 
#    0.000    0.000    0.000    0.000    0.000    0.000 
#
# Total GULP energy -83696.805517 kJ/mol
# GULP energy per Si atom -5579.787034 kJ/mol
# Density = 2.396982 g / cm^3
# Si number density = 24.024501 Si / 1000 Ang^3
#
#
#
# Elastic Constant Matrix: (Units=GPa)
#
#
# Indices 1 2 3 4 5 6 
#
# 1 31.3412 22.2498 52.9900 2.9877 -5.3799 -21.6452
# 2 22.2498 78.9364 55.4881 -21.5151 9.0754 -5.9260
# 3 52.9900 55.4881 142.5920 -27.6717 55.8053 0.6871
# 4 2.9877 -21.5151 -27.6717 49.8640 -8.3107 3.2541
# 5 -5.3799 9.0754 55.8053 -8.3107 26.5168 -3.6045
# 6 -21.6452 -5.9260 0.6871 3.2541 -3.6045 22.3490
#
#
#
# Elastic Compliance Matrix: (Units=1/GPa)
#
#
# Indices 1 2 3 4 5 6 
#
# 1 -0.000621 -0.007724 0.015814 0.000748 -0.031663 -0.008351
# 2 -0.007724 0.019466 -0.004714 0.007005 0.003530 -0.002625
# 3 0.015814 -0.004714 -0.000201 -0.003040 0.006406 0.015548
# 4 0.000748 0.007005 -0.003040 0.023200 0.011581 0.001165
# 5 -0.031663 0.003530 0.006406 0.011581 0.016288 -0.028987
# 6 -0.008351 -0.002625 0.015548 0.001165 -0.028987 0.030638
#
#
# Mechanical properties :
#
#
# Convention : Reuss Voigt Hill
#
# Bulk Modulus (GPa) = 39.37689 57.14725 48.26207
# Shear Modulus (GPa) = 55.25919 27.88876 41.57397
#
# Velocity S-wave (km/s) = 4.80116 3.41082 4.16442
# Velocity P-wave (km/s) = 6.86737 6.27298 6.57689
#
# Compressibility (1/GPa) = 0.02539561
#
# Stress axis : x y z
#
# Youngs Moduli (GPa) = -1610.79233 51.37245 -4971.65480
#
# Poissons Ratio (x) = 0.39679 78.62020
# Poissons Ratio (y) = -12.44157 -23.43573
# Poissons Ratio (z) = 25.47257 0.24216
#
# Static dielectric constant tensor:
#      x y z
#    x 1.866800 -0.056310 -0.004960 
#    y -0.056310 1.898200 0.023550 
#    z -0.004960 0.023550 1.921630 
# 
# From -- ./inp_files/9699.got.cif
#   From: 2010.05.17/outbox.cif.g08.bks.cpg/sg2_5_cif.got.tgz:9699.got - 2010.06.03 11:33:40.
