data_PCOD9003813
_publ_section_title
;
Structure prediction by ZEFSAII (Michael W. Deem and Ramdas Pophale) SiO2 
 PCOD9003813
Probable space group: P -1
;
_chemical_formula_sum "Si O2"
_cell_formula_units_Z 16
_cell_length_a 9.209265
_cell_length_b 16.722822
_cell_length_c 11.292351
_cell_angle_alpha 139.783648
_cell_angle_beta 74.181319
_cell_angle_gamma 133.072845
_cell_volume 696.739443
_symmetry_space_group_name_H-M "P -1"
_symmetry_group_IT_number 2
_symmetry_cell_setting 'triclinic'
loop_
_space_group_symop_operation_xyz
x,y,z
-x,-y,-z
loop_
_atom_site_type_symbol
_atom_site_label
_atom_site_fract_x
_atom_site_fract_y
_atom_site_fract_z
Si Si1 0.384617 0.746507 0.696397
Si Si2 0.843790 0.024277 0.055358
Si Si3 0.013831 0.408620 0.785775
Si Si4 0.664746 0.117005 0.356849
Si Si5 0.025583 0.356783 0.225744
Si Si6 0.534917 0.361535 0.956280
Si Si7 0.715744 0.019448 0.546637
Si Si8 0.134524 0.280291 0.895018
O O1 0.430388 0.883072 0.744307
O O2 0.277081 0.567271 0.443442
O O3 0.175571 0.669041 0.735067
O O4 0.606243 0.849205 0.838743
O O5 0.768899 0.048613 0.220830
O O6 0.973685 0.210053 0.158705
O O7 0.000000 0.000000 0.000000
O O8 0.872195 0.334490 0.611092
O O9 0.872492 0.199978 0.629031
O O10 0.290830 0.556952 0.881830
O O11 0.000000 0.500000 0.000000
O O12 0.451183 0.994552 0.356921
O O13 0.026904 0.313370 0.043017
O O14 0.700383 0.545341 0.038591
O O15 0.447592 0.182981 0.708761
O O16 0.300281 0.293496 0.947882
O O17 0.910621 0.078178 0.653675
#
# Coordination Sequence:
#
# PCOD9003813 Si02
#       8
#     2   2   2   2   2   2   2   2
#     4  10  22  42  68  92 123 158 221 259 304 379
#     4  11  25  44  62  96 132 156 209 265 318 379
#     4  11  24  40  58  93 128 158 214 257 304 371
#     4  11  22  42  68  91 124 173 206 264 312 364
#     4  10  21  40  65  93 120 168 210 255 313 371
#     4  10  22  38  57  92 129 162 206 259 306 375
#     4  11  21  38  64  88 123 167 212 249 311 372
#     4  10  21  37  62  91 127 163 205 255 316 370
#
# _framework density 22.964106999999998
#
# number of rings (size 3 to 8) (size 9 to 14) (size 15 to 20)
#    0.000    1.500    1.250    4.500    1.750    2.500 
#    2.250    1.250    0.000    0.000    0.000    0.000 
#    0.000    0.000    0.000    0.000    0.000    0.000 
#
# Total GULP energy -89448.252676 kJ/mol
# GULP energy per Si atom -5590.515792 kJ/mol
# Density = 2.291184 g / cm^3
# Si number density = 22.964107 Si / 1000 Ang^3
#
#
#
# Elastic Constant Matrix: (Units=GPa)
#
#
# Indices 1 2 3 4 5 6 
#
# 1 126.8610 7.5814 58.0315 5.0726 27.2643 19.0852
# 2 7.5814 41.1845 12.8639 -0.0449 5.0425 12.6354
# 3 58.0315 12.8639 148.2134 5.5093 31.7334 16.1960
# 4 5.0726 -0.0449 5.5093 30.6220 0.3653 -1.3861
# 5 27.2643 5.0425 31.7334 0.3653 38.8403 1.5811
# 6 19.0852 12.6354 16.1960 -1.3861 1.5811 17.0876
#
#
#
# Elastic Compliance Matrix: (Units=1/GPa)
#
#
# Indices 1 2 3 4 5 6 
#
# 1 0.012240 0.003461 -0.002046 -0.002200 -0.006786 -0.013842
# 2 0.003461 0.032852 0.000112 -0.001740 -0.005634 -0.027883
# 3 -0.002046 0.000112 0.009626 -0.001613 -0.006164 -0.006482
# 4 -0.002200 -0.001740 -0.001613 0.033631 0.002455 0.007774
# 5 -0.006786 -0.005634 -0.006164 0.002455 0.035665 0.014488
# 6 -0.013842 -0.027883 -0.006482 0.007774 0.014488 0.100035
#
#
# Mechanical properties :
#
#
# Convention : Reuss Voigt Hill
#
# Bulk Modulus (GPa) = 17.30939 52.57917 34.94428
# Shear Modulus (GPa) = 20.81140 33.16212 26.98676
#
# Velocity S-wave (km/s) = 3.01368 3.80423 3.43180
# Velocity P-wave (km/s) = 4.43437 6.49940 5.56353
#
# Compressibility (1/GPa) = 0.05777210
#
# Stress axis : x y z
#
# Youngs Moduli (GPa) = 81.69626 30.43995 103.88038
#
# Poissons Ratio (x) = -0.10535 0.21251
# Poissons Ratio (y) = -0.28275 -0.01158
# Poissons Ratio (z) = 0.16713 -0.00339
#
# Static dielectric constant tensor:
#      x y z
#    x 1.941650 -0.054200 0.022350 
#    y -0.054200 1.882250 -0.025930 
#    z 0.022350 -0.025930 1.882790 
# 
# From -- ./inp_files/403370.got.cif
#   From: 2010.05.17/outbox.cif.g08.bks.cpg/sg2_202_cif.got.tgz:403370.got - 2010.06.03 11:33:40.
