data_PCOD9003840
_publ_section_title
;
Structure prediction by ZEFSAII (Michael W. Deem and Ramdas Pophale) SiO2 
 PCOD9003840
Probable space group: P -1
;
_chemical_formula_sum "Si O2"
_cell_formula_units_Z 14
_cell_length_a 14.063860
_cell_length_b 10.167939
_cell_length_c 6.277648
_cell_angle_alpha 50.005936
_cell_angle_beta 67.563150
_cell_angle_gamma 76.932415
_cell_volume 635.447637
_symmetry_space_group_name_H-M "P -1"
_symmetry_group_IT_number 2
_symmetry_cell_setting 'triclinic'
loop_
_space_group_symop_operation_xyz
x,y,z
-x,-y,-z
loop_
_atom_site_type_symbol
_atom_site_label
_atom_site_fract_x
_atom_site_fract_y
_atom_site_fract_z
Si Si1 0.295665 0.247911 0.163658
Si Si2 0.209163 0.500268 0.315692
Si Si3 0.305182 0.744746 0.323112
Si Si4 0.116490 0.685550 0.827100
Si Si5 0.518844 0.794846 0.241570
Si Si6 0.110417 0.318947 0.964646
Si Si7 0.611871 0.954037 0.363182
O O1 0.269947 0.401765 0.184241
O O2 0.312515 0.085628 0.469087
O O3 0.404908 0.274144 0.928305
O O4 0.204393 0.225268 0.094617
O O5 0.277094 0.590491 0.346908
O O6 0.136629 0.366200 0.648646
O O7 0.146485 0.641310 0.090391
O O8 0.209081 0.778363 0.523536
O O9 0.406210 0.710161 0.413269
O O10 0.336318 0.902794 0.979526
O O11 0.108348 0.500901 0.904040
O O12 0.003589 0.762885 0.832487
O O13 0.581633 0.790932 0.411043
O O14 0.500000 0.000000 0.000000
O O15 0.500000 0.000000 0.500000
#
# Coordination Sequence:
#
# PCOD9003840 Si02
#       7
#     2   2   2   2   2   2   2
#     4  11  21  38  63  89 122 161 198 248 294 356
#     4  10  21  37  62  93 122 154 199 249 298 356
#     4  10  22  37  61  94 119 156 205 244 295 358
#     4   9  19  36  62  86 124 159 193 248 298 352
#     4  10  21  38  58  83 117 158 201 240 292 351
#     4   9  19  38  58  90 121 159 199 241 300 354
#     4  11  22  40  63  84 115 167 202 236 297 364
#
# _framework density 22.031713
#
# number of rings (size 3 to 8) (size 9 to 14) (size 15 to 20)
#    0.000    2.000    2.857    1.286    2.000    1.714 
#    0.000    7.857    0.000   10.286    0.000    0.000 
#    0.000    0.000    0.000    0.000    0.000    0.000 
#
# Total GULP energy -78150.437346 kJ/mol
# GULP energy per Si atom -5582.174096 kJ/mol
# Density = 2.198157 g / cm^3
# Si number density = 22.031713 Si / 1000 Ang^3
#
#
#
# Elastic Constant Matrix: (Units=GPa)
#
#
# Indices 1 2 3 4 5 6 
#
# 1 134.3608 24.8573 83.2529 3.9407 -24.1991 -19.1621
# 2 24.8573 52.5820 20.6761 24.9755 -8.4912 -6.3286
# 3 83.2529 20.6761 148.9835 16.7231 -15.1035 -14.3524
# 4 3.9407 24.9755 16.7231 35.4345 -4.4463 -3.4426
# 5 -24.1991 -8.4912 -15.1035 -4.4463 41.6437 -2.2435
# 6 -19.1621 -6.3286 -14.3524 -3.4426 -2.2435 39.2541
#
#
#
# Elastic Compliance Matrix: (Units=1/GPa)
#
#
# Indices 1 2 3 4 5 6 
#
# 1 0.014259 -0.005896 -0.006947 0.006971 0.005546 0.004399
# 2 -0.005896 0.032228 0.001587 -0.022540 0.001368 0.001000
# 3 -0.006947 0.001587 0.011003 -0.005538 -0.000293 0.000385
# 4 0.006971 -0.022540 -0.005538 0.046452 0.002512 0.001962
# 5 0.005546 0.001368 -0.000293 0.002512 0.027927 0.004637
# 6 0.004399 0.001000 0.000385 0.001962 0.004637 0.028361
#
#
# Mechanical properties :
#
#
# Convention : Reuss Voigt Hill
#
# Bulk Modulus (GPa) = 28.58770 65.94431 47.26601
# Shear Modulus (GPa) = 25.71998 37.07579 31.39789
#
# Velocity S-wave (km/s) = 3.42044 4.10669 3.77917
# Velocity P-wave (km/s) = 5.34819 7.24452 6.36734
#
# Compressibility (1/GPa) = 0.03498007
#
# Stress axis : x y z
#
# Youngs Moduli (GPa) = 70.12979 31.02846 90.88665
#
# Poissons Ratio (x) = 0.18293 0.63135
# Poissons Ratio (y) = 0.41346 -0.14423
# Poissons Ratio (z) = 0.48716 -0.04924
#
# Static dielectric constant tensor:
#      x y z
#    x 1.859240 -0.009170 0.029970 
#    y -0.009170 1.850580 -0.020150 
#    z 0.029970 -0.020150 1.864170 
# 
# From -- ./inp_files/68317.got.cif
#   From: 2010.05.17/outbox.cif.g08.bks.cpg/sg2_35_cif.got.tgz:68317.got - 2010.06.03 11:33:40.
