data_PCOD9003242
_publ_section_title
;
Structure prediction by ZEFSAII (Michael W. Deem and Ramdas Pophale) SiO2 
 PCOD9003242
Probable space group: P -1
;
_chemical_formula_sum "Si O2"
_cell_formula_units_Z 14
_cell_length_a 7.445990
_cell_length_b 18.275822
_cell_length_c 20.401630
_cell_angle_alpha 159.208181
_cell_angle_beta 143.505849
_cell_angle_gamma 42.534846
_cell_volume 584.699695
_symmetry_space_group_name_H-M "P -1"
_symmetry_group_IT_number 2
_symmetry_cell_setting 'triclinic'
loop_
_space_group_symop_operation_xyz
x,y,z
-x,-y,-z
loop_
_atom_site_type_symbol
_atom_site_label
_atom_site_fract_x
_atom_site_fract_y
_atom_site_fract_z
Si Si1 0.323526 0.971810 0.604949
Si Si2 0.980010 0.004302 0.653664
Si Si3 0.176538 0.235218 0.176761
Si Si4 0.455025 0.740844 0.197344
Si Si5 0.533507 0.572537 0.385264
Si Si6 0.203209 0.652658 0.493193
Si Si7 0.120971 0.779310 0.780155
O O1 0.395996 0.729521 0.424313
O O2 0.545627 0.131351 0.763870
O O3 0.000000 0.000000 0.500000
O O4 0.271768 0.036730 0.719626
O O5 0.843776 0.213812 0.811689
O O6 0.727963 0.859781 0.418363
O O7 0.036852 0.859684 0.610607
O O8 0.534054 0.301837 0.338416
O O9 0.024035 0.433535 0.269922
O O10 0.062928 0.212953 0.199213
O O11 0.147419 0.007569 0.949419
O O12 0.500000 0.500000 0.000000
O O13 0.643104 0.377447 0.558096
O O14 0.573059 0.326676 0.197907
O O15 0.889385 0.650217 0.556552
#
# Coordination Sequence:
#
# PCOD9003242 Si02
#       7
#     2   2   2   2   2   2   2
#     4   9  19  37  57  79 111 148 182 225 282 330
#     4   9  20  39  56  79 117 143 177 238 273 321
#     4   9  18  32  51  76 104 136 178 213 264 331
#     4  10  21  37  59  84 107 145 191 225 277 334
#     4   9  18  33  53  73 107 140 172 224 272 317
#     4   9  18  34  51  73 107 140 168 220 276 316
#     4   9  18  32  50  79 104 135 179 220 264 323
#
# _framework density 23.943912999999998
#
# number of rings (size 3 to 8) (size 9 to 14) (size 15 to 20)
#    0.000    2.857    0.000    0.000    2.000    2.286 
#    7.714    0.000    0.000    0.000    0.000    0.000 
#    0.000    0.000    0.000    0.000    0.000    0.000 
#
# Total GULP energy -77995.171184 kJ/mol
# GULP energy per Si atom -5571.083656 kJ/mol
# Density = 2.388942 g / cm^3
# Si number density = 23.943913 Si / 1000 Ang^3
#
#
#
# Elastic Constant Matrix: (Units=GPa)
#
#
# Indices 1 2 3 4 5 6 
#
# 1 54.9310 -2.4933 15.3520 13.1153 -3.0056 1.6090
# 2 -2.4933 105.8722 26.5104 40.9368 -2.8905 1.5228
# 3 15.3520 26.5104 91.8786 44.1663 -9.7499 2.6505
# 4 13.1153 40.9368 44.1663 37.7750 -3.3716 0.1483
# 5 -3.0056 -2.8905 -9.7499 -3.3716 24.0803 15.0672
# 6 1.6090 1.5228 2.6505 0.1483 15.0672 27.9782
#
#
#
# Elastic Compliance Matrix: (Units=1/GPa)
#
#
# Indices 1 2 3 4 5 6 
#
# 1 0.022999 0.008256 0.005659 -0.022947 0.006498 -0.005686
# 2 0.008256 0.023408 0.013966 -0.043844 0.007742 -0.007009
# 3 0.005659 0.013966 0.035563 -0.057095 0.017172 -0.013400
# 4 -0.022947 -0.043844 -0.057095 0.146477 -0.024060 0.021295
# 5 0.006498 0.007742 0.017172 -0.024060 0.072828 -0.041515
# 6 -0.005686 -0.007009 -0.013400 0.021295 -0.041515 0.059964
#
#
# Mechanical properties :
#
#
# Convention : Reuss Voigt Hill
#
# Bulk Modulus (GPa) = 7.26045 36.82444 22.04244
# Shear Modulus (GPa) = 14.22933 32.18756 23.20844
#
# Velocity S-wave (km/s) = 2.44043 3.67043 3.11671
# Velocity P-wave (km/s) = 3.31357 5.77716 4.70932
#
# Compressibility (1/GPa) = 0.13773253
#
# Stress axis : x y z
#
# Youngs Moduli (GPa) = 43.48073 42.72088 28.11912
#
# Poissons Ratio (x) = -0.35272 -0.15912
# Poissons Ratio (y) = -0.35900 -0.39272
# Poissons Ratio (z) = -0.24605 -0.59665
#
# Static dielectric constant tensor:
#      x y z
#    x 1.969790 0.008790 0.000670 
#    y 0.008790 2.038610 0.023010 
#    z 0.000670 0.023010 2.002770 
# 
# From -- ./inp_files/591113.got.cif
#   From: 2010.05.17/outbox.cif.g08.bks.cpg/sg2_296_cif.got.tgz:591113.got - 2010.06.03 11:33:40.
