data_PCOD9003382
_publ_section_title
;
Structure prediction by ZEFSAII (Michael W. Deem and Ramdas Pophale) SiO2 
 PCOD9003382
Probable space group: P -1
;
_chemical_formula_sum "Si O2"
_cell_formula_units_Z 14
_cell_length_a 19.400677
_cell_length_b 6.469304
_cell_length_c 5.729426
_cell_angle_alpha 128.492685
_cell_angle_beta 86.881824
_cell_angle_gamma 88.155306
_cell_volume 559.982100
_symmetry_space_group_name_H-M "P -1"
_symmetry_group_IT_number 2
_symmetry_cell_setting 'triclinic'
loop_
_space_group_symop_operation_xyz
x,y,z
-x,-y,-z
loop_
_atom_site_type_symbol
_atom_site_label
_atom_site_fract_x
_atom_site_fract_y
_atom_site_fract_z
Si Si1 0.398046 0.467311 0.840897
Si Si2 0.309280 0.212294 0.068235
Si Si3 0.859414 0.553031 0.185343
Si Si4 0.895992 0.657333 0.745990
Si Si5 0.265774 0.663196 0.707276
Si Si6 0.038450 0.771901 0.793792
Si Si7 0.559615 0.985143 0.785804
O O1 0.341296 0.585938 0.748960
O O2 0.450537 0.248042 0.556687
O O3 0.354505 0.313477 0.923682
O O4 0.432185 0.722686 0.109063
O O5 0.262238 0.459450 0.352909
O O6 0.366388 0.108238 0.176167
O O7 0.266139 0.965590 0.844776
O O8 0.866398 0.736035 0.546866
O O9 0.792164 0.398432 0.138588
O O10 0.929129 0.351264 0.056912
O O11 0.861698 0.681877 0.024180
O O12 0.900608 0.329461 0.474730
O O13 0.953225 0.893168 0.944340
O O14 0.000000 0.500000 0.500000
O O15 0.500000 0.000000 0.000000
#
# Coordination Sequence:
#
# PCOD9003382 Si02
#       7
#     2   2   2   2   2   2   2
#     4  10  21  38  61  85 122 167 196 257 311 362
#     4  10  22  41  61  86 124 163 205 256 312 366
#     4  10  21  40  58  87 115 160 203 259 314 385
#     4   9  21  39  56  83 119 148 198 251 318 371
#     4  10  23  40  59  87 122 157 212 258 307 379
#     4   9  20  37  60  84 116 155 195 257 318 381
#     4  10  21  37  59  94 123 157 206 252 304 375
#
# _framework density 25.000798
#
# number of rings (size 3 to 8) (size 9 to 14) (size 15 to 20)
#    0.857    1.429    0.000    1.714    2.000    2.857 
#    2.571    0.000    0.000    0.000    0.000    0.000 
#    0.000    0.000    0.000    0.000    0.000    0.000 
#
# Total GULP energy -77962.362849 kJ/mol
# GULP energy per Si atom -5568.740204 kJ/mol
# Density = 2.494390 g / cm^3
# Si number density = 25.000798 Si / 1000 Ang^3
#
#
#
# Elastic Constant Matrix: (Units=GPa)
#
#
# Indices 1 2 3 4 5 6 
#
# 1 86.4986 43.9720 49.0008 20.5673 4.8184 -0.6035
# 2 43.9720 156.1741 88.6345 19.4619 -5.0357 22.3027
# 3 49.0008 88.6345 144.7021 5.8103 -8.7435 -7.1520
# 4 20.5673 19.4619 5.8103 44.1767 -0.1404 -7.2370
# 5 4.8184 -5.0357 -8.7435 -0.1404 27.5289 -1.9364
# 6 -0.6035 22.3027 -7.1520 -7.2370 -1.9364 31.3860
#
#
#
# Elastic Compliance Matrix: (Units=1/GPa)
#
#
# Indices 1 2 3 4 5 6 
#
# 1 0.017006 -0.000460 -0.005616 -0.007426 -0.005069 -0.002651
# 2 -0.000460 0.014847 -0.009432 -0.007467 -0.001258 -0.014508
# 3 -0.005616 -0.009432 0.015208 0.006738 0.004961 0.011919
# 4 -0.007426 -0.007467 0.006738 0.030801 0.003216 0.013999
# 5 -0.005069 -0.001258 0.004961 0.003216 0.038931 0.005070
# 6 -0.002651 -0.014508 0.011919 0.013999 0.005070 0.048376
#
#
# Mechanical properties :
#
#
# Convention : Reuss Voigt Hill
#
# Bulk Modulus (GPa) = 62.32382 83.39883 72.86132
# Shear Modulus (GPa) = 24.80969 34.33614 29.57292
#
# Velocity S-wave (km/s) = 3.15359 3.70996 3.44303
# Velocity P-wave (km/s) = 6.18409 7.19602 6.70916
#
# Compressibility (1/GPa) = 0.01604523
#
# Stress axis : x y z
#
# Youngs Moduli (GPa) = 58.80302 67.35185 65.75461
#
# Poissons Ratio (x) = 0.03101 0.36927
# Poissons Ratio (y) = 0.02707 0.62019
# Poissons Ratio (z) = 0.33023 0.63525
#
# Static dielectric constant tensor:
#      x y z
#    x 1.712040 0.086430 0.152270 
#    y 0.086430 1.998920 -0.018280 
#    z 0.152270 -0.018280 1.949880 
# 
# From -- ./inp_files/114873.got.cif
#   From: 2010.05.17/outbox.cif.g08.bks.cpg/sg2_58_cif.got.tgz:114873.got - 2010.06.03 11:33:40.
