data_PCOD9003582
_publ_section_title
;
Structure prediction by ZEFSAII (Michael W. Deem and Ramdas Pophale) SiO2 
 PCOD9003582
Probable space group: P -1
;
_chemical_formula_sum "Si O2"
_cell_formula_units_Z 16
_cell_length_a 14.250243
_cell_length_b 11.032277
_cell_length_c 5.113157
_cell_angle_alpha 68.012614
_cell_angle_beta 81.273715
_cell_angle_gamma 65.043177
_cell_volume 675.767294
_symmetry_space_group_name_H-M "P -1"
_symmetry_group_IT_number 2
_symmetry_cell_setting 'triclinic'
loop_
_space_group_symop_operation_xyz
x,y,z
-x,-y,-z
loop_
_atom_site_type_symbol
_atom_site_label
_atom_site_fract_x
_atom_site_fract_y
_atom_site_fract_z
Si Si1 0.452805 0.243634 0.356106
Si Si2 0.698287 0.891111 0.299216
Si Si3 0.409012 0.815244 0.155514
Si Si4 0.137608 0.393745 0.797111
Si Si5 0.000437 0.092353 0.172137
Si Si6 0.575228 0.467512 0.744436
Si Si7 0.050852 0.654775 0.311030
Si Si8 0.867299 0.806039 0.662926
O O1 0.395437 0.140191 0.517196
O O2 0.493475 0.227851 0.054592
O O3 0.382892 0.408638 0.332946
O O4 0.548665 0.202313 0.553058
O O5 0.774709 0.741580 0.265454
O O6 0.767974 0.916498 0.474260
O O7 0.659027 0.022362 0.014301
O O8 0.359785 0.701236 0.187724
O O9 0.134996 0.537407 0.552112
O O10 0.020879 0.406808 0.772655
O O11 0.151977 0.335372 0.135059
O O12 0.102138 0.124781 0.155505
O O13 0.000000 0.000000 0.500000
O O14 0.918707 0.250310 0.988083
O O15 0.000000 0.000000 0.000000
O O16 0.500000 0.500000 0.500000
O O17 0.500000 0.500000 0.000000
O O18 0.967055 0.756267 0.473402
#
# Coordination Sequence:
#
# PCOD9003582 Si02
#       8
#     2   2   2   2   2   2   2   2
#     4  10  21  37  61  85 118 160 208 246 303 368
#     4  11  23  35  56  91 129 155 202 262 307 357
#     4  10  21  37  61  86 117 165 203 246 308 365
#     4   9  20  35  59  87 121 156 202 249 311 360
#     4  11  21  39  65  91 118 158 208 249 301 376
#     4   8  16  34  57  81 105 149 203 243 287 361
#     4   9  18  38  61  89 113 163 200 249 303 373
#     4  10  21  37  62  88 125 160 206 255 310 358
#
# _framework density 23.676788999999999
#
# number of rings (size 3 to 8) (size 9 to 14) (size 15 to 20)
#    0.000    2.250    1.250    1.125    3.500    1.000 
#    0.000    1.250    0.000    0.000    0.000    0.000 
#    0.000    0.000    0.000    0.000    0.000    0.000 
#
# Total GULP energy -89141.553712 kJ/mol
# GULP energy per Si atom -5571.347107 kJ/mol
# Density = 2.362290 g / cm^3
# Si number density = 23.676789 Si / 1000 Ang^3
#
#
#
# Elastic Constant Matrix: (Units=GPa)
#
#
# Indices 1 2 3 4 5 6 
#
# 1 26.8590 22.4771 5.7531 -6.0054 0.4215 3.7140
# 2 22.4771 68.0515 20.4945 -8.8592 -3.0013 3.4873
# 3 5.7531 20.4945 148.0916 -14.1152 -24.4626 4.6879
# 4 -6.0054 -8.8592 -14.1152 56.3500 13.9930 -1.8108
# 5 0.4215 -3.0013 -24.4626 13.9930 21.0123 1.4464
# 6 3.7140 3.4873 4.6879 -1.8108 1.4464 19.6077
#
#
#
# Elastic Compliance Matrix: (Units=1/GPa)
#
#
# Indices 1 2 3 4 5 6 
#
# 1 0.053389 -0.016988 -0.000119 0.004297 -0.006070 -0.006218
# 2 -0.016988 0.021074 -0.002127 0.000904 0.000269 0.000042
# 3 -0.000119 -0.002127 0.008823 -0.000887 0.010738 -0.002582
# 4 0.004297 0.000904 -0.000887 0.022154 -0.015912 0.002457
# 5 -0.006070 0.000269 0.010738 -0.015912 0.071414 -0.008203
# 6 -0.006218 0.000042 -0.002582 0.002457 -0.008203 0.053620
#
#
# Mechanical properties :
#
#
# Convention : Reuss Voigt Hill
#
# Bulk Modulus (GPa) = 22.31299 37.82794 30.07047
# Shear Modulus (GPa) = 17.61295 32.34583 24.97939
#
# Velocity S-wave (km/s) = 2.73040 3.70014 3.25162
# Velocity P-wave (km/s) = 4.40279 5.85374 5.17932
#
# Compressibility (1/GPa) = 0.04481693
#
# Stress axis : x y z
#
# Youngs Moduli (GPa) = 18.73033 47.45215 113.34537
#
# Poissons Ratio (x) = 0.80612 0.01353
# Poissons Ratio (y) = 0.31819 0.24110
# Poissons Ratio (z) = 0.00224 0.10094
#
# Static dielectric constant tensor:
#      x y z
#    x 1.914460 0.045590 -0.060320 
#    y 0.045590 2.010750 -0.038500 
#    z -0.060320 -0.038500 2.023350 
# 
# From -- ./inp_files/94432.got.cif
#   From: 2010.05.17/outbox.cif.g08.bks.cpg/sg2_48_cif.got.tgz:94432.got - 2010.06.03 11:33:40.
