data_PCOD9003804
_publ_section_title
;
Structure prediction by ZEFSAII (Michael W. Deem and Ramdas Pophale) SiO2 
 PCOD9003804
Probable space group: P -1
;
_chemical_formula_sum "Si O2"
_cell_formula_units_Z 14
_cell_length_a 12.966324
_cell_length_b 17.124560
_cell_length_c 5.322017
_cell_angle_alpha 116.744139
_cell_angle_beta 123.260113
_cell_angle_gamma 40.376796
_cell_volume 638.994229
_symmetry_space_group_name_H-M "P -1"
_symmetry_group_IT_number 2
_symmetry_cell_setting 'triclinic'
loop_
_space_group_symop_operation_xyz
x,y,z
-x,-y,-z
loop_
_atom_site_type_symbol
_atom_site_label
_atom_site_fract_x
_atom_site_fract_y
_atom_site_fract_z
Si Si1 0.007010 0.223540 0.437174
Si Si2 0.101702 0.803262 0.237434
Si Si3 0.318390 0.555079 0.930750
Si Si4 0.414776 0.313512 0.827764
Si Si5 0.620622 0.991689 0.961620
Si Si6 0.287395 0.195274 0.530924
Si Si7 0.638349 0.173138 0.420727
O O1 0.988176 0.178489 0.599384
O O2 0.830853 0.362595 0.356916
O O3 0.162809 0.215118 0.602179
O O4 0.010272 0.155576 0.104157
O O5 0.193465 0.851101 0.418888
O O6 0.250903 0.657244 0.193410
O O7 0.335339 0.448078 0.888579
O O8 0.500000 0.500000 0.000000
O O9 0.274403 0.304239 0.618565
O O10 0.544012 0.236262 0.652051
O O11 0.513381 0.260321 0.148867
O O12 0.488205 0.089506 0.712753
O O13 0.738622 0.858776 0.811334
O O14 0.678952 0.051203 0.260735
O O15 0.500000 0.000000 0.000000
#
# Coordination Sequence:
#
# PCOD9003804 Si02
#       7
#     2   2   2   2   2   2   2
#     4  10  24  39  61  85 133 159 190 249 296 356
#     4  10  22  39  58  88 123 161 195 242 295 351
#     4  10  21  37  62  91 119 164 200 238 293 354
#     4  11  22  34  63  90 120 156 198 253 288 354
#     4  10  21  39  69  85 113 159 203 254 298 356
#     4  10  23  42  58  93 120 156 202 247 308 351
#     4  11  21  38  61  93 117 150 208 251 293 348
#
# _framework density 21.909431000000001
#
# number of rings (size 3 to 8) (size 9 to 14) (size 15 to 20)
#    0.857    0.857    2.857    1.714    4.000    1.714 
#    0.000    2.143    0.000    0.000    0.000    0.000 
#    0.000    0.000    0.000    0.000    0.000    0.000 
#
# Total GULP energy -78099.769115 kJ/mol
# GULP energy per Si atom -5578.554937 kJ/mol
# Density = 2.185956 g / cm^3
# Si number density = 21.909431 Si / 1000 Ang^3
#
#
#
# Elastic Constant Matrix: (Units=GPa)
#
#
# Indices 1 2 3 4 5 6 
#
# 1 174.4638 18.6106 61.7784 15.6742 12.9685 12.7997
# 2 18.6106 55.3764 19.5841 10.6121 16.5974 9.7520
# 3 61.7784 19.5841 81.5156 8.6807 14.2552 11.8071
# 4 15.6742 10.6121 8.6807 33.4529 14.3015 13.9748
# 5 12.9685 16.5974 14.2552 14.3015 56.1672 8.5146
# 6 12.7997 9.7520 11.8071 13.9748 8.5146 33.7671
#
#
#
# Elastic Compliance Matrix: (Units=1/GPa)
#
#
# Indices 1 2 3 4 5 6 
#
# 1 0.008000 -0.000283 -0.005797 -0.002251 0.000291 -0.000065
# 2 -0.000283 0.021724 -0.003561 -0.002888 -0.004315 -0.002638
# 3 -0.005797 -0.003561 0.018197 0.001339 -0.002089 -0.003165
# 4 -0.002251 -0.002888 0.001339 0.040274 -0.007153 -0.013645
# 5 0.000291 -0.004315 -0.002089 -0.007153 0.021452 -0.000583
# 6 -0.000065 -0.002638 -0.003165 -0.013645 -0.000583 0.037302
#
#
# Mechanical properties :
#
#
# Convention : Reuss Voigt Hill
#
# Bulk Modulus (GPa) = 34.91463 56.81132 45.86298
# Shear Modulus (GPa) = 28.44523 38.76963 33.60743
#
# Velocity S-wave (km/s) = 3.60712 4.21115 3.92078
# Velocity P-wave (km/s) = 5.77225 7.04496 6.44012
#
# Compressibility (1/GPa) = 0.02864129
#
# Stress axis : x y z
#
# Youngs Moduli (GPa) = 124.99796 46.03225 54.95308
#
# Poissons Ratio (x) = 0.01302 0.31855
# Poissons Ratio (y) = 0.03534 0.19566
# Poissons Ratio (z) = 0.72458 0.16390
#
# Static dielectric constant tensor:
#      x y z
#    x 1.801650 -0.016560 0.014410 
#    y -0.016560 1.866360 -0.044340 
#    z 0.014410 -0.044340 1.875700 
# 
# From -- ./inp_files/81631.got.cif
#   From: 2010.05.17/outbox.cif.g08.bks.cpg/sg2_41_cif.got.tgz:81631.got - 2010.06.03 11:33:40.
