data_PCOD9003327
_publ_section_title
;
Structure prediction by ZEFSAII (Michael W. Deem and Ramdas Pophale) SiO2 
 PCOD9003327
Probable space group: P -1
;
_chemical_formula_sum "Si O2"
_cell_formula_units_Z 16
_cell_length_a 11.170651
_cell_length_b 11.402543
_cell_length_c 19.524760
_cell_angle_alpha 129.112079
_cell_angle_beta 156.771013
_cell_angle_gamma 59.747330
_cell_volume 737.297404
_symmetry_space_group_name_H-M "P -1"
_symmetry_group_IT_number 2
_symmetry_cell_setting 'triclinic'
loop_
_space_group_symop_operation_xyz
x,y,z
-x,-y,-z
loop_
_atom_site_type_symbol
_atom_site_label
_atom_site_fract_x
_atom_site_fract_y
_atom_site_fract_z
Si Si1 0.654669 0.113706 0.401873
Si Si2 0.251458 0.020069 0.734009
Si Si3 0.721829 0.451188 0.543502
Si Si4 0.816509 0.623233 0.035791
Si Si5 0.602288 0.379218 0.060714
Si Si6 0.247003 0.959585 0.247270
Si Si7 0.920157 0.005701 0.683782
Si Si8 0.796849 0.624300 0.866481
O O1 0.811429 0.295832 0.560056
O O2 0.902242 0.019919 0.523739
O O3 0.602026 0.073456 0.279244
O O4 0.358477 0.066423 0.279086
O O5 0.177908 0.963009 0.752857
O O6 0.449561 0.197963 0.899794
O O7 0.500000 0.500000 0.500000
O O8 0.514717 0.396881 0.347973
O O9 0.026201 0.583954 0.736139
O O10 0.523168 0.588756 0.919030
O O11 0.724615 0.598469 0.899164
O O12 0.003512 0.804312 0.210789
O O13 0.033102 0.505317 0.119592
O O14 0.500000 0.500000 0.000000
O O15 0.078181 0.027362 0.246238
O O16 0.568506 0.937991 0.444871
O O17 0.033915 0.794627 0.050031
#
# Coordination Sequence:
#
# PCOD9003327 Si02
#       8
#     2   2   2   2   2   2   2   2
#     4  10  21  37  59  89 118 155 202 255 298 362
#     4   9  19  36  62  88 115 150 211 251 292 361
#     4  12  27  40  58  88 130 161 203 259 311 359
#     4   9  20  39  67  87 118 161 211 248 295 371
#     4  11  21  38  65  87 118 166 206 246 306 367
#     4   9  18  32  58  83 121 151 192 243 303 356
#     4   8  16  34  59  90 112 147 202 250 291 356
#     4  10  22  39  59  93 123 159 203 256 303 359
#
# _framework density 21.700877999999999
#
# number of rings (size 3 to 8) (size 9 to 14) (size 15 to 20)
#    0.000    2.250    1.250    0.750    7.000    2.000 
#    0.000    0.000    2.750    2.250    0.000    0.000 
#    0.000    0.000    0.000    0.000    0.000    0.000 
#
# Total GULP energy -89348.265005 kJ/mol
# GULP energy per Si atom -5584.266563 kJ/mol
# Density = 2.165149 g / cm^3
# Si number density = 21.700878 Si / 1000 Ang^3
#
#
#
# Elastic Constant Matrix: (Units=GPa)
#
#
# Indices 1 2 3 4 5 6 
#
# 1 167.4637 28.4173 47.9186 18.1917 28.9609 -10.2707
# 2 28.4173 26.4282 4.3891 2.8651 3.4063 -6.5850
# 3 47.9186 4.3891 100.1609 6.1903 11.9402 1.9697
# 4 18.1917 2.8651 6.1903 18.5254 4.7374 -1.8234
# 5 28.9609 3.4063 11.9402 4.7374 31.6663 7.2194
# 6 -10.2707 -6.5850 1.9697 -1.8234 7.2194 19.8890
#
#
#
# Elastic Compliance Matrix: (Units=1/GPa)
#
#
# Indices 1 2 3 4 5 6 
#
# 1 0.010648 -0.007816 -0.003569 -0.005441 -0.008033 0.005681
# 2 -0.007816 0.049321 0.001464 0.001306 -0.001855 0.012942
# 3 -0.003569 0.001464 0.011801 -0.000715 -0.000703 -0.002338
# 4 -0.005441 0.001306 -0.000715 0.061212 -0.005239 0.005207
# 5 -0.008033 -0.001855 -0.000703 -0.005239 0.045085 -0.021538
# 6 0.005681 0.012942 -0.002338 0.005207 -0.021538 0.066024
#
#
# Mechanical properties :
#
#
# Convention : Reuss Voigt Hill
#
# Bulk Modulus (GPa) = 19.25744 50.61144 34.93444
# Shear Modulus (GPa) = 17.77820 28.23800 23.00810
#
# Velocity S-wave (km/s) = 2.86534 3.61118 3.25966
# Velocity P-wave (km/s) = 4.45423 6.38439 5.50457
#
# Compressibility (1/GPa) = 0.05192799
#
# Stress axis : x y z
#
# Youngs Moduli (GPa) = 93.91694 20.27520 84.73558
#
# Poissons Ratio (x) = 0.15846 0.30246
# Poissons Ratio (y) = 0.73401 -0.12403
# Poissons Ratio (z) = 0.33523 -0.02968
#
# Static dielectric constant tensor:
#      x y z
#    x 1.847420 0.012450 -0.022570 
#    y 0.012450 1.786810 -0.029050 
#    z -0.022570 -0.029050 1.772350 
# 
# From -- ./inp_files/595116.got.cif
#   From: 2010.05.17/outbox.cif.g08.bks.cpg/sg2_298_cif.got.tgz:595116.got - 2010.06.03 11:33:40.
