data_PCOD9003734
_publ_section_title
;
Structure prediction by ZEFSAII (Michael W. Deem and Ramdas Pophale) SiO2 
 PCOD9003734
Probable space group: P -1
;
_chemical_formula_sum "Si O2"
_cell_formula_units_Z 16
_cell_length_a 8.393140
_cell_length_b 13.935607
_cell_length_c 11.418278
_cell_angle_alpha 123.464879
_cell_angle_beta 52.669350
_cell_angle_gamma 85.723312
_cell_volume 697.492177
_symmetry_space_group_name_H-M "P -1"
_symmetry_group_IT_number 2
_symmetry_cell_setting 'triclinic'
loop_
_space_group_symop_operation_xyz
x,y,z
-x,-y,-z
loop_
_atom_site_type_symbol
_atom_site_label
_atom_site_fract_x
_atom_site_fract_y
_atom_site_fract_z
Si Si1 0.261268 0.734825 0.731045
Si Si2 0.807480 0.395627 0.773552
Si Si3 0.238620 0.375058 0.190474
Si Si4 0.987559 0.642664 0.095077
Si Si5 0.602271 0.055298 0.161853
Si Si6 0.118628 0.220604 0.316512
Si Si7 0.516360 0.533455 0.686454
Si Si8 0.715716 0.842475 0.143379
O O1 0.287049 0.861146 0.794524
O O2 0.490617 0.614844 0.633912
O O3 0.307574 0.639325 0.533001
O O4 0.996784 0.790043 0.945019
O O5 0.894890 0.490563 0.749713
O O6 0.960484 0.324510 0.777141
O O7 0.893353 0.283424 0.553422
O O8 0.500000 0.500000 0.000000
O O9 0.102440 0.343239 0.326767
O O10 0.414336 0.399950 0.200258
O O11 0.361089 0.238800 0.957616
O O12 0.757629 0.780363 0.214376
O O13 0.243573 0.581049 0.870074
O O14 0.000000 0.500000 0.000000
O O15 0.360261 0.153335 0.251013
O O16 0.547309 0.003771 0.271124
O O17 0.800027 0.912461 0.895278
#
# Coordination Sequence:
#
# PCOD9003734 Si02
#       8
#     2   2   2   2   2   2   2   2
#     4  10  21  37  62 100 132 164 217 283 337 387
#     4  12  25  41  67 100 133 173 222 282 343 396
#     4  11  21  39  66  99 132 164 224 288 335 391
#     4  11  23  40  60  94 137 175 217 280 336 396
#     4  10  21  42  65  97 136 179 222 270 332 409
#     4  10  24  40  70  99 132 175 226 279 335 399
#     4  10  22  35  63  99 131 167 218 287 340 382
#     4  10  23  37  63  94 129 178 222 264 337 400
#
# _framework density 22.939323999999999
#
# number of rings (size 3 to 8) (size 9 to 14) (size 15 to 20)
#    0.000    1.500    3.750    0.750    7.000    0.000 
#    0.000    0.625    0.000   18.750    0.000    0.000 
#    0.000    0.000    0.000    0.000    0.000    0.000 
#
# Total GULP energy -89226.663503 kJ/mol
# GULP energy per Si atom -5576.666469 kJ/mol
# Density = 2.288711 g / cm^3
# Si number density = 22.939324 Si / 1000 Ang^3
#
#
#
# Elastic Constant Matrix: (Units=GPa)
#
#
# Indices 1 2 3 4 5 6 
#
# 1 115.6715 58.6979 30.9044 1.8256 30.9388 -3.6094
# 2 58.6979 143.2550 43.5373 6.0827 26.3228 -16.1926
# 3 30.9044 43.5373 88.3591 -4.8443 6.0255 -1.6601
# 4 1.8256 6.0827 -4.8443 33.2662 -0.6737 14.7168
# 5 30.9388 26.3228 6.0255 -0.6737 33.0475 -2.5424
# 6 -3.6094 -16.1926 -1.6601 14.7168 -2.5424 48.4696
#
#
#
# Elastic Compliance Matrix: (Units=1/GPa)
#
#
# Indices 1 2 3 4 5 6 
#
# 1 0.013463 -0.002926 -0.002637 -0.000612 -0.009835 -0.000396
# 2 -0.002926 0.011111 -0.004271 -0.004573 -0.005081 0.004470
# 3 -0.002637 -0.004271 0.014308 0.004045 0.003176 -0.002195
# 4 -0.000612 -0.004573 0.004045 0.037132 0.003270 -0.012538
# 5 -0.009835 -0.005081 0.003176 0.003270 0.042919 -0.001063
# 6 -0.000396 0.004470 -0.002195 -0.012538 -0.001063 0.025771
#
#
# Mechanical properties :
#
#
# Convention : Reuss Voigt Hill
#
# Bulk Modulus (GPa) = 52.05063 68.17386 60.11224
# Shear Modulus (GPa) = 29.27780 37.23307 33.25543
#
# Velocity S-wave (km/s) = 3.57643 4.03316 3.81164
# Velocity P-wave (km/s) = 6.30827 7.17441 6.75524
#
# Compressibility (1/GPa) = 0.01921206
#
# Stress axis : x y z
#
# Youngs Moduli (GPa) = 74.28020 90.00303 69.88918
#
# Poissons Ratio (x) = 0.26338 0.18430
# Poissons Ratio (y) = 0.21737 0.29852
# Poissons Ratio (z) = 0.19588 0.38444
#
# Static dielectric constant tensor:
#      x y z
#    x 1.939090 -0.104870 -0.016580 
#    y -0.104870 1.922490 0.015270 
#    z -0.016580 0.015270 1.922570 
# 
# From -- ./inp_files/397726.got.cif
#   From: 2010.05.17/outbox.cif.g08.bks.cpg/sg2_199_cif.got.tgz:397726.got - 2010.06.03 11:33:40.
