data_PCOD9003839
_publ_section_title
;
Structure prediction by ZEFSAII (Michael W. Deem and Ramdas Pophale) SiO2 
 PCOD9003839
Probable space group: P -1
;
_chemical_formula_sum "Si O2"
_cell_formula_units_Z 14
_cell_length_a 8.645714
_cell_length_b 5.400761
_cell_length_c 21.669921
_cell_angle_alpha 66.402666
_cell_angle_beta 136.918596
_cell_angle_gamma 95.716890
_cell_volume 602.552710
_symmetry_space_group_name_H-M "P -1"
_symmetry_group_IT_number 2
_symmetry_cell_setting 'triclinic'
loop_
_space_group_symop_operation_xyz
x,y,z
-x,-y,-z
loop_
_atom_site_type_symbol
_atom_site_label
_atom_site_fract_x
_atom_site_fract_y
_atom_site_fract_z
Si Si1 0.447027 0.645102 0.226313
Si Si2 0.706139 0.765660 0.548695
Si Si3 0.740253 0.698771 0.889152
Si Si4 0.141512 0.310933 0.756704
Si Si5 0.641688 0.358156 0.116777
Si Si6 0.965385 0.915357 0.428637
Si Si7 0.370276 0.339661 0.599304
O O1 0.331878 0.433257 0.180472
O O2 0.685659 0.642278 0.255047
O O3 0.484752 0.551107 0.318667
O O4 0.279946 0.970188 0.147699
O O5 0.585927 0.762105 0.447144
O O6 0.856701 0.452585 0.647118
O O7 0.500000 0.000000 0.500000
O O8 0.935505 0.881635 0.602694
O O9 0.557968 0.659714 0.891128
O O10 0.000000 0.500000 0.000000
O O11 0.217348 0.452082 0.825911
O O12 0.201845 0.970621 0.815548
O O13 0.500000 0.500000 0.000000
O O14 0.137101 0.606903 0.494082
O O15 0.703629 0.892376 0.357027
O O16 0.000000 0.000000 0.500000
#
# Coordination Sequence:
#
# PCOD9003839 Si02
#       7
#     2   2   2   2   2   2   2
#     4  10  21  37  68  95 125 168 219 264 326 395
#     4  11  25  41  60  92 143 178 219 273 335 391
#     4  10  22  40  64  96 130 158 204 280 341 387
#     4  10  22  40  67  96 125 179 221 264 328 398
#     4  10  22  43  69  93 125 167 223 272 328 398
#     4   9  19  35  61  84 124 161 217 265 309 377
#     4  10  21  37  62  93 121 172 225 265 314 395
#
# _framework density 23.234482
#
# number of rings (size 3 to 8) (size 9 to 14) (size 15 to 20)
#    0.000    2.000    0.000    3.429   12.000    0.571 
#    2.571    0.000    0.000    0.000    0.000    0.000 
#    0.000    0.000    0.000    0.000    0.000    0.000 
#
# Total GULP energy -78075.605884 kJ/mol
# GULP energy per Si atom -5576.828992 kJ/mol
# Density = 2.318160 g / cm^3
# Si number density = 23.234482 Si / 1000 Ang^3
#
#
#
# Elastic Constant Matrix: (Units=GPa)
#
#
# Indices 1 2 3 4 5 6 
#
# 1 32.5213 54.5802 41.2594 1.6742 -5.9012 -23.3013
# 2 54.5802 188.4894 85.7601 -5.1711 -1.3519 -38.8931
# 3 41.2594 85.7601 144.6938 -7.4885 -9.2949 -31.2695
# 4 1.6742 -5.1711 -7.4885 51.4132 -19.7678 -3.3350
# 5 -5.9012 -1.3519 -9.2949 -19.7678 28.3949 7.5500
# 6 -23.3013 -38.8931 -31.2695 -3.3350 7.5500 45.9557
#
#
#
# Elastic Compliance Matrix: (Units=1/GPa)
#
#
# Indices 1 2 3 4 5 6 
#
# 1 0.089345 -0.016358 -0.010452 -0.001932 0.006888 0.023073
# 2 -0.016358 0.010985 -0.002036 -0.000040 -0.003627 0.000210
# 3 -0.010452 -0.002036 0.011615 0.003274 0.003675 0.000514
# 4 -0.001932 -0.000040 0.003274 0.027645 0.019928 -0.000053
# 5 0.006888 -0.003627 0.003675 0.019928 0.052693 -0.004287
# 6 0.023073 0.000210 0.000514 -0.000053 -0.004287 0.034687
#
#
# Mechanical properties :
#
#
# Convention : Reuss Voigt Hill
#
# Bulk Modulus (GPa) = 18.43263 80.98929 49.71096
# Shear Modulus (GPa) = 16.51558 37.42641 26.97099
#
# Velocity S-wave (km/s) = 2.66902 4.01785 3.41077
# Velocity P-wave (km/s) = 4.17717 7.51380 6.07889
#
# Compressibility (1/GPa) = 0.05425163
#
# Stress axis : x y z
#
# Youngs Moduli (GPa) = 11.19261 91.03693 86.09700
#
# Poissons Ratio (x) = 1.48920 0.89991
# Poissons Ratio (y) = 0.18309 0.17526
# Poissons Ratio (z) = 0.11699 0.18532
#
# Static dielectric constant tensor:
#      x y z
#    x 1.543840 0.156610 0.223350 
#    y 0.156610 1.961370 -0.038270 
#    z 0.223350 -0.038270 1.800280 
# 
# From -- ./inp_files/323836.got.cif
#   From: 2010.05.17/outbox.cif.g08.bks.cpg/sg2_162_cif.got.tgz:323836.got - 2010.06.03 11:33:40.
