data_PCOD9003769
_publ_section_title
;
Structure prediction by ZEFSAII (Michael W. Deem and Ramdas Pophale) SiO2 
 PCOD9003769
Probable space group: P -1
;
_chemical_formula_sum "Si O2"
_cell_formula_units_Z 16
_cell_length_a 19.198363
_cell_length_b 10.724616
_cell_length_c 8.802226
_cell_angle_alpha 52.237479
_cell_angle_beta 127.980276
_cell_angle_gamma 144.953608
_cell_volume 796.362899
_symmetry_space_group_name_H-M "P -1"
_symmetry_group_IT_number 2
_symmetry_cell_setting 'triclinic'
loop_
_space_group_symop_operation_xyz
x,y,z
-x,-y,-z
loop_
_atom_site_type_symbol
_atom_site_label
_atom_site_fract_x
_atom_site_fract_y
_atom_site_fract_z
Si Si1 0.330219 0.739493 0.407213
Si Si2 0.898134 0.003672 0.311767
Si Si3 0.313240 0.311621 0.980143
Si Si4 0.474721 0.215441 0.212734
Si Si5 0.108174 0.722910 0.687666
Si Si6 0.117623 0.430286 0.123031
Si Si7 0.136253 0.249953 0.996980
Si Si8 0.831989 0.394584 0.427627
O O1 0.435137 0.740085 0.569202
O O2 0.207663 0.530888 0.311708
O O3 0.376849 0.222505 0.127581
O O4 0.395110 0.965822 0.237494
O O5 0.861351 0.067647 0.357295
O O6 0.976267 0.216771 0.144327
O O7 0.000000 0.000000 0.500000
O O8 0.780823 0.792439 0.213921
O O9 0.282765 0.737146 0.511327
O O10 0.233181 0.244667 0.071103
O O11 0.572690 0.420438 0.077900
O O12 0.851872 0.586535 0.224392
O O13 0.176613 0.751413 0.604111
O O14 0.960392 0.530267 0.591566
O O15 0.129769 0.615006 0.922450
O O16 0.157355 0.349059 0.115907
O O17 0.000000 0.000000 0.000000
#
# Coordination Sequence:
#
# PCOD9003769 Si02
#       8
#     2   2   2   2   2   2   2   2
#     4  11  21  43  66  88 120 168 220 255 304 362
#     4  12  22  36  64  95 132 159 199 266 321 374
#     4  11  22  41  62  91 125 169 213 246 316 376
#     4  10  24  40  67  83 119 177 219 252 290 377
#     4  10  22  36  58  98 125 158 196 255 325 375
#     4  11  23  37  64  98 124 160 206 264 319 371
#     4  11  22  39  62  98 134 162 194 261 334 377
#     4  10  21  37  62  88 133 159 202 253 313 382
#
# _framework density 20.091342999999998
#
# number of rings (size 3 to 8) (size 9 to 14) (size 15 to 20)
#    0.000    1.250    3.750    2.625    1.750    1.000 
#    0.000    1.250   11.000    0.000    0.000    0.000 
#    0.000    0.000    0.000    0.000    0.000    0.000 
#
# Total GULP energy -89373.681053 kJ/mol
# GULP energy per Si atom -5585.855066 kJ/mol
# Density = 2.004561 g / cm^3
# Si number density = 20.091343 Si / 1000 Ang^3
#
#
#
# Elastic Constant Matrix: (Units=GPa)
#
#
# Indices 1 2 3 4 5 6 
#
# 1 135.7746 34.1120 33.9980 14.0892 -1.0424 4.2037
# 2 34.1120 66.8801 7.8087 -6.2688 -5.6346 5.7309
# 3 33.9980 7.8087 45.9803 4.4820 3.4217 2.3070
# 4 14.0892 -6.2688 4.4820 18.0157 -2.5375 3.8343
# 5 -1.0424 -5.6346 3.4217 -2.5375 25.0468 7.4340
# 6 4.2037 5.7309 2.3070 3.8343 7.4340 26.8400
#
#
#
# Elastic Compliance Matrix: (Units=1/GPa)
#
#
# Indices 1 2 3 4 5 6 
#
# 1 0.011608 -0.006475 -0.006440 -0.010425 -0.001773 0.002098
# 2 -0.006475 0.021176 -0.000549 0.015478 0.008521 -0.008031
# 3 -0.006440 -0.000549 0.027174 -0.002635 -0.004493 0.000411
# 4 -0.010425 0.015478 -0.002635 0.075502 0.016003 -0.016664
# 5 -0.001773 0.008521 -0.004493 0.016003 0.049058 -0.017030
# 6 0.002098 -0.008031 0.000411 -0.016664 -0.017030 0.045706
#
#
# Mechanical properties :
#
#
# Convention : Reuss Voigt Hill
#
# Bulk Modulus (GPa) = 30.27556 44.49693 37.38624
# Shear Modulus (GPa) = 18.64550 25.49491 22.07021
#
# Velocity S-wave (km/s) = 3.04967 3.56610 3.31795
# Velocity P-wave (km/s) = 5.24427 6.25711 5.77295
#
# Compressibility (1/GPa) = 0.03302995
#
# Stress axis : x y z
#
# Youngs Moduli (GPa) = 86.14920 47.22431 36.79960
#
# Poissons Ratio (x) = 0.30577 0.23701
# Poissons Ratio (y) = 0.55780 0.02019
# Poissons Ratio (z) = 0.55484 0.02590
#
# Static dielectric constant tensor:
#      x y z
#    x 1.716710 -0.018550 0.013110 
#    y -0.018550 1.687290 -0.035690 
#    z 0.013110 -0.035690 1.728470 
# 
# From -- ./inp_files/345969.got.cif
#   From: 2010.05.17/outbox.cif.g08.bks.cpg/sg2_173_cif.got.tgz:345969.got - 2010.06.03 11:33:40.
