data_PCOD9003991
_publ_section_title
;
Structure prediction by ZEFSAII (Michael W. Deem and Ramdas Pophale) SiO2 
 PCOD9003991
Probable space group: P -1
;
_chemical_formula_sum "Si O2"
_cell_formula_units_Z 16
_cell_length_a 11.090927
_cell_length_b 9.072242
_cell_length_c 27.651121
_cell_angle_alpha 31.933900
_cell_angle_beta 25.902273
_cell_angle_gamma 43.095573
_cell_volume 636.202376
_symmetry_space_group_name_H-M "P -1"
_symmetry_group_IT_number 2
_symmetry_cell_setting 'triclinic'
loop_
_space_group_symop_operation_xyz
x,y,z
-x,-y,-z
loop_
_atom_site_type_symbol
_atom_site_label
_atom_site_fract_x
_atom_site_fract_y
_atom_site_fract_z
Si Si1 0.828730 0.665963 0.754096
Si Si2 0.523510 0.665772 0.764726
Si Si3 0.180772 0.908805 0.890788
Si Si4 0.139149 0.655597 0.076369
Si Si5 0.425454 0.790473 0.467180
Si Si6 0.787453 0.325267 0.690742
Si Si7 0.777790 0.089573 0.341087
Si Si8 0.697438 0.280278 0.627346
O O1 0.725398 0.480523 0.889213
O O2 0.158431 0.674810 0.627725
O O3 0.689651 0.590479 0.773472
O O4 0.810600 0.991049 0.676481
O O5 0.229254 0.732511 0.874993
O O6 0.558543 0.416602 0.784216
O O7 0.645500 0.967249 0.612249
O O8 0.912910 0.043289 0.965825
O O9 0.411641 0.187772 0.728858
O O10 0.261102 0.740307 0.956039
O O11 0.878577 0.420016 0.220655
O O12 0.500000 0.500000 0.500000
O O13 0.665483 0.971314 0.362600
O O14 0.690159 0.398368 0.651413
O O15 0.075228 0.533793 0.538142
O O16 0.927111 0.038440 0.722199
O O17 0.500000 0.000000 0.500000
#
# Coordination Sequence:
#
# PCOD9003991 Si02
#       8
#     2   2   2   2   2   2   2   2
#     4  11  21  39  63  92 130 164 217 266 315 389
#     4  11  25  40  63  99 131 173 210 267 336 384
#     4  10  25  42  70  89 130 179 220 267 323 395
#     4  11  23  46  66  97 125 171 233 266 316 391
#     4  12  24  38  63  98 135 168 206 267 338 390
#     4  11  22  39  61  99 137 161 217 273 328 379
#     4  12  24  40  68  97 128 168 221 274 321 384
#     4  10  21  37  63  92 126 172 208 263 322 385
#
# _framework density 25.149232000000001
#
# number of rings (size 3 to 8) (size 9 to 14) (size 15 to 20)
#    0.000    1.000    3.750    2.625    8.750    2.000 
#    0.000    1.250    2.750    0.000    0.000    0.000 
#    0.000    0.000    0.000    0.000    0.000    0.000 
#
# Total GULP energy -89243.179984 kJ/mol
# GULP energy per Si atom -5577.698749 kJ/mol
# Density = 2.509199 g / cm^3
# Si number density = 25.149232 Si / 1000 Ang^3
#
#
#
# Elastic Constant Matrix: (Units=GPa)
#
#
# Indices 1 2 3 4 5 6 
#
# 1 79.6981 28.6934 12.0395 -14.8271 6.4111 12.5590
# 2 28.6934 149.8307 31.2662 6.4874 15.6851 17.9700
# 3 12.0395 31.2662 74.9538 0.7915 10.9226 8.5455
# 4 -14.8271 6.4874 0.7915 27.5863 9.1648 18.5205
# 5 6.4111 15.6851 10.9226 9.1648 41.3961 -12.9810
# 6 12.5590 17.9700 8.5455 18.5205 -12.9810 40.4061
#
#
#
# Elastic Compliance Matrix: (Units=1/GPa)
#
#
# Indices 1 2 3 4 5 6 
#
# 1 0.042841 0.000260 0.007556 0.087329 -0.050404 -0.071250
# 2 0.000260 0.008442 -0.001658 0.006202 -0.006848 -0.008527
# 3 0.007556 -0.001658 0.017723 0.024998 -0.017821 -0.022543
# 4 0.087329 0.006202 0.024998 0.266173 -0.145332 -0.203881
# 5 -0.050404 -0.006848 -0.017821 -0.145332 0.110506 0.124597
# 6 -0.071250 -0.008527 -0.022543 -0.203881 0.124597 0.188933
#
#
# Mechanical properties :
#
#
# Convention : Reuss Voigt Hill
#
# Bulk Modulus (GPa) = 12.29701 49.83119 31.06410
# Shear Modulus (GPa) = 7.69930 37.37662 22.53796
#
# Velocity S-wave (km/s) = 1.75160 3.85930 2.99686
# Velocity P-wave (km/s) = 2.99850 6.30207 4.93493
#
# Compressibility (1/GPa) = 0.08132057
#
# Stress axis : x y z
#
# Youngs Moduli (GPa) = 23.34194 118.46115 56.42479
#
# Poissons Ratio (x) = -0.03075 -0.42636
# Poissons Ratio (y) = -0.00606 0.09358
# Poissons Ratio (z) = -0.17638 0.19646
#
# Static dielectric constant tensor:
#      x y z
#    x 2.058300 -0.050670 0.011070 
#    y -0.050670 2.156290 0.074630 
#    z 0.011070 0.074630 1.998490 
# 
# From -- ./inp_files/283172.got.cif
#   From: 2010.05.17/outbox.cif.g08.bks.cpg/sg2_142_cif.got.tgz:283172.got - 2010.06.03 11:33:40.
