data_PCOD9003412
_publ_section_title
;
Structure prediction by ZEFSAII (Michael W. Deem and Ramdas Pophale) SiO2 
 PCOD9003412
Probable space group: P -1
;
_chemical_formula_sum "Si O2"
_cell_formula_units_Z 16
_cell_length_a 14.661905
_cell_length_b 7.953607
_cell_length_c 15.302392
_cell_angle_alpha 81.080776
_cell_angle_beta 127.030494
_cell_angle_gamma 140.853537
_cell_volume 706.265472
_symmetry_space_group_name_H-M "P -1"
_symmetry_group_IT_number 2
_symmetry_cell_setting 'triclinic'
loop_
_space_group_symop_operation_xyz
x,y,z
-x,-y,-z
loop_
_atom_site_type_symbol
_atom_site_label
_atom_site_fract_x
_atom_site_fract_y
_atom_site_fract_z
Si Si1 0.437224 0.574899 0.632923
Si Si2 0.198577 0.529273 0.620402
Si Si3 0.628916 0.533802 0.852234
Si Si4 0.060941 0.760217 0.199583
Si Si5 0.620915 0.327663 0.581040
Si Si6 0.820345 0.168428 0.543071
Si Si7 0.443429 0.897260 0.076112
Si Si8 0.953151 0.850368 0.861461
O O1 0.281738 0.481471 0.615107
O O2 0.464808 0.430668 0.706534
O O3 0.338672 0.486648 0.487788
O O4 0.704936 0.975497 0.738997
O O5 0.174932 0.653964 0.526890
O O6 0.967120 0.225572 0.566878
O O7 0.396076 0.809341 0.783920
O O8 0.513324 0.246256 0.868439
O O9 0.793763 0.644283 0.871766
O O10 0.794301 0.860221 0.981775
O O11 0.072157 0.692751 0.308277
O O12 0.052660 0.957563 0.187839
O O13 0.825394 0.408468 0.045706
O O14 0.848008 0.596478 0.746721
O O15 0.500000 0.000000 0.500000
O O16 0.443642 0.190057 0.555398
O O17 0.500000 0.000000 0.000000
#
# Coordination Sequence:
#
# PCOD9003412 Si02
#       8
#     2   2   2   2   2   2   2   2
#     4  10  22  39  60  98 127 156 205 264 310 365
#     4  11  22  38  60  88 128 161 207 254 309 366
#     4   9  20  39  63  95 124 162 212 249 316 371
#     4   9  20  39  64  92 122 156 212 248 313 373
#     4  11  21  38  63  96 127 157 210 260 310 360
#     4  10  21  37  60  85 125 168 201 247 306 378
#     4  11  21  39  65  91 120 170 210 252 310 376
#     4   9  19  38  65  92 126 162 200 261 309 377
#
# _framework density 22.65437
#
# number of rings (size 3 to 8) (size 9 to 14) (size 15 to 20)
#    0.000    2.000    2.500    1.500    0.000    6.000 
#    4.500    0.625    2.750    9.750    0.000    0.000 
#    0.000    0.000    0.000    0.000    0.000    0.000 
#
# Total GULP energy -89307.414638 kJ/mol
# GULP energy per Si atom -5581.713415 kJ/mol
# Density = 2.260281 g / cm^3
# Si number density = 22.654370 Si / 1000 Ang^3
#
#
#
# Elastic Constant Matrix: (Units=GPa)
#
#
# Indices 1 2 3 4 5 6 
#
# 1 93.5662 21.3031 17.1906 -2.8042 2.0856 21.7453
# 2 21.3031 86.0594 27.6236 -38.8981 -14.5778 11.4776
# 3 17.1906 27.6236 141.2157 -6.9885 -18.2796 0.0674
# 4 -2.8042 -38.8981 -6.9885 47.1931 0.7269 1.5374
# 5 2.0856 -14.5778 -18.2796 0.7269 23.5134 2.1712
# 6 21.7453 11.4776 0.0674 1.5374 2.1712 24.1631
#
#
#
# Elastic Compliance Matrix: (Units=1/GPa)
#
#
# Indices 1 2 3 4 5 6 
#
# 1 0.014214 -0.002425 -0.001688 -0.000990 -0.003003 -0.011302
# 2 -0.002425 0.027674 -0.001856 0.022589 0.016513 -0.013878
# 3 -0.001688 -0.001856 0.008308 -0.000545 0.005295 0.001937
# 4 -0.000990 0.022589 -0.000545 0.039901 0.013692 -0.013606
# 5 -0.003003 0.016513 0.005295 0.013692 0.057762 -0.011217
# 6 -0.011302 -0.013878 0.001937 -0.013606 -0.011217 0.060017
#
#
# Mechanical properties :
#
#
# Convention : Reuss Voigt Hill
#
# Bulk Modulus (GPa) = 26.13976 50.34177 38.24077
# Shear Modulus (GPa) = 21.49923 35.95552 28.72738
#
# Velocity S-wave (km/s) = 3.08394 3.98821 3.56486
# Velocity P-wave (km/s) = 4.92387 6.59376 5.81903
#
# Compressibility (1/GPa) = 0.03825590
#
# Stress axis : x y z
#
# Youngs Moduli (GPa) = 70.35358 36.13506 120.37259
#
# Poissons Ratio (x) = 0.08764 0.20321
# Poissons Ratio (y) = 0.17064 0.22343
# Poissons Ratio (z) = 0.11877 0.06707
#
# Static dielectric constant tensor:
#      x y z
#    x 1.849700 -0.038010 -0.013270 
#    y -0.038010 1.888550 0.038870 
#    z -0.013270 0.038870 1.863790 
# 
# From -- ./inp_files/528624.got.cif
#   From: 2010.05.17/outbox.cif.g08.bks.cpg/sg2_265_cif.got.tgz:528624.got - 2010.06.03 11:33:40.
