data_PCOD9004474
_publ_section_title
;
Structure prediction by ZEFSAII (Michael W. Deem and Ramdas Pophale) SiO2 
 PCOD9004474
Probable space group: P -1
;
_chemical_formula_sum "Si O2"
_cell_formula_units_Z 16
_cell_length_a 18.616725
_cell_length_b 25.123319
_cell_length_c 16.548445
_cell_angle_alpha 161.858928
_cell_angle_beta 27.628200
_cell_angle_gamma 160.803785
_cell_volume 787.384932
_symmetry_space_group_name_H-M "P -1"
_symmetry_group_IT_number 2
_symmetry_cell_setting 'triclinic'
loop_
_space_group_symop_operation_xyz
x,y,z
-x,-y,-z
loop_
_atom_site_type_symbol
_atom_site_label
_atom_site_fract_x
_atom_site_fract_y
_atom_site_fract_z
Si Si1 0.466341 0.656946 0.298457
Si Si2 0.625982 0.824825 0.622985
Si Si3 0.548197 0.977396 0.223233
Si Si4 0.001305 0.614318 0.580619
Si Si5 0.366404 0.241713 0.303083
Si Si6 0.940008 0.500435 0.966927
Si Si7 0.818034 0.350410 0.219642
Si Si8 0.905626 0.995361 0.450979
O O1 0.225193 0.458994 0.293373
O O2 0.457164 0.822222 0.492720
O O3 0.688564 0.857888 0.417135
O O4 0.500000 0.500000 0.000000
O O5 0.571149 0.695087 0.574451
O O6 0.401979 0.708616 0.635632
O O7 0.793054 0.848136 0.434619
O O8 0.742586 0.094700 0.920283
O O9 0.312308 0.736905 0.142716
O O10 0.571673 0.890800 0.990570
O O11 0.766458 0.106682 0.243375
O O12 0.975008 0.496273 0.351094
O O13 0.000000 0.500000 0.500000
O O14 0.500000 0.500000 0.500000
O O15 0.099078 0.042278 0.282848
O O16 0.082190 0.528394 0.793374
O O17 0.000000 0.500000 0.000000
O O18 0.982359 0.734605 0.256386
#
# Coordination Sequence:
#
# PCOD9004474 Si02
#       8
#     2   2   2   2   2   2   2   2
#     4  11  22  39  65  95 124 172 222 268 326 397
#     4  10  21  38  64  94 135 166 219 286 327 388
#     4  11  23  41  64  92 137 170 220 267 331 394
#     4  10  21  39  63  93 129 173 215 268 329 395
#     4  12  24  39  65  98 133 175 216 275 337 394
#     4  11  21  38  67 100 131 175 220 273 338 394
#     4  10  21  37  67  98 127 175 224 270 336 393
#     4  11  22  39  64  98 133 165 225 273 335 393
#
# _framework density 20.320429000000001
#
# number of rings (size 3 to 8) (size 9 to 14) (size 15 to 20)
#    0.000    1.250    3.750    3.375    1.750    1.500 
#    0.000    0.000    2.750    1.500    0.000    0.000 
#    0.000    0.000    0.000    0.000    0.000    0.000 
#
# Total GULP energy -89159.756336 kJ/mol
# GULP energy per Si atom -5572.484771 kJ/mol
# Density = 2.027418 g / cm^3
# Si number density = 20.320429 Si / 1000 Ang^3
#
#
#
# Elastic Constant Matrix: (Units=GPa)
#
#
# Indices 1 2 3 4 5 6 
#
# 1 81.4447 34.4777 14.4007 5.8181 15.5060 -6.5297
# 2 34.4777 147.7623 48.8124 0.9617 8.2065 8.5063
# 3 14.4007 48.8124 67.5113 2.3640 2.0369 -2.1853
# 4 5.8181 0.9617 2.3640 39.4229 8.9825 7.9302
# 5 15.5060 8.2065 2.0369 8.9825 26.6334 3.9175
# 6 -6.5297 8.5063 -2.1853 7.9302 3.9175 43.9069
#
#
#
# Elastic Compliance Matrix: (Units=1/GPa)
#
#
# Indices 1 2 3 4 5 6 
#
# 1 0.015721 -0.003220 -0.000611 -0.001089 -0.008316 0.003870
# 2 -0.003220 0.009893 -0.006587 0.001375 -0.000705 -0.002909
# 3 -0.000611 -0.006587 0.019807 -0.001661 0.001081 0.002375
# 4 -0.001089 0.001375 -0.001661 0.028530 -0.008564 -0.004900
# 5 -0.008316 -0.000705 0.001081 -0.008564 0.045941 -0.003598
# 6 0.003870 -0.002909 0.002375 -0.004900 -0.003598 0.025239
#
#
# Mechanical properties :
#
#
# Convention : Reuss Voigt Hill
#
# Bulk Modulus (GPa) = 40.67476 54.67778 47.67627
# Shear Modulus (GPa) = 28.70926 35.26116 31.98521
#
# Velocity S-wave (km/s) = 3.76284 4.17016 3.97172
# Velocity P-wave (km/s) = 6.24009 7.08189 6.67428
#
# Compressibility (1/GPa) = 0.02458527
#
# Stress axis : x y z
#
# Youngs Moduli (GPa) = 63.61031 101.08619 50.48632
#
# Poissons Ratio (x) = 0.32552 0.03084
# Poissons Ratio (y) = 0.20484 0.33254
# Poissons Ratio (z) = 0.03885 0.66582
#
# Static dielectric constant tensor:
#      x y z
#    x 1.787290 0.004710 0.010140 
#    y 0.004710 1.771350 -0.044560 
#    z 0.010140 -0.044560 1.720850 
# 
# From -- ./inp_files/398557.got.cif
#   From: 2010.05.17/outbox.cif.g08.bks.cpg/sg2_200_cif.got.tgz:398557.got - 2010.06.03 11:33:40.
