data_PCOD9004740
_publ_section_title
;
Structure prediction by ZEFSAII (Michael W. Deem and Ramdas Pophale) SiO2 
 PCOD9004740
Probable space group: P -1
;
_chemical_formula_sum "Si O2"
_cell_formula_units_Z 16
_cell_length_a 5.799925
_cell_length_b 8.175882
_cell_length_c 18.022489
_cell_angle_alpha 86.597600
_cell_angle_beta 52.835854
_cell_angle_gamma 90.257307
_cell_volume 678.976300
_symmetry_space_group_name_H-M "P -1"
_symmetry_group_IT_number 2
_symmetry_cell_setting 'triclinic'
loop_
_space_group_symop_operation_xyz
x,y,z
-x,-y,-z
loop_
_atom_site_type_symbol
_atom_site_label
_atom_site_fract_x
_atom_site_fract_y
_atom_site_fract_z
Si Si1 0.394811 0.423672 0.927453
Si Si2 0.013470 0.445396 0.414351
Si Si3 0.906806 0.186450 0.850937
Si Si4 0.699778 0.921188 0.777717
Si Si5 0.774035 0.296792 0.331012
Si Si6 0.750441 0.912838 0.600637
Si Si7 0.181648 0.766527 0.968137
Si Si8 0.409542 0.426119 0.751683
O O1 0.692034 0.334890 0.877494
O O2 0.355794 0.604351 0.962008
O O3 0.344418 0.451982 0.849117
O O4 0.123905 0.300259 0.004822
O O5 0.137821 0.266788 0.401729
O O6 0.247501 0.570783 0.327329
O O7 0.000000 0.500000 0.500000
O O8 0.756225 0.403555 0.407315
O O9 0.228221 0.261256 0.770298
O O10 0.816747 0.048142 0.813465
O O11 0.873445 0.140256 0.946020
O O12 0.710139 0.984796 0.689094
O O13 0.379177 0.864583 0.868080
O O14 0.906925 0.767045 0.742496
O O15 0.556905 0.134657 0.377647
O O16 0.699631 0.421258 0.277470
O O17 0.000000 0.000000 0.500000
#
# Coordination Sequence:
#
# PCOD9004740 Si02
#       8
#     2   2   2   2   2   2   2   2
#     4  10  21  38  61  88 120 159 206 251 293 354
#     4  10  22  38  62  91 118 152 200 254 301 355
#     4  11  23  36  60  91 124 162 199 248 302 355
#     4  11  24  40  60  89 124 162 201 247 301 361
#     4  10  22  42  64  85 119 161 199 244 302 358
#     4  10  24  41  61  89 120 159 200 244 302 362
#     4  10  21  38  58  87 121 161 207 245 298 359
#     4  10  21  39  61  89 119 158 204 246 299 356
#
# _framework density 23.564883999999999
#
# number of rings (size 3 to 8) (size 9 to 14) (size 15 to 20)
#    0.000    1.750    0.000    4.500    0.000   13.500 
#    0.000    0.000    0.000    0.000    0.000    0.000 
#    0.000    0.000    0.000    0.000    0.000    0.000 
#
# Total GULP energy -89417.578897 kJ/mol
# GULP energy per Si atom -5588.598681 kJ/mol
# Density = 2.351125 g / cm^3
# Si number density = 23.564884 Si / 1000 Ang^3
#
#
#
# Elastic Constant Matrix: (Units=GPa)
#
#
# Indices 1 2 3 4 5 6 
#
# 1 56.7275 11.0663 35.5374 1.0170 8.5955 18.3492
# 2 11.0663 67.4514 51.8088 13.3001 9.4318 29.3495
# 3 35.5374 51.8088 158.4097 -23.7078 6.1275 46.1665
# 4 1.0170 13.3001 -23.7078 39.0603 13.9607 -3.3401
# 5 8.5955 9.4318 6.1275 13.9607 26.2794 3.8754
# 6 18.3492 29.3495 46.1665 -3.3401 3.8754 49.5641
#
#
#
# Elastic Compliance Matrix: (Units=1/GPa)
#
#
# Indices 1 2 3 4 5 6 
#
# 1 0.022789 0.004352 -0.005182 -0.004038 -0.004765 -0.006087
# 2 0.004352 0.030437 -0.010449 -0.018308 0.001474 -0.011251
# 3 -0.005182 -0.010449 0.014240 0.013627 -0.004541 -0.003884
# 4 -0.004038 -0.018308 0.013627 0.048340 -0.021643 0.004593
# 5 -0.004765 0.001474 -0.004541 -0.021643 0.051695 -0.000379
# 6 -0.006087 -0.011251 -0.003884 0.004593 -0.000379 0.033049
#
#
# Mechanical properties :
#
#
# Convention : Reuss Voigt Hill
#
# Bulk Modulus (GPa) = 22.26793 53.26820 37.76806
# Shear Modulus (GPa) = 21.00181 35.25915 28.13048
#
# Velocity S-wave (km/s) = 2.98859 3.87235 3.45881
# Velocity P-wave (km/s) = 4.62375 6.53050 5.65802
#
# Compressibility (1/GPa) = 0.04490763
#
# Stress axis : x y z
#
# Youngs Moduli (GPa) = 43.88170 32.85524 70.22555
#
# Poissons Ratio (x) = -0.14300 0.36391
# Poissons Ratio (y) = -0.19099 0.73379
# Poissons Ratio (z) = 0.22739 0.34331
#
# Static dielectric constant tensor:
#      x y z
#    x 2.055090 0.076110 0.006560 
#    y 0.076110 1.926010 0.001890 
#    z 0.006560 0.001890 1.916520 
# 
# From -- ./inp_files/39184.got.cif
#   From: 2010.05.17/outbox.cif.g08.bks.cpg/sg2_20_cif.got.tgz:39184.got - 2010.06.03 11:33:40.
