data_PCOD9004627
_publ_section_title
;
Structure prediction by ZEFSAII (Michael W. Deem and Ramdas Pophale) SiO2 
 PCOD9004627
Probable space group: P -1
;
_chemical_formula_sum "Si O2"
_cell_formula_units_Z 16
_cell_length_a 13.673598
_cell_length_b 7.060418
_cell_length_c 7.843535
_cell_angle_alpha 105.476097
_cell_angle_beta 83.294212
_cell_angle_gamma 79.484250
_cell_volume 706.487951
_symmetry_space_group_name_H-M "P -1"
_symmetry_group_IT_number 2
_symmetry_cell_setting 'triclinic'
loop_
_space_group_symop_operation_xyz
x,y,z
-x,-y,-z
loop_
_atom_site_type_symbol
_atom_site_label
_atom_site_fract_x
_atom_site_fract_y
_atom_site_fract_z
Si Si1 0.815378 0.868116 0.735558
Si Si2 0.331786 0.000954 0.889297
Si Si3 0.147889 0.587819 0.392490
Si Si4 0.055991 0.818333 0.130343
Si Si5 0.688332 0.248097 0.727915
Si Si6 0.135882 0.872028 0.775794
Si Si7 0.467830 0.196620 0.670768
Si Si8 0.585610 0.403575 0.098761
O O1 0.857258 0.639121 0.623085
O O2 0.902473 0.978627 0.798937
O O3 0.759124 0.025334 0.643708
O O4 0.732657 0.888728 0.910479
O O5 0.249941 0.903839 0.780471
O O6 0.421946 0.812120 0.879996
O O7 0.388195 0.143375 0.808586
O O8 0.093139 0.669528 0.244710
O O9 0.265920 0.595196 0.348852
O O10 0.115086 0.746734 0.586966
O O11 0.103416 0.757870 0.920738
O O12 0.936348 0.903452 0.164510
O O13 0.579037 0.218677 0.704602
O O14 0.685280 0.332310 0.943497
O O15 0.415734 0.435054 0.712123
O O16 0.500000 0.000000 0.500000
O O17 0.500000 0.500000 0.000000
#
# Coordination Sequence:
#
# PCOD9004627 Si02
#       8
#     2   2   2   2   2   2   2   2
#     4   9  20  37  60  85 110 145 193 238 281 343
#     4  10  21  38  56  80 115 152 189 233 286 338
#     4  11  20  37  63  86 113 153 191 233 290 337
#     4   9  21  42  58  84 121 148 188 237 285 345
#     4   9  20  36  54  81 112 144 187 235 278 335
#     4  10  21  39  61  84 118 153 186 238 289 337
#     4  11  22  34  52  80 111 146 191 235 276 333
#     4   9  20  37  56  76 107 152 189 230 284 332
#
# _framework density 22.647237000000001
#
# number of rings (size 3 to 8) (size 9 to 14) (size 15 to 20)
#    0.000    2.250    0.000    2.625    0.000    8.500 
#    0.000   11.875    0.000    0.000    0.000    0.000 
#    0.000    0.000    0.000    0.000    0.000    0.000 
#
# Total GULP energy -89083.644960 kJ/mol
# GULP energy per Si atom -5567.727810 kJ/mol
# Density = 2.259569 g / cm^3
# Si number density = 22.647237 Si / 1000 Ang^3
#
#
#
# Elastic Constant Matrix: (Units=GPa)
#
#
# Indices 1 2 3 4 5 6 
#
# 1 61.6704 9.2935 -12.9546 -5.7738 -5.7962 -11.6863
# 2 9.2935 61.6610 -4.6285 11.4711 1.7766 -7.8360
# 3 -12.9546 -4.6285 50.8002 11.0064 -3.7326 -3.3122
# 4 -5.7738 11.4711 11.0064 23.8197 -2.3939 -0.6204
# 5 -5.7962 1.7766 -3.7326 -2.3939 15.1884 -4.0540
# 6 -11.6863 -7.8360 -3.3122 -0.6204 -4.0540 23.5737
#
#
#
# Elastic Compliance Matrix: (Units=1/GPa)
#
#
# Indices 1 2 3 4 5 6 
#
# 1 0.022517 -0.002652 0.006276 0.005711 0.015057 0.013902
# 2 -0.002652 0.019900 0.003887 -0.012190 -0.002967 0.005015
# 3 0.006276 0.003887 0.025250 -0.010886 0.008883 0.009192
# 4 0.005711 -0.012190 -0.010886 0.055255 0.009740 0.000379
# 5 0.015057 -0.002967 0.008883 0.009740 0.081524 0.022002
# 6 0.013902 0.005015 0.009192 0.000379 0.022002 0.056064
#
#
# Mechanical properties :
#
#
# Convention : Reuss Voigt Hill
#
# Bulk Modulus (GPa) = 12.09358 17.50583 14.79970
# Shear Modulus (GPa) = 18.31151 24.67776 21.49464
#
# Velocity S-wave (km/s) = 2.84659 3.30458 3.08410
# Velocity P-wave (km/s) = 4.01941 4.72302 4.38535
#
# Compressibility (1/GPa) = 0.08268850
#
# Stress axis : x y z
#
# Youngs Moduli (GPa) = 44.40994 50.25188 39.60384
#
# Poissons Ratio (x) = 0.13328 -0.24855
# Poissons Ratio (y) = 0.11778 -0.15393
# Poissons Ratio (z) = -0.27872 -0.19532
#
# Static dielectric constant tensor:
#      x y z
#    x 1.842330 -0.059450 -0.021580 
#    y -0.059450 1.862630 0.012520 
#    z -0.021580 0.012520 1.998440 
# 
# From -- ./inp_files/206144.got.cif
#   From: 2010.05.17/outbox.cif.g08.bks.cpg/sg2_104_cif.got.tgz:206144.got - 2010.06.03 11:33:40.
