data_PCOD9004786
_publ_section_title
;
Structure prediction by ZEFSAII (Michael W. Deem and Ramdas Pophale) SiO2 
 PCOD9004786
Probable space group: P -1
;
_chemical_formula_sum "Si O2"
_cell_formula_units_Z 16
_cell_length_a 16.255332
_cell_length_b 5.689726
_cell_length_c 19.029654
_cell_angle_alpha 63.039735
_cell_angle_beta 34.511337
_cell_angle_gamma 50.816504
_cell_volume 763.821544
_symmetry_space_group_name_H-M "P -1"
_symmetry_group_IT_number 2
_symmetry_cell_setting 'triclinic'
loop_
_space_group_symop_operation_xyz
x,y,z
-x,-y,-z
loop_
_atom_site_type_symbol
_atom_site_label
_atom_site_fract_x
_atom_site_fract_y
_atom_site_fract_z
Si Si1 0.087993 0.984248 0.557331
Si Si2 0.441556 0.357164 0.238173
Si Si3 0.978418 0.858651 0.264994
Si Si4 0.736969 0.915814 0.695673
Si Si5 0.416399 0.299450 0.420920
Si Si6 0.172096 0.217116 0.201654
Si Si7 0.347272 0.781422 0.026449
Si Si8 0.640041 0.210423 0.398517
O O1 0.101304 0.128928 0.455750
O O2 0.255133 0.645368 0.488479
O O3 0.919651 0.966412 0.684334
O O4 0.086303 0.145006 0.609788
O O5 0.368062 0.720186 0.258491
O O6 0.469058 0.209651 0.315591
O O7 0.333242 0.239066 0.287588
O O8 0.593505 0.247746 0.091082
O O9 0.025033 0.545701 0.235898
O O10 0.156987 0.841507 0.147418
O O11 0.826829 0.142349 0.293202
O O12 0.758600 0.749540 0.777022
O O13 0.574298 0.267750 0.357635
O O14 0.364859 0.080331 0.526674
O O15 0.310370 0.064400 0.064997
O O16 0.500000 0.500000 0.000000
O O17 0.500000 0.500000 0.500000
#
# Coordination Sequence:
#
# PCOD9004786 Si02
#       8
#     2   2   2   2   2   2   2   2
#     4  10  21  38  58  99 133 164 213 272 342 403
#     4  11  25  43  64  96 132 179 225 271 320 398
#     4  11  23  38  65  95 129 172 224 276 327 397
#     4  11  24  39  65  93 136 176 218 268 337 394
#     4  10  22  39  66  95 130 167 210 280 343 397
#     4  11  23  38  63  92 135 175 221 272 325 394
#     4  11  24  43  63  92 134 184 230 263 318 387
#     4  11  21  40  69  97 128 164 218 275 350 401
#
# _framework density 20.947301
#
# number of rings (size 3 to 8) (size 9 to 14) (size 15 to 20)
#    0.000    1.250    3.750    1.875    7.000    1.500 
#    0.000    0.625    0.000    1.500    0.000    0.000 
#    0.000    0.000    0.000    0.000    0.000    0.000 
#
# Total GULP energy -89183.049495 kJ/mol
# GULP energy per Si atom -5573.940593 kJ/mol
# Density = 2.089962 g / cm^3
# Si number density = 20.947301 Si / 1000 Ang^3
#
#
#
# Elastic Constant Matrix: (Units=GPa)
#
#
# Indices 1 2 3 4 5 6 
#
# 1 131.4835 15.8609 44.7168 13.3234 8.7826 -2.0634
# 2 15.8609 59.1204 16.0608 23.1393 3.7761 3.3430
# 3 44.7168 16.0608 124.0628 18.7020 18.0087 1.4671
# 4 13.3234 23.1393 18.7020 30.3385 8.3191 0.0421
# 5 8.7826 3.7761 18.0087 8.3191 44.1978 2.9110
# 6 -2.0634 3.3430 1.4671 0.0421 2.9110 27.1873
#
#
#
# Elastic Compliance Matrix: (Units=1/GPa)
#
#
# Indices 1 2 3 4 5 6 
#
# 1 0.008868 -0.001199 -0.002829 -0.001139 -0.000359 0.001013
# 2 -0.001199 0.024669 -0.000185 -0.018703 0.001943 -0.003293
# 3 -0.002829 -0.000185 0.010127 -0.004105 -0.002747 -0.000438
# 4 -0.001139 -0.018703 -0.004105 0.052034 -0.006498 0.003050
# 5 -0.000359 0.001943 -0.002747 -0.006498 0.025057 -0.002791
# 6 0.001013 -0.003293 -0.000438 0.003050 -0.002791 0.037582
#
#
# Mechanical properties :
#
#
# Convention : Reuss Voigt Hill
#
# Bulk Modulus (GPa) = 28.37982 51.99375 40.18679
# Shear Modulus (GPa) = 28.00989 36.21327 32.11158
#
# Velocity S-wave (km/s) = 3.66069 4.16237 3.91956
# Velocity P-wave (km/s) = 5.60759 6.92644 6.30161
#
# Compressibility (1/GPa) = 0.03523630
#
# Stress axis : x y z
#
# Youngs Moduli (GPa) = 112.76972 40.53711 98.74722
#
# Poissons Ratio (x) = 0.04861 0.27937
# Poissons Ratio (y) = 0.13523 0.01828
# Poissons Ratio (z) = 0.31904 0.00750
#
# Static dielectric constant tensor:
#      x y z
#    x 1.869930 0.061550 -0.031900 
#    y 0.061550 1.836820 -0.010740 
#    z -0.031900 -0.010740 1.755130 
# 
# From -- ./inp_files/76648.got.cif
#   From: 2010.05.17/outbox.cif.g08.bks.cpg/sg2_39_cif.got.tgz:76648.got - 2010.06.03 11:33:40.
