data_PCOD9004311
_publ_section_title
;
Structure prediction by ZEFSAII (Michael W. Deem and Ramdas Pophale) SiO2 
 PCOD9004311
Probable space group: P -1
;
_chemical_formula_sum "Si O2"
_cell_formula_units_Z 16
_cell_length_a 11.497145
_cell_length_b 20.168253
_cell_length_c 6.802745
_cell_angle_alpha 112.317953
_cell_angle_beta 76.108479
_cell_angle_gamma 149.793619
_cell_volume 720.895103
_symmetry_space_group_name_H-M "P -1"
_symmetry_group_IT_number 2
_symmetry_cell_setting 'triclinic'
loop_
_space_group_symop_operation_xyz
x,y,z
-x,-y,-z
loop_
_atom_site_type_symbol
_atom_site_label
_atom_site_fract_x
_atom_site_fract_y
_atom_site_fract_z
Si Si1 0.353625 0.172630 0.553647
Si Si2 0.997969 0.123384 0.609532
Si Si3 0.830361 0.481711 0.815138
Si Si4 0.259447 0.153486 0.007063
Si Si5 0.750956 0.402166 0.222639
Si Si6 0.241252 0.392890 0.921377
Si Si7 0.804441 0.732076 0.695480
Si Si8 0.270556 0.455073 0.520245
O O1 0.194157 0.160729 0.563154
O O2 0.626666 0.334828 0.611779
O O3 0.320192 0.147907 0.774841
O O4 0.226563 0.033543 0.381883
O O5 0.073786 0.236092 0.812857
O O6 0.994944 0.144781 0.403541
O O7 0.083986 0.579055 0.775728
O O8 0.782465 0.436842 0.014964
O O9 0.812166 0.558344 0.896031
O O10 0.468992 0.245269 0.178352
O O11 0.242920 0.231214 0.084499
O O12 0.000000 0.000000 0.000000
O O13 0.826723 0.515285 0.423650
O O14 0.242491 0.418117 0.719264
O O15 0.500000 0.500000 0.000000
O O16 0.551594 0.602309 0.537763
O O17 0.834836 0.667438 0.686558
#
# Coordination Sequence:
#
# PCOD9004311 Si02
#       8
#     2   2   2   2   2   2   2   2
#     4  10  19  30  46  73  99 128 158 198 245 283
#     4  10  19  29  45  73 101 121 158 206 245 276
#     4   9  16  30  48  68  98 128 161 196 240 286
#     4  10  17  29  49  72  94 123 165 196 238 287
#     4   8  16  28  49  69  94 126 159 199 237 284
#     4  10  17  28  47  73  97 126 163 201 238 287
#     4   9  16  28  46  70  94 120 150 204 241 277
#     4   8  16  28  46  69  95 118 156 198 247 273
#
# _framework density 22.19463
#
# number of rings (size 3 to 8) (size 9 to 14) (size 15 to 20)
#    0.000    2.750    2.500    0.750    0.000    0.000 
#    0.000    0.000    2.750    6.750    0.000    0.875 
#    0.000    0.000    0.000    0.000    0.000    0.000 
#
# Total GULP energy -89249.786095 kJ/mol
# GULP energy per Si atom -5578.111631 kJ/mol
# Density = 2.214411 g / cm^3
# Si number density = 22.194630 Si / 1000 Ang^3
#
#
#
# Elastic Constant Matrix: (Units=GPa)
#
#
# Indices 1 2 3 4 5 6 
#
# 1 153.1537 62.6354 35.8419 27.1308 -27.2041 -3.8769
# 2 62.6354 117.8751 30.9252 33.6183 -17.6373 -14.6292
# 3 35.8419 30.9252 84.1448 27.5394 -22.3139 -4.7228
# 4 27.1308 33.6183 27.5394 31.9869 -12.5848 -6.4531
# 5 -27.2041 -17.6373 -22.3139 -12.5848 38.2980 -0.1256
# 6 -3.8769 -14.6292 -4.7228 -6.4531 -0.1256 35.9076
#
#
#
# Elastic Compliance Matrix: (Units=1/GPa)
#
#
# Indices 1 2 3 4 5 6 
#
# 1 0.009228 -0.003685 -0.001081 -0.001784 0.003638 -0.000955
# 2 -0.003685 0.013971 0.000334 -0.011008 0.000405 0.003361
# 3 -0.001081 0.000334 0.017832 -0.012534 0.005657 0.000132
# 4 -0.001784 -0.011008 -0.012534 0.058126 0.005474 0.004139
# 5 0.003638 0.000405 0.005657 0.005474 0.033984 0.002404
# 6 -0.000955 0.003361 0.000132 0.004139 0.002404 0.029885
#
#
# Mechanical properties :
#
#
# Convention : Reuss Voigt Hill
#
# Bulk Modulus (GPa) = 31.08840 68.21985 49.65413
# Shear Modulus (GPa) = 27.38027 36.28991 31.83509
#
# Velocity S-wave (km/s) = 3.51614 4.04799 3.79140
# Velocity P-wave (km/s) = 5.52466 7.25618 6.44880
#
# Compressibility (1/GPa) = 0.03216634
#
# Stress axis : x y z
#
# Youngs Moduli (GPa) = 108.37099 71.57477 56.07933
#
# Poissons Ratio (x) = 0.26375 0.06062
# Poissons Ratio (y) = 0.39934 -0.01871
# Poissons Ratio (z) = 0.11715 -0.02388
#
# Static dielectric constant tensor:
#      x y z
#    x 1.804080 -0.065790 0.051820 
#    y -0.065790 1.893990 -0.063340 
#    z 0.051820 -0.063340 2.000990 
# 
# From -- ./inp_files/282169.got.cif
#   From: 2010.05.17/outbox.cif.g08.bks.cpg/sg2_142_cif.got.tgz:282169.got - 2010.06.03 11:33:40.
