data_PCOD9004225
_publ_section_title
;
Structure prediction by ZEFSAII (Michael W. Deem and Ramdas Pophale) SiO2 
 PCOD9004225
Probable space group: P -1
;
_chemical_formula_sum "Si O2"
_cell_formula_units_Z 16
_cell_length_a 15.031020
_cell_length_b 12.463096
_cell_length_c 8.243412
_cell_angle_alpha 84.998650
_cell_angle_beta 84.298401
_cell_angle_gamma 152.462903
_cell_volume 656.834203
_symmetry_space_group_name_H-M "P -1"
_symmetry_group_IT_number 2
_symmetry_cell_setting 'triclinic'
loop_
_space_group_symop_operation_xyz
x,y,z
-x,-y,-z
loop_
_atom_site_type_symbol
_atom_site_label
_atom_site_fract_x
_atom_site_fract_y
_atom_site_fract_z
Si Si1 0.302364 0.859511 0.548796
Si Si2 0.212485 0.295538 0.381701
Si Si3 0.831499 0.297012 0.771299
Si Si4 0.097895 0.831650 0.039528
Si Si5 0.734757 0.572407 0.281762
Si Si6 0.119318 0.409364 0.237454
Si Si7 0.309304 0.091352 0.524176
Si Si8 0.346502 0.287450 0.793984
O O1 0.252773 0.826076 0.372961
O O2 0.084785 0.578043 0.691168
O O3 0.500000 0.000000 0.500000
O O4 0.359258 0.031304 0.608474
O O5 0.265407 0.408587 0.528192
O O6 0.217674 0.398577 0.236987
O O7 0.404499 0.428580 0.278468
O O8 0.000000 0.000000 0.500000
O O9 0.791891 0.156917 0.920607
O O10 0.765140 0.350626 0.797715
O O11 0.900233 0.661528 0.199461
O O12 0.994945 0.704897 0.898577
O O13 0.259080 0.105482 0.958386
O O14 0.488565 0.287243 0.331156
O O15 0.776029 0.733977 0.174385
O O16 0.933623 0.193142 0.434534
O O17 0.312679 0.195398 0.633435
#
# Coordination Sequence:
#
# PCOD9004225 Si02
#       8
#     2   2   2   2   2   2   2   2
#     4  10  21  37  65 100 128 164 222 278 315 376
#     4  11  22  40  67  96 122 169 222 265 319 388
#     4  10  23  40  65  94 132 174 218 262 330 391
#     4  11  23  43  62  92 136 171 208 269 333 380
#     4  11  22  39  69  90 124 169 222 267 323 381
#     4  10  22  41  66  91 134 171 212 266 329 384
#     4   9  19  37  64  89 124 160 215 258 320 374
#     4  10  22  41  61  92 130 170 211 266 327 394
#
# _framework density 24.359266999999999
#
# number of rings (size 3 to 8) (size 9 to 14) (size 15 to 20)
#    0.000    1.750    0.000    5.250    8.750    0.000 
#    4.500    1.875    0.000    0.000    0.000    0.000 
#    0.000    0.000    0.000    0.000    0.000    0.000 
#
# Total GULP energy -89234.444035 kJ/mol
# GULP energy per Si atom -5577.152752 kJ/mol
# Density = 2.430382 g / cm^3
# Si number density = 24.359267 Si / 1000 Ang^3
#
#
#
# Elastic Constant Matrix: (Units=GPa)
#
#
# Indices 1 2 3 4 5 6 
#
# 1 121.4010 8.6684 3.8491 -7.4110 14.2063 -10.0298
# 2 8.6684 54.6074 2.4328 -14.5325 3.0257 -16.8064
# 3 3.8491 2.4328 48.9599 -10.4250 14.1252 -1.4944
# 4 -7.4110 -14.5325 -10.4250 24.5999 -6.0498 1.2840
# 5 14.2063 3.0257 14.1252 -6.0498 44.4650 -8.5949
# 6 -10.0298 -16.8064 -1.4944 1.2840 -8.5949 31.4153
#
#
#
# Elastic Compliance Matrix: (Units=1/GPa)
#
#
# Indices 1 2 3 4 5 6 
#
# 1 0.008795 -0.000082 0.000486 0.002141 -0.002265 0.002080
# 2 -0.000082 0.026996 0.001878 0.016615 0.002667 0.014556
# 3 0.000486 0.001878 0.024326 0.009926 -0.006642 0.000094
# 4 0.002141 0.016615 0.009926 0.055925 0.004372 0.008955
# 5 -0.002265 0.002667 -0.006642 0.004372 0.027216 0.007655
# 6 0.002080 0.014556 0.000094 0.008955 0.007655 0.042015
#
#
# Mechanical properties :
#
#
# Convention : Reuss Voigt Hill
#
# Bulk Modulus (GPa) = 15.46104 28.31878 21.88991
# Shear Modulus (GPa) = 24.71925 34.09722 29.40823
#
# Velocity S-wave (km/s) = 3.18901 3.74540 3.47835
# Velocity P-wave (km/s) = 4.46325 5.50951 5.01375
#
# Compressibility (1/GPa) = 0.06467871
#
# Stress axis : x y z
#
# Youngs Moduli (GPa) = 113.69751 37.04313 41.10816
#
# Poissons Ratio (x) = 0.00305 -0.01996
# Poissons Ratio (y) = 0.00937 -0.07719
# Poissons Ratio (z) = -0.05521 -0.06956
#
# Static dielectric constant tensor:
#      x y z
#    x 2.040580 0.013230 -0.011810 
#    y 0.013230 2.070710 -0.072300 
#    z -0.011810 -0.072300 1.993310 
# 
# From -- ./inp_files/307362.got.cif
#   From: 2010.05.17/outbox.cif.g08.bks.cpg/sg2_154_cif.got.tgz:307362.got - 2010.06.03 11:33:40.
