data_PCOD9004446
_publ_section_title
;
Structure prediction by ZEFSAII (Michael W. Deem and Ramdas Pophale) SiO2 
 PCOD9004446
Probable space group: P -1
;
_chemical_formula_sum "Si O2"
_cell_formula_units_Z 16
_cell_length_a 9.567941
_cell_length_b 11.557196
_cell_length_c 17.396959
_cell_angle_alpha 30.605608
_cell_angle_beta 50.033416
_cell_angle_gamma 57.059554
_cell_volume 750.443118
_symmetry_space_group_name_H-M "P -1"
_symmetry_group_IT_number 2
_symmetry_cell_setting 'triclinic'
loop_
_space_group_symop_operation_xyz
x,y,z
-x,-y,-z
loop_
_atom_site_type_symbol
_atom_site_label
_atom_site_fract_x
_atom_site_fract_y
_atom_site_fract_z
Si Si1 0.689570 0.086708 0.349194
Si Si2 0.424667 0.847965 0.342037
Si Si3 0.963634 0.244486 0.952076
Si Si4 0.138143 0.495956 0.882946
Si Si5 0.426729 0.743407 0.869761
Si Si6 0.350019 0.032935 0.098599
Si Si7 0.198344 0.415012 0.630707
Si Si8 0.982394 0.821818 0.302118
O O1 0.770608 0.256445 0.287478
O O2 0.648342 0.232056 0.203891
O O3 0.500000 0.000000 0.500000
O O4 0.831987 0.901585 0.372435
O O5 0.259126 0.664334 0.497950
O O6 0.609048 0.712158 0.372983
O O7 0.427021 0.052821 0.284767
O O8 0.433783 0.975359 0.184182
O O9 0.030398 0.442400 0.873764
O O10 0.077786 0.286131 0.811524
O O11 0.746746 0.235264 0.024478
O O12 0.997357 0.018538 0.118425
O O13 0.272627 0.286973 0.971524
O O14 0.000000 0.500000 0.000000
O O15 0.500000 0.500000 0.000000
O O16 0.182358 0.852516 0.249376
O O17 0.500000 0.000000 0.000000
O O18 0.090019 0.391057 0.601586
#
# Coordination Sequence:
#
# PCOD9004446 Si02
#       8
#     2   2   2   2   2   2   2   2
#     4  11  23  40  67  96 126 180 222 272 335 401
#     4  11  24  39  64  94 135 164 212 277 330 381
#     4  10  21  37  67  90 116 178 215 257 326 398
#     4  11  20  42  65  89 130 172 225 267 321 401
#     4  11  23  42  61  94 130 168 223 272 321 396
#     4  11  24  40  66  99 129 173 226 277 332 392
#     4  11  23  42  65  94 133 170 214 268 336 399
#     4  10  21  42  65  91 132 169 225 266 323 407
#
# _framework density 21.320737000000001
#
# number of rings (size 3 to 8) (size 9 to 14) (size 15 to 20)
#    0.000    1.250    6.250    2.625    3.500    1.500 
#    2.250    0.625    0.000    0.000    0.000    0.000 
#    0.000    0.000    0.000    0.000    0.000    0.000 
#
# Total GULP energy -89314.213000 kJ/mol
# GULP energy per Si atom -5582.138313 kJ/mol
# Density = 2.127221 g / cm^3
# Si number density = 21.320737 Si / 1000 Ang^3
#
#
#
# Elastic Constant Matrix: (Units=GPa)
#
#
# Indices 1 2 3 4 5 6 
#
# 1 82.2063 10.2703 -4.7022 -2.8912 -25.7435 19.9549
# 2 10.2703 76.4268 26.4882 -0.6932 -19.5516 13.0461
# 3 -4.7022 26.4882 82.5628 3.2485 -36.8895 6.0536
# 4 -2.8912 -0.6932 3.2485 40.5858 8.5176 -10.8016
# 5 -25.7435 -19.5516 -36.8895 8.5176 41.6679 -12.0476
# 6 19.9549 13.0461 6.0536 -10.8016 -12.0476 33.8477
#
#
#
# Elastic Compliance Matrix: (Units=1/GPa)
#
#
# Indices 1 2 3 4 5 6 
#
# 1 0.022475 0.000190 0.013003 -0.006985 0.024240 -0.009250
# 2 0.000190 0.015881 -0.002919 -0.001587 0.003914 -0.004824
# 3 0.013003 -0.002919 0.029503 -0.009325 0.033901 -0.002726
# 4 -0.006985 -0.001587 -0.009325 0.031127 -0.016673 0.010397
# 5 0.024240 0.003914 0.033901 -0.016673 0.073989 -0.000848
# 6 -0.009250 -0.004824 -0.002726 0.010397 -0.000848 0.040361
#
#
# Mechanical properties :
#
#
# Convention : Reuss Voigt Hill
#
# Bulk Modulus (GPa) = 11.31141 33.92317 22.61729
# Shear Modulus (GPa) = 22.49644 37.16292 29.82968
#
# Velocity S-wave (km/s) = 3.25182 4.17950 3.74450
# Velocity P-wave (km/s) = 4.40636 6.26390 5.41537
#
# Compressibility (1/GPa) = 0.08840627
#
# Stress axis : x y z
#
# Youngs Moduli (GPa) = 44.49363 62.96799 33.89465
#
# Poissons Ratio (x) = -0.01196 -0.44072
# Poissons Ratio (y) = -0.00845 0.09894
# Poissons Ratio (z) = -0.57853 0.18381
#
# Static dielectric constant tensor:
#      x y z
#    x 1.802380 0.018450 -0.030340 
#    y 0.018450 1.784240 -0.033690 
#    z -0.030340 -0.033690 1.784400 
# 
# From -- ./inp_files/516208.got.cif
#   From: 2010.05.17/outbox.cif.g08.bks.cpg/sg2_259_cif.got.tgz:516208.got - 2010.06.03 11:33:40.
