data_PCOD9004351
_publ_section_title
;
Structure prediction by ZEFSAII (Michael W. Deem and Ramdas Pophale) SiO2 
 PCOD9004351
Probable space group: P -1
;
_chemical_formula_sum "Si O2"
_cell_formula_units_Z 16
_cell_length_a 14.488925
_cell_length_b 17.195619
_cell_length_c 8.925440
_cell_angle_alpha 29.890382
_cell_angle_beta 142.807229
_cell_angle_gamma 144.746686
_cell_volume 608.517989
_symmetry_space_group_name_H-M "P -1"
_symmetry_group_IT_number 2
_symmetry_cell_setting 'triclinic'
loop_
_space_group_symop_operation_xyz
x,y,z
-x,-y,-z
loop_
_atom_site_type_symbol
_atom_site_label
_atom_site_fract_x
_atom_site_fract_y
_atom_site_fract_z
Si Si1 0.072264 0.362374 0.270619
Si Si2 0.834684 0.297979 0.820766
Si Si3 0.699339 0.429600 0.030002
Si Si4 0.934661 0.663225 0.208325
Si Si5 0.750466 0.867900 0.711227
Si Si6 0.630760 0.093445 0.379797
Si Si7 0.514622 0.209601 0.732053
Si Si8 0.638810 0.615778 0.225931
O O1 0.163530 0.294967 0.623166
O O2 0.232317 0.446772 0.227642
O O3 0.000000 0.500000 0.000000
O O4 0.927871 0.248814 0.159741
O O5 0.903106 0.508472 0.545110
O O6 0.641832 0.209318 0.764547
O O7 0.898795 0.266977 0.796158
O O8 0.788933 0.545865 0.094750
O O9 0.747071 0.273802 0.305967
O O10 0.499301 0.348365 0.920000
O O11 0.911521 0.830221 0.952231
O O12 0.668109 0.878268 0.429268
O O13 0.736675 0.998316 0.599485
O O14 0.628637 0.683355 0.934732
O O15 0.500000 0.000000 0.500000
O O16 0.544944 0.136449 0.050430
O O17 0.574160 0.412288 0.491248
#
# Coordination Sequence:
#
# PCOD9004351 Si02
#       8
#     2   2   2   2   2   2   2   2
#     4  11  20  35  60  98 132 165 214 279 329 382
#     4  10  21  37  66 102 131 170 223 276 329 389
#     4  11  22  39  65  97 132 167 223 273 329 384
#     4  10  21  40  70 102 131 170 226 275 328 396
#     4  12  24  43  67 103 135 174 217 280 334 393
#     4  12  27  42  62 100 144 177 213 274 348 391
#     4  12  23  43  69 100 133 177 223 278 326 400
#     4  12  21  36  68  98 129 164 228 273 324 379
#
# _framework density 26.293389999999999
#
# number of rings (size 3 to 8) (size 9 to 14) (size 15 to 20)
#    0.000    0.750    6.250    1.875    0.000    0.000 
#    0.000    0.625    0.000   20.250    0.000    0.000 
#    0.000    0.000    0.000    0.000    0.000    0.000 
#
# Total GULP energy -89368.877340 kJ/mol
# GULP energy per Si atom -5585.554834 kJ/mol
# Density = 2.623355 g / cm^3
# Si number density = 26.293390 Si / 1000 Ang^3
#
#
#
# Elastic Constant Matrix: (Units=GPa)
#
#
# Indices 1 2 3 4 5 6 
#
# 1 150.2569 6.9730 50.4594 6.7349 1.9450 -14.3025
# 2 6.9730 75.2893 32.3635 10.0668 -3.5567 -23.3718
# 3 50.4594 32.3635 119.2990 7.1303 -0.3318 -23.1803
# 4 6.7349 10.0668 7.1303 42.4157 -9.5124 6.7420
# 5 1.9450 -3.5567 -0.3318 -9.5124 49.3595 -10.4032
# 6 -14.3025 -23.3718 -23.1803 6.7420 -10.4032 39.5729
#
#
#
# Elastic Compliance Matrix: (Units=1/GPa)
#
#
# Indices 1 2 3 4 5 6 
#
# 1 0.007949 0.001500 -0.003285 -0.001407 -0.000065 0.002057
# 2 0.001500 0.018932 -0.003212 -0.005418 0.002655 0.011463
# 3 -0.003285 -0.003212 0.011491 -0.001150 0.000597 0.003999
# 4 -0.001407 -0.005418 -0.001150 0.027297 0.003191 -0.008194
# 5 -0.000065 0.002655 0.000597 0.003191 0.022610 0.007295
# 6 0.002057 0.011463 0.003999 -0.008194 0.007295 0.038440
#
#
# Mechanical properties :
#
#
# Convention : Reuss Voigt Hill
#
# Bulk Modulus (GPa) = 35.24017 58.27079 46.75548
# Shear Modulus (GPa) = 34.20653 43.27290 38.73972
#
# Velocity S-wave (km/s) = 3.61079 4.06121 3.84261
# Velocity P-wave (km/s) = 5.55117 6.64839 6.12440
#
# Compressibility (1/GPa) = 0.02837671
#
# Stress axis : x y z
#
# Youngs Moduli (GPa) = 125.80806 52.82034 87.02809
#
# Poissons Ratio (x) = -0.07921 0.28591
# Poissons Ratio (y) = -0.18866 0.27950
# Poissons Ratio (z) = 0.41331 0.16964
#
# Static dielectric constant tensor:
#      x y z
#    x 2.092410 -0.025430 0.041900 
#    y -0.025430 2.089340 -0.022480 
#    z 0.041900 -0.022480 2.163850 
# 
# From -- ./inp_files/317928.got.cif
#   From: 2010.05.17/outbox.cif.g08.bks.cpg/sg2_159_cif.got.tgz:317928.got - 2010.06.03 11:33:40.
