data_PCOD9004917
_publ_section_title
;
Structure prediction by ZEFSAII (Michael W. Deem and Ramdas Pophale) SiO2 
 PCOD9004917
Probable space group: P -1
;
_chemical_formula_sum "Si O2"
_cell_formula_units_Z 14
_cell_length_a 22.576544
_cell_length_b 5.077667
_cell_length_c 15.044667
_cell_angle_alpha 109.659608
_cell_angle_beta 152.864015
_cell_angle_gamma 83.254771
_cell_volume 671.026382
_symmetry_space_group_name_H-M "P -1"
_symmetry_group_IT_number 2
_symmetry_cell_setting 'triclinic'
loop_
_space_group_symop_operation_xyz
x,y,z
-x,-y,-z
loop_
_atom_site_type_symbol
_atom_site_label
_atom_site_fract_x
_atom_site_fract_y
_atom_site_fract_z
Si Si1 0.092665 0.300955 0.601034
Si Si2 0.580153 0.282862 0.422215
Si Si3 0.641944 0.295798 0.696668
Si Si4 0.915771 0.209540 0.075481
Si Si5 0.614705 0.427934 0.870415
Si Si6 0.114338 0.554180 0.236549
Si Si7 0.963070 0.114254 0.683828
O O1 0.106499 0.166006 0.507788
O O2 0.000000 0.500000 0.500000
O O3 0.248874 0.470014 0.872185
O O4 0.000000 0.000000 0.500000
O O5 0.611555 0.432942 0.580613
O O6 0.479916 0.379147 0.237225
O O7 0.733744 0.387257 0.593392
O O8 0.494056 0.920658 0.288556
O O9 0.673648 0.472718 0.852586
O O10 0.500000 0.000000 0.500000
O O11 0.768005 0.184938 0.834884
O O12 0.032018 0.263423 0.159339
O O13 0.911911 0.945972 0.105773
O O14 0.977761 0.548263 0.244038
O O15 0.129477 0.837826 0.354082
O O16 0.000000 0.500000 0.000000
#
# Coordination Sequence:
#
# PCOD9004917 Si02
#       7
#     2   2   2   2   2   2   2
#     4  12  24  43  70  93 126 168 217 262 312 377
#     4  11  23  41  60  93 128 165 204 259 318 378
#     4  10  21  38  59  90 128 162 199 259 323 377
#     4  10  22  39  64  92 126 161 213 255 319 366
#     4  11  25  39  63  92 128 162 208 258 323 372
#     4  10  23  41  68  92 128 170 216 257 309 380
#     4  10  23  40  63  93 123 157 218 262 310 357
#
# _framework density 20.863561000000001
#
# number of rings (size 3 to 8) (size 9 to 14) (size 15 to 20)
#    0.857    0.571    1.429    3.857    2.000    8.571 
#    0.000    1.429    0.000    0.000    0.000    0.000 
#    0.000    0.000    0.000    0.000    0.000    0.000 
#
# Total GULP energy -78080.545248 kJ/mol
# GULP energy per Si atom -5577.181803 kJ/mol
# Density = 2.081607 g / cm^3
# Si number density = 20.863561 Si / 1000 Ang^3
#
#
#
# Elastic Constant Matrix: (Units=GPa)
#
#
# Indices 1 2 3 4 5 6 
#
# 1 117.9404 29.1749 63.7062 -0.8279 8.3347 -16.7953
# 2 29.1749 106.0380 24.3093 -16.8393 8.3830 7.8106
# 3 63.7062 24.3093 134.2657 -15.9499 10.4941 -5.0049
# 4 -0.8279 -16.8393 -15.9499 30.8639 -0.4547 0.6334
# 5 8.3347 8.3830 10.4941 -0.4547 45.5774 4.2060
# 6 -16.7953 7.8106 -5.0049 0.6334 4.2060 28.2079
#
#
#
# Elastic Compliance Matrix: (Units=1/GPa)
#
#
# Indices 1 2 3 4 5 6 
#
# 1 0.014015 -0.003783 -0.006144 -0.005059 -0.001298 0.008609
# 2 -0.003783 0.011947 0.000297 0.006668 -0.000999 -0.005508
# 3 -0.006144 0.000297 0.011021 0.005709 -0.001252 -0.001726
# 4 -0.005059 0.006668 0.005709 0.038936 -0.000803 -0.004600
# 5 -0.001298 -0.000999 -0.001252 -0.000803 0.023024 -0.004133
# 6 0.008609 -0.005508 -0.001726 -0.004600 -0.004133 0.042516
#
#
# Mechanical properties :
#
#
# Convention : Reuss Voigt Hill
#
# Bulk Modulus (GPa) = 56.42039 65.84723 61.13381
# Shear Modulus (GPa) = 30.00736 37.00007 33.50371
#
# Velocity S-wave (km/s) = 3.79656 4.21578 4.01165
# Velocity P-wave (km/s) = 6.80586 7.43818 7.12903
#
# Compressibility (1/GPa) = 0.01772409
#
# Stress axis : x y z
#
# Youngs Moduli (GPa) = 71.35066 83.70307 90.73537
#
# Poissons Ratio (x) = 0.31661 0.55745
# Poissons Ratio (y) = 0.26989 -0.02691
# Poissons Ratio (z) = 0.43836 -0.02483
#
# Static dielectric constant tensor:
#      x y z
#    x 1.790740 -0.034060 -0.004440 
#    y -0.034060 1.782510 0.020060 
#    z -0.004440 0.020060 1.642450 
# 
# From -- ./inp_files/579504.got.cif
#   From: 2010.05.17/outbox.cif.g08.bks.cpg/sg2_290_cif.got.tgz:579504.got - 2010.06.03 11:33:40.
