data_PCOD9004360
_publ_section_title
;
Structure prediction by ZEFSAII (Michael W. Deem and Ramdas Pophale) SiO2 
 PCOD9004360
Probable space group: P -1
;
_chemical_formula_sum "Si O2"
_cell_formula_units_Z 16
_cell_length_a 12.744747
_cell_length_b 31.144356
_cell_length_c 18.903454
_cell_angle_alpha 161.327381
_cell_angle_beta 160.778935
_cell_angle_gamma 28.505996
_cell_volume 781.935714
_symmetry_space_group_name_H-M "P -1"
_symmetry_group_IT_number 2
_symmetry_cell_setting 'triclinic'
loop_
_space_group_symop_operation_xyz
x,y,z
-x,-y,-z
loop_
_atom_site_type_symbol
_atom_site_label
_atom_site_fract_x
_atom_site_fract_y
_atom_site_fract_z
Si Si1 0.256526 0.146671 0.330775
Si Si2 0.896558 0.648619 0.656346
Si Si3 0.592724 0.401031 0.618827
Si Si4 0.354553 0.384392 0.280634
Si Si5 0.157871 0.298112 0.761527
Si Si6 0.701480 0.147712 0.865974
Si Si7 0.386008 0.622699 0.163094
Si Si8 0.211747 0.835041 0.815025
O O1 0.555598 0.250565 0.655879
O O2 0.065648 0.203470 0.362625
O O3 0.002944 0.135724 0.087924
O O4 0.324452 0.994631 0.149686
O O5 0.710474 0.672227 0.646269
O O6 0.629875 0.640765 0.412571
O O7 0.000000 0.500000 0.500000
O O8 0.176603 0.768105 0.996018
O O9 0.503782 0.411464 0.496276
O O10 0.898933 0.323169 0.694350
O O11 0.710652 0.554871 0.959264
O O12 0.500000 0.500000 0.500000
O O13 0.489900 0.249069 0.128617
O O14 0.975611 0.388616 0.055816
O O15 0.463202 0.239265 0.893389
O O16 0.975227 0.198766 0.431148
O O17 0.500000 0.000000 0.500000
O O18 0.500000 0.500000 0.000000
#
# Coordination Sequence:
#
# PCOD9004360 Si02
#       8
#     2   2   2   2   2   2   2   2
#     4  10  23  41  62  90 123 163 212 256 311 378
#     4  11  23  39  64  93 123 161 208 261 308 366
#     4  10  23  39  60  97 122 162 209 259 315 372
#     4  11  25  40  64  92 128 163 208 257 318 373
#     4  10  21  37  66  87 125 160 204 260 311 364
#     4  11  22  40  64  91 125 163 209 257 313 374
#     4  11  25  39  62  93 129 159 207 262 313 368
#     4  10  22  41  63  90 121 168 209 253 316 376
#
# _framework density 20.462040999999999
#
# number of rings (size 3 to 8) (size 9 to 14) (size 15 to 20)
#    0.000    1.500    2.500    1.500   10.500    1.500 
#    0.000    0.625    0.000    0.000    0.000    0.000 
#    0.000    0.000    0.000    0.000    0.000    0.000 
#
# Total GULP energy -89329.547778 kJ/mol
# GULP energy per Si atom -5583.096736 kJ/mol
# Density = 2.041547 g / cm^3
# Si number density = 20.462041 Si / 1000 Ang^3
#
#
#
# Elastic Constant Matrix: (Units=GPa)
#
#
# Indices 1 2 3 4 5 6 
#
# 1 109.1814 48.1988 37.4207 10.3082 31.3265 -16.1816
# 2 48.1988 117.6551 36.2088 4.3840 29.5780 -27.7169
# 3 37.4207 36.2088 74.9890 4.3714 28.9433 -16.6345
# 4 10.3082 4.3840 4.3714 24.2126 -2.5052 1.3727
# 5 31.3265 29.5780 28.9433 -2.5052 40.1203 -4.6135
# 6 -16.1816 -27.7169 -16.6345 1.3727 -4.6135 31.7440
#
#
#
# Elastic Compliance Matrix: (Units=1/GPa)
#
#
# Indices 1 2 3 4 5 6 
#
# 1 0.014187 -0.002135 -0.001694 -0.006405 -0.008273 0.003555
# 2 -0.002135 0.013711 -0.000477 -0.002778 -0.007153 0.009714
# 3 -0.001694 -0.000477 0.021701 -0.004964 -0.013329 0.008369
# 4 -0.006405 -0.002778 -0.004964 0.047213 0.012601 -0.008503
# 5 -0.008273 -0.007153 -0.013329 0.012601 0.045757 -0.011343
# 6 0.003555 0.009714 0.008369 -0.008503 -0.011343 0.044901
#
#
# Mechanical properties :
#
#
# Convention : Reuss Voigt Hill
#
# Bulk Modulus (GPa) = 24.39744 60.60912 42.50328
# Shear Modulus (GPa) = 23.83852 31.21520 27.52686
#
# Velocity S-wave (km/s) = 3.41693 3.91002 3.67176
# Velocity P-wave (km/s) = 5.24560 7.07594 6.22838
#
# Compressibility (1/GPa) = 0.04098790
#
# Stress axis : x y z
#
# Youngs Moduli (GPa) = 70.48504 72.93354 46.08006
#
# Poissons Ratio (x) = 0.15569 0.07805
# Poissons Ratio (y) = 0.15047 0.02200
# Poissons Ratio (z) = 0.11939 0.03482
#
# Static dielectric constant tensor:
#      x y z
#    x 1.758330 0.011500 0.015650 
#    y 0.011500 1.772640 0.007110 
#    z 0.015650 0.007110 1.767870 
# 
# From -- ./inp_files/331707.got.cif
#   From: 2010.05.17/outbox.cif.g08.bks.cpg/sg2_166_cif.got.tgz:331707.got - 2010.06.03 11:33:40.
