data_PCOD9004489
_publ_section_title
;
Structure prediction by ZEFSAII (Michael W. Deem and Ramdas Pophale) SiO2 
 PCOD9004489
Probable space group: P -1
;
_chemical_formula_sum "Si O2"
_cell_formula_units_Z 12
_cell_length_a 5.424375
_cell_length_b 12.120384
_cell_length_c 13.488133
_cell_angle_alpha 51.827796
_cell_angle_beta 84.323941
_cell_angle_gamma 117.412372
_cell_volume 517.092550
_symmetry_space_group_name_H-M "P -1"
_symmetry_group_IT_number 2
_symmetry_cell_setting 'triclinic'
loop_
_space_group_symop_operation_xyz
x,y,z
-x,-y,-z
loop_
_atom_site_type_symbol
_atom_site_label
_atom_site_fract_x
_atom_site_fract_y
_atom_site_fract_z
Si Si1 0.733018 0.000791 0.565307
Si Si2 0.607456 0.340088 0.611154
Si Si3 0.343165 0.377399 0.411782
Si Si4 0.352034 0.703056 0.920475
Si Si5 0.710851 0.597466 0.081243
Si Si6 0.372554 0.960728 0.916880
O O1 0.511090 0.820062 0.747204
O O2 0.500000 0.000000 0.500000
O O3 0.000000 0.000000 0.500000
O O4 0.955971 0.199271 0.506138
O O5 0.457194 0.306937 0.526822
O O6 0.536509 0.435531 0.641227
O O7 0.493389 0.149147 0.760734
O O8 0.000000 0.500000 0.500000
O O9 0.511922 0.443219 0.260704
O O10 0.484743 0.607971 0.014261
O O11 0.497182 0.874809 0.897198
O O12 0.955761 0.585108 0.017688
O O13 0.975605 0.797715 0.014441
O O14 0.500000 0.000000 0.000000
#
# Coordination Sequence:
#
# PCOD9004489 Si02
#       6
#     2   2   2   2   2   2
#     4  12  28  49  76  99 137 195 245 295 349 414
#     4  11  23  39  70 104 151 182 231 294 358 425
#     4  11  26  43  69 108 141 184 244 293 356 424
#     4  10  23  45  67 100 140 179 235 281 350 423
#     4  10  23  41  70  97 146 178 224 293 348 426
#     4  10  21  37  68 101 148 183 223 275 368 420
#
# _framework density 23.206675000000001
#
# number of rings (size 3 to 8) (size 9 to 14) (size 15 to 20)
#    1.000    0.333    0.000    5.000    7.000    5.333 
#    0.000    5.000    0.000    0.000    0.000    0.000 
#    0.000    0.000    0.000    0.000    0.000    0.000 
#
# Total GULP energy -67091.067599 kJ/mol
# GULP energy per Si atom -5590.922300 kJ/mol
# Density = 2.315386 g / cm^3
# Si number density = 23.206675 Si / 1000 Ang^3
#
#
#
# Elastic Constant Matrix: (Units=GPa)
#
#
# Indices 1 2 3 4 5 6 
#
# 1 162.3638 66.8806 87.8475 36.5843 20.2812 24.0511
# 2 66.8806 85.6993 63.1278 24.1379 16.9831 33.8407
# 3 87.8475 63.1278 189.2251 32.4030 -2.7583 6.5848
# 4 36.5843 24.1379 32.4030 48.6043 6.4395 -4.0708
# 5 20.2812 16.9831 -2.7583 6.4395 40.3634 -1.8407
# 6 24.0511 33.8407 6.5848 -4.0708 -1.8407 58.4128
#
#
#
# Elastic Compliance Matrix: (Units=1/GPa)
#
#
# Indices 1 2 3 4 5 6 
#
# 1 0.011141 -0.003096 -0.003358 -0.004322 -0.003965 -0.002841
# 2 -0.003096 0.029819 -0.006760 -0.007874 -0.010932 -0.016132
# 3 -0.003358 -0.006760 0.009119 -0.000546 0.005443 0.004405
# 4 -0.004322 -0.007874 -0.000546 0.028642 0.001263 0.008439
# 5 -0.003965 -0.010932 0.005443 0.001263 0.031923 0.008446
# 6 -0.002841 -0.016132 0.004405 0.008439 0.008446 0.027993
#
#
# Mechanical properties :
#
#
# Convention : Reuss Voigt Hill
#
# Bulk Modulus (GPa) = 42.28322 97.00000 69.64161
# Shear Modulus (GPa) = 28.91034 44.10492 36.50763
#
# Velocity S-wave (km/s) = 3.53339 4.36423 3.97060
# Velocity P-wave (km/s) = 5.90815 8.20271 7.14810
#
# Compressibility (1/GPa) = 0.02365004
#
# Stress axis : x y z
#
# Youngs Moduli (GPa) = 89.75527 33.53598 109.66433
#
# Poissons Ratio (x) = 0.10382 0.36829
# Poissons Ratio (y) = 0.27786 0.74136
# Poissons Ratio (z) = 0.30143 0.22671
#
# Static dielectric constant tensor:
#      x y z
#    x 1.878200 -0.069040 -0.024940 
#    y -0.069040 2.063310 -0.062930 
#    z -0.024940 -0.062930 1.783870 
# 
# From -- ./inp_files/482654.got.cif
#   From: 2010.05.17/outbox.cif.g08.bks.cpg/sg2_242_cif.got.tgz:482654.got - 2010.06.03 11:33:40.
