data_PCOD9004187
_publ_section_title
;
Structure prediction by ZEFSAII (Michael W. Deem and Ramdas Pophale) SiO2 
 PCOD9004187
Probable space group: P -1
;
_chemical_formula_sum "Si O2"
_cell_formula_units_Z 16
_cell_length_a 9.029348
_cell_length_b 12.337178
_cell_length_c 27.623525
_cell_angle_alpha 151.950331
_cell_angle_beta 28.628141
_cell_angle_gamma 140.726307
_cell_volume 693.288241
_symmetry_space_group_name_H-M "P -1"
_symmetry_group_IT_number 2
_symmetry_cell_setting 'triclinic'
loop_
_space_group_symop_operation_xyz
x,y,z
-x,-y,-z
loop_
_atom_site_type_symbol
_atom_site_label
_atom_site_fract_x
_atom_site_fract_y
_atom_site_fract_z
Si Si1 0.439197 0.111498 0.744121
Si Si2 0.950201 0.114381 0.413334
Si Si3 0.471171 0.098821 0.467179
Si Si4 0.955695 0.449257 0.715407
Si Si5 0.821593 0.266857 0.032042
Si Si6 0.746237 0.338145 0.895043
Si Si7 0.407098 0.155479 0.015071
Si Si8 0.222712 0.341766 0.500794
O O1 0.639093 0.340270 0.782705
O O2 0.119737 0.132381 0.871604
O O3 0.410865 0.042768 0.668955
O O4 0.659784 0.914354 0.623521
O O5 0.717800 0.059418 0.503101
O O6 0.125094 0.873805 0.257512
O O7 0.760695 0.182007 0.447327
O O8 0.143082 0.329869 0.463081
O O9 0.240271 0.301108 0.595698
O O10 0.926216 0.715980 0.841148
O O11 0.961324 0.411193 0.641092
O O12 0.653763 0.109706 0.058455
O O13 0.592373 0.268596 0.052180
O O14 0.970642 0.500216 0.103036
O O15 0.500000 0.500000 0.000000
O O16 0.586937 0.211854 0.936729
O O17 0.500000 0.500000 0.500000
#
# Coordination Sequence:
#
# PCOD9004187 Si02
#       8
#     2   2   2   2   2   2   2   2
#     4  11  19  40  65  94 127 173 233 270 335 403
#     4  11  22  38  61  99 133 176 220 274 343 404
#     4  10  21  37  64  96 131 165 230 275 330 410
#     4  11  20  39  67  94 127 178 225 277 332 400
#     4  11  25  44  69 103 133 181 236 286 330 401
#     4  12  25  42  70  99 142 189 219 276 351 406
#     4  11  25  44  70 103 138 176 238 282 331 406
#     4  11  22  39  64  95 128 168 219 277 339 405
#
# _framework density 23.078426
#
# number of rings (size 3 to 8) (size 9 to 14) (size 15 to 20)
#    0.000    1.000    3.750    4.125    1.750    0.500 
#    0.000    5.000    0.000    0.000    0.000    0.000 
#    0.000    0.000    0.000    0.000    0.000    0.000 
#
# Total GULP energy -89416.058822 kJ/mol
# GULP energy per Si atom -5588.503676 kJ/mol
# Density = 2.302590 g / cm^3
# Si number density = 23.078426 Si / 1000 Ang^3
#
#
#
# Elastic Constant Matrix: (Units=GPa)
#
#
# Indices 1 2 3 4 5 6 
#
# 1 128.7387 44.3552 13.6228 -3.5891 20.7250 9.3664
# 2 44.3552 109.3879 21.5950 -5.7026 10.5121 -7.3870
# 3 13.6228 21.5950 47.8949 -10.4394 16.8131 2.1635
# 4 -3.5891 -5.7026 -10.4394 19.3156 -0.7770 1.7243
# 5 20.7250 10.5121 16.8131 -0.7770 35.5749 0.3824
# 6 9.3664 -7.3870 2.1635 1.7243 0.3824 36.3529
#
#
#
# Elastic Compliance Matrix: (Units=1/GPa)
#
#
# Indices 1 2 3 4 5 6 
#
# 1 0.010166 -0.004025 0.001249 0.001479 -0.005253 -0.003526
# 2 -0.004025 0.011859 -0.004763 -0.000111 0.001049 0.003724
# 3 0.001249 -0.004763 0.030946 0.015337 -0.013571 -0.003716
# 4 0.001479 -0.000111 0.015337 0.060399 -0.006714 -0.004111
# 5 -0.005253 0.001049 -0.013571 -0.006714 0.037102 0.002303
# 6 -0.003526 0.003724 -0.003716 -0.004111 0.002303 0.029565
#
#
# Mechanical properties :
#
#
# Convention : Reuss Voigt Hill
#
# Bulk Modulus (GPa) = 26.39009 49.46306 37.92658
# Shear Modulus (GPa) = 24.06783 32.01193 28.03988
#
# Velocity S-wave (km/s) = 3.23286 3.72841 3.48944
# Velocity P-wave (km/s) = 5.03934 6.32565 5.71878
#
# Compressibility (1/GPa) = 0.03789301
#
# Stress axis : x y z
#
# Youngs Moduli (GPa) = 98.37051 84.32426 32.31443
#
# Poissons Ratio (x) = 0.33939 -0.04036
# Poissons Ratio (y) = 0.39592 0.15391
# Poissons Ratio (z) = -0.12287 0.40164
#
# Static dielectric constant tensor:
#      x y z
#    x 1.924210 0.037080 -0.058370 
#    y 0.037080 1.941920 -0.021240 
#    z -0.058370 -0.021240 1.694270 
# 
# From -- ./inp_files/567067.got.cif
#   From: 2010.05.17/outbox.cif.g08.bks.cpg/sg2_284_cif.got.tgz:567067.got - 2010.06.03 11:33:40.
