data_PCOD9004988
_publ_section_title
;
Structure prediction by ZEFSAII (Michael W. Deem and Ramdas Pophale) SiO2 
 PCOD9004988
Probable space group: P -1
;
_chemical_formula_sum "Si O2"
_cell_formula_units_Z 16
_cell_length_a 5.125331
_cell_length_b 16.038362
_cell_length_c 15.048137
_cell_angle_alpha 51.203543
_cell_angle_beta 117.237561
_cell_angle_gamma 97.023822
_cell_volume 832.680793
_symmetry_space_group_name_H-M "P -1"
_symmetry_group_IT_number 2
_symmetry_cell_setting 'triclinic'
loop_
_space_group_symop_operation_xyz
x,y,z
-x,-y,-z
loop_
_atom_site_type_symbol
_atom_site_label
_atom_site_fract_x
_atom_site_fract_y
_atom_site_fract_z
Si Si1 0.788040 0.890959 0.859567
Si Si2 0.203898 0.414956 0.260454
Si Si3 0.648746 0.060683 0.408510
Si Si4 0.658943 0.312415 0.250102
Si Si5 0.546344 0.083294 0.027710
Si Si6 0.697095 0.466213 0.639803
Si Si7 0.719182 0.644569 0.014282
Si Si8 0.620662 0.662432 0.187511
O O1 0.549890 0.936634 0.713860
O O2 0.638645 0.930606 0.904013
O O3 0.836354 0.757318 0.954105
O O4 0.108134 0.923078 0.884482
O O5 0.473084 0.383884 0.252878
O O6 0.311048 0.429750 0.367079
O O7 0.996858 0.327663 0.286289
O O8 0.979981 0.533352 0.124201
O O9 0.638145 0.187565 0.343802
O O10 0.500000 0.000000 0.500000
O O11 0.000000 0.000000 0.500000
O O12 0.501013 0.351443 0.105482
O O13 0.418910 0.208336 0.890957
O O14 0.500000 0.000000 0.000000
O O15 0.500000 0.500000 0.500000
O O16 0.576063 0.383782 0.741105
O O17 0.036136 0.407534 0.704034
O O18 0.554758 0.647433 0.082328
#
# Coordination Sequence:
#
# PCOD9004988 Si02
#       8
#     2   2   2   2   2   2   2   2
#     4  10  22  38  61  88 114 156 197 231 295 363
#     4  11  21  36  57  88 117 144 182 236 288 336
#     4  11  23  43  62  81 117 163 200 233 278 349
#     4  11  23  36  58  90 116 144 185 237 288 336
#     4  11  21  38  61  90 119 143 192 260 301 332
#     4  11  23  41  59  79 116 162 197 228 275 347
#     4   9  20  36  60  86 120 147 178 229 296 360
#     4  10  21  38  60  86 111 153 196 230 287 355
#
# _framework density 19.215045
#
# number of rings (size 3 to 8) (size 9 to 14) (size 15 to 20)
#    0.000    1.500    0.000    6.750    0.000    8.000 
#    0.000    7.500    0.000    0.000    0.000    0.000 
#    0.000    0.000    0.000    0.000    0.000    0.000 
#
# Total GULP energy -89428.179244 kJ/mol
# GULP energy per Si atom -5589.261203 kJ/mol
# Density = 1.917131 g / cm^3
# Si number density = 19.215045 Si / 1000 Ang^3
#
#
#
# Elastic Constant Matrix: (Units=GPa)
#
#
# Indices 1 2 3 4 5 6 
#
# 1 45.6835 -5.6833 -4.4374 1.7627 4.8117 5.0731
# 2 -5.6833 88.2589 29.1679 10.3137 10.5559 -1.2961
# 3 -4.4374 29.1679 86.7590 14.6359 -1.8470 3.5950
# 4 1.7627 10.3137 14.6359 27.5393 7.3344 4.4967
# 5 4.8117 10.5559 -1.8470 7.3344 23.0013 -4.2958
# 6 5.0731 -1.2961 3.5950 4.4967 -4.2958 23.7608
#
#
#
# Elastic Compliance Matrix: (Units=1/GPa)
#
#
# Indices 1 2 3 4 5 6 
#
# 1 0.023649 0.002054 0.000571 0.000361 -0.007151 -0.006385
# 2 0.002054 0.013904 -0.004526 -0.001113 -0.006822 -0.000018
# 3 0.000571 -0.004526 0.014458 -0.007455 0.005467 -0.000157
# 4 0.000361 -0.001113 -0.007455 0.047057 -0.017228 -0.011030
# 5 -0.007151 -0.006822 0.005467 -0.017228 0.056617 0.013824
# 6 -0.006385 -0.000018 -0.000157 -0.011030 0.013824 0.048059
#
#
# Mechanical properties :
#
#
# Convention : Reuss Voigt Hill
#
# Bulk Modulus (GPa) = 20.74398 28.75510 24.74954
# Shear Modulus (GPa) = 22.35971 28.30389 25.33180
#
# Velocity S-wave (km/s) = 3.41494 3.84214 3.63482
# Velocity P-wave (km/s) = 5.13500 5.88898 5.52487
#
# Compressibility (1/GPa) = 0.04820677
#
# Stress axis : x y z
#
# Youngs Moduli (GPa) = 42.28513 71.92093 69.16785
#
# Poissons Ratio (x) = -0.14770 -0.03946
# Poissons Ratio (y) = -0.08684 0.31306
# Poissons Ratio (z) = -0.02412 0.32552
#
# Static dielectric constant tensor:
#      x y z
#    x 1.661740 0.016210 0.009850 
#    y 0.016210 1.678230 -0.004580 
#    z 0.009850 -0.004580 1.650950 
# 
# From -- ./inp_files/484340.got.cif
#   From: 2010.05.17/outbox.cif.g08.bks.cpg/sg2_243_cif.got.tgz:484340.got - 2010.06.03 11:33:40.
