data_PCOD9004874
_publ_section_title
;
Structure prediction by ZEFSAII (Michael W. Deem and Ramdas Pophale) SiO2 
 PCOD9004874
Probable space group: P -1
;
_chemical_formula_sum "Si O2"
_cell_formula_units_Z 16
_cell_length_a 18.680728
_cell_length_b 16.865665
_cell_length_c 5.797147
_cell_angle_alpha 120.106491
_cell_angle_beta 115.655149
_cell_angle_gamma 26.852594
_cell_volume 713.214379
_symmetry_space_group_name_H-M "P -1"
_symmetry_group_IT_number 2
_symmetry_cell_setting 'triclinic'
loop_
_space_group_symop_operation_xyz
x,y,z
-x,-y,-z
loop_
_atom_site_type_symbol
_atom_site_label
_atom_site_fract_x
_atom_site_fract_y
_atom_site_fract_z
Si Si1 0.074459 0.336017 0.753124
Si Si2 0.360644 0.685709 0.215451
Si Si3 0.763584 0.908947 0.771305
Si Si4 0.243443 0.607239 0.035901
Si Si5 0.524067 0.246174 0.585760
Si Si6 0.423973 0.980281 0.936535
Si Si7 0.054731 0.048173 0.168332
Si Si8 0.011376 0.753206 0.239908
O O1 0.112907 0.284249 0.461363
O O2 0.978678 0.342954 0.715052
O O3 0.249297 0.156532 0.841297
O O4 0.000000 0.500000 0.000000
O O5 0.428353 0.713735 0.450456
O O6 0.239186 0.846516 0.088669
O O7 0.500000 0.500000 0.000000
O O8 0.285223 0.674272 0.231315
O O9 0.673354 0.061152 0.678560
O O10 0.873330 0.859936 0.023177
O O11 0.622078 0.995920 0.829303
O O12 0.383984 0.420126 0.813396
O O13 0.078512 0.767998 0.895434
O O14 0.183468 0.610320 0.176167
O O15 0.484495 0.197604 0.304257
O O16 0.500000 0.000000 0.000000
O O17 0.049986 0.097709 0.486445
O O18 0.000000 0.000000 0.000000
#
# Coordination Sequence:
#
# PCOD9004874 Si02
#       8
#     2   2   2   2   2   2   2   2
#     4  10  23  40  61  89 124 162 202 251 307 367
#     4   9  18  36  58  83 117 158 200 242 294 353
#     4  10  22  41  63  88 123 162 203 251 306 363
#     4  10  22  36  61  92 121 160 206 252 300 358
#     4  10  21  40  61  87 124 161 199 253 309 362
#     4  10  23  39  62  91 119 157 201 249 308 367
#     4  10  21  38  59  87 123 159 202 252 299 356
#     4  11  22  39  63  91 122 164 206 250 306 358
#
# _framework density 22.433646
#
# number of rings (size 3 to 8) (size 9 to 14) (size 15 to 20)
#    0.000    2.000    0.000    3.750    0.000   11.000 
#    0.000    5.000    0.000   18.000    0.000    0.000 
#    0.000    0.000    0.000    0.000    0.000    0.000 
#
# Total GULP energy -89071.250382 kJ/mol
# GULP energy per Si atom -5566.953149 kJ/mol
# Density = 2.238259 g / cm^3
# Si number density = 22.433646 Si / 1000 Ang^3
#
#
#
# Elastic Constant Matrix: (Units=GPa)
#
#
# Indices 1 2 3 4 5 6 
#
# 1 208.3607 9.3295 71.1576 27.0140 23.4065 -22.6373
# 2 9.3295 68.1833 26.6420 31.7046 9.7804 -1.6371
# 3 71.1576 26.6420 120.6810 32.9414 24.4242 10.0329
# 4 27.0140 31.7046 32.9414 32.8923 4.8143 2.0334
# 5 23.4065 9.7804 24.4242 4.8143 30.5044 5.5012
# 6 -22.6373 -1.6371 10.0329 2.0334 5.5012 21.5080
#
#
#
# Elastic Compliance Matrix: (Units=1/GPa)
#
#
# Indices 1 2 3 4 5 6 
#
# 1 0.009740 0.006219 -0.004319 -0.009559 -0.007298 0.015510
# 2 0.006219 0.032550 0.000143 -0.035759 -0.012479 0.015529
# 3 -0.004319 0.000143 0.015765 -0.010931 -0.005945 -0.009335
# 4 -0.009559 -0.035759 -0.010931 0.082247 0.018199 -0.020114
# 5 -0.007298 -0.012479 -0.005945 0.018199 0.047845 -0.019816
# 6 0.015510 0.015529 -0.009335 -0.020114 -0.019816 0.075325
#
#
# Mechanical properties :
#
#
# Convention : Reuss Voigt Hill
#
# Bulk Modulus (GPa) = 16.09281 67.94258 42.01770
# Shear Modulus (GPa) = 17.85069 36.32068 27.08568
#
# Velocity S-wave (km/s) = 2.82389 4.02808 3.47849
# Velocity P-wave (km/s) = 4.22156 7.21011 5.90793
#
# Compressibility (1/GPa) = 0.06213954
#
# Stress axis : x y z
#
# Youngs Moduli (GPa) = 102.66669 30.72189 63.43281
#
# Poissons Ratio (x) = -0.19106 0.27399
# Poissons Ratio (y) = -0.63849 -0.00904
# Poissons Ratio (z) = 0.44345 -0.00438
#
# Static dielectric constant tensor:
#      x y z
#    x 1.935560 0.016450 -0.059650 
#    y 0.016450 1.875570 -0.064860 
#    z -0.059650 -0.064860 1.956400 
# 
# From -- ./inp_files/46664.got.cif
#   From: 2010.05.17/outbox.cif.g08.bks.cpg/sg2_24_cif.got.tgz:46664.got - 2010.06.03 11:33:40.
