data_PCOD9004947
_publ_section_title
;
Structure prediction by ZEFSAII (Michael W. Deem and Ramdas Pophale) SiO2 
 PCOD9004947
Probable space group: P -1
;
_chemical_formula_sum "Si O2"
_cell_formula_units_Z 16
_cell_length_a 11.968974
_cell_length_b 11.796891
_cell_length_c 5.471397
_cell_angle_alpha 117.411973
_cell_angle_beta 88.269977
_cell_angle_gamma 92.848996
_cell_volume 684.930429
_symmetry_space_group_name_H-M "P -1"
_symmetry_group_IT_number 2
_symmetry_cell_setting 'triclinic'
loop_
_space_group_symop_operation_xyz
x,y,z
-x,-y,-z
loop_
_atom_site_type_symbol
_atom_site_label
_atom_site_fract_x
_atom_site_fract_y
_atom_site_fract_z
Si Si1 0.612074 0.607437 0.737086
Si Si2 0.052209 0.403725 0.703895
Si Si3 0.371458 0.662055 0.396631
Si Si4 0.735513 0.189455 0.819951
Si Si5 0.478863 0.838746 0.896652
Si Si6 0.140372 0.654366 0.689479
Si Si7 0.374265 0.032715 0.631141
Si Si8 0.277887 0.294133 0.690569
O O1 0.567759 0.464019 0.657085
O O2 0.518002 0.708337 0.891835
O O3 0.667647 0.647586 0.509810
O O4 0.695098 0.627790 0.983908
O O5 0.115530 0.509987 0.635587
O O6 0.144757 0.307064 0.685816
O O7 0.953742 0.328250 0.489664
O O8 0.000000 0.500000 0.000000
O O9 0.314505 0.682126 0.161835
O O10 0.451727 0.784629 0.575797
O O11 0.263674 0.659472 0.575498
O O12 0.721332 0.080641 0.504091
O O13 0.640308 0.133413 0.952446
O O14 0.848745 0.237723 0.992340
O O15 0.584430 0.930166 0.056658
O O16 0.323318 0.153805 0.613609
O O17 0.500000 0.000000 0.500000
#
# Coordination Sequence:
#
# PCOD9004947 Si02
#       8
#     2   2   2   2   2   2   2   2
#     4  11  23  39  62  94 138 165 215 271 337 391
#     4  11  22  39  70  92 130 163 212 272 340 400
#     4  11  21  36  60  92 132 168 210 271 330 393
#     4  10  21  39  60  89 128 170 223 262 320 383
#     4   9  22  36  57  89 122 176 213 266 311 385
#     4  10  21  38  59  98 120 162 212 269 338 388
#     4   9  21  44  62  89 129 179 226 261 308 381
#     4  11  24  43  65  98 131 174 220 272 324 393
#
# _framework density 23.360036000000001
#
# number of rings (size 3 to 8) (size 9 to 14) (size 15 to 20)
#    0.000    1.750    1.250    2.625    8.750    1.000 
#   11.250    0.625    0.000    3.000    0.000    0.000 
#    0.000    0.000    0.000    0.000    0.000    0.000 
#
# Total GULP energy -89122.705771 kJ/mol
# GULP energy per Si atom -5570.169111 kJ/mol
# Density = 2.330687 g / cm^3
# Si number density = 23.360036 Si / 1000 Ang^3
#
#
#
# Elastic Constant Matrix: (Units=GPa)
#
#
# Indices 1 2 3 4 5 6 
#
# 1 93.3105 15.7198 41.3288 1.9852 25.7287 -17.4661
# 2 15.7198 95.4661 18.0967 -17.8345 -0.5785 2.8952
# 3 41.3288 18.0967 102.1651 -11.4809 46.4207 1.1651
# 4 1.9852 -17.8345 -11.4809 31.0362 6.7581 8.9571
# 5 25.7287 -0.5785 46.4207 6.7581 54.7763 -0.0593
# 6 -17.4661 2.8952 1.1651 8.9571 -0.0593 33.0508
#
#
#
# Elastic Compliance Matrix: (Units=1/GPa)
#
#
# Indices 1 2 3 4 5 6 
#
# 1 0.017135 -0.003545 -0.006960 -0.008948 -0.001071 0.012034
# 2 -0.003545 0.012939 -0.000157 0.008994 0.000820 -0.005437
# 3 -0.006960 -0.000157 0.022376 0.014913 -0.017545 -0.008526
# 4 -0.008948 0.008994 0.014913 0.052575 -0.014849 -0.020317
# 5 -0.001071 0.000820 -0.017545 -0.014849 0.035472 0.004069
# 6 0.012034 -0.005437 -0.008526 -0.020317 0.004069 0.042906
#
#
# Mechanical properties :
#
#
# Convention : Reuss Voigt Hill
#
# Bulk Modulus (GPa) = 32.12855 49.02583 40.57719
# Shear Modulus (GPa) = 23.24456 38.15909 30.70182
#
# Velocity S-wave (km/s) = 3.15787 4.04607 3.62924
# Velocity P-wave (km/s) = 5.20382 6.54677 5.91354
#
# Compressibility (1/GPa) = 0.03112497
#
# Stress axis : x y z
#
# Youngs Moduli (GPa) = 58.36013 77.28770 44.68985
#
# Poissons Ratio (x) = 0.27400 0.31104
# Poissons Ratio (y) = 0.20690 0.00703
# Poissons Ratio (z) = 0.40619 0.01216
#
# Static dielectric constant tensor:
#      x y z
#    x 1.885510 0.020840 0.019140 
#    y 0.020840 1.997900 0.071150 
#    z 0.019140 0.071150 2.169960 
# 
# From -- ./inp_files/72376.got.cif
#   From: 2010.05.17/outbox.cif.g08.bks.cpg/sg2_37_cif.got.tgz:72376.got - 2010.06.03 11:33:40.
