data_PCOD9004567
_publ_section_title
;
Structure prediction by ZEFSAII (Michael W. Deem and Ramdas Pophale) SiO2 
 PCOD9004567
Probable space group: P -1
;
_chemical_formula_sum "Si O2"
_cell_formula_units_Z 16
_cell_length_a 9.013252
_cell_length_b 11.624035
_cell_length_c 13.016962
_cell_angle_alpha 60.398088
_cell_angle_beta 133.807967
_cell_angle_gamma 132.076328
_cell_volume 729.371623
_symmetry_space_group_name_H-M "P -1"
_symmetry_group_IT_number 2
_symmetry_cell_setting 'triclinic'
loop_
_space_group_symop_operation_xyz
x,y,z
-x,-y,-z
loop_
_atom_site_type_symbol
_atom_site_label
_atom_site_fract_x
_atom_site_fract_y
_atom_site_fract_z
Si Si1 0.661326 0.817872 0.846551
Si Si2 0.705810 0.406343 0.588053
Si Si3 0.789104 0.060441 0.974717
Si Si4 0.593759 0.218872 0.951081
Si Si5 0.799321 0.304792 0.224953
Si Si6 0.589093 0.634623 0.333513
Si Si7 0.506897 0.850187 0.542536
Si Si8 0.916697 0.079288 0.504936
O O1 0.442937 0.692456 0.868456
O O2 0.530919 0.785561 0.689370
O O3 0.920593 0.840208 0.937756
O O4 0.718860 0.974681 0.867578
O O5 0.606799 0.485043 0.427363
O O6 0.524947 0.346884 0.623660
O O7 0.698790 0.271101 0.578285
O O8 0.962929 0.538534 0.695348
O O9 0.658287 0.919752 0.058588
O O10 0.676249 0.159881 0.917758
O O11 0.561329 0.357099 0.835718
O O12 0.785104 0.268921 0.112953
O O13 0.800595 0.166035 0.350527
O O14 0.858390 0.782082 0.388964
O O15 0.500000 0.000000 0.500000
O O16 0.753379 0.932971 0.562433
O O17 0.000000 0.000000 0.500000
#
# Coordination Sequence:
#
# PCOD9004567 Si02
#       8
#     2   2   2   2   2   2   2   2
#     4  10  21  39  58  93 137 165 209 254 331 374
#     4  10  24  42  63  94 136 166 212 270 326 388
#     4   9  21  36  64  99 131 162 212 283 304 378
#     4  10  21  37  70  95 125 169 224 263 328 367
#     4  10  23  42  61  95 133 171 211 267 323 387
#     4  10  22  41  65  96 128 167 213 274 325 378
#     4  12  24  39  69  97 124 171 214 264 326 387
#     4  11  22  38  67  99 127 163 221 277 315 374
#
# _framework density 21.936692000000001
#
# number of rings (size 3 to 8) (size 9 to 14) (size 15 to 20)
#    0.000    1.750    2.500    0.750    8.750    1.000 
#    0.000    0.000    0.000    2.250    0.000    0.000 
#    0.000    0.000    0.000    0.000    0.000    0.000 
#
# Total GULP energy -89153.252809 kJ/mol
# GULP energy per Si atom -5572.078301 kJ/mol
# Density = 2.188676 g / cm^3
# Si number density = 21.936692 Si / 1000 Ang^3
#
#
#
# Elastic Constant Matrix: (Units=GPa)
#
#
# Indices 1 2 3 4 5 6 
#
# 1 100.6445 7.4915 2.8499 7.1679 1.9386 -2.1233
# 2 7.4915 50.7506 21.8283 4.3077 2.4307 -4.1308
# 3 2.8499 21.8283 70.4706 1.5077 3.0299 -2.5235
# 4 7.1679 4.3077 1.5077 23.5691 4.0278 -1.1226
# 5 1.9386 2.4307 3.0299 4.0278 26.8013 7.2943
# 6 -2.1233 -4.1308 -2.5235 -1.1226 7.2943 18.7589
#
#
#
# Elastic Compliance Matrix: (Units=1/GPa)
#
#
# Indices 1 2 3 4 5 6 
#
# 1 0.010250 -0.001211 0.000073 -0.002776 -0.000473 0.000921
# 2 -0.001211 0.023605 -0.006938 -0.002910 -0.002133 0.004783
# 3 0.000073 -0.006938 0.016447 0.000549 -0.001695 0.001385
# 4 -0.002776 -0.002910 0.000549 0.045319 -0.007724 0.004834
# 5 -0.000473 -0.002133 -0.001695 -0.007724 0.043864 -0.018270
# 6 0.000921 0.004783 0.001385 0.004834 -0.018270 0.062045
#
#
# Mechanical properties :
#
#
# Convention : Reuss Voigt Hill
#
# Bulk Modulus (GPa) = 29.28114 31.80057 30.54086
# Shear Modulus (GPa) = 21.82773 26.47226 24.14999
#
# Velocity S-wave (km/s) = 3.15784 3.47761 3.32157
# Velocity P-wave (km/s) = 5.16458 5.53652 5.35378
#
# Compressibility (1/GPa) = 0.03415167
#
# Stress axis : x y z
#
# Youngs Moduli (GPa) = 97.55804 42.36324 60.80147
#
# Poissons Ratio (x) = 0.05132 -0.00446
# Poissons Ratio (y) = 0.11818 0.42181
# Poissons Ratio (z) = -0.00716 0.29390
#
# Static dielectric constant tensor:
#      x y z
#    x 1.726300 -0.019730 0.053040 
#    y -0.019730 1.833960 0.000860 
#    z 0.053040 0.000860 1.796620 
# 
# From -- ./inp_files/215821.got.cif
#   From: 2010.05.17/outbox.cif.g08.bks.cpg/sg2_108_cif.got.tgz:215821.got - 2010.06.03 11:33:40.
