data_PCOD9004714
_publ_section_title
;
Structure prediction by ZEFSAII (Michael W. Deem and Ramdas Pophale) SiO2 
 PCOD9004714
Probable space group: P -1
;
_chemical_formula_sum "Si O2"
_cell_formula_units_Z 16
_cell_length_a 16.349908
_cell_length_b 10.286901
_cell_length_c 15.391850
_cell_angle_alpha 73.605593
_cell_angle_beta 38.477382
_cell_angle_gamma 43.269576
_cell_volume 814.817130
_symmetry_space_group_name_H-M "P -1"
_symmetry_group_IT_number 2
_symmetry_cell_setting 'triclinic'
loop_
_space_group_symop_operation_xyz
x,y,z
-x,-y,-z
loop_
_atom_site_type_symbol
_atom_site_label
_atom_site_fract_x
_atom_site_fract_y
_atom_site_fract_z
Si Si1 0.184505 0.466226 0.043456
Si Si2 0.846546 0.766944 0.600721
Si Si3 0.688731 0.461381 0.751000
Si Si4 0.376342 0.962265 0.585596
Si Si5 0.445793 0.729477 0.085899
Si Si6 0.577302 0.821775 0.264591
Si Si7 0.524973 0.785940 0.674680
Si Si8 0.116403 0.265888 0.240397
O O1 0.179167 0.312704 0.103144
O O2 0.396193 0.352461 0.947795
O O3 0.221246 0.429788 0.915640
O O4 0.917164 0.760736 0.235952
O O5 0.743308 0.816911 0.771360
O O6 0.000000 0.500000 0.500000
O O7 0.032273 0.730827 0.462787
O O8 0.655334 0.969027 0.647224
O O9 0.653379 0.332630 0.797609
O O10 0.518856 0.688211 0.778522
O O11 0.619380 0.565382 0.887120
O O12 0.509465 0.808120 0.413765
O O13 0.417986 0.836357 0.660610
O O14 0.500000 0.000000 0.500000
O O15 0.217651 0.026112 0.190428
O O16 0.604775 0.957929 0.238964
O O17 0.822410 0.542947 0.453153
#
# Coordination Sequence:
#
# PCOD9004714 Si02
#       8
#     2   2   2   2   2   2   2   2
#     4  12  22  36  62  87 120 150 194 245 283 348
#     4  11  18  33  56  85 113 151 183 230 299 342
#     4  10  22  38  57  81 123 155 184 239 294 353
#     4  10  21  40  55  85 118 153 198 241 286 331
#     4  11  23  36  55  92 115 151 193 233 301 352
#     4  11  20  34  58  89 116 151 190 239 293 332
#     4  10  21  38  58  83 117 156 189 243 288 333
#     4  11  20  33  57  86 119 143 186 245 286 346
#
# _framework density 19.636306999999999
#
# number of rings (size 3 to 8) (size 9 to 14) (size 15 to 20)
#    0.000    1.250    6.250    2.625    0.000    4.000 
#    2.250    0.625    0.000    0.750    0.000    0.000 
#    0.000    0.000    0.000    0.000    0.000    0.000 
#
# Total GULP energy -89193.797533 kJ/mol
# GULP energy per Si atom -5574.612346 kJ/mol
# Density = 1.959161 g / cm^3
# Si number density = 19.636307 Si / 1000 Ang^3
#
#
#
# Elastic Constant Matrix: (Units=GPa)
#
#
# Indices 1 2 3 4 5 6 
#
# 1 74.2105 28.1104 26.2020 -11.3151 23.4841 -12.7564
# 2 28.1104 56.6037 6.0211 -14.5757 4.7827 -1.4157
# 3 26.2020 6.0211 66.0673 -6.4696 17.8366 5.6882
# 4 -11.3151 -14.5757 -6.4696 24.6153 -8.9845 8.1460
# 5 23.4841 4.7827 17.8366 -8.9845 37.0858 -1.8957
# 6 -12.7564 -1.4157 5.6882 8.1460 -1.8957 31.7154
#
#
#
# Elastic Compliance Matrix: (Units=1/GPa)
#
#
# Indices 1 2 3 4 5 6 
#
# 1 0.025579 -0.012048 -0.007415 -0.005542 -0.011818 0.011798
# 2 -0.012048 0.026721 0.002896 0.015938 0.006248 -0.007893
# 3 -0.007415 0.002896 0.020208 0.004521 -0.004707 -0.007920
# 4 -0.005542 0.015938 0.004521 0.058856 0.012685 -0.016687
# 5 -0.011818 0.006248 -0.004707 0.012685 0.038745 -0.004572
# 6 0.011798 -0.007893 -0.007920 -0.016687 -0.004572 0.041356
#
#
# Mechanical properties :
#
#
# Convention : Reuss Voigt Hill
#
# Bulk Modulus (GPa) = 25.39641 35.28318 30.33980
# Shear Modulus (GPa) = 19.40065 27.78650 23.59357
#
# Velocity S-wave (km/s) = 3.14666 3.76581 3.47007
# Velocity P-wave (km/s) = 5.11502 6.07583 5.61601
#
# Compressibility (1/GPa) = 0.03937564
#
# Stress axis : x y z
#
# Youngs Moduli (GPa) = 39.09391 37.42432 49.48502
#
# Poissons Ratio (x) = 0.45089 0.36692
# Poissons Ratio (y) = 0.47100 -0.14333
# Poissons Ratio (z) = 0.28987 -0.10840
#
# Static dielectric constant tensor:
#      x y z
#    x 1.724100 -0.018900 0.026940 
#    y -0.018900 1.694540 0.020300 
#    z 0.026940 0.020300 1.765350 
# 
# From -- ./inp_files/477663.got.cif
#   From: 2010.05.17/outbox.cif.g08.bks.cpg/sg2_239_cif.got.tgz:477663.got - 2010.06.03 11:33:40.
