data_PCOD9004083
_publ_section_title
;
Structure prediction by ZEFSAII (Michael W. Deem and Ramdas Pophale) SiO2 
 PCOD9004083
Probable space group: P -1
;
_chemical_formula_sum "Si O2"
_cell_formula_units_Z 16
_cell_length_a 21.545462
_cell_length_b 8.823720
_cell_length_c 8.405239
_cell_angle_alpha 128.208849
_cell_angle_beta 143.476450
_cell_angle_gamma 50.753712
_cell_volume 715.166568
_symmetry_space_group_name_H-M "P -1"
_symmetry_group_IT_number 2
_symmetry_cell_setting 'triclinic'
loop_
_space_group_symop_operation_xyz
x,y,z
-x,-y,-z
loop_
_atom_site_type_symbol
_atom_site_label
_atom_site_fract_x
_atom_site_fract_y
_atom_site_fract_z
Si Si1 0.967262 0.485826 0.110014
Si Si2 0.355321 0.485419 0.759355
Si Si3 0.203379 0.766360 0.418156
Si Si4 0.576267 0.934387 0.263020
Si Si5 0.045458 0.098737 0.510411
Si Si6 0.822649 0.128524 0.921306
Si Si7 0.408782 0.654739 0.302269
Si Si8 0.194793 0.279553 0.423191
O O1 0.928317 0.701638 0.249610
O O2 0.084893 0.367547 0.349094
O O3 0.000000 0.500000 0.000000
O O4 0.880228 0.365550 0.865502
O O5 0.321198 0.626609 0.627577
O O6 0.428311 0.252311 0.755109
O O7 0.235234 0.456484 0.538449
O O8 0.407435 0.582706 0.071272
O O9 0.201012 0.872655 0.314573
O O10 0.148630 0.934607 0.544105
O O11 0.690295 0.835444 0.340226
O O12 0.574629 0.126941 0.490070
O O13 0.500000 0.000000 0.000000
O O14 0.940867 0.153274 0.212998
O O15 0.000000 0.000000 0.500000
O O16 0.719496 0.303067 0.887140
O O17 0.824297 0.904620 0.841480
O O18 0.500000 0.500000 0.500000
#
# Coordination Sequence:
#
# PCOD9004083 Si02
#       8
#     2   2   2   2   2   2   2   2
#     4  12  20  37  61  87 120 167 211 246 294 368
#     4  10  21  37  64  87 116 160 207 248 302 371
#     4  12  25  41  56  92 135 160 201 261 313 355
#     4   9  18  34  62  94 111 146 205 264 295 349
#     4  12  23  38  65  88 122 171 217 245 291 369
#     4  11  24  40  60  93 129 159 203 265 311 356
#     4  11  20  39  70  91 114 157 214 253 303 376
#     4   9  18  35  58  82 116 157 204 242 290 364
#
# _framework density 22.372409999999999
#
# number of rings (size 3 to 8) (size 9 to 14) (size 15 to 20)
#    0.750    0.500    5.000    1.875    0.000    2.500 
#    2.250    0.625    0.000    0.750    0.000    0.000 
#    0.000    0.000    0.000    0.000    0.000    0.000 
#
# Total GULP energy -89144.540350 kJ/mol
# GULP energy per Si atom -5571.533772 kJ/mol
# Density = 2.232149 g / cm^3
# Si number density = 22.372410 Si / 1000 Ang^3
#
#
#
# Elastic Constant Matrix: (Units=GPa)
#
#
# Indices 1 2 3 4 5 6 
#
# 1 24.9000 9.6064 3.1976 -5.4517 -0.7683 5.9884
# 2 9.6064 147.7103 49.2307 0.8266 -5.7983 -4.7256
# 3 3.1976 49.2307 79.1840 -6.5584 -2.7911 15.6020
# 4 -5.4517 0.8266 -6.5584 52.1844 -0.6183 -0.3228
# 5 -0.7683 -5.7983 -2.7911 -0.6183 26.3547 -5.5186
# 6 5.9884 -4.7256 15.6020 -0.3228 -5.5186 14.1866
#
#
#
# Elastic Compliance Matrix: (Units=1/GPa)
#
#
# Indices 1 2 3 4 5 6 
#
# 1 0.053472 -0.009184 0.012081 0.006900 -0.007769 -0.041782
# 2 -0.009184 0.012321 -0.011874 -0.002431 0.006012 0.023323
# 3 0.012081 -0.011874 0.028097 0.004618 -0.008187 -0.043034
# 4 0.006900 -0.002431 0.004618 0.020434 -0.001209 -0.008807
# 5 -0.007769 0.006012 -0.008187 -0.001209 0.044778 0.031677
# 6 -0.041782 0.023323 -0.043034 -0.008807 0.031677 0.155345
#
#
# Mechanical properties :
#
#
# Convention : Reuss Voigt Hill
#
# Bulk Modulus (GPa) = 13.16929 41.76263 27.46596
# Shear Modulus (GPa) = 13.97774 31.19578 22.58676
#
# Velocity S-wave (km/s) = 2.50226 3.73820 3.18084
# Velocity P-wave (km/s) = 3.77460 6.11062 5.07875
#
# Compressibility (1/GPa) = 0.07593422
#
# Stress axis : x y z
#
# Youngs Moduli (GPa) = 18.70141 81.16484 35.59158
#
# Poissons Ratio (x) = 0.74545 -0.42998
# Poissons Ratio (y) = 0.17176 0.42262
# Poissons Ratio (z) = -0.22593 0.96376
#
# Static dielectric constant tensor:
#      x y z
#    x 1.893970 0.034220 0.018590 
#    y 0.034220 1.911650 -0.048860 
#    z 0.018590 -0.048860 1.854210 
# 
# From -- ./inp_files/358567.got.cif
#   From: 2010.05.17/outbox.cif.g08.bks.cpg/sg2_180_cif.got.tgz:358567.got - 2010.06.03 11:33:40.
