data_PCOD9004872
_publ_section_title
;
Structure prediction by ZEFSAII (Michael W. Deem and Ramdas Pophale) SiO2 
 PCOD9004872
Probable space group: P -1
;
_chemical_formula_sum "Si O2"
_cell_formula_units_Z 16
_cell_length_a 22.535423
_cell_length_b 7.530723
_cell_length_c 5.259028
_cell_angle_alpha 114.137234
_cell_angle_beta 67.113573
_cell_angle_gamma 119.463341
_cell_volume 689.045778
_symmetry_space_group_name_H-M "P -1"
_symmetry_group_IT_number 2
_symmetry_cell_setting 'triclinic'
loop_
_space_group_symop_operation_xyz
x,y,z
-x,-y,-z
loop_
_atom_site_type_symbol
_atom_site_label
_atom_site_fract_x
_atom_site_fract_y
_atom_site_fract_z
Si Si1 0.203798 0.426498 0.663842
Si Si2 0.817822 0.129787 0.058050
Si Si3 0.578515 0.679277 0.661363
Si Si4 0.715201 0.444660 0.901009
Si Si5 0.435460 0.580541 0.969692
Si Si6 0.971966 0.266762 0.792579
Si Si7 0.938692 0.953409 0.276974
Si Si8 0.264943 0.990328 0.377621
O O1 0.181523 0.630514 0.814620
O O2 0.235344 0.417858 0.328304
O O3 0.138691 0.217720 0.740611
O O4 0.263756 0.464659 0.798028
O O5 0.768598 0.000848 0.291019
O O6 0.896499 0.145559 0.981827
O O7 0.784267 0.022080 0.786028
O O8 0.513693 0.747538 0.868185
O O9 0.574159 0.603626 0.332722
O O10 0.656179 0.843132 0.684330
O O11 0.565181 0.492756 0.781469
O O12 0.730256 0.235567 0.757246
O O13 0.633870 0.377773 0.934575
O O14 0.034917 0.187126 0.656542
O O15 0.945816 0.183755 0.501277
O O16 0.000000 0.500000 0.000000
O O17 0.000000 0.000000 0.000000
#
# Coordination Sequence:
#
# PCOD9004872 Si02
#       8
#     2   2   2   2   2   2   2   2
#     4  10  22  42  63  89 129 161 208 266 316 387
#     4  10  22  41  64  90 123 168 206 260 328 376
#     4  10  21  38  59  87 124 159 206 254 302 382
#     4  10  22  39  64  90 123 165 203 259 319 368
#     4  10  21  38  59  87 122 165 200 251 318 363
#     4  11  25  45  67  91 130 173 216 270 332 387
#     4  11  27  43  65  98 126 169 225 267 326 400
#     4  10  22  39  62  93 122 159 213 256 309 383
#
# _framework density 23.220517000000001
#
# number of rings (size 3 to 8) (size 9 to 14) (size 15 to 20)
#    0.000    1.750    1.250    1.500    5.250    5.000 
#    0.000    0.000    0.000    9.000    0.000    0.000 
#    0.000    0.000    0.000    0.000    0.000    0.000 
#
# Total GULP energy -89262.036154 kJ/mol
# GULP energy per Si atom -5578.877260 kJ/mol
# Density = 2.316767 g / cm^3
# Si number density = 23.220517 Si / 1000 Ang^3
#
#
#
# Elastic Constant Matrix: (Units=GPa)
#
#
# Indices 1 2 3 4 5 6 
#
# 1 120.8900 11.8898 10.8117 -5.4558 -0.9637 20.4441
# 2 11.8898 82.8341 31.2365 -1.0081 -8.4339 17.8914
# 3 10.8117 31.2365 98.2985 -14.8561 13.4276 4.2848
# 4 -5.4558 -1.0081 -14.8561 35.3508 5.1631 -12.5476
# 5 -0.9637 -8.4339 13.4276 5.1631 39.3200 -0.2556
# 6 20.4441 17.8914 4.2848 -12.5476 -0.2556 45.7837
#
#
#
# Elastic Compliance Matrix: (Units=1/GPa)
#
#
# Indices 1 2 3 4 5 6 
#
# 1 0.009031 0.000017 -0.000989 -0.000565 0.000610 -0.004098
# 2 0.000017 0.016922 -0.006888 -0.006093 0.006733 -0.007608
# 3 -0.000989 -0.006888 0.014582 0.008301 -0.007545 0.004002
# 4 -0.000565 -0.006093 0.008301 0.037069 -0.008946 0.011966
# 5 0.000610 0.006733 -0.007545 -0.008946 0.030614 -0.004478
# 6 -0.004098 -0.007608 0.004002 0.011966 -0.004478 0.029525
#
#
# Mechanical properties :
#
#
# Convention : Reuss Voigt Hill
#
# Bulk Modulus (GPa) = 40.29867 45.54429 42.92148
# Shear Modulus (GPa) = 30.91484 40.62988 35.77236
#
# Velocity S-wave (km/s) = 3.65274 4.18753 3.92924
# Velocity P-wave (km/s) = 5.93148 6.56025 6.25377
#
# Compressibility (1/GPa) = 0.02481471
#
# Stress axis : x y z
#
# Youngs Moduli (GPa) = 110.72736 59.09431 68.57959
#
# Poissons Ratio (x) = -0.00101 0.06782
# Poissons Ratio (y) = -0.00189 0.47239
# Poissons Ratio (z) = 0.10949 0.40706
#
# Static dielectric constant tensor:
#      x y z
#    x 2.030100 -0.047880 0.046970 
#    y -0.047880 1.905280 0.013820 
#    z 0.046970 0.013820 1.917190 
# 
# From -- ./inp_files/122665.got.cif
#   From: 2010.05.17/outbox.cif.g08.bks.cpg/sg2_62_cif.got.tgz:122665.got - 2010.06.03 11:33:40.
