data_PCOD9004232
_publ_section_title
;
Structure prediction by ZEFSAII (Michael W. Deem and Ramdas Pophale) SiO2 
 PCOD9004232
Probable space group: P -1
;
_chemical_formula_sum "Si O2"
_cell_formula_units_Z 13
_cell_length_a 5.462622
_cell_length_b 6.675179
_cell_length_c 15.846966
_cell_angle_alpha 118.986276
_cell_angle_beta 81.365560
_cell_angle_gamma 104.337027
_cell_volume 489.408655
_symmetry_space_group_name_H-M "P -1"
_symmetry_group_IT_number 2
_symmetry_cell_setting 'triclinic'
loop_
_space_group_symop_operation_xyz
x,y,z
-x,-y,-z
loop_
_atom_site_type_symbol
_atom_site_label
_atom_site_fract_x
_atom_site_fract_y
_atom_site_fract_z
Si Si1 0.000000 0.500000 0.000000
Si Si2 0.483586 0.060408 0.222652
Si Si3 0.326559 0.180322 0.440584
Si Si4 0.128084 0.505598 0.243552
Si Si5 0.003952 0.029099 0.868143
Si Si6 0.181030 0.692380 0.451737
Si Si7 0.339296 0.485931 0.815604
O O1 0.228946 0.523776 0.920475
O O2 0.057137 0.242934 0.972728
O O3 0.408835 0.145999 0.334162
O O4 0.565782 0.278434 0.197456
O O5 0.235445 0.910561 0.158714
O O6 0.739841 0.962658 0.195343
O O7 0.570316 0.312387 0.507570
O O8 0.073189 0.285341 0.481681
O O9 0.253490 0.928192 0.439048
O O10 0.120967 0.495835 0.342806
O O11 0.408152 0.618910 0.221829
O O12 0.907509 0.632227 0.249746
O O13 0.073673 0.240677 0.158042
#
# Coordination Sequence:
#
# PCOD9004232 Si02
#       7
#     1   2   2   2   2   2   2
#     4  12  28  46  72 102 122 174 228 286 328 402
#     4  10  22  45  66  98 137 179 207 276 331 396
#     4  10  21  37  65 102 135 173 222 265 310 388
#     4  10  22  45  66  98 137 179 207 276 331 396
#     4  10  25  42  67  97 130 172 221 272 339 387
#     4  10  21  37  65 102 135 173 222 265 310 388
#     4  10  25  42  67  97 130 172 221 272 339 387
#
# _framework density 26.562671000000002
#
# number of rings (size 3 to 8) (size 9 to 14) (size 15 to 20)
#    0.000    1.846    0.000    1.846    4.308    7.385 
#    0.000   18.462    0.000    0.000    0.000    0.000 
#    0.000    0.000    0.000    0.000    0.000    0.000 
#
# Total GULP energy -72488.784377 kJ/mol
# GULP energy per Si atom -5576.060337 kJ/mol
# Density = 2.650221 g / cm^3
# Si number density = 26.562671 Si / 1000 Ang^3
#
#
#
# Elastic Constant Matrix: (Units=GPa)
#
#
# Indices 1 2 3 4 5 6 
#
# 1 244.1013 35.0267 18.2016 -27.1918 -50.0515 4.3828
# 2 35.0267 71.5341 82.4128 -8.2560 25.5020 14.8849
# 3 18.2016 82.4128 -33.9344 -37.6573 -149.2401 -5.2308
# 4 -27.1918 -8.2560 -37.6573 40.4722 0.0914 -15.3722
# 5 -50.0515 25.5020 -149.2401 0.0914 -20.8520 -17.7414
# 6 4.3828 14.8849 -5.2308 -15.3722 -17.7414 51.7271
#
#
#
# Elastic Compliance Matrix: (Units=1/GPa)
#
#
# Indices 1 2 3 4 5 6 
#
# 1 0.004502 -0.000312 -0.001627 0.001489 0.000367 0.000112
# 2 -0.000312 0.011210 0.001362 0.003188 0.005052 -0.000382
# 3 -0.001627 0.001362 0.001963 0.000169 -0.006557 -0.002254
# 4 0.001489 0.003188 0.000169 0.028654 -0.005523 0.005595
# 5 0.000367 0.005052 -0.006557 -0.005523 0.005782 -0.001806
# 6 0.000112 -0.000382 -0.002254 0.005595 -0.001806 0.020248
#
#
# Mechanical properties :
#
#
# Convention : Reuss Voigt Hill
#
# Bulk Modulus (GPa) = 60.53502 61.44257 60.98880
# Shear Modulus (GPa) = 63.27533 24.00677 43.64105
#
# Velocity S-wave (km/s) = 4.88599 3.00955 4.05773
# Velocity P-wave (km/s) = 7.39388 5.93784 6.70550
#
# Compressibility (1/GPa) = 0.01651936
#
# Stress axis : x y z
#
# Youngs Moduli (GPa) = 222.13037 89.20756 509.54234
#
# Poissons Ratio (x) = 0.02786 0.82896
# Poissons Ratio (y) = 0.06938 -0.69389
# Poissons Ratio (z) = 0.36138 -0.12148
#
# Static dielectric constant tensor:
#      x y z
#    x 2.145370 -0.042710 0.091880 
#    y -0.042710 2.363100 0.111880 
#    z 0.091880 0.111880 2.116780 
# 
# From -- ./inp_files/480115.got.cif
#   From: 2010.05.17/outbox.cif.g08.bks.cpg/sg2_241_cif.got.tgz:480115.got - 2010.06.03 11:33:40.
