data_PCOD9004302
_publ_section_title
;
Structure prediction by ZEFSAII (Michael W. Deem and Ramdas Pophale) SiO2 
 PCOD9004302
Probable space group: P -1
;
_chemical_formula_sum "Si O2"
_cell_formula_units_Z 12
_cell_length_a 7.266240
_cell_length_b 7.389919
_cell_length_c 9.729556
_cell_angle_alpha 97.331666
_cell_angle_beta 65.083034
_cell_angle_gamma 103.317902
_cell_volume 460.798502
_symmetry_space_group_name_H-M "P -1"
_symmetry_group_IT_number 2
_symmetry_cell_setting 'triclinic'
loop_
_space_group_symop_operation_xyz
x,y,z
-x,-y,-z
loop_
_atom_site_type_symbol
_atom_site_label
_atom_site_fract_x
_atom_site_fract_y
_atom_site_fract_z
Si Si1 0.109190 0.284033 0.384853
Si Si2 0.846571 0.825454 0.102742
Si Si3 0.083994 0.869842 0.290976
Si Si4 0.611115 0.200856 0.027374
Si Si5 0.129227 0.657390 0.808725
Si Si6 0.479319 0.470381 0.771917
O O1 0.301534 0.456128 0.361320
O O2 0.978864 0.235035 0.559263
O O3 0.965599 0.319891 0.306702
O O4 0.182487 0.086871 0.309866
O O5 0.600959 0.738449 0.168914
O O6 0.890660 0.876771 0.253353
O O7 0.937704 0.661385 0.975230
O O8 0.000000 0.000000 0.000000
O O9 0.209553 0.758460 0.139511
O O10 0.701064 0.183884 0.152200
O O11 0.503229 0.373745 0.099028
O O12 0.500000 0.000000 0.000000
O O13 0.277655 0.504475 0.750018
#
# Coordination Sequence:
#
# PCOD9004302 Si02
#       6
#     2   2   2   2   2   2
#     4  11  21  41  65  97 134 177 213 269 339 393
#     4  11  21  41  69  95 128 181 220 272 331 383
#     4  10  21  37  65  94 140 172 211 276 333 386
#     4   9  18  39  65  97 130 174 220 270 320 391
#     4   9  21  38  66  93 131 166 216 274 329 380
#     4  10  23  39  71  97 129 168 231 269 318 401
#
# _framework density 26.041753
#
# number of rings (size 3 to 8) (size 9 to 14) (size 15 to 20)
#    1.000    1.000    3.333    0.500    0.000    1.333 
#    0.000    8.333    3.667    0.000    0.000    0.000 
#    0.000    0.000    0.000    0.000    0.000    0.000 
#
# Total GULP energy -66804.482448 kJ/mol
# GULP energy per Si atom -5567.040204 kJ/mol
# Density = 2.598248 g / cm^3
# Si number density = 26.041753 Si / 1000 Ang^3
#
#
#
# Elastic Constant Matrix: (Units=GPa)
#
#
# Indices 1 2 3 4 5 6 
#
# 1 97.9376 21.7973 51.8591 -37.5321 16.6223 18.0149
# 2 21.7973 126.4020 33.0578 -31.5433 -23.3124 27.4733
# 3 51.8591 33.0578 158.1004 -26.8272 25.1307 12.9090
# 4 -37.5321 -31.5433 -26.8272 40.6798 -3.6603 -13.4002
# 5 16.6223 -23.3124 25.1307 -3.6603 31.4895 -7.7172
# 6 18.0149 27.4733 12.9090 -13.4002 -7.7172 54.7520
#
#
#
# Elastic Compliance Matrix: (Units=1/GPa)
#
#
# Indices 1 2 3 4 5 6 
#
# 1 0.018578 0.000465 -0.002460 0.014220 -0.006636 -0.003221
# 2 0.000465 0.014085 -0.003443 0.009585 0.013516 -0.002158
# 3 -0.002460 -0.003443 0.009368 0.000140 -0.008930 -0.000896
# 4 0.014220 0.009585 0.000140 0.046604 0.005549 0.002667
# 5 -0.006636 0.013516 -0.008930 0.005549 0.054647 0.006567
# 6 -0.003221 -0.002158 -0.000896 0.002667 0.006567 0.022196
#
#
# Mechanical properties :
#
#
# Convention : Reuss Voigt Hill
#
# Bulk Modulus (GPa) = 32.09868 66.20762 49.15315
# Shear Modulus (GPa) = 26.77486 43.76600 35.27043
#
# Velocity S-wave (km/s) = 3.20996 4.10397 3.68418
# Velocity P-wave (km/s) = 5.10794 6.92355 6.08386
#
# Compressibility (1/GPa) = 0.03115393
#
# Stress axis : x y z
#
# Youngs Moduli (GPa) = 53.82642 70.99601 106.74091
#
# Poissons Ratio (x) = -0.03298 0.26262
# Poissons Ratio (y) = -0.02501 0.36754
# Poissons Ratio (z) = 0.13243 0.24446
#
# Static dielectric constant tensor:
#      x y z
#    x 2.275650 -0.193680 0.047790 
#    y -0.193680 2.324720 -0.107630 
#    z 0.047790 -0.107630 2.045430 
# 
# From -- ./inp_files/149951.got.cif
#   From: 2010.05.17/outbox.cif.g08.bks.cpg/sg2_75_cif.got.tgz:149951.got - 2010.06.03 11:33:40.
