data_PCOD9004681
_publ_section_title
;
Structure prediction by ZEFSAII (Michael W. Deem and Ramdas Pophale) SiO2 
 PCOD9004681
Probable space group: P -1
;
_chemical_formula_sum "Si O2"
_cell_formula_units_Z 16
_cell_length_a 9.402353
_cell_length_b 17.332374
_cell_length_c 8.090489
_cell_angle_alpha 56.346859
_cell_angle_beta 49.810699
_cell_angle_gamma 47.681054
_cell_volume 727.816823
_symmetry_space_group_name_H-M "P -1"
_symmetry_group_IT_number 2
_symmetry_cell_setting 'triclinic'
loop_
_space_group_symop_operation_xyz
x,y,z
-x,-y,-z
loop_
_atom_site_type_symbol
_atom_site_label
_atom_site_fract_x
_atom_site_fract_y
_atom_site_fract_z
Si Si1 0.547491 0.149039 0.035208
Si Si2 0.712550 0.145267 0.257918
Si Si3 0.507330 0.948359 0.250450
Si Si4 0.801305 0.731930 0.095181
Si Si5 0.598825 0.438905 0.726678
Si Si6 0.785955 0.536238 0.231722
Si Si7 0.287639 0.658604 0.882355
Si Si8 0.859928 0.008707 0.751134
O O1 0.605704 0.184258 0.115620
O O2 0.580777 0.029283 0.167870
O O3 0.315213 0.221953 0.048037
O O4 0.727702 0.126053 0.788999
O O5 0.619574 0.074072 0.484714
O O6 0.660865 0.246132 0.288881
O O7 0.970728 0.074171 0.148474
O O8 0.676966 0.829018 0.202164
O O9 0.324078 0.008480 0.174263
O O10 0.780069 0.626220 0.251918
O O11 0.048674 0.697392 0.953909
O O12 0.764463 0.448133 0.464683
O O13 0.428244 0.417824 0.777532
O O14 0.450938 0.555735 0.780004
O O15 0.701471 0.366803 0.898271
O O16 0.000000 0.500000 0.000000
O O17 0.000000 0.000000 0.500000
#
# Coordination Sequence:
#
# PCOD9004681 Si02
#       8
#     2   2   2   2   2   2   2   2
#     4  11  21  37  59  88 126 158 208 260 304 369
#     4  11  21  36  60  88 123 164 208 258 310 367
#     4  10  21  38  57  88 123 164 209 251 310 373
#     4  11  22  39  63  89 122 168 206 255 315 377
#     4  10  24  43  67  93 130 163 208 268 317 376
#     4  11  22  45  68  96 126 163 207 264 325 374
#     4  11  22  42  61  93 125 166 214 258 316 383
#     4   9  19  35  58  80 114 162 201 249 305 363
#
# _framework density 21.983554999999999
#
# number of rings (size 3 to 8) (size 9 to 14) (size 15 to 20)
#    0.000    1.500    1.250    5.250    0.000    0.500 
#    4.500    0.000    0.000    0.000    0.000    0.000 
#    0.000    0.000    0.000    0.000    0.000    0.000 
#
# Total GULP energy -89239.433519 kJ/mol
# GULP energy per Si atom -5577.464595 kJ/mol
# Density = 2.193352 g / cm^3
# Si number density = 21.983555 Si / 1000 Ang^3
#
#
#
# Elastic Constant Matrix: (Units=GPa)
#
#
# Indices 1 2 3 4 5 6 
#
# 1 107.5365 22.3379 27.4248 7.9643 -4.3441 -6.2482
# 2 22.3379 57.2874 9.7985 0.9691 -16.4363 -3.2806
# 3 27.4248 9.7985 84.2800 5.2961 -19.2591 -8.1150
# 4 7.9643 0.9691 5.2961 20.1983 -2.7182 -5.4594
# 5 -4.3441 -16.4363 -19.2591 -2.7182 34.1640 -7.3891
# 6 -6.2482 -3.2806 -8.1150 -5.4594 -7.3891 40.6318
#
#
#
# Elastic Compliance Matrix: (Units=1/GPa)
#
#
# Indices 1 2 3 4 5 6 
#
# 1 0.011346 -0.004708 -0.003711 -0.003858 -0.003330 -0.000501
# 2 -0.004708 0.022766 0.001984 0.003085 0.012631 0.004222
# 3 -0.003711 0.001984 0.015637 -0.000115 0.010276 0.004566
# 4 -0.003858 0.003085 -0.000115 0.054062 0.006997 0.008169
# 5 -0.003330 0.012631 0.010276 0.006997 0.043752 0.011457
# 6 -0.000501 0.004222 0.004566 0.008169 0.011457 0.028968
#
#
# Mechanical properties :
#
#
# Convention : Reuss Voigt Hill
#
# Bulk Modulus (GPa) = 27.11565 40.91400 34.01483
# Shear Modulus (GPa) = 24.79008 31.63501 28.21254
#
# Velocity S-wave (km/s) = 3.36171 3.79757 3.58627
# Velocity P-wave (km/s) = 5.23731 6.15470 5.71445
#
# Compressibility (1/GPa) = 0.03687908
#
# Stress axis : x y z
#
# Youngs Moduli (GPa) = 88.13898 43.92548 63.94984
#
# Poissons Ratio (x) = 0.20680 0.23733
# Poissons Ratio (y) = 0.41495 -0.12689
# Poissons Ratio (z) = 0.32710 -0.08716
#
# Static dielectric constant tensor:
#      x y z
#    x 1.800830 -0.021100 0.017980 
#    y -0.021100 1.845130 0.002910 
#    z 0.017980 0.002910 1.936260 
# 
# From -- ./inp_files/214678.got.cif
#   From: 2010.05.17/outbox.cif.g08.bks.cpg/sg2_108_cif.got.tgz:214678.got - 2010.06.03 11:33:40.
