data_PCOD9004304
_publ_section_title
;
Structure prediction by ZEFSAII (Michael W. Deem and Ramdas Pophale) SiO2 
 PCOD9004304
Probable space group: P -1
;
_chemical_formula_sum "Si O2"
_cell_formula_units_Z 16
_cell_length_a 15.996302
_cell_length_b 11.849274
_cell_length_c 5.347001
_cell_angle_alpha 121.108507
_cell_angle_beta 93.666508
_cell_angle_gamma 116.360149
_cell_volume 718.428228
_symmetry_space_group_name_H-M "P -1"
_symmetry_group_IT_number 2
_symmetry_cell_setting 'triclinic'
loop_
_space_group_symop_operation_xyz
x,y,z
-x,-y,-z
loop_
_atom_site_type_symbol
_atom_site_label
_atom_site_fract_x
_atom_site_fract_y
_atom_site_fract_z
Si Si1 0.071933 0.141788 0.366211
Si Si2 0.418282 0.253020 0.469617
Si Si3 0.280627 0.913432 0.323086
Si Si4 0.548375 0.939078 0.131039
Si Si5 0.651185 0.453951 0.768190
Si Si6 0.662547 0.302854 0.073851
Si Si7 0.250647 0.258922 0.215157
Si Si8 0.119062 0.951482 0.547919
O O1 0.166924 0.266664 0.361151
O O2 0.106968 0.065468 0.489925
O O3 0.993761 0.174156 0.515846
O O4 0.000000 0.000000 0.000000
O O5 0.533076 0.383101 0.716138
O O6 0.348498 0.315862 0.466749
O O7 0.352358 0.095182 0.445293
O O8 0.430733 0.181239 0.134377
O O9 0.345951 0.921573 0.581267
O O10 0.174554 0.881630 0.340901
O O11 0.278904 0.784356 0.999651
O O12 0.454412 0.835185 0.177752
O O13 0.500000 0.000000 0.000000
O O14 0.658744 0.372846 0.420578
O O15 0.711751 0.636398 0.906294
O O16 0.695460 0.419852 0.979042
O O17 0.195125 0.073097 0.916387
#
# Coordination Sequence:
#
# PCOD9004304 Si02
#       8
#     2   2   2   2   2   2   2   2
#     4   9  20  39  61  92 118 146 200 259 337 369
#     4  11  21  35  56  92 121 164 208 256 302 357
#     4  12  20  35  62  88 123 154 213 264 308 348
#     4  11  20  35  55  85 126 164 203 254 305 353
#     4  11  26  40  58  87 134 177 211 236 298 381
#     4  11  24  39  57  87 125 174 210 247 296 362
#     4  11  22  39  61  87 126 163 202 255 311 380
#     4  10  21  37  65  95 113 152 200 271 324 362
#
# _framework density 22.27084
#
# number of rings (size 3 to 8) (size 9 to 14) (size 15 to 20)
#    0.000    1.250    5.000    2.250    1.750    0.000 
#    0.000    2.500    0.000    1.500    0.000    0.000 
#    0.000    0.000    0.000    0.000    0.000    0.000 
#
# Total GULP energy -89375.263202 kJ/mol
# GULP energy per Si atom -5585.953950 kJ/mol
# Density = 2.222015 g / cm^3
# Si number density = 22.270840 Si / 1000 Ang^3
#
#
#
# Elastic Constant Matrix: (Units=GPa)
#
#
# Indices 1 2 3 4 5 6 
#
# 1 167.2392 44.6807 23.0481 -4.9998 -17.0948 28.4827
# 2 44.6807 117.3613 -2.1868 -14.1780 1.5106 10.4014
# 3 23.0481 -2.1868 59.8239 -2.1723 1.0931 1.6755
# 4 -4.9998 -14.1780 -2.1723 24.4540 -0.5113 -1.4203
# 5 -17.0948 1.5106 1.0931 -0.5113 22.7945 -7.1830
# 6 28.4827 10.4014 1.6755 -1.4203 -7.1830 25.8962
#
#
#
# Elastic Compliance Matrix: (Units=1/GPa)
#
#
# Indices 1 2 3 4 5 6 
#
# 1 0.008933 -0.002959 -0.003457 -0.000508 0.004810 -0.007107
# 2 -0.002959 0.010545 0.001837 0.005499 -0.003434 -0.001751
# 3 -0.003457 0.001837 0.018214 0.001974 -0.003194 0.001108
# 4 -0.000508 0.005499 0.001974 0.044204 0.000389 0.000755
# 5 0.004810 -0.003434 -0.003194 0.000389 0.051180 0.010513
# 6 -0.007107 -0.001751 0.001108 0.000755 0.010513 0.050022
#
#
# Mechanical properties :
#
#
# Convention : Reuss Voigt Hill
#
# Bulk Modulus (GPa) = 35.04614 52.83424 43.94019
# Shear Modulus (GPa) = 24.78094 33.22110 29.00102
#
# Velocity S-wave (km/s) = 3.33935 3.86643 3.61251
# Velocity P-wave (km/s) = 5.53523 6.61115 6.09697
#
# Compressibility (1/GPa) = 0.02853381
#
# Stress axis : x y z
#
# Youngs Moduli (GPa) = 111.94007 94.83124 54.90344
#
# Poissons Ratio (x) = 0.28059 0.18981
# Poissons Ratio (y) = 0.33122 -0.10085
# Poissons Ratio (z) = 0.38700 -0.17419
#
# Static dielectric constant tensor:
#      x y z
#    x 1.853900 -0.010050 -0.024630 
#    y -0.010050 1.892540 -0.027490 
#    z -0.024630 -0.027490 1.919780 
# 
# From -- ./inp_files/69898.got.cif
#   From: 2010.05.17/outbox.cif.g08.bks.cpg/sg2_35_cif.got.tgz:69898.got - 2010.06.03 11:33:40.
