data_PCOD9004152
_publ_section_title
;
Structure prediction by ZEFSAII (Michael W. Deem and Ramdas Pophale) SiO2 
 PCOD9004152
Probable space group: P -1
;
_chemical_formula_sum "Si O2"
_cell_formula_units_Z 16
_cell_length_a 11.045786
_cell_length_b 14.705983
_cell_length_c 9.975425
_cell_angle_alpha 155.385999
_cell_angle_beta 64.237865
_cell_angle_gamma 111.805589
_cell_volume 606.607398
_symmetry_space_group_name_H-M "P -1"
_symmetry_group_IT_number 2
_symmetry_cell_setting 'triclinic'
loop_
_space_group_symop_operation_xyz
x,y,z
-x,-y,-z
loop_
_atom_site_type_symbol
_atom_site_label
_atom_site_fract_x
_atom_site_fract_y
_atom_site_fract_z
Si Si1 0.336619 0.485951 0.560723
Si Si2 0.712853 0.439321 0.873123
Si Si3 0.537766 0.095460 0.455256
Si Si4 0.646114 0.991547 0.982167
Si Si5 0.103086 0.287685 0.692293
Si Si6 0.937342 0.039790 0.229375
Si Si7 0.742944 0.055867 0.730720
Si Si8 0.728558 0.696192 0.931185
O O1 0.500000 0.500000 0.500000
O O2 0.307522 0.253488 0.325592
O O3 0.288071 0.464756 0.402261
O O4 0.262519 0.685625 0.946020
O O5 0.573048 0.325581 0.812146
O O6 0.822356 0.235604 0.544810
O O7 0.721421 0.567890 0.901210
O O8 0.757515 0.597902 0.182836
O O9 0.389881 0.032351 0.394311
O O10 0.622041 0.111454 0.295354
O O11 0.609936 0.890259 0.225242
O O12 0.723128 0.063984 0.912166
O O13 0.500000 0.000000 0.000000
O O14 0.126023 0.109934 0.568112
O O15 0.048505 0.131698 0.394868
O O16 0.000000 0.500000 0.000000
O O17 0.865156 0.824259 0.022675
O O18 0.000000 0.000000 0.000000
#
# Coordination Sequence:
#
# PCOD9004152 Si02
#       8
#     2   2   2   2   2   2   2   2
#     4  11  19  33  58 102 137 154 200 260 329 391
#     4  10  22  42  64  88 128 174 206 261 324 381
#     4   9  19  34  61  98 130 159 204 258 324 393
#     4   9  17  30  55  93 129 164 190 255 324 373
#     4  10  25  47  64  86 128 178 227 263 309 378
#     4  10  24  44  66  94 120 159 227 274 310 373
#     4  11  21  36  63  91 133 172 206 262 324 377
#     4  10  21  37  64  93 133 162 199 265 328 377
#
# _framework density 26.376201999999999
#
# number of rings (size 3 to 8) (size 9 to 14) (size 15 to 20)
#    0.000    2.000    3.750    0.750    8.750    1.500 
#    0.000    4.375    0.000    0.000    0.000    0.000 
#    0.000    0.000    0.000    0.000    0.000    0.000 
#
# Total GULP energy -89311.235146 kJ/mol
# GULP energy per Si atom -5581.952197 kJ/mol
# Density = 2.631617 g / cm^3
# Si number density = 26.376202 Si / 1000 Ang^3
#
#
#
# Elastic Constant Matrix: (Units=GPa)
#
#
# Indices 1 2 3 4 5 6 
#
# 1 153.0725 50.5532 78.7914 9.3882 39.5214 -19.5390
# 2 50.5532 142.7217 22.9996 14.1678 32.6631 -8.4196
# 3 78.7914 22.9996 141.6817 11.7319 44.6982 -2.6748
# 4 9.3882 14.1678 11.7319 41.5053 -8.8629 9.1895
# 5 39.5214 32.6631 44.6982 -8.8629 66.1100 -3.2127
# 6 -19.5390 -8.4196 -2.6748 9.1895 -3.2127 38.6930
#
#
#
# Elastic Compliance Matrix: (Units=1/GPa)
#
#
# Indices 1 2 3 4 5 6 
#
# 1 0.011096 -0.002107 -0.004815 -0.002066 -0.002366 0.005106
# 2 -0.002107 0.009162 0.001639 -0.004540 -0.004901 0.001715
# 3 -0.004815 0.001639 0.011844 -0.004024 -0.006519 -0.000842
# 4 -0.002066 -0.004540 -0.004024 0.031353 0.009968 -0.008928
# 5 -0.002366 -0.004901 -0.006519 0.009968 0.024558 -0.003040
# 6 0.005106 0.001715 -0.000842 -0.008928 -0.003040 0.030606
#
#
# Mechanical properties :
#
#
# Convention : Reuss Voigt Hill
#
# Bulk Modulus (GPa) = 46.43361 82.46270 64.44816
# Shear Modulus (GPa) = 36.66647 48.27044 42.46846
#
# Velocity S-wave (km/s) = 3.73250 4.28258 4.01696
# Velocity P-wave (km/s) = 6.01813 7.46900 6.78247
#
# Compressibility (1/GPa) = 0.02153612
#
# Stress axis : x y z
#
# Youngs Moduli (GPa) = 90.11933 109.14400 84.43227
#
# Poissons Ratio (x) = 0.22994 0.40655
# Poissons Ratio (y) = 0.18986 -0.13836
# Poissons Ratio (z) = 0.43393 -0.17885
#
# Static dielectric constant tensor:
#      x y z
#    x 2.142410 0.086790 -0.104610 
#    y 0.086790 2.149630 -0.076650 
#    z -0.104610 -0.076650 2.200140 
# 
# From -- ./inp_files/437468.got.cif
#   From: 2010.05.17/outbox.cif.g08.bks.cpg/sg2_219_cif.got.tgz:437468.got - 2010.06.03 11:33:40.
