data_PCOD9004285
_publ_section_title
;
Structure prediction by ZEFSAII (Michael W. Deem and Ramdas Pophale) SiO2 
 PCOD9004285
Probable space group: P -1
;
_chemical_formula_sum "Si O2"
_cell_formula_units_Z 16
_cell_length_a 11.597537
_cell_length_b 14.717657
_cell_length_c 8.449224
_cell_angle_alpha 140.454976
_cell_angle_beta 114.109942
_cell_angle_gamma 51.388415
_cell_volume 709.783118
_symmetry_space_group_name_H-M "P -1"
_symmetry_group_IT_number 2
_symmetry_cell_setting 'triclinic'
loop_
_space_group_symop_operation_xyz
x,y,z
-x,-y,-z
loop_
_atom_site_type_symbol
_atom_site_label
_atom_site_fract_x
_atom_site_fract_y
_atom_site_fract_z
Si Si1 0.563005 0.578634 0.264192
Si Si2 0.021470 0.448106 0.259077
Si Si3 0.936999 0.879412 0.071687
Si Si4 0.763371 0.222458 0.016122
Si Si5 0.342841 0.967954 0.089475
Si Si6 0.326524 0.209573 0.958707
Si Si7 0.277622 0.279231 0.667482
Si Si8 0.728513 0.097602 0.483987
O O1 0.654247 0.642068 0.303328
O O2 0.415308 0.745174 0.467527
O O3 0.500000 0.500000 0.000000
O O4 0.670123 0.425101 0.232320
O O5 0.000000 0.500000 0.500000
O O6 0.900945 0.604154 0.297037
O O7 0.991242 0.296023 0.029288
O O8 0.191016 0.362662 0.182773
O O9 0.060108 0.854830 0.983546
O O10 0.871229 0.032088 0.363234
O O11 0.787926 0.913842 0.946667
O O12 0.702212 0.154940 0.024288
O O13 0.745182 0.155979 0.744925
O O14 0.509775 0.867916 0.982739
O O15 0.336758 0.092196 0.388436
O O16 0.325984 0.272136 0.864833
O O17 0.295259 0.058396 0.722774
#
# Coordination Sequence:
#
# PCOD9004285 Si02
#       8
#     2   2   2   2   2   2   2   2
#     4  10  21  37  65  93 128 164 211 267 317 372
#     4  11  24  42  64  96 130 168 210 271 327 379
#     4  11  24  41  63  93 132 173 214 259 326 387
#     4  11  22  43  64  92 131 171 217 261 319 384
#     4  12  24  41  67  96 133 168 212 271 324 380
#     4  11  23  40  66 100 125 164 222 268 318 380
#     4  12  21  42  67  96 131 166 219 267 320 383
#     4  10  21  39  65  97 122 168 219 265 316 383
#
# _framework density 22.542096999999998
#
# number of rings (size 3 to 8) (size 9 to 14) (size 15 to 20)
#    0.000    1.000    5.000    3.000    0.000    3.000 
#    0.000    1.875    0.000    0.000    0.000    0.000 
#    0.000    0.000    0.000    0.000    0.000    0.000 
#
# Total GULP energy -89493.474567 kJ/mol
# GULP energy per Si atom -5593.342160 kJ/mol
# Density = 2.249079 g / cm^3
# Si number density = 22.542097 Si / 1000 Ang^3
#
#
#
# Elastic Constant Matrix: (Units=GPa)
#
#
# Indices 1 2 3 4 5 6 
#
# 1 82.4029 9.4659 -0.0256 26.6059 -1.9406 -19.9363
# 2 9.4659 74.2207 11.9040 18.1924 -4.7344 -13.2328
# 3 -0.0256 11.9040 60.6602 17.5192 -13.8527 -10.9110
# 4 26.6059 18.1924 17.5192 43.0550 -8.3353 0.4747
# 5 -1.9406 -4.7344 -13.8527 -8.3353 24.8556 12.3148
# 6 -19.9363 -13.2328 -10.9110 0.4747 12.3148 49.2341
#
#
#
# Elastic Compliance Matrix: (Units=1/GPa)
#
#
# Indices 1 2 3 4 5 6 
#
# 1 0.019931 0.002425 0.004959 -0.016767 -0.006606 0.011636
# 2 0.002425 0.016289 -0.000161 -0.008930 -0.002823 0.006117
# 3 0.004959 -0.000161 0.022057 -0.010797 0.006371 0.005364
# 4 -0.016767 -0.008930 -0.010797 0.044545 0.013540 -0.015398
# 5 -0.006606 -0.002823 0.006371 0.013540 0.055174 -0.015953
# 6 0.011636 0.006117 0.005364 -0.015398 -0.015953 0.031994
#
#
# Mechanical properties :
#
#
# Convention : Reuss Voigt Hill
#
# Bulk Modulus (GPa) = 13.75036 28.88583 21.31810
# Shear Modulus (GPa) = 25.02692 36.49158 30.75925
#
# Velocity S-wave (km/s) = 3.33563 4.02782 3.69796
# Velocity P-wave (km/s) = 4.57693 5.87138 5.26410
#
# Compressibility (1/GPa) = 0.07272534
#
# Stress axis : x y z
#
# Youngs Moduli (GPa) = 50.17186 61.39048 45.33698
#
# Poissons Ratio (x) = -0.14890 -0.22484
# Poissons Ratio (y) = -0.12169 0.00729
# Poissons Ratio (z) = -0.24881 0.00988
#
# Static dielectric constant tensor:
#      x y z
#    x 1.849910 -0.037890 -0.005680 
#    y -0.037890 1.834450 -0.010990 
#    z -0.005680 -0.010990 1.854680 
# 
# From -- ./inp_files/226498.got.cif
#   From: 2010.05.17/outbox.cif.g08.bks.cpg/sg2_114_cif.got.tgz:226498.got - 2010.06.03 11:33:40.
