data_PCOD9004508
_publ_section_title
;
Structure prediction by ZEFSAII (Michael W. Deem and Ramdas Pophale) SiO2 
 PCOD9004508
Probable space group: P -1
;
_chemical_formula_sum "Si O2"
_cell_formula_units_Z 14
_cell_length_a 9.425627
_cell_length_b 21.249429
_cell_length_c 6.485139
_cell_angle_alpha 128.305976
_cell_angle_beta 128.169338
_cell_angle_gamma 40.352007
_cell_volume 632.275802
_symmetry_space_group_name_H-M "P -1"
_symmetry_group_IT_number 2
_symmetry_cell_setting 'triclinic'
loop_
_space_group_symop_operation_xyz
x,y,z
-x,-y,-z
loop_
_atom_site_type_symbol
_atom_site_label
_atom_site_fract_x
_atom_site_fract_y
_atom_site_fract_z
Si Si1 0.871182 0.229711 0.581380
Si Si2 0.616984 0.055406 0.235263
Si Si3 0.816650 0.728351 0.818134
Si Si4 0.506352 0.405665 0.878756
Si Si5 0.871500 0.329293 0.402712
Si Si6 0.026010 0.009349 0.278497
Si Si7 0.936309 0.453408 0.020694
O O1 0.623335 0.323685 0.635542
O O2 0.918681 0.239692 0.407016
O O3 0.917109 0.125820 0.455315
O O4 0.046079 0.235383 0.881485
O O5 0.441329 0.170484 0.229918
O O6 0.859489 0.991730 0.205034
O O7 0.710886 0.056445 0.546103
O O8 0.500000 0.000000 0.000000
O O9 0.931519 0.692476 0.620174
O O10 0.876605 0.639220 0.848145
O O11 0.500000 0.500000 0.000000
O O12 0.663916 0.361815 0.134264
O O13 0.250957 0.454998 0.813688
O O14 0.827863 0.410091 0.698983
O O15 0.000000 0.000000 0.000000
O O16 0.000000 0.500000 0.000000
#
# Coordination Sequence:
#
# PCOD9004508 Si02
#       7
#     2   2   2   2   2   2   2
#     4  10  22  40  67  99 135 178 236 285 342 421
#     4  11  25  47  74  99 144 185 229 299 359 412
#     4  10  22  43  66  97 137 181 233 283 350 417
#     4  11  20  40  65  92 131 181 227 275 336 413
#     4  10  21  37  68  93 134 178 227 276 346 401
#     4  11  27  45  72 108 137 181 242 286 359 426
#     4  11  24  39  62 101 136 178 227 280 343 411
#
# _framework density 22.142234999999999
#
# number of rings (size 3 to 8) (size 9 to 14) (size 15 to 20)
#    0.000    1.429    5.714    0.429    2.000    6.857 
#    0.000    0.000    0.000    0.000    0.000    0.000 
#    0.000    0.000    0.000    0.000    0.000    0.000 
#
# Total GULP energy -78154.614562 kJ/mol
# GULP energy per Si atom -5582.472469 kJ/mol
# Density = 2.209184 g / cm^3
# Si number density = 22.142235 Si / 1000 Ang^3
#
#
#
# Elastic Constant Matrix: (Units=GPa)
#
#
# Indices 1 2 3 4 5 6 
#
# 1 125.8522 61.4448 34.5792 -11.7645 -0.9302 20.5930
# 2 61.4448 133.4629 35.8328 -18.7158 -7.2919 4.9361
# 3 34.5792 35.8328 98.9182 -22.3576 -6.7058 5.1596
# 4 -11.7645 -18.7158 -22.3576 30.2552 1.6390 -1.6074
# 5 -0.9302 -7.2919 -6.7058 1.6390 38.5650 -6.8918
# 6 20.5930 4.9361 5.1596 -1.6074 -6.8918 29.6581
#
#
#
# Elastic Compliance Matrix: (Units=1/GPa)
#
#
# Indices 1 2 3 4 5 6 
#
# 1 0.012201 -0.004876 -0.002315 -0.000268 -0.002419 -0.007834
# 2 -0.004876 0.010625 -0.001296 0.003746 0.001954 0.002500
# 3 -0.002315 -0.001296 0.013308 0.008057 0.001733 0.000347
# 4 -0.000268 0.003746 0.008057 0.041222 0.000440 0.000497
# 5 -0.002419 0.001954 0.001733 0.000440 0.027874 0.007554
# 6 -0.007834 0.002500 0.000347 0.000497 0.007554 0.040463
#
#
# Mechanical properties :
#
#
# Convention : Reuss Voigt Hill
#
# Bulk Modulus (GPa) = 52.18590 69.10523 60.64557
# Shear Modulus (GPa) = 29.57629 34.78742 32.18186
#
# Velocity S-wave (km/s) = 3.65874 3.96800 3.81650
# Velocity P-wave (km/s) = 6.43958 7.22985 6.84613
#
# Compressibility (1/GPa) = 0.01916226
#
# Stress axis : x y z
#
# Youngs Moduli (GPa) = 81.95760 94.11782 75.14026
#
# Poissons Ratio (x) = 0.45890 0.17394
# Poissons Ratio (y) = 0.39961 0.09735
# Poissons Ratio (z) = 0.18972 0.12194
#
# Static dielectric constant tensor:
#      x y z
#    x 1.874480 0.032480 -0.024780 
#    y 0.032480 1.755250 0.035520 
#    z -0.024780 0.035520 1.818590 
# 
# From -- ./inp_files/53833.got.cif
#   From: 2010.05.17/outbox.cif.g08.bks.cpg/sg2_27_cif.got.tgz:53833.got - 2010.06.03 11:33:40.
