data_PCOD9004908
_publ_section_title
;
Structure prediction by ZEFSAII (Michael W. Deem and Ramdas Pophale) SiO2 
 PCOD9004908
Probable space group: P -1
;
_chemical_formula_sum "Si O2"
_cell_formula_units_Z 10
_cell_length_a 19.108251
_cell_length_b 8.304662
_cell_length_c 8.711281
_cell_angle_alpha 122.411568
_cell_angle_beta 26.317575
_cell_angle_gamma 129.212154
_cell_volume 472.961035
_symmetry_space_group_name_H-M "P -1"
_symmetry_group_IT_number 2
_symmetry_cell_setting 'triclinic'
loop_
_space_group_symop_operation_xyz
x,y,z
-x,-y,-z
loop_
_atom_site_type_symbol
_atom_site_label
_atom_site_fract_x
_atom_site_fract_y
_atom_site_fract_z
Si Si1 0.803134 0.673109 0.270491
Si Si2 0.526544 0.226126 0.504171
Si Si3 0.874259 0.343177 0.293257
Si Si4 0.678757 0.617088 0.804715
Si Si5 0.402449 0.084783 0.360139
O O1 0.692425 0.424258 0.339483
O O2 0.802298 0.740192 0.485255
O O3 0.702113 0.789031 0.440221
O O4 0.000875 0.291586 0.133255
O O5 0.527022 0.221456 0.317375
O O6 0.500000 0.000000 0.500000
O O7 0.365527 0.262920 0.911239
O O8 0.756652 0.461190 0.640065
O O9 0.738129 0.122034 0.388859
O O10 0.000000 0.500000 0.000000
O O11 0.500000 0.500000 0.000000
O O12 0.500000 0.000000 0.000000
#
# Coordination Sequence:
#
# PCOD9004908 Si02
#       5
#     2   2   2   2   2
#     4  10  21  38  59  90 121 152 197 253 297 341
#     4  11  21  38  61  87 118 162 203 238 291 366
#     4  10  21  40  62  87 121 159 195 243 300 355
#     4   9  18  37  61  84 115 157 198 234 287 361
#     4  12  23  39  62  90 121 158 199 248 297 349
#
# _framework density 21.143391999999999
#
# number of rings (size 3 to 8) (size 9 to 14) (size 15 to 20)
#    0.000    1.600    0.000    8.400    0.000    0.000 
#    0.000   15.000    0.000    0.000    0.000    0.000 
#    0.000    0.000    0.000    0.000    0.000    0.000 
#
# Total GULP energy -55729.528373 kJ/mol
# GULP energy per Si atom -5572.952837 kJ/mol
# Density = 2.109527 g / cm^3
# Si number density = 21.143392 Si / 1000 Ang^3
#
#
#
# Elastic Constant Matrix: (Units=GPa)
#
#
# Indices 1 2 3 4 5 6 
#
# 1 95.4644 15.3776 43.5204 29.1286 -12.5052 -11.9008
# 2 15.3776 92.0921 34.5082 11.9647 -8.1154 -7.3570
# 3 43.5204 34.5082 80.8869 32.0529 -12.1777 0.5418
# 4 29.1286 11.9647 32.0529 46.0913 -6.8678 -7.7264
# 5 -12.5052 -8.1154 -12.1777 -6.8678 42.7802 12.2687
# 6 -11.9008 -7.3570 0.5418 -7.7264 12.2687 38.5975
#
#
#
# Elastic Compliance Matrix: (Units=1/GPa)
#
#
# Indices 1 2 3 4 5 6 
#
# 1 0.015382 0.000946 -0.006799 -0.004458 0.000926 0.003832
# 2 0.000946 0.013297 -0.006601 0.001087 0.000215 0.003068
# 3 -0.006799 -0.006601 0.023920 -0.011255 0.003814 -0.007156
# 4 -0.004458 0.001087 -0.011255 0.032929 -0.000677 0.005798
# 5 0.000926 0.000215 0.003814 -0.000677 0.027094 -0.008475
# 6 0.003832 0.003068 -0.007156 0.005798 -0.008475 0.031630
#
#
# Mechanical properties :
#
#
# Convention : Reuss Voigt Hill
#
# Bulk Modulus (GPa) = 36.11440 50.58399 43.34920
# Shear Modulus (GPa) = 28.02868 37.16295 32.59582
#
# Velocity S-wave (km/s) = 3.64489 4.19700 3.93065
# Velocity P-wave (km/s) = 5.90182 6.88931 6.41459
#
# Compressibility (1/GPa) = 0.02768978
#
# Stress axis : x y z
#
# Youngs Moduli (GPa) = 65.01309 75.20535 41.80683
#
# Poissons Ratio (x) = -0.07116 0.28426
# Poissons Ratio (y) = -0.06152 0.27596
# Poissons Ratio (z) = 0.44205 0.49642
#
# Static dielectric constant tensor:
#      x y z
#    x 1.805710 -0.047830 -0.022770 
#    y -0.047830 1.773590 -0.039270 
#    z -0.022770 -0.039270 1.868220 
# 
# From -- ./inp_files/351273.got.cif
#   From: 2010.05.17/outbox.cif.g08.bks.cpg/sg2_176_cif.got.tgz:351273.got - 2010.06.03 11:33:40.
