data_PCOD9004742
_publ_section_title
;
Structure prediction by ZEFSAII (Michael W. Deem and Ramdas Pophale) SiO2 
 PCOD9004742
Probable space group: P -1
;
_chemical_formula_sum "Si O2"
_cell_formula_units_Z 16
_cell_length_a 6.583675
_cell_length_b 18.906668
_cell_length_c 5.549544
_cell_angle_alpha 77.159155
_cell_angle_beta 74.582958
_cell_angle_gamma 87.292819
_cell_volume 649.219049
_symmetry_space_group_name_H-M "P -1"
_symmetry_group_IT_number 2
_symmetry_cell_setting 'triclinic'
loop_
_space_group_symop_operation_xyz
x,y,z
-x,-y,-z
loop_
_atom_site_type_symbol
_atom_site_label
_atom_site_fract_x
_atom_site_fract_y
_atom_site_fract_z
Si Si1 0.899176 0.240896 0.854998
Si Si2 0.094286 0.618264 0.923868
Si Si3 0.810871 0.694139 0.644968
Si Si4 0.668841 0.472246 0.779013
Si Si5 0.167173 0.935884 0.499658
Si Si6 0.483951 0.392740 0.512758
Si Si7 0.188499 0.168197 0.161687
Si Si8 0.618723 0.100912 0.037591
O O1 0.710866 0.183633 0.940092
O O2 0.967856 0.280404 0.560675
O O3 0.877865 0.304176 0.010822
O O4 0.098742 0.193093 0.914256
O O5 0.298123 0.605617 0.704954
O O6 0.878380 0.626025 0.839262
O O7 0.113251 0.552970 0.157714
O O8 0.654384 0.672587 0.497166
O O9 0.731279 0.760595 0.777159
O O10 0.564170 0.399405 0.752830
O O11 0.662281 0.536888 0.540117
O O12 0.500000 0.500000 0.000000
O O13 0.303683 0.933839 0.212599
O O14 0.015808 0.864466 0.612917
O O15 0.294921 0.934867 0.714474
O O16 0.000000 0.000000 0.500000
O O17 0.368827 0.109533 0.125051
#
# Coordination Sequence:
#
# PCOD9004742 Si02
#       8
#     2   2   2   2   2   2   2   2
#     4  10  22  39  60  92 131 165 220 280 328 407
#     4  10  21  38  58  87 121 165 210 277 342 395
#     4  11  22  38  63  92 124 165 225 279 333 403
#     4   9  20  39  57  83 122 160 214 271 338 411
#     4  11  25  45  70 105 142 180 231 278 329 409
#     4  10  21  38  61  84 117 167 216 272 339 408
#     4  10  24  42  65  98 136 176 226 275 339 400
#     4  11  24  43  71  98 140 187 221 284 340 392
#
# _framework density 24.644991000000001
#
# number of rings (size 3 to 8) (size 9 to 14) (size 15 to 20)
#    0.000    1.750    1.250    1.875    1.750    7.500 
#    0.000    8.750    0.000    0.000    0.000    0.000 
#    0.000    0.000    0.000    0.000    0.000    0.000 
#
# Total GULP energy -89461.040392 kJ/mol
# GULP energy per Si atom -5591.315025 kJ/mol
# Density = 2.458890 g / cm^3
# Si number density = 24.644991 Si / 1000 Ang^3
#
#
#
# Elastic Constant Matrix: (Units=GPa)
#
#
# Indices 1 2 3 4 5 6 
#
# 1 83.7061 30.6006 51.9731 1.3951 0.3242 -27.3491
# 2 30.6006 71.0507 27.9074 13.7448 9.0163 -24.0127
# 3 51.9731 27.9074 110.9858 17.8920 11.7508 -25.5293
# 4 1.3951 13.7448 17.8920 32.2249 -2.3077 2.3822
# 5 0.3242 9.0163 11.7508 -2.3077 31.8426 -4.4437
# 6 -27.3491 -24.0127 -25.5293 2.3822 -4.4437 43.1525
#
#
#
# Elastic Compliance Matrix: (Units=1/GPa)
#
#
# Indices 1 2 3 4 5 6 
#
# 1 0.021218 -0.005940 -0.008979 0.006653 0.005970 0.005078
# 2 -0.005940 0.022176 0.001969 -0.011473 -0.006421 0.009712
# 3 -0.008979 0.001969 0.016185 -0.010263 -0.006502 0.004877
# 4 0.006653 -0.011473 -0.010263 0.042676 0.008708 -0.009699
# 5 0.005970 -0.006421 -0.006502 0.008708 0.036137 -0.000395
# 6 0.005078 0.009712 0.004877 -0.009699 -0.000395 0.035176
#
#
# Mechanical properties :
#
#
# Convention : Reuss Voigt Hill
#
# Bulk Modulus (GPa) = 29.69282 54.07832 41.88557
# Shear Modulus (GPa) = 23.73095 31.79477 27.76286
#
# Velocity S-wave (km/s) = 3.10645 3.59571 3.36000
# Velocity P-wave (km/s) = 4.99410 6.26334 5.66438
#
# Compressibility (1/GPa) = 0.03367817
#
# Stress axis : x y z
#
# Youngs Moduli (GPa) = 47.12909 45.09360 61.78703
#
# Poissons Ratio (x) = 0.26786 0.55480
# Poissons Ratio (y) = 0.27995 -0.12165
# Poissons Ratio (z) = 0.42318 -0.08878
#
# Static dielectric constant tensor:
#      x y z
#    x 1.938380 0.034780 0.031710 
#    y 0.034780 1.974130 -0.055520 
#    z 0.031710 -0.055520 2.039860 
# 
# From -- ./inp_files/10597.got.cif
#   From: 2010.05.17/outbox.cif.g08.bks.cpg/sg2_6_cif.got.tgz:10597.got - 2010.06.03 11:33:40.
