data_PCOD9004901
_publ_section_title
;
Structure prediction by ZEFSAII (Michael W. Deem and Ramdas Pophale) SiO2 
 PCOD9004901
Probable space group: P -1
;
_chemical_formula_sum "Si O2"
_cell_formula_units_Z 14
_cell_length_a 11.191696
_cell_length_b 11.863537
_cell_length_c 6.084606
_cell_angle_alpha 55.965878
_cell_angle_beta 64.245927
_cell_angle_gamma 61.393402
_cell_volume 572.156102
_symmetry_space_group_name_H-M "P -1"
_symmetry_group_IT_number 2
_symmetry_cell_setting 'triclinic'
loop_
_space_group_symop_operation_xyz
x,y,z
-x,-y,-z
loop_
_atom_site_type_symbol
_atom_site_label
_atom_site_fract_x
_atom_site_fract_y
_atom_site_fract_z
Si Si1 0.105027 0.806353 0.427085
Si Si2 0.122917 0.567620 0.340989
Si Si3 0.679462 0.718664 0.397793
Si Si4 0.582740 0.113243 0.813708
Si Si5 0.321153 0.603810 0.793396
Si Si6 0.510994 0.296868 0.068145
Si Si7 0.854477 0.909232 0.844658
O O1 0.084336 0.717595 0.331291
O O2 0.252058 0.710964 0.532220
O O3 0.980034 0.822769 0.683958
O O4 0.098115 0.969234 0.199134
O O5 0.240748 0.448447 0.512600
O O6 0.000000 0.500000 0.500000
O O7 0.188031 0.574275 0.044884
O O8 0.535459 0.755147 0.340241
O O9 0.618127 0.741096 0.669903
O O10 0.780080 0.810703 0.145311
O O11 0.727224 0.021314 0.687613
O O12 0.593800 0.164664 0.995807
O O13 0.500000 0.000000 0.000000
O O14 0.384504 0.674081 0.865811
O O15 0.438131 0.449026 0.838062
#
# Coordination Sequence:
#
# PCOD9004901 Si02
#       7
#     2   2   2   2   2   2   2
#     4  11  23  44  64  87 131 168 202 259 310 365
#     4  11  24  41  67  96 121 160 213 260 309 369
#     4  10  22  41  64  94 124 161 209 257 310 364
#     4  10  21  38  59  89 125 162 200 245 305 367
#     4  10  22  40  66  95 120 160 208 258 315 362
#     4  10  21  39  65  95 124 156 207 262 307 363
#     4  10  23  40  62  91 124 171 208 241 309 373
#
# _framework density 24.468848000000001
#
# number of rings (size 3 to 8) (size 9 to 14) (size 15 to 20)
#    0.000    1.714    0.000    3.429    0.000    9.143 
#    0.000   25.714    0.000    0.000    0.000    0.000 
#    0.000    0.000    0.000    0.000    0.000    0.000 
#
# Total GULP energy -78137.624461 kJ/mol
# GULP energy per Si atom -5581.258890 kJ/mol
# Density = 2.441316 g / cm^3
# Si number density = 24.468848 Si / 1000 Ang^3
#
#
#
# Elastic Constant Matrix: (Units=GPa)
#
#
# Indices 1 2 3 4 5 6 
#
# 1 66.6844 18.2823 5.1461 9.5602 -9.8160 -17.2588
# 2 18.2823 106.6190 8.3050 13.7639 -2.2803 -6.6866
# 3 5.1461 8.3050 68.5248 -5.0892 -34.1696 5.6844
# 4 9.5602 13.7639 -5.0892 22.1338 -5.5224 -3.9176
# 5 -9.8160 -2.2803 -34.1696 -5.5224 44.9427 -1.1924
# 6 -17.2588 -6.6866 5.6844 -3.9176 -1.1924 39.5037
#
#
#
# Elastic Compliance Matrix: (Units=1/GPa)
#
#
# Indices 1 2 3 4 5 6 
#
# 1 0.018694 -0.001995 -0.000578 -0.004849 0.003146 0.007527
# 2 -0.001995 0.010927 -0.003502 -0.007486 -0.003447 0.000635
# 3 -0.000578 -0.003502 0.027320 0.013731 0.022081 -0.002748
# 4 -0.004849 -0.007486 0.013731 0.059338 0.016319 0.001016
# 5 0.003146 -0.003447 0.022081 0.016319 0.041569 0.000487
# 6 0.007527 0.000635 -0.002748 0.001016 0.000487 0.029221
#
#
# Mechanical properties :
#
#
# Convention : Reuss Voigt Hill
#
# Bulk Modulus (GPa) = 22.32591 33.92166 28.12379
# Shear Modulus (GPa) = 23.34840 35.32237 29.33538
#
# Velocity S-wave (km/s) = 3.09238 3.80355 3.46625
# Velocity P-wave (km/s) = 4.67915 5.76044 5.24772
#
# Compressibility (1/GPa) = 0.04479101
#
# Stress axis : x y z
#
# Youngs Moduli (GPa) = 53.49315 91.52023 36.60382
#
# Poissons Ratio (x) = 0.18260 0.02114
# Poissons Ratio (y) = 0.10673 0.12818
# Poissons Ratio (z) = 0.03090 0.32048
#
# Static dielectric constant tensor:
#      x y z
#    x 1.968610 0.082330 -0.029940 
#    y 0.082330 1.768020 0.014710 
#    z -0.029940 0.014710 2.063960 
# 
# From -- ./inp_files/68341.got.cif
#   From: 2010.05.17/outbox.cif.g08.bks.cpg/sg2_35_cif.got.tgz:68341.got - 2010.06.03 11:33:40.
