data_PCOD9004316
_publ_section_title
;
Structure prediction by ZEFSAII (Michael W. Deem and Ramdas Pophale) SiO2 
 PCOD9004316
Probable space group: P -1
;
_chemical_formula_sum "Si O2"
_cell_formula_units_Z 16
_cell_length_a 20.484244
_cell_length_b 12.616742
_cell_length_c 18.267633
_cell_angle_alpha 29.657459
_cell_angle_beta 19.498600
_cell_angle_gamma 40.240574
_cell_volume 733.862618
_symmetry_space_group_name_H-M "P -1"
_symmetry_group_IT_number 2
_symmetry_cell_setting 'triclinic'
loop_
_space_group_symop_operation_xyz
x,y,z
-x,-y,-z
loop_
_atom_site_type_symbol
_atom_site_label
_atom_site_fract_x
_atom_site_fract_y
_atom_site_fract_z
Si Si1 0.223223 0.671024 0.136451
Si Si2 0.730477 0.909593 0.273894
Si Si3 0.318498 0.525618 0.977110
Si Si4 0.236733 0.664864 0.739763
Si Si5 0.982174 0.821758 0.796788
Si Si6 0.647846 0.047622 0.030902
Si Si7 0.082757 0.729540 0.019699
Si Si8 0.587930 0.917156 0.885851
O O1 0.000000 0.500000 0.500000
O O2 0.318865 0.537176 0.057858
O O3 0.223148 0.894174 0.954911
O O4 0.343381 0.770838 0.023934
O O5 0.493070 0.755141 0.626437
O O6 0.860791 0.741073 0.225254
O O7 0.807065 0.034074 0.195901
O O8 0.097904 0.539021 0.175143
O O9 0.371615 0.320052 0.009721
O O10 0.075724 0.760385 0.809544
O O11 0.469711 0.813536 0.383527
O O12 0.199498 0.691999 0.847563
O O13 0.178255 0.405415 0.932123
O O14 0.185103 0.907931 0.479647
O O15 0.866275 0.003351 0.821689
O O16 0.569957 0.105162 0.001114
O O17 0.500000 0.000000 0.000000
#
# Coordination Sequence:
#
# PCOD9004316 Si02
#       8
#     2   2   2   2   2   2   2   2
#     4  11  23  43  71 104 137 171 218 278 337 406
#     4  10  22  40  65  99 131 166 223 263 327 406
#     4  11  24  43  66  93 135 173 220 272 329 394
#     4  10  21  39  66  97 127 171 226 267 333 400
#     4  10  23  42  63  95 132 170 225 281 324 396
#     4  11  23  43  69  93 133 177 216 276 344 388
#     4  10  21  37  65  96 127 168 213 270 327 385
#     4  11  28  45  62  97 135 177 235 276 328 398
#
# _framework density 21.802446
#
# number of rings (size 3 to 8) (size 9 to 14) (size 15 to 20)
#    0.000    1.500    0.000    4.875    3.500    6.000 
#    2.250    0.000    0.000    0.000    0.000    0.000 
#    0.000    0.000    0.000    0.000    0.000    0.000 
#
# Total GULP energy -89412.834881 kJ/mol
# GULP energy per Si atom -5588.302180 kJ/mol
# Density = 2.175282 g / cm^3
# Si number density = 21.802446 Si / 1000 Ang^3
#
#
#
# Elastic Constant Matrix: (Units=GPa)
#
#
# Indices 1 2 3 4 5 6 
#
# 1 96.8925 33.2498 28.3503 7.7092 4.5879 32.4278
# 2 33.2498 109.4231 7.9481 11.9132 1.3564 10.4385
# 3 28.3503 7.9481 82.9274 -8.7242 -3.0651 12.4410
# 4 7.7092 11.9132 -8.7242 32.2222 2.5149 -1.7876
# 5 4.5879 1.3564 -3.0651 2.5149 21.8217 4.5126
# 6 32.4278 10.4385 12.4410 -1.7876 4.5126 32.3690
#
#
#
# Elastic Compliance Matrix: (Units=1/GPa)
#
#
# Indices 1 2 3 4 5 6 
#
# 1 0.018452 -0.003197 -0.004148 -0.005223 -0.000331 -0.016102
# 2 -0.003197 0.010502 -0.000184 -0.003222 0.000438 -0.000353
# 3 -0.004148 -0.000184 0.014289 0.004646 0.002642 -0.001389
# 4 -0.005223 -0.003222 0.004646 0.035396 -0.003563 0.006937
# 5 -0.000331 0.000438 0.002642 -0.003563 0.048253 -0.007748
# 6 -0.016102 -0.000353 -0.001389 0.006937 -0.007748 0.049136
#
#
# Mechanical properties :
#
#
# Convention : Reuss Voigt Hill
#
# Bulk Modulus (GPa) = 35.47678 47.59326 41.53502
# Shear Modulus (GPa) = 24.94015 31.92891 28.43453
#
# Velocity S-wave (km/s) = 3.38585 3.83098 3.61527
# Velocity P-wave (km/s) = 5.62073 6.43780 6.04309
#
# Compressibility (1/GPa) = 0.02818745
#
# Stress axis : x y z
#
# Youngs Moduli (GPa) = 54.19569 95.21543 69.98317
#
# Poissons Ratio (x) = 0.30437 0.29027
# Poissons Ratio (y) = 0.17325 0.01285
# Poissons Ratio (z) = 0.22479 0.01748
#
# Static dielectric constant tensor:
#      x y z
#    x 1.808610 -0.044860 -0.014700 
#    y -0.044860 1.821310 0.008650 
#    z -0.014700 0.008650 1.806150 
# 
# From -- ./inp_files/577907.got.cif
#   From: 2010.05.17/outbox.cif.g08.bks.cpg/sg2_289_cif.got.tgz:577907.got - 2010.06.03 11:33:40.
