data_PCOD9004366
_publ_section_title
;
Structure prediction by ZEFSAII (Michael W. Deem and Ramdas Pophale) SiO2 
 PCOD9004366
Probable space group: P -1
;
_chemical_formula_sum "Si O2"
_cell_formula_units_Z 16
_cell_length_a 12.140576
_cell_length_b 15.302931
_cell_length_c 7.788106
_cell_angle_alpha 83.245249
_cell_angle_beta 108.145314
_cell_angle_gamma 151.329761
_cell_volume 620.042811
_symmetry_space_group_name_H-M "P -1"
_symmetry_group_IT_number 2
_symmetry_cell_setting 'triclinic'
loop_
_space_group_symop_operation_xyz
x,y,z
-x,-y,-z
loop_
_atom_site_type_symbol
_atom_site_label
_atom_site_fract_x
_atom_site_fract_y
_atom_site_fract_z
Si Si1 0.025376 0.039345 0.228306
Si Si2 0.253473 0.441938 0.993502
Si Si3 0.467000 0.076485 0.797401
Si Si4 0.738478 0.988944 0.923940
Si Si5 0.726997 0.237896 0.355854
Si Si6 0.019930 0.573535 0.211398
Si Si7 0.948519 0.099683 0.507985
Si Si8 0.536669 0.481962 0.284111
O O1 0.922737 0.015392 0.357901
O O2 0.313572 0.270077 0.297279
O O3 0.848543 0.965155 0.014899
O O4 0.006425 0.924169 0.290594
O O5 0.385043 0.503862 0.865320
O O6 0.201203 0.510758 0.945020
O O7 0.423337 0.504682 0.201632
O O8 0.974899 0.209621 0.932115
O O9 0.361110 0.041012 0.933642
O O10 0.391935 0.925432 0.760731
O O11 0.308966 0.020836 0.588249
O O12 0.764658 0.290252 0.859053
O O13 0.496273 0.839772 0.719559
O O14 0.845414 0.291811 0.584268
O O15 0.930302 0.421814 0.287262
O O16 0.193296 0.326054 0.534664
#
# Coordination Sequence:
#
# PCOD9004366 Si02
#       8
#     2   2   2   2   2   2   2   2
#     4   9  21  40  59  96 121 155 208 252 299 367
#     4  10  22  41  60  90 124 158 208 249 302 367
#     4  11  23  42  64  93 126 164 203 253 307 368
#     4  10  22  42  65  90 128 161 205 257 307 361
#     4  11  24  40  63  91 126 163 204 254 304 366
#     4  11  25  41  62  94 124 163 207 251 310 367
#     4  10  21  37  66  89 123 163 199 249 309 359
#     4  10  21  39  62  88 123 162 200 254 303 357
#
# _framework density 25.804670000000002
#
# number of rings (size 3 to 8) (size 9 to 14) (size 15 to 20)
#    0.000    1.750    1.250    1.875    3.500    3.500 
#    0.000    4.375    0.000    0.000    0.000    0.000 
#    0.000    0.000    0.000    0.000    0.000    0.000 
#
# Total GULP energy -89615.431627 kJ/mol
# GULP energy per Si atom -5600.964477 kJ/mol
# Density = 2.574594 g / cm^3
# Si number density = 25.804670 Si / 1000 Ang^3
#
#
#
# Elastic Constant Matrix: (Units=GPa)
#
#
# Indices 1 2 3 4 5 6 
#
# 1 104.2486 46.9413 22.1359 -17.7313 19.4573 10.0275
# 2 46.9413 105.5060 21.1896 -17.8338 9.0623 6.0561
# 3 22.1359 21.1896 60.7218 -11.3936 -0.9252 7.9836
# 4 -17.7313 -17.8338 -11.3936 40.3868 5.5963 -1.9349
# 5 19.4573 9.0623 -0.9252 5.5963 31.3684 2.9953
# 6 10.0275 6.0561 7.9836 -1.9349 2.9953 31.5442
#
#
#
# Elastic Compliance Matrix: (Units=1/GPa)
#
#
# Indices 1 2 3 4 5 6 
#
# 1 0.014788 -0.004321 -0.002830 0.004892 -0.008687 -0.002030
# 2 -0.004321 0.012530 -0.002199 0.003226 -0.001568 -0.000129
# 3 -0.002830 -0.002199 0.019292 0.002660 0.002835 -0.003667
# 4 0.004892 0.003226 0.002660 0.030367 -0.009296 -0.000102
# 5 -0.008687 -0.001568 0.002835 -0.009296 0.039653 -0.001991
# 6 -0.002030 -0.000129 -0.003667 -0.000102 -0.001991 0.033482
#
#
# Mechanical properties :
#
#
# Convention : Reuss Voigt Hill
#
# Bulk Modulus (GPa) = 35.83080 50.11223 42.97151
# Shear Modulus (GPa) = 28.07169 32.67385 30.37277
#
# Velocity S-wave (km/s) = 3.30184 3.56223 3.43450
# Velocity P-wave (km/s) = 5.33402 6.03169 5.69355
#
# Compressibility (1/GPa) = 0.02790895
#
# Stress axis : x y z
#
# Youngs Moduli (GPa) = 67.62250 79.81024 51.83459
#
# Poissons Ratio (x) = 0.34489 0.14671
# Poissons Ratio (y) = 0.29222 0.11397
# Poissons Ratio (z) = 0.19140 0.17548
#
# Static dielectric constant tensor:
#      x y z
#    x 2.044500 -0.021110 0.024470 
#    y -0.021110 1.992390 -0.019140 
#    z 0.024470 -0.019140 2.125180 
# 
# From -- ./inp_files/272961.got.cif
#   From: 2010.05.17/outbox.cif.g08.bks.cpg/sg2_137_cif.got.tgz:272961.got - 2010.06.03 11:33:40.
