data_PCOD9004413
_publ_section_title
;
Structure prediction by ZEFSAII (Michael W. Deem and Ramdas Pophale) SiO2 
 PCOD9004413
Probable space group: P -1
;
_chemical_formula_sum "Si O2"
_cell_formula_units_Z 14
_cell_length_a 8.851587
_cell_length_b 18.576585
_cell_length_c 7.233892
_cell_angle_alpha 131.259694
_cell_angle_beta 54.357716
_cell_angle_gamma 146.722025
_cell_volume 489.209271
_symmetry_space_group_name_H-M "P -1"
_symmetry_group_IT_number 2
_symmetry_cell_setting 'triclinic'
loop_
_space_group_symop_operation_xyz
x,y,z
-x,-y,-z
loop_
_atom_site_type_symbol
_atom_site_label
_atom_site_fract_x
_atom_site_fract_y
_atom_site_fract_z
Si Si1 0.235021 0.069394 0.592920
Si Si2 0.400849 0.949809 0.697230
Si Si3 0.134216 0.737479 0.993668
Si Si4 0.132919 0.445675 0.784191
Si Si5 0.627006 0.665569 0.068018
Si Si6 0.670709 0.399718 0.442682
Si Si7 0.091662 0.141920 0.231664
O O1 0.309597 0.203567 0.837009
O O2 0.515227 0.124345 0.428124
O O3 0.073326 0.924418 0.570172
O O4 0.000000 0.000000 0.500000
O O5 0.576989 0.094966 0.931781
O O6 0.500000 0.000000 0.500000
O O7 0.077236 0.849530 0.760386
O O8 0.061124 0.696391 0.195679
O O9 0.890509 0.704649 0.013386
O O10 0.169813 0.641749 0.732602
O O11 0.175123 0.463119 0.563390
O O12 0.420972 0.543190 0.855630
O O13 0.000000 0.500000 0.000000
O O14 0.447796 0.615322 0.299181
O O15 0.403395 0.275126 0.292219
O O16 0.000000 0.000000 0.000000
#
# Coordination Sequence:
#
# PCOD9004413 Si02
#       7
#     2   2   2   2   2   2   2
#     4  11  21  39  62  97 133 175 211 277 346 390
#     4  10  21  37  66  96 132 180 218 272 347 396
#     4  11  23  45  69 100 139 178 232 284 335 406
#     4  10  26  46  72  98 135 184 231 285 339 400
#     4  12  24  47  70  99 145 175 228 290 337 404
#     4  11  24  46  70 105 134 185 229 274 345 411
#     4  11  20  38  64  95 136 169 222 275 327 409
#
# _framework density 28.617612999999999
#
# number of rings (size 3 to 8) (size 9 to 14) (size 15 to 20)
#    0.000    1.143    4.286    2.143    6.000    2.857 
#    5.143    2.143    0.000    0.000    0.000    0.000 
#    0.000    0.000    0.000    0.000    0.000    0.000 
#
# Total GULP energy -78395.660707 kJ/mol
# GULP energy per Si atom -5599.690051 kJ/mol
# Density = 2.855248 g / cm^3
# Si number density = 28.617613 Si / 1000 Ang^3
#
#
#
# Elastic Constant Matrix: (Units=GPa)
#
#
# Indices 1 2 3 4 5 6 
#
# 1 228.9931 51.2073 51.2249 -17.3132 -34.7740 21.5992
# 2 51.2073 101.5038 7.1900 3.5778 -2.5551 -20.9163
# 3 51.2249 7.1900 103.4753 -14.0802 -8.2513 -5.3282
# 4 -17.3132 3.5778 -14.0802 48.8119 -7.4894 5.4680
# 5 -34.7740 -2.5551 -8.2513 -7.4894 51.9398 -7.0060
# 6 21.5992 -20.9163 -5.3282 5.4680 -7.0060 67.1510
#
#
#
# Elastic Compliance Matrix: (Units=1/GPa)
#
#
# Indices 1 2 3 4 5 6 
#
# 1 0.007074 -0.004128 -0.002658 0.003072 0.004068 -0.003598
# 2 -0.004128 0.013080 0.000872 -0.003049 -0.001673 0.005545
# 3 -0.002658 0.000872 0.011362 0.002154 0.000638 0.001919
# 4 0.003072 -0.003049 0.002154 0.023575 0.005225 -0.003142
# 5 0.004068 -0.001673 0.000638 0.005225 0.022772 0.000171
# 6 -0.003598 0.005545 0.001919 -0.003142 0.000171 0.018202
#
#
# Mechanical properties :
#
#
# Convention : Reuss Voigt Hill
#
# Bulk Modulus (GPa) = 50.79070 72.57965 61.68518
# Shear Modulus (GPa) = 43.68473 55.20387 49.44430
#
# Velocity S-wave (km/s) = 3.91128 4.39682 4.16114
# Velocity P-wave (km/s) = 6.17933 7.15493 6.68495
#
# Compressibility (1/GPa) = 0.01968864
#
# Stress axis : x y z
#
# Youngs Moduli (GPa) = 141.36343 76.45022 88.01185
#
# Poissons Ratio (x) = 0.31556 0.23393
# Poissons Ratio (y) = 0.58350 -0.07672
# Poissons Ratio (z) = 0.37573 -0.06664
#
# Static dielectric constant tensor:
#      x y z
#    x -2.368380 -2.349720 2.806980 
#    y -2.349720 1.143380 1.278700 
#    z 2.806980 1.278700 0.668540 
# 
# From -- ./inp_files/222413.got.cif
#   From: 2010.05.17/outbox.cif.g08.bks.cpg/sg2_112_cif.got.tgz:222413.got - 2010.06.03 11:33:40.
