data_PCOD9004185
_publ_section_title
;
Structure prediction by ZEFSAII (Michael W. Deem and Ramdas Pophale) SiO2 
 PCOD9004185
Probable space group: P -1
;
_chemical_formula_sum "Si O2"
_cell_formula_units_Z 15
_cell_length_a 12.837341
_cell_length_b 11.315898
_cell_length_c 12.452891
_cell_angle_alpha 123.032265
_cell_angle_beta 156.455714
_cell_angle_gamma 57.919772
_cell_volume 603.147205
_symmetry_space_group_name_H-M "P -1"
_symmetry_group_IT_number 2
_symmetry_cell_setting 'triclinic'
loop_
_space_group_symop_operation_xyz
x,y,z
-x,-y,-z
loop_
_atom_site_type_symbol
_atom_site_label
_atom_site_fract_x
_atom_site_fract_y
_atom_site_fract_z
Si Si1 0.675179 0.203215 0.518858
Si Si2 0.349331 0.195136 0.817152
Si Si3 0.555032 0.918409 0.379957
Si Si4 0.677737 0.479263 0.053322
Si Si5 0.129620 0.363036 0.115774
Si Si6 0.000000 0.000000 0.000000
Si Si7 0.211925 0.459602 0.479502
Si Si8 0.189074 0.803584 0.602546
O O1 0.569009 0.073352 0.415779
O O2 0.426989 0.321021 0.339249
O O3 0.757686 0.172943 0.459875
O O4 0.931607 0.245034 0.845336
O O5 0.308800 0.360036 0.892046
O O6 0.092414 0.136382 0.591279
O O7 0.387755 0.180275 0.719139
O O8 0.603151 0.135741 0.092090
O O9 0.789922 0.911034 0.685016
O O10 0.262259 0.916580 0.148230
O O11 0.979449 0.423645 0.322070
O O12 0.500000 0.500000 0.000000
O O13 0.501654 0.404135 0.764400
O O14 0.141707 0.397666 0.268984
O O15 0.000000 0.500000 0.000000
O O16 0.212079 0.630502 0.552922
#
# Coordination Sequence:
#
# PCOD9004185 Si02
#       8
#     2   2   2   2   2   1   2   2
#     4  12  25  40  65 100 133 164 226 267 310 399
#     4  10  22  40  66  89 128 170 207 259 345 374
#     4  11  24  47  67  96 129 170 221 274 316 389
#     4  10  21  40  59  92 119 160 217 274 305 382
#     4  12  24  40  65  95 133 182 205 259 331 391
#     4  10  24  48  70  84 132 174 216 274 328 354
#     4  10  21  38  60  86 129 162 207 257 327 373
#     4  10  21  37  64  96 126 166 203 262 326 396
#
# _framework density 24.869551000000001
#
# number of rings (size 3 to 8) (size 9 to 14) (size 15 to 20)
#    0.000    1.333    1.333    4.000    3.733    1.067 
#   14.400    0.000    0.000    0.000    0.000    0.000 
#    0.000    0.000    0.000    0.000    0.000    0.000 
#
# Total GULP energy -83717.008531 kJ/mol
# GULP energy per Si atom -5581.133902 kJ/mol
# Density = 2.481295 g / cm^3
# Si number density = 24.869551 Si / 1000 Ang^3
#
#
#
# Elastic Constant Matrix: (Units=GPa)
#
#
# Indices 1 2 3 4 5 6 
#
# 1 98.1472 12.6704 73.2037 -11.8805 16.5696 -31.2525
# 2 12.6704 52.6438 38.6297 -5.6826 7.2393 -3.9263
# 3 73.2037 38.6297 233.9419 -7.0566 14.7759 -34.5093
# 4 -11.8805 -5.6826 -7.0566 13.8476 -12.8881 -0.6898
# 5 16.5696 7.2393 14.7759 -12.8881 49.4393 2.0216
# 6 -31.2525 -3.9263 -34.5093 -0.6898 2.0216 39.8755
#
#
#
# Elastic Compliance Matrix: (Units=1/GPa)
#
#
# Indices 1 2 3 4 5 6 
#
# 1 0.018491 0.000805 -0.003651 0.012689 -0.002397 0.011753
# 2 0.000805 0.022398 -0.003729 0.007542 -0.000459 -0.000237
# 3 -0.003651 -0.003729 0.006355 -0.002004 -0.000745 0.002274
# 4 0.012689 0.007542 -0.002004 0.106762 0.022679 0.009650
# 5 -0.002397 -0.000459 -0.000745 0.022679 0.027378 -0.003564
# 6 0.011753 -0.000237 0.002274 0.009650 -0.003564 0.036582
#
#
# Mechanical properties :
#
#
# Convention : Reuss Voigt Hill
#
# Bulk Modulus (GPa) = 29.33155 70.41561 49.87358
# Shear Modulus (GPa) = 20.62023 37.98109 29.30066
#
# Velocity S-wave (km/s) = 2.88260 3.91220 3.43618
# Velocity P-wave (km/s) = 4.78528 6.98445 5.98671
#
# Compressibility (1/GPa) = 0.03409298
#
# Stress axis : x y z
#
# Youngs Moduli (GPa) = 54.07999 44.64761 157.36126
#
# Poissons Ratio (x) = -0.03592 0.57455
# Poissons Ratio (y) = -0.04351 0.58675
# Poissons Ratio (z) = 0.19746 0.16648
#
# Static dielectric constant tensor:
#      x y z
#    x 1.928330 0.043820 0.007480 
#    y 0.043820 2.061720 0.022880 
#    z 0.007480 0.022880 2.050060 
# 
# From -- ./inp_files/434284.got.cif
#   From: 2010.05.17/outbox.cif.g08.bks.cpg/sg2_218_cif.got.tgz:434284.got - 2010.06.03 11:33:40.
