data_PCOD9004559
_publ_section_title
;
Structure prediction by ZEFSAII (Michael W. Deem and Ramdas Pophale) SiO2 
 PCOD9004559
Probable space group: P -1
;
_chemical_formula_sum "Si O2"
_cell_formula_units_Z 14
_cell_length_a 17.370760
_cell_length_b 5.463648
_cell_length_c 7.471908
_cell_angle_alpha 67.868351
_cell_angle_beta 104.123574
_cell_angle_gamma 124.578752
_cell_volume 540.426299
_symmetry_space_group_name_H-M "P -1"
_symmetry_group_IT_number 2
_symmetry_cell_setting 'triclinic'
loop_
_space_group_symop_operation_xyz
x,y,z
-x,-y,-z
loop_
_atom_site_type_symbol
_atom_site_label
_atom_site_fract_x
_atom_site_fract_y
_atom_site_fract_z
Si Si1 0.306724 0.749328 0.045264
Si Si2 0.838043 0.362874 0.708369
Si Si3 0.978199 0.546723 0.270982
Si Si4 0.124835 0.163491 0.701275
Si Si5 0.477173 0.178480 0.290231
Si Si6 0.677020 0.687719 0.269738
Si Si7 0.326251 0.263050 0.338990
O O1 0.215496 0.657662 0.136869
O O2 0.303831 0.430431 0.124171
O O3 0.401620 0.964172 0.157601
O O4 0.311210 0.974785 0.832230
O O5 0.878987 0.686888 0.534566
O O6 0.919686 0.293137 0.804092
O O7 0.756612 0.096055 0.612694
O O8 0.925430 0.732291 0.212964
O O9 0.000000 0.500000 0.500000
O O10 0.919593 0.203058 0.248859
O O11 0.233947 0.305660 0.758728
O O12 0.577397 0.437544 0.198495
O O13 0.425804 0.317294 0.333643
O O14 0.500000 0.000000 0.500000
O O15 0.674164 0.614148 0.498866
#
# Coordination Sequence:
#
# PCOD9004559 Si02
#       7
#     2   2   2   2   2   2   2
#     4  11  25  42  65 102 128 177 223 275 346 406
#     4  10  21  42  67  95 139 171 223 284 335 407
#     4  10  21  37  70 102 130 181 236 277 342 409
#     4  11  22  40  66 104 131 183 232 279 343 407
#     4  11  23  45  67  94 133 177 222 281 340 405
#     4  12  23  43  68  95 138 171 227 282 335 406
#     4  11  23  44  66  97 130 179 224 274 344 403
#
# _framework density 25.905473000000001
#
# number of rings (size 3 to 8) (size 9 to 14) (size 15 to 20)
#    0.000    1.143    2.857    5.143    2.000    0.571 
#   15.429    1.429    0.000    0.000    0.000    0.000 
#    0.000    0.000    0.000    0.000    0.000    0.000 
#
# Total GULP energy -78426.262343 kJ/mol
# GULP energy per Si atom -5601.875882 kJ/mol
# Density = 2.584651 g / cm^3
# Si number density = 25.905473 Si / 1000 Ang^3
#
#
#
# Elastic Constant Matrix: (Units=GPa)
#
#
# Indices 1 2 3 4 5 6 
#
# 1 234.2564 59.1816 25.7365 2.2450 21.5775 17.8192
# 2 59.1816 70.4312 16.9669 1.1209 -0.3041 -0.6439
# 3 25.7365 16.9669 110.9759 -2.5477 16.9272 -4.9907
# 4 2.2450 1.1209 -2.5477 27.4214 -9.1589 5.2021
# 5 21.5775 -0.3041 16.9272 -9.1589 29.4425 -12.8174
# 6 17.8192 -0.6439 -4.9907 5.2021 -12.8174 37.5207
#
#
#
# Elastic Compliance Matrix: (Units=1/GPa)
#
#
# Indices 1 2 3 4 5 6 
#
# 1 0.007050 -0.006056 0.000295 -0.002048 -0.008691 -0.006098
# 2 -0.006056 0.020024 -0.002766 0.001391 0.009193 0.005799
# 3 0.000295 -0.002766 0.010360 -0.001086 -0.006996 -0.001049
# 4 -0.002048 0.001391 -0.001086 0.041491 0.015169 0.000282
# 5 -0.008691 0.009193 -0.006996 0.015169 0.058400 0.021201
# 6 -0.006098 0.005799 -0.001049 0.000282 0.021201 0.036712
#
#
# Mechanical properties :
#
#
# Convention : Reuss Voigt Hill
#
# Bulk Modulus (GPa) = 49.06687 68.82596 58.94641
# Shear Modulus (GPa) = 25.26718 39.79550 32.53134
#
# Velocity S-wave (km/s) = 3.12646 3.92367 3.54753
# Velocity P-wave (km/s) = 5.65817 6.86678 6.29156
#
# Compressibility (1/GPa) = 0.02038035
#
# Stress axis : x y z
#
# Youngs Moduli (GPa) = 141.83555 49.93992 96.52107
#
# Poissons Ratio (x) = 0.30244 -0.02850
# Poissons Ratio (y) = 0.85897 0.26702
# Poissons Ratio (z) = -0.04188 0.13816
#
# Static dielectric constant tensor:
#      x y z
#    x 2.021420 -0.015900 0.008490 
#    y -0.015900 2.065630 -0.012580 
#    z 0.008490 -0.012580 1.982250 
# 
# From -- ./inp_files/48389.got.cif
#   From: 2010.05.17/outbox.cif.g08.bks.cpg/sg2_25_cif.got.tgz:48389.got - 2010.06.03 11:33:40.
