data_PCOD9004693
_publ_section_title
;
Structure prediction by ZEFSAII (Michael W. Deem and Ramdas Pophale) SiO2 
 PCOD9004693
Probable space group: P -1
;
_chemical_formula_sum "Si O2"
_cell_formula_units_Z 14
_cell_length_a 8.445482
_cell_length_b 7.161622
_cell_length_c 20.553772
_cell_angle_alpha 112.221657
_cell_angle_beta 143.439009
_cell_angle_gamma 53.618696
_cell_volume 583.541845
_symmetry_space_group_name_H-M "P -1"
_symmetry_group_IT_number 2
_symmetry_cell_setting 'triclinic'
loop_
_space_group_symop_operation_xyz
x,y,z
-x,-y,-z
loop_
_atom_site_type_symbol
_atom_site_label
_atom_site_fract_x
_atom_site_fract_y
_atom_site_fract_z
Si Si1 0.170736 0.838820 0.197602
Si Si2 0.608652 0.250690 0.532842
Si Si3 0.381637 0.058917 0.893365
Si Si4 0.832274 0.124113 0.391981
Si Si5 0.749110 0.641494 0.855158
Si Si6 0.181422 0.795727 0.979424
Si Si7 0.337716 0.198256 0.563535
O O1 0.206127 0.608962 0.144521
O O2 0.509846 0.791739 0.318667
O O3 0.975251 0.863362 0.201831
O O4 0.985508 0.075524 0.125860
O O5 0.500000 0.500000 0.500000
O O6 0.455129 0.289722 0.556691
O O7 0.512148 0.084330 0.440461
O O8 0.982263 0.086618 0.627016
O O9 0.570462 0.830671 0.878820
O O10 0.500000 0.000000 0.000000
O O11 0.474495 0.243669 0.919658
O O12 0.475401 0.260314 0.270527
O O13 0.973033 0.292670 0.451193
O O14 0.000000 0.000000 0.500000
O O15 0.079545 0.612928 0.942289
O O16 0.000000 0.000000 0.000000
#
# Coordination Sequence:
#
# PCOD9004693 Si02
#       7
#     2   2   2   2   2   2   2
#     4  11  22  39  67  90 123 169 207 249 321 372
#     4   9  20  39  60  80 124 170 203 250 302 355
#     4   9  21  41  64  89 121 156 207 266 310 373
#     4  10  21  38  57  91 130 161 208 255 299 369
#     4  11  23  40  63  91 128 163 209 258 311 373
#     4   9  21  41  60  91 126 150 204 271 303 369
#     4   9  21  38  57  91 127 159 214 248 296 372
#
# _framework density 23.991423999999999
#
# number of rings (size 3 to 8) (size 9 to 14) (size 15 to 20)
#    0.857    1.429    0.000    1.714    2.000    6.286 
#    2.571    4.286    0.000    0.000    0.000    0.000 
#    0.000    0.000    0.000    0.000    0.000    0.000 
#
# Total GULP energy -78036.344505 kJ/mol
# GULP energy per Si atom -5574.024607 kJ/mol
# Density = 2.393682 g / cm^3
# Si number density = 23.991424 Si / 1000 Ang^3
#
#
#
# Elastic Constant Matrix: (Units=GPa)
#
#
# Indices 1 2 3 4 5 6 
#
# 1 98.5265 10.8687 15.6572 2.2575 -3.2226 -7.9764
# 2 10.8687 77.8861 9.4072 7.4732 -0.6831 -1.2502
# 3 15.6572 9.4072 65.9552 7.3264 -4.0353 5.1551
# 4 2.2575 7.4732 7.3264 23.8369 -0.2619 -2.4209
# 5 -3.2226 -0.6831 -4.0353 -0.2619 27.3464 0.0123
# 6 -7.9764 -1.2502 5.1551 -2.4209 0.0123 46.4266
#
#
#
# Elastic Compliance Matrix: (Units=1/GPa)
#
#
# Indices 1 2 3 4 5 6 
#
# 1 0.010884 -0.001201 -0.002566 0.000362 0.000876 0.002141
# 2 -0.001201 0.013516 -0.001237 -0.003733 -0.000022 0.000100
# 3 -0.002566 -0.001237 0.016809 -0.004775 0.002102 -0.002590
# 4 0.000362 -0.003733 -0.004775 0.044840 -0.000327 0.002830
# 5 0.000876 -0.000022 0.002102 -0.000327 0.036978 -0.000110
# 6 0.002141 0.000100 -0.002590 0.002830 -0.000110 0.022345
#
#
# Mechanical properties :
#
#
# Convention : Reuss Voigt Hill
#
# Bulk Modulus (GPa) = 32.05220 34.91488 33.48354
# Shear Modulus (GPa) = 30.16042 33.28430 31.72236
#
# Velocity S-wave (km/s) = 3.54945 3.72874 3.64020
# Velocity P-wave (km/s) = 5.49427 5.75523 5.62627
#
# Compressibility (1/GPa) = 0.03119911
#
# Stress axis : x y z
#
# Youngs Moduli (GPa) = 91.88121 73.98656 59.49198
#
# Poissons Ratio (x) = 0.08889 0.15267
# Poissons Ratio (y) = 0.11039 0.07359
# Poissons Ratio (z) = 0.23579 0.09152
#
# Static dielectric constant tensor:
#      x y z
#    x 1.990950 -0.023360 -0.017000 
#    y -0.023360 2.015260 0.057190 
#    z -0.017000 0.057190 2.080420 
# 
# From -- ./inp_files/605913.got.cif
#   From: 2010.05.17/outbox.cif.g08.bks.cpg/sg2_303_cif.got.tgz:605913.got - 2010.06.03 11:33:40.
