data_PCOD9004571
_publ_section_title
;
Structure prediction by ZEFSAII (Michael W. Deem and Ramdas Pophale) SiO2 
 PCOD9004571
Probable space group: P -1
;
_chemical_formula_sum "Si O2"
_cell_formula_units_Z 14
_cell_length_a 8.496678
_cell_length_b 13.654015
_cell_length_c 8.766624
_cell_angle_alpha 56.837217
_cell_angle_beta 43.188710
_cell_angle_gamma 48.032576
_cell_volume 514.001471
_symmetry_space_group_name_H-M "P -1"
_symmetry_group_IT_number 2
_symmetry_cell_setting 'triclinic'
loop_
_space_group_symop_operation_xyz
x,y,z
-x,-y,-z
loop_
_atom_site_type_symbol
_atom_site_label
_atom_site_fract_x
_atom_site_fract_y
_atom_site_fract_z
Si Si1 0.442138 0.211814 0.954405
Si Si2 0.926699 0.702901 0.289485
Si Si3 0.852173 0.376970 0.253441
Si Si4 0.383962 0.134954 0.371867
Si Si5 0.647079 0.170820 0.535876
Si Si6 0.661304 0.412344 0.693117
Si Si7 0.878144 0.110387 0.124461
O O1 0.400762 0.124864 0.188879
O O2 0.148224 0.330551 0.036954
O O3 0.575492 0.128154 0.781486
O O4 0.614687 0.282629 0.821150
O O5 0.190060 0.577065 0.267867
O O6 0.874705 0.771268 0.437807
O O7 0.644793 0.727178 0.410975
O O8 0.988203 0.796814 0.055414
O O9 0.800478 0.251185 0.397925
O O10 0.785766 0.431151 0.428533
O O11 0.638773 0.473401 0.203424
O O12 0.579934 0.195287 0.212556
O O13 0.500000 0.000000 0.500000
O O14 0.832398 0.069524 0.361262
O O15 0.000000 0.000000 0.000000
#
# Coordination Sequence:
#
# PCOD9004571 Si02
#       7
#     2   2   2   2   2   2   2
#     4  11  21  42  65  97 139 170 218 283 325 387
#     4  11  21  41  65  95 130 175 220 273 320 399
#     4  10  21  41  63 100 138 172 218 273 329 395
#     4  11  22  38  69  97 121 174 226 267 332 394
#     4  10  25  40  64  97 137 173 213 280 336 382
#     4  10  21  37  70  98 127 183 225 259 331 397
#     4  11  22  42  68  91 125 175 222 273 326 397
#
# _framework density 27.237278
#
# number of rings (size 3 to 8) (size 9 to 14) (size 15 to 20)
#    0.000    1.429    4.286    1.286    0.000    0.571 
#    0.000    6.429    0.000    0.000    0.000    0.000 
#    0.000    0.000    0.000    0.000    0.000    0.143 
#
# Total GULP energy -78107.595818 kJ/mol
# GULP energy per Si atom -5579.113987 kJ/mol
# Density = 2.717528 g / cm^3
# Si number density = 27.237278 Si / 1000 Ang^3
#
#
#
# Elastic Constant Matrix: (Units=GPa)
#
#
# Indices 1 2 3 4 5 6 
#
# 1 83.6141 8.2925 47.1074 12.7498 -17.4864 -17.1923
# 2 8.2925 35.0530 21.5040 2.8604 16.9234 -10.5589
# 3 47.1074 21.5040 199.4833 13.1134 34.5493 1.7701
# 4 12.7498 2.8604 13.1134 29.0046 -9.4059 -0.9479
# 5 -17.4864 16.9234 34.5493 -9.4059 78.5435 3.0987
# 6 -17.1923 -10.5589 1.7701 -0.9479 3.0987 44.0195
#
#
#
# Elastic Compliance Matrix: (Units=1/GPa)
#
#
# Indices 1 2 3 4 5 6 
#
# 1 0.017938 -0.001945 -0.004885 -0.003364 0.005912 0.006247
# 2 -0.001945 0.037244 -0.001866 -0.004450 -0.008515 0.008752
# 3 -0.004885 -0.001866 0.007246 -0.002339 -0.004058 -0.002411
# 4 -0.003364 -0.004450 -0.002339 0.039345 0.006024 -0.001864
# 5 0.005912 -0.008515 -0.004058 0.006024 0.018418 -0.000737
# 6 0.006247 0.008752 -0.002411 -0.001864 -0.000737 0.027365
#
#
# Mechanical properties :
#
#
# Convention : Reuss Voigt Hill
#
# Bulk Modulus (GPa) = 22.20432 52.43980 37.32206
# Shear Modulus (GPa) = 27.78402 46.39662 37.09032
#
# Velocity S-wave (km/s) = 3.19732 4.13173 3.69419
# Velocity P-wave (km/s) = 4.66909 6.48509 5.65052
#
# Compressibility (1/GPa) = 0.04503628
#
# Stress axis : x y z
#
# Youngs Moduli (GPa) = 55.74604 26.85019 138.01639
#
# Poissons Ratio (x) = 0.05223 0.67417
# Poissons Ratio (y) = 0.10844 0.25752
# Poissons Ratio (z) = 0.27230 0.05010
#
# Static dielectric constant tensor:
#      x y z
#    x 2.388360 -0.158350 0.022170 
#    y -0.158350 2.320670 0.077410 
#    z 0.022170 0.077410 2.162980 
# 
# From -- ./inp_files/91106.got.cif
#   From: 2010.05.17/outbox.cif.g08.bks.cpg/sg2_46_cif.got.tgz:91106.got - 2010.06.03 11:33:40.
