data_PCOD9004946
_publ_section_title
;
Structure prediction by ZEFSAII (Michael W. Deem and Ramdas Pophale) SiO2 
 PCOD9004946
Probable space group: P -1
;
_chemical_formula_sum "Si O2"
_cell_formula_units_Z 16
_cell_length_a 10.010301
_cell_length_b 11.148502
_cell_length_c 15.162045
_cell_angle_alpha 39.935530
_cell_angle_beta 117.283653
_cell_angle_gamma 139.559598
_cell_volume 671.973651
_symmetry_space_group_name_H-M "P -1"
_symmetry_group_IT_number 2
_symmetry_cell_setting 'triclinic'
loop_
_space_group_symop_operation_xyz
x,y,z
-x,-y,-z
loop_
_atom_site_type_symbol
_atom_site_label
_atom_site_fract_x
_atom_site_fract_y
_atom_site_fract_z
Si Si1 0.734406 0.294751 0.794162
Si Si2 0.672757 0.279736 0.988251
Si Si3 0.113490 0.391635 0.804200
Si Si4 0.448083 0.753405 0.545376
Si Si5 0.744154 0.034059 0.632523
Si Si6 0.932058 0.130088 0.172787
Si Si7 0.218793 0.387049 0.528063
Si Si8 0.854392 0.868910 0.908533
O O1 0.678956 0.308835 0.868156
O O2 0.711884 0.439891 0.635037
O O3 0.979645 0.439638 0.779784
O O4 0.568618 0.974188 0.908511
O O5 0.824136 0.578075 0.902707
O O6 0.787756 0.184702 0.099392
O O7 0.269731 0.581907 0.665214
O O8 0.236784 0.380548 0.920884
O O9 0.938499 0.101781 0.868214
O O10 0.664002 0.918710 0.573912
O O11 0.400743 0.572819 0.553322
O O12 0.399645 0.920518 0.403313
O O13 0.727808 0.855305 0.799487
O O14 0.002550 0.295392 0.554018
O O15 0.938480 0.039953 0.129415
O O16 0.850736 0.891217 0.345909
#
# Coordination Sequence:
#
# PCOD9004946 Si02
#       8
#     2   2   2   2   2   2   2   2
#     4  11  23  43  70  97 129 179 224 270 339 394
#     4  10  24  46  66  91 132 180 228 275 326 392
#     4  11  20  39  67  95 135 173 210 271 337 401
#     4  11  21  39  65  96 143 172 211 267 341 410
#     4  10  21  38  59  97 138 178 208 262 331 406
#     4  10  21  46  66  91 135 174 222 282 330 382
#     4  11  22  43  69 100 133 174 218 283 332 391
#     4  10  21  39  62  97 129 171 210 271 332 392
#
# _framework density 23.810455999999999
#
# number of rings (size 3 to 8) (size 9 to 14) (size 15 to 20)
#    0.000    1.500    5.000    1.125    0.000    1.500 
#   29.250    0.000    0.000    0.000    0.000    0.000 
#    0.000    0.000    0.000    0.000    0.000    0.000 
#
# Total GULP energy -89388.762537 kJ/mol
# GULP energy per Si atom -5586.797659 kJ/mol
# Density = 2.375626 g / cm^3
# Si number density = 23.810456 Si / 1000 Ang^3
#
#
#
# Elastic Constant Matrix: (Units=GPa)
#
#
# Indices 1 2 3 4 5 6 
#
# 1 40.3249 5.5696 30.9507 -5.1346 -3.1214 -4.3071
# 2 5.5696 85.4398 45.2650 -1.3096 7.9809 0.5421
# 3 30.9507 45.2650 186.8301 11.1857 8.0882 -6.8118
# 4 -5.1346 -1.3096 11.1857 26.5836 1.9769 3.0491
# 5 -3.1214 7.9809 8.0882 1.9769 29.3948 -6.1497
# 6 -4.3071 0.5421 -6.8118 3.0491 -6.1497 19.2717
#
#
#
# Elastic Compliance Matrix: (Units=1/GPa)
#
#
# Indices 1 2 3 4 5 6 
#
# 1 0.031092 0.000615 -0.005780 0.007448 0.005358 0.005420
# 2 0.000615 0.013987 -0.003627 0.002963 -0.003593 -0.003154
# 3 -0.005780 -0.003627 0.007579 -0.004627 -0.001005 0.001900
# 4 0.007448 0.002963 -0.004627 0.042278 -0.003209 -0.007767
# 5 0.005358 -0.003593 -0.001005 -0.003209 0.038961 0.013884
# 6 0.005420 -0.003154 0.001900 -0.007767 0.013884 0.059521
#
#
# Mechanical properties :
#
#
# Convention : Reuss Voigt Hill
#
# Bulk Modulus (GPa) = 28.51270 52.90728 40.70999
# Shear Modulus (GPa) = 22.45238 30.43729 26.44483
#
# Velocity S-wave (km/s) = 3.07410 3.57923 3.33624
# Velocity P-wave (km/s) = 4.95994 6.27293 5.65467
#
# Compressibility (1/GPa) = 0.03507209
#
# Stress axis : x y z
#
# Youngs Moduli (GPa) = 32.16268 71.49556 131.94960
#
# Poissons Ratio (x) = -0.04394 0.76266
# Poissons Ratio (y) = -0.01977 0.47863
# Poissons Ratio (z) = 0.18590 0.25934
#
# Static dielectric constant tensor:
#      x y z
#    x 1.891070 0.017130 0.015660 
#    y 0.017130 1.954630 -0.026230 
#    z 0.015660 -0.026230 1.934720 
# 
# From -- ./inp_files/519551.got.cif
#   From: 2010.05.17/outbox.cif.g08.bks.cpg/sg2_260_cif.got.tgz:519551.got - 2010.06.03 11:33:40.
