data_PCOD9004358
_publ_section_title
;
Structure prediction by ZEFSAII (Michael W. Deem and Ramdas Pophale) SiO2 
 PCOD9004358
Probable space group: P -1
;
_chemical_formula_sum "Si O2"
_cell_formula_units_Z 14
_cell_length_a 9.335558
_cell_length_b 12.080508
_cell_length_c 19.181403
_cell_angle_alpha 151.596471
_cell_angle_beta 37.606652
_cell_angle_gamma 141.132173
_cell_volume 602.526329
_symmetry_space_group_name_H-M "P -1"
_symmetry_group_IT_number 2
_symmetry_cell_setting 'triclinic'
loop_
_space_group_symop_operation_xyz
x,y,z
-x,-y,-z
loop_
_atom_site_type_symbol
_atom_site_label
_atom_site_fract_x
_atom_site_fract_y
_atom_site_fract_z
Si Si1 0.219314 0.004425 0.121740
Si Si2 0.764093 0.097560 0.655637
Si Si3 0.865521 0.710332 0.806385
Si Si4 0.889827 0.709424 0.183228
Si Si5 0.648798 0.087266 0.180215
Si Si6 0.880919 0.451381 0.181001
Si Si7 0.438494 0.812386 0.356086
O O1 0.102818 0.951807 0.214267
O O2 0.170005 0.231008 0.228228
O O3 0.076132 0.775554 0.002628
O O4 0.500000 0.000000 0.000000
O O5 0.593614 0.061401 0.633472
O O6 0.876973 0.384722 0.785323
O O7 0.602836 0.981701 0.719555
O O8 0.000000 0.000000 0.500000
O O9 0.793955 0.421453 0.679486
O O10 0.130576 0.828017 0.802275
O O11 0.693444 0.852443 0.992703
O O12 0.815744 0.631939 0.248688
O O13 0.662106 0.699722 0.216934
O O14 0.000000 0.500000 0.000000
O O15 0.685436 0.312774 0.237103
O O16 0.500000 0.000000 0.500000
#
# Coordination Sequence:
#
# PCOD9004358 Si02
#       7
#     2   2   2   2   2   2   2
#     4  10  21  37  66 107 144 184 235 299 363 421
#     4  12  27  46  72 104 146 197 244 298 371 443
#     4  10  21  43  69 108 140 182 244 303 364 428
#     4  10  22  41  71 105 144 188 243 294 359 432
#     4  10  23  43  74 107 141 178 246 313 360 420
#     4  10  22  42  67 105 139 185 241 294 358 417
#     4  12  26  48  69 103 151 193 240 297 369 442
#
# _framework density 23.235499999999998
#
# number of rings (size 3 to 8) (size 9 to 14) (size 15 to 20)
#    0.000    1.429    1.429    3.429    8.000    2.286 
#    0.000    2.857    0.000    0.000    0.000    0.000 
#    0.000    0.000    0.000    0.000    0.000    0.000 
#
# Total GULP energy -78132.248521 kJ/mol
# GULP energy per Si atom -5580.874894 kJ/mol
# Density = 2.318262 g / cm^3
# Si number density = 23.235500 Si / 1000 Ang^3
#
#
#
# Elastic Constant Matrix: (Units=GPa)
#
#
# Indices 1 2 3 4 5 6 
#
# 1 139.2005 40.6533 24.4188 -3.1461 1.7532 -21.6891
# 2 40.6533 164.1417 30.9582 -5.6857 14.0710 -33.3310
# 3 24.4188 30.9582 53.3188 -3.7868 3.7499 7.6529
# 4 -3.1461 -5.6857 -3.7868 18.7428 9.9411 -0.3774
# 5 1.7532 14.0710 3.7499 9.9411 31.8399 10.1971
# 6 -21.6891 -33.3310 7.6529 -0.3774 10.1971 49.8469
#
#
#
# Elastic Compliance Matrix: (Units=1/GPa)
#
#
# Indices 1 2 3 4 5 6 
#
# 1 0.008811 -0.000147 -0.004383 0.001695 -0.001979 0.004826
# 2 -0.000147 0.010253 -0.006150 0.006817 -0.009011 0.009631
# 3 -0.004383 -0.006150 0.025688 0.000733 0.003097 -0.010591
# 4 0.001695 0.006817 0.000733 0.071638 -0.029313 0.011722
# 5 -0.001979 -0.009011 0.003097 -0.029313 0.049990 -0.017810
# 6 0.004826 0.009631 -0.010591 0.011722 -0.017810 0.033959
#
#
# Mechanical properties :
#
#
# Convention : Reuss Voigt Hill
#
# Bulk Modulus (GPa) = 42.75118 60.96907 51.86012
# Shear Modulus (GPa) = 21.78685 37.46130 29.62408
#
# Velocity S-wave (km/s) = 3.06544 4.01963 3.57452
# Velocity P-wave (km/s) = 5.56491 6.91663 6.27726
#
# Compressibility (1/GPa) = 0.02339117
#
# Stress axis : x y z
#
# Youngs Moduli (GPa) = 113.49611 97.53167 38.92928
#
# Poissons Ratio (x) = 0.01437 0.17062
# Poissons Ratio (y) = 0.01672 0.23942
# Poissons Ratio (z) = 0.49742 0.59984
#
# Static dielectric constant tensor:
#      x y z
#    x 1.949940 -0.063410 0.011260 
#    y -0.063410 2.004060 -0.001930 
#    z 0.011260 -0.001930 1.887350 
# 
# From -- ./inp_files/589168.got.cif
#   From: 2010.05.17/outbox.cif.g08.bks.cpg/sg2_295_cif.got.tgz:589168.got - 2010.06.03 11:33:40.
