data_PCOD9004542
_publ_section_title
;
Structure prediction by ZEFSAII (Michael W. Deem and Ramdas Pophale) SiO2 
 PCOD9004542
Probable space group: P -1
;
_chemical_formula_sum "Si O2"
_cell_formula_units_Z 16
_cell_length_a 9.173445
_cell_length_b 17.773116
_cell_length_c 6.046740
_cell_angle_alpha 102.884494
_cell_angle_beta 105.337325
_cell_angle_gamma 62.482711
_cell_volume 837.321758
_symmetry_space_group_name_H-M "P -1"
_symmetry_group_IT_number 2
_symmetry_cell_setting 'triclinic'
loop_
_space_group_symop_operation_xyz
x,y,z
-x,-y,-z
loop_
_atom_site_type_symbol
_atom_site_label
_atom_site_fract_x
_atom_site_fract_y
_atom_site_fract_z
Si Si1 0.932048 0.638298 0.634314
Si Si2 0.861796 0.020693 0.271584
Si Si3 0.581409 0.975623 0.268166
Si Si4 0.413966 0.550055 0.213650
Si Si5 0.161775 0.197142 0.577817
Si Si6 0.895014 0.286313 0.903497
Si Si7 0.981771 0.128311 0.122964
Si Si8 0.243386 0.483592 0.422437
O O1 0.831832 0.722623 0.497766
O O2 0.819324 0.590328 0.631361
O O3 0.094276 0.568053 0.524103
O O4 0.007101 0.668596 0.891886
O O5 0.856949 0.102075 0.193973
O O6 0.702178 0.022963 0.331271
O O7 0.000000 0.000000 0.500000
O O8 0.920644 0.945389 0.063510
O O9 0.685289 0.872156 0.265288
O O10 0.500000 0.000000 0.500000
O O11 0.500000 0.000000 0.000000
O O12 0.288328 0.647463 0.191949
O O13 0.288500 0.509816 0.221142
O O14 0.574734 0.542149 0.412423
O O15 0.500000 0.500000 0.000000
O O16 0.005342 0.240100 0.707133
O O17 0.113745 0.141890 0.344112
O O18 0.886075 0.215685 0.014391
#
# Coordination Sequence:
#
# PCOD9004542 Si02
#       8
#     2   2   2   2   2   2   2   2
#     4  10  22  39  66  93 123 176 214 265 317 410
#     4  11  21  41  70  96 124 175 223 271 321 416
#     4  12  27  45  68  99 140 177 217 284 352 396
#     4  11  22  39  61  94 128 166 205 274 325 386
#     4  11  22  43  65  96 129 172 223 271 329 408
#     4  11  21  38  67  91 124 171 220 268 329 387
#     4  10  21  37  69  96 125 166 232 271 320 399
#     4  10  22  40  61  93 132 163 216 261 334 391
#
# _framework density 19.108544999999999
#
# number of rings (size 3 to 8) (size 9 to 14) (size 15 to 20)
#    0.000    1.250    5.000    0.750    3.500    1.500 
#    2.250    1.250    0.000    0.000    0.000    0.000 
#    0.000    0.000    0.000    0.000    0.000    0.000 
#
# Total GULP energy -89126.417505 kJ/mol
# GULP energy per Si atom -5570.401094 kJ/mol
# Density = 1.906505 g / cm^3
# Si number density = 19.108545 Si / 1000 Ang^3
#
#
#
# Elastic Constant Matrix: (Units=GPa)
#
#
# Indices 1 2 3 4 5 6 
#
# 1 134.6041 50.9044 42.0932 -9.7031 -18.8345 27.1125
# 2 50.9044 124.0674 41.0749 -17.7857 -1.5789 12.7353
# 3 42.0932 41.0749 98.6582 -0.1281 -14.6300 6.0923
# 4 -9.7031 -17.7857 -0.1281 34.2498 0.5474 -0.9407
# 5 -18.8345 -1.5789 -14.6300 0.5474 25.5898 -0.8478
# 6 27.1125 12.7353 6.0923 -0.9407 -0.8478 40.8623
#
#
#
# Elastic Compliance Matrix: (Units=1/GPa)
#
#
# Indices 1 2 3 4 5 6 
#
# 1 0.011619 -0.003087 -0.002273 0.001400 0.006826 -0.006235
# 2 -0.003087 0.011404 -0.003958 0.005072 -0.003969 -0.000881
# 3 -0.002273 -0.003958 0.013582 -0.002722 0.005932 0.000777
# 4 0.001400 0.005072 -0.002722 0.032195 -0.000948 -0.001382
# 5 0.006826 -0.003969 0.005932 -0.000948 0.047162 -0.003219
# 6 -0.006235 -0.000881 0.000777 -0.001382 -0.003219 0.028669
#
#
# Mechanical properties :
#
#
# Convention : Reuss Voigt Hill
#
# Bulk Modulus (GPa) = 55.65479 69.49720 62.57599
# Shear Modulus (GPa) = 29.54058 35.02418 32.28238
#
# Velocity S-wave (km/s) = 3.93610 4.28589 4.11472
# Velocity P-wave (km/s) = 7.06017 7.80644 7.44266
#
# Compressibility (1/GPa) = 0.01796791
#
# Stress axis : x y z
#
# Youngs Moduli (GPa) = 86.06310 87.68529 73.62697
#
# Poissons Ratio (x) = 0.27071 0.16737
# Poissons Ratio (y) = 0.26570 0.29145
# Poissons Ratio (z) = 0.19563 0.34710
#
# Static dielectric constant tensor:
#      x y z
#    x 1.643390 0.003580 -0.011220 
#    y 0.003580 1.713310 -0.063950 
#    z -0.011220 -0.063950 1.738820 
# 
# From -- ./inp_files/38247.got.cif
#   From: 2010.05.17/outbox.cif.g08.bks.cpg/sg2_20_cif.got.tgz:38247.got - 2010.06.03 11:33:40.
