data_PCOD9004308
_publ_section_title
;
Structure prediction by ZEFSAII (Michael W. Deem and Ramdas Pophale) SiO2 
 PCOD9004308
Probable space group: P -1
;
_chemical_formula_sum "Si O2"
_cell_formula_units_Z 15
_cell_length_a 12.842800
_cell_length_b 13.340583
_cell_length_c 12.122047
_cell_angle_alpha 110.574941
_cell_angle_beta 122.750864
_cell_angle_gamma 23.349608
_cell_volume 623.112598
_symmetry_space_group_name_H-M "P -1"
_symmetry_group_IT_number 2
_symmetry_cell_setting 'triclinic'
loop_
_space_group_symop_operation_xyz
x,y,z
-x,-y,-z
loop_
_atom_site_type_symbol
_atom_site_label
_atom_site_fract_x
_atom_site_fract_y
_atom_site_fract_z
Si Si1 0.500000 0.000000 0.500000
Si Si2 0.460295 0.788084 0.400141
Si Si3 0.757561 0.296318 0.968125
Si Si4 0.145769 0.998910 0.606971
Si Si5 0.810896 0.338462 0.328138
Si Si6 0.317736 0.207324 0.878072
Si Si7 0.778394 0.462551 0.667521
Si Si8 0.888094 0.758767 0.851568
O O1 0.427768 0.182516 0.498206
O O2 0.271496 0.139468 0.319251
O O3 0.664463 0.575694 0.333862
O O4 0.543837 0.644730 0.496517
O O5 0.071746 0.098649 0.292392
O O6 0.509444 0.477121 0.791860
O O7 0.500000 0.500000 0.000000
O O8 0.939831 0.263329 0.051606
O O9 0.000000 0.000000 0.000000
O O10 0.030904 0.157279 0.494154
O O11 0.975087 0.195272 0.685988
O O12 0.533206 0.685753 0.711315
O O13 0.000000 0.000000 0.500000
O O14 0.030001 0.354318 0.743783
O O15 0.148647 0.455526 0.906045
O O16 0.582710 0.004332 0.854953
O O17 0.500000 0.000000 0.000000
#
# Coordination Sequence:
#
# PCOD9004308 Si02
#       8
#     1   2   2   2   2   2   2   2
#     4  12  24  42  72 102 146 164 246 292 354 428
#     4  10  22  38  65  96 127 176 210 282 346 408
#     4  12  25  46  67 101 146 184 233 293 374 442
#     4  10  21  37  65  95 122 170 230 284 341 398
#     4  10  22  40  62  89 131 171 216 270 344 410
#     4  12  27  49  70 103 149 197 248 297 364 436
#     4  10  21  41  61  93 137 169 226 288 344 409
#     4  12  28  45  74 112 141 197 247 299 370 442
#
# _framework density 24.072697000000002
#
# number of rings (size 3 to 8) (size 9 to 14) (size 15 to 20)
#    0.000    1.067    1.333    4.800    3.733    4.267 
#    0.000    0.000    0.000    0.000    0.000    0.000 
#    0.000    0.000    0.000    0.000    0.000    0.000 
#
# Total GULP energy -83534.010728 kJ/mol
# GULP energy per Si atom -5568.934049 kJ/mol
# Density = 2.401791 g / cm^3
# Si number density = 24.072697 Si / 1000 Ang^3
#
#
#
# Elastic Constant Matrix: (Units=GPa)
#
#
# Indices 1 2 3 4 5 6 
#
# 1 86.8458 65.1181 39.4077 -5.2839 42.0528 7.5987
# 2 65.1181 241.4054 47.8667 -19.2244 38.7984 2.5568
# 3 39.4077 47.8667 100.9782 -7.0816 31.6183 -3.3909
# 4 -5.2839 -19.2244 -7.0816 24.3437 7.3995 12.9632
# 5 42.0528 38.7984 31.6183 7.3995 50.7512 3.3216
# 6 7.5987 2.5568 -3.3909 12.9632 3.3216 34.5912
#
#
#
# Elastic Compliance Matrix: (Units=1/GPa)
#
#
# Indices 1 2 3 4 5 6 
#
# 1 0.024877 -0.002028 -0.002069 0.013728 -0.019198 -0.008819
# 2 -0.002028 0.005811 -0.000640 0.005961 -0.003102 -0.001983
# 3 -0.002069 -0.000640 0.013554 0.004719 -0.006976 0.000732
# 4 0.013728 0.005961 0.004719 0.073395 -0.027751 -0.027834
# 5 -0.019198 -0.003102 -0.006976 -0.027751 0.045736 0.009771
# 6 -0.008819 -0.001983 0.000732 -0.027834 0.009771 0.040557
#
#
# Mechanical properties :
#
#
# Convention : Reuss Voigt Hill
#
# Bulk Modulus (GPa) = 28.76290 81.55715 55.16003
# Shear Modulus (GPa) = 22.22271 40.39302 31.30787
#
# Velocity S-wave (km/s) = 3.04163 4.10073 3.61023
# Velocity P-wave (km/s) = 4.93048 7.50829 6.35154
#
# Compressibility (1/GPa) = 0.03476700
#
# Stress axis : x y z
#
# Youngs Moduli (GPa) = 40.19704 172.09572 73.77889
#
# Poissons Ratio (x) = 0.34903 0.15267
# Poissons Ratio (y) = 0.08153 0.04723
# Poissons Ratio (z) = 0.08318 0.11016
#
# Static dielectric constant tensor:
#      x y z
#    x 1.961510 -0.055570 -0.018520 
#    y -0.055570 2.057530 -0.025640 
#    z -0.018520 -0.025640 2.028800 
# 
# From -- ./inp_files/533370.got.cif
#   From: 2010.05.17/outbox.cif.g08.bks.cpg/sg2_267_cif.got.tgz:533370.got - 2010.06.03 11:33:40.
