data_PCOD9004399
_publ_section_title
;
Structure prediction by ZEFSAII (Michael W. Deem and Ramdas Pophale) SiO2 
 PCOD9004399
Probable space group: P -1
;
_chemical_formula_sum "Si O2"
_cell_formula_units_Z 12
_cell_length_a 9.849585
_cell_length_b 7.299182
_cell_length_c 11.997538
_cell_angle_alpha 50.953511
_cell_angle_beta 120.427357
_cell_angle_gamma 84.251582
_cell_volume 450.456936
_symmetry_space_group_name_H-M "P -1"
_symmetry_group_IT_number 2
_symmetry_cell_setting 'triclinic'
loop_
_space_group_symop_operation_xyz
x,y,z
-x,-y,-z
loop_
_atom_site_type_symbol
_atom_site_label
_atom_site_fract_x
_atom_site_fract_y
_atom_site_fract_z
Si Si1 0.546364 0.628343 0.370845
Si Si2 0.471635 0.613965 0.784907
Si Si3 0.991215 0.378276 0.661359
Si Si4 0.635601 0.777982 0.034266
Si Si5 0.738991 0.822326 0.635989
Si Si6 0.094047 0.736682 0.955444
O O1 0.500000 0.500000 0.500000
O O2 0.539026 0.491387 0.304556
O O3 0.761328 0.536529 0.520387
O O4 0.407639 0.986529 0.166102
O O5 0.426568 0.433600 0.912883
O O6 0.299729 0.975846 0.565733
O O7 0.698797 0.498692 0.937476
O O8 0.000000 0.500000 0.500000
O O9 0.126562 0.424740 0.771854
O O10 0.087319 0.026052 0.847861
O O11 0.500000 0.000000 0.000000
O O12 0.887899 0.833806 0.776324
O O13 0.500000 0.000000 0.500000
O O14 0.852933 0.461479 0.834044
#
# Coordination Sequence:
#
# PCOD9004399 Si02
#       6
#     2   2   2   2   2   2
#     4  11  22  32  47  77 110 139 170 206 254 305
#     4  10  17  33  51  72 107 131 166 212 250 298
#     4  12  18  31  55  74 103 139 168 207 256 300
#     4  10  18  32  51  75 102 133 171 209 254 302
#     4   9  18  28  46  74 101 128 165 215 257 291
#     4  10  17  28  47  75 101 128 167 211 258 294
#
# _framework density 26.639616
#
# number of rings (size 3 to 8) (size 9 to 14) (size 15 to 20)
#    0.000    1.667    8.333    0.000    0.000    0.667 
#    0.000    0.000    0.000    0.000    0.000   19.833 
#    0.000    2.167    0.000    0.000    0.000    0.000 
#
# Total GULP energy -67070.109692 kJ/mol
# GULP energy per Si atom -5589.175808 kJ/mol
# Density = 2.657898 g / cm^3
# Si number density = 26.639616 Si / 1000 Ang^3
#
#
#
# Elastic Constant Matrix: (Units=GPa)
#
#
# Indices 1 2 3 4 5 6 
#
# 1 167.0437 50.4965 58.0348 14.8057 -4.0020 45.7890
# 2 50.4965 140.6707 43.9463 4.1649 -0.0444 26.5663
# 3 58.0348 43.9463 179.5637 -9.4376 8.9377 32.3576
# 4 14.8057 4.1649 -9.4376 48.0714 31.8220 2.5342
# 5 -4.0020 -0.0444 8.9377 31.8220 67.7111 3.1190
# 6 45.7890 26.5663 32.3576 2.5342 3.1190 47.9681
#
#
#
# Elastic Compliance Matrix: (Units=1/GPa)
#
#
# Indices 1 2 3 4 5 6 
#
# 1 0.009535 -0.001336 -0.001944 -0.005210 0.003591 -0.007008
# 2 -0.001336 0.008492 -0.001256 -0.000834 0.000603 -0.002575
# 3 -0.001944 -0.001256 0.007308 0.004226 -0.002955 -0.002409
# 4 -0.005210 -0.000834 0.004226 0.034607 -0.017217 0.001876
# 5 0.003591 0.000603 -0.002955 -0.017217 0.023573 -0.002391
# 6 -0.007008 -0.002575 -0.002409 0.001876 -0.002391 0.030645
#
#
# Mechanical properties :
#
#
# Convention : Reuss Voigt Hill
#
# Bulk Modulus (GPa) = 61.49487 88.02593 74.76040
# Shear Modulus (GPa) = 38.86368 55.07014 46.96691
#
# Velocity S-wave (km/s) = 3.82366 4.55161 4.20342
# Velocity P-wave (km/s) = 6.52900 7.79345 7.18908
#
# Compressibility (1/GPa) = 0.01626152
#
# Stress axis : x y z
#
# Youngs Moduli (GPa) = 104.87934 117.75464 136.83153
#
# Poissons Ratio (x) = 0.15736 0.26603
# Poissons Ratio (y) = 0.14016 0.17190
# Poissons Ratio (z) = 0.20391 0.14793
#
# Static dielectric constant tensor:
#      x y z
#    x 2.121110 -0.177010 -0.017720 
#    y -0.177010 2.323290 -0.048100 
#    z -0.017720 -0.048100 2.094420 
# 
# From -- ./inp_files/179584.got.cif
#   From: 2010.05.17/outbox.cif.g08.bks.cpg/sg2_90_cif.got.tgz:179584.got - 2010.06.03 11:33:40.
