data_PCOD9004106
_publ_section_title
;
Structure prediction by ZEFSAII (Michael W. Deem and Ramdas Pophale) SiO2 
 PCOD9004106
Probable space group: P -1
;
_chemical_formula_sum "Si O2"
_cell_formula_units_Z 16
_cell_length_a 16.569984
_cell_length_b 5.327953
_cell_length_c 16.472454
_cell_angle_alpha 76.332524
_cell_angle_beta 33.459726
_cell_angle_gamma 60.084314
_cell_volume 643.916073
_symmetry_space_group_name_H-M "P -1"
_symmetry_group_IT_number 2
_symmetry_cell_setting 'triclinic'
loop_
_space_group_symop_operation_xyz
x,y,z
-x,-y,-z
loop_
_atom_site_type_symbol
_atom_site_label
_atom_site_fract_x
_atom_site_fract_y
_atom_site_fract_z
Si Si1 0.468612 0.774463 0.779721
Si Si2 0.925588 0.765978 0.130897
Si Si3 0.283596 0.625637 0.835266
Si Si4 0.126042 0.107691 0.356261
Si Si5 0.825279 0.873716 0.865897
Si Si6 0.055677 0.119497 0.717540
Si Si7 0.785579 0.776869 0.566744
Si Si8 0.610267 0.797462 0.346672
O O1 0.402621 0.562369 0.817955
O O2 0.663029 0.658094 0.655002
O O3 0.441505 0.967504 0.704703
O O4 0.342446 0.967230 0.946361
O O5 0.812230 0.622929 0.223708
O O6 0.870868 0.948797 0.247889
O O7 0.851856 0.009410 0.099636
O O8 0.137495 0.543626 0.971696
O O9 0.401232 0.463395 0.669368
O O10 0.212732 0.985587 0.204580
O O11 0.256321 0.052936 0.324553
O O12 0.986112 0.477932 0.431535
O O13 0.000000 0.000000 0.500000
O O14 0.919872 0.500439 0.806747
O O15 0.958678 0.952398 0.787236
O O16 0.201643 0.039083 0.533079
O O17 0.500000 0.000000 0.500000
#
# Coordination Sequence:
#
# PCOD9004106 Si02
#       8
#     2   2   2   2   2   2   2   2
#     4  11  24  42  62 101 132 175 219 285 336 396
#     4  10  21  37  64  90 126 181 225 275 327 388
#     4  10  22  40  61  91 130 175 227 276 330 399
#     4  10  21  44  69  95 128 173 222 272 340 417
#     4  11  24  42  70  99 138 173 226 281 337 404
#     4  11  22  42  67 100 131 182 229 274 332 407
#     4  10  23  42  68  95 134 172 222 276 340 407
#     4  11  24  41  60  92 139 176 227 281 339 393
#
# _framework density 24.847961000000002
#
# number of rings (size 3 to 8) (size 9 to 14) (size 15 to 20)
#    0.000    1.500    2.500    1.875    1.750    3.500 
#    4.500    0.625    0.000    0.000    0.000    0.000 
#    0.000    0.000    0.000    0.000    0.000    0.000 
#
# Total GULP energy -89316.879261 kJ/mol
# GULP energy per Si atom -5582.304954 kJ/mol
# Density = 2.479141 g / cm^3
# Si number density = 24.847961 Si / 1000 Ang^3
#
#
#
# Elastic Constant Matrix: (Units=GPa)
#
#
# Indices 1 2 3 4 5 6 
#
# 1 190.6080 5.1487 69.1370 4.7505 15.1125 10.6411
# 2 5.1487 38.3298 9.9756 1.0316 3.2401 3.3748
# 3 69.1370 9.9756 119.1519 -0.0760 32.0703 -6.1500
# 4 4.7505 1.0316 -0.0760 19.0002 -0.6261 10.7501
# 5 15.1125 3.2401 32.0703 -0.6261 55.2797 -8.8079
# 6 10.6411 3.3748 -6.1500 10.7501 -8.8079 27.0372
#
#
#
# Elastic Compliance Matrix: (Units=1/GPa)
#
#
# Indices 1 2 3 4 5 6 
#
# 1 0.007009 0.000525 -0.004294 0.000472 -0.000091 -0.004018
# 2 0.000525 0.027179 -0.002558 0.001167 -0.001033 -0.004982
# 3 -0.004294 -0.002558 0.012768 -0.000874 -0.005543 0.003455
# 4 0.000472 0.001167 -0.000874 0.068746 -0.003535 -0.029016
# 5 -0.000091 -0.001033 -0.005543 -0.003535 0.022572 0.007663
# 6 -0.004018 -0.004982 0.003455 -0.029016 0.007663 0.054008
#
#
# Mechanical properties :
#
#
# Convention : Reuss Voigt Hill
#
# Bulk Modulus (GPa) = 29.15298 57.40135 43.27717
# Shear Modulus (GPa) = 23.10842 37.85200 30.48021
#
# Velocity S-wave (km/s) = 3.05289 3.90724 3.50618
# Velocity P-wave (km/s) = 4.91781 6.59595 5.81770
#
# Compressibility (1/GPa) = 0.03430181
#
# Stress axis : x y z
#
# Youngs Moduli (GPa) = 142.66629 36.79283 78.32149
#
# Poissons Ratio (x) = -0.01930 0.33629
# Poissons Ratio (y) = -0.07485 0.20037
# Poissons Ratio (z) = 0.61256 0.09413
#
# Static dielectric constant tensor:
#      x y z
#    x 1.988460 0.035020 0.023840 
#    y 0.035020 2.180950 -0.056460 
#    z 0.023840 -0.056460 2.072680 
# 
# From -- ./inp_files/110944.got.cif
#   From: 2010.05.17/outbox.cif.g08.bks.cpg/sg2_56_cif.got.tgz:110944.got - 2010.06.03 11:33:40.
