data_PCOD9004059
_publ_section_title
;
Structure prediction by ZEFSAII (Michael W. Deem and Ramdas Pophale) SiO2 
 PCOD9004059
Probable space group: P -1
;
_chemical_formula_sum "Si O2"
_cell_formula_units_Z 12
_cell_length_a 16.838945
_cell_length_b 8.909443
_cell_length_c 14.141683
_cell_angle_alpha 41.902918
_cell_angle_beta 21.130088
_cell_angle_gamma 42.349446
_cell_volume 501.869648
_symmetry_space_group_name_H-M "P -1"
_symmetry_group_IT_number 2
_symmetry_cell_setting 'triclinic'
loop_
_space_group_symop_operation_xyz
x,y,z
-x,-y,-z
loop_
_atom_site_type_symbol
_atom_site_label
_atom_site_fract_x
_atom_site_fract_y
_atom_site_fract_z
Si Si1 0.066055 0.048075 0.146046
Si Si2 0.381693 0.398417 0.588902
Si Si3 0.648391 0.000034 0.927984
Si Si4 0.491798 0.744376 0.848926
Si Si5 0.215112 0.980840 0.703698
Si Si6 0.912959 0.258555 0.392135
O O1 0.879063 0.094287 0.254572
O O2 0.955611 0.043232 0.372781
O O3 0.200368 0.256869 0.897024
O O4 0.252412 0.824756 0.025926
O O5 0.500000 0.500000 0.500000
O O6 0.575119 0.213254 0.410588
O O7 0.242555 0.557218 0.587868
O O8 0.784150 0.199117 0.654486
O O9 0.522415 0.078765 0.128669
O O10 0.826290 0.760145 0.856696
O O11 0.500000 0.000000 0.000000
O O12 0.685441 0.792683 0.540225
O O13 0.500000 0.500000 0.000000
O O14 0.000000 0.000000 0.000000
#
# Coordination Sequence:
#
# PCOD9004059 Si02
#       6
#     2   2   2   2   2   2
#     4  10  22  41  65  97 137 170 231 287 342 409
#     4  11  23  39  68 100 134 181 229 287 348 406
#     4  10  22  39  66  98 135 175 228 291 335 405
#     4  10  24  45  66  94 138 185 226 283 352 418
#     4  11  25  43  68  98 138 183 231 286 346 413
#     4  10  21  37  63  99 131 173 227 280 342 407
#
# _framework density 23.910589999999999
#
# number of rings (size 3 to 8) (size 9 to 14) (size 15 to 20)
#    0.000    1.667    1.667    1.500    4.667    6.000 
#    0.000    1.667    0.000    0.000    0.000    0.000 
#    0.000    0.000    0.000    0.000    0.000    0.000 
#
# Total GULP energy -66914.182420 kJ/mol
# GULP energy per Si atom -5576.181868 kJ/mol
# Density = 2.385617 g / cm^3
# Si number density = 23.910590 Si / 1000 Ang^3
#
#
#
# Elastic Constant Matrix: (Units=GPa)
#
#
# Indices 1 2 3 4 5 6 
#
# 1 125.4291 41.9255 24.9906 9.9585 -5.2678 -47.8851
# 2 41.9255 111.1825 64.9864 -3.6905 -8.0389 -54.1990
# 3 24.9906 64.9864 137.1806 13.5180 20.5536 -20.5679
# 4 9.9585 -3.6905 13.5180 31.4882 -2.8901 0.6664
# 5 -5.2678 -8.0389 20.5536 -2.8901 48.1396 7.2247
# 6 -47.8851 -54.1990 -20.5679 0.6664 7.2247 51.7603
#
#
#
# Elastic Compliance Matrix: (Units=1/GPa)
#
#
# Indices 1 2 3 4 5 6 
#
# 1 0.013158 0.002661 -0.001100 -0.003691 -0.000056 0.014578
# 2 0.002661 0.028644 -0.011770 0.007602 0.006539 0.026768
# 3 -0.001100 -0.011770 0.013934 -0.007560 -0.007489 -0.006662
# 4 -0.003691 0.007602 -0.007560 0.037639 0.006327 0.000174
# 5 -0.000056 0.006539 -0.007489 0.006327 0.025407 0.000192
# 6 0.014578 0.026768 -0.006662 0.000174 0.000192 0.058159
#
#
# Mechanical properties :
#
#
# Convention : Reuss Voigt Hill
#
# Bulk Modulus (GPa) = 28.31366 70.84414 49.57890
# Shear Modulus (GPa) = 23.90840 42.40358 33.15599
#
# Velocity S-wave (km/s) = 3.16556 4.21577 3.72784
# Velocity P-wave (km/s) = 5.02277 7.30685 6.26970
#
# Compressibility (1/GPa) = 0.03531864
#
# Stress axis : x y z
#
# Youngs Moduli (GPa) = 75.99687 34.91123 71.76798
#
# Poissons Ratio (x) = -0.09289 0.07893
# Poissons Ratio (y) = -0.20220 0.84469
# Poissons Ratio (z) = 0.08358 0.41089
#
# Static dielectric constant tensor:
#      x y z
#    x 1.946980 -0.002580 -0.043420 
#    y -0.002580 1.997310 0.017430 
#    z -0.043420 0.017430 2.014530 
# 
# From -- ./inp_files/26124.got.cif
#   From: 2010.05.17/outbox.cif.g08.bks.cpg/sg2_14_cif.got.tgz:26124.got - 2010.06.03 11:33:40.
