data_PCOD9004420
_publ_section_title
;
Structure prediction by ZEFSAII (Michael W. Deem and Ramdas Pophale) SiO2 
 PCOD9004420
Probable space group: P -1
;
_chemical_formula_sum "Si O2"
_cell_formula_units_Z 16
_cell_length_a 7.310237
_cell_length_b 11.399231
_cell_length_c 8.887359
_cell_angle_alpha 72.351788
_cell_angle_beta 107.817034
_cell_angle_gamma 100.338039
_cell_volume 668.815077
_symmetry_space_group_name_H-M "P -1"
_symmetry_group_IT_number 2
_symmetry_cell_setting 'triclinic'
loop_
_space_group_symop_operation_xyz
x,y,z
-x,-y,-z
loop_
_atom_site_type_symbol
_atom_site_label
_atom_site_fract_x
_atom_site_fract_y
_atom_site_fract_z
Si Si1 0.988630 0.384115 0.379315
Si Si2 0.399587 0.447265 0.299346
Si Si3 0.929935 0.111094 0.342256
Si Si4 0.472302 0.701613 0.353104
Si Si5 0.967767 0.279291 0.735795
Si Si6 0.461733 0.024828 0.805696
Si Si7 0.113214 0.994212 0.184782
Si Si8 0.834287 0.549788 0.049166
O O1 0.959755 0.243685 0.370047
O O2 0.825860 0.452096 0.223120
O O3 0.196212 0.440990 0.345145
O O4 0.990617 0.372084 0.564461
O O5 0.511076 0.581340 0.312252
O O6 0.501731 0.339234 0.450974
O O7 0.340796 0.437260 0.114236
O O8 0.710518 0.070097 0.258372
O O9 0.000000 0.000000 0.500000
O O10 0.059504 0.105916 0.228775
O O11 0.584193 0.832955 0.289363
O O12 0.250281 0.720631 0.259591
O O13 0.101285 0.324785 0.891608
O O14 0.974971 0.141317 0.729427
O O15 0.659389 0.006630 0.776078
O O16 0.500000 0.000000 0.000000
O O17 0.000000 0.000000 0.000000
O O18 0.000000 0.500000 0.000000
#
# Coordination Sequence:
#
# PCOD9004420 Si02
#       8
#     2   2   2   2   2   2   2   2
#     4  11  23  40  70  96 136 176 229 282 343 418
#     4  10  22  40  67  97 131 181 217 281 350 413
#     4  12  25  46  69 104 140 185 237 280 353 417
#     4  10  22  41  66  96 140 170 225 280 356 400
#     4  11  22  43  66  97 133 173 228 281 343 415
#     4  11  25  44  72 103 141 186 233 294 341 419
#     4  11  25  43  71 102 137 189 231 286 349 411
#     4  10  21  37  66  98 124 176 223 273 338 409
#
# _framework density 23.922908
#
# number of rings (size 3 to 8) (size 9 to 14) (size 15 to 20)
#    0.000    1.250    5.000    1.125    5.250    0.500 
#    2.250    0.625    0.000    0.000    0.000    0.000 
#    0.000    0.000    0.000    0.000    0.000    0.000 
#
# Total GULP energy -89476.422542 kJ/mol
# GULP energy per Si atom -5592.276409 kJ/mol
# Density = 2.386846 g / cm^3
# Si number density = 23.922908 Si / 1000 Ang^3
#
#
#
# Elastic Constant Matrix: (Units=GPa)
#
#
# Indices 1 2 3 4 5 6 
#
# 1 79.0086 18.9744 8.0148 10.2707 5.9087 11.4975
# 2 18.9744 109.7082 25.7743 3.2772 -2.5011 4.5702
# 3 8.0148 25.7743 140.9589 10.1764 8.5924 -2.4530
# 4 10.2707 3.2772 10.1764 47.1399 3.5508 -0.5027
# 5 5.9087 -2.5011 8.5924 3.5508 38.1007 -0.2619
# 6 11.4975 4.5702 -2.4530 -0.5027 -0.2619 12.6680
#
#
#
# Elastic Compliance Matrix: (Units=1/GPa)
#
#
# Indices 1 2 3 4 5 6 
#
# 1 0.015782 -0.002016 -0.000400 -0.003187 -0.002288 -0.013848
# 2 -0.002016 0.010014 -0.001838 0.000014 0.001369 -0.002110
# 3 -0.000400 -0.001838 0.007690 -0.001294 -0.001655 0.002430
# 4 -0.003187 0.000014 -0.001294 0.022319 -0.001269 0.003497
# 5 -0.002288 0.001369 -0.001655 -0.001269 0.027195 0.001774
# 6 -0.013848 -0.002110 0.002430 0.003497 0.001774 0.092915
#
#
# Mechanical properties :
#
#
# Convention : Reuss Voigt Hill
#
# Bulk Modulus (GPa) = 40.03368 48.35587 44.19477
# Shear Modulus (GPa) = 25.94057 38.04254 31.99155
#
# Velocity S-wave (km/s) = 3.29650 3.99207 3.66085
# Velocity P-wave (km/s) = 5.59107 6.44251 6.03183
#
# Compressibility (1/GPa) = 0.02497897
#
# Stress axis : x y z
#
# Youngs Moduli (GPa) = 63.36275 99.85903 130.04448
#
# Poissons Ratio (x) = 0.20128 0.05205
# Poissons Ratio (y) = 0.12771 0.23897
# Poissons Ratio (z) = 0.02536 0.18350
#
# Static dielectric constant tensor:
#      x y z
#    x 1.965090 -0.004730 -0.027690 
#    y -0.004730 1.998520 -0.105850 
#    z -0.027690 -0.105850 1.963870 
# 
# From -- ./inp_files/186101.got.cif
#   From: 2010.05.17/outbox.cif.g08.bks.cpg/sg2_94_cif.got.tgz:186101.got - 2010.06.03 11:33:40.
