data_PCOD9004130
_publ_section_title
;
Structure prediction by ZEFSAII (Michael W. Deem and Ramdas Pophale) SiO2 
 PCOD9004130
Probable space group: P -1
;
_chemical_formula_sum "Si O2"
_cell_formula_units_Z 16
_cell_length_a 15.941809
_cell_length_b 10.336611
_cell_length_c 10.696307
_cell_angle_alpha 41.719279
_cell_angle_beta 115.106095
_cell_angle_gamma 141.316022
_cell_volume 677.919609
_symmetry_space_group_name_H-M "P -1"
_symmetry_group_IT_number 2
_symmetry_cell_setting 'triclinic'
loop_
_space_group_symop_operation_xyz
x,y,z
-x,-y,-z
loop_
_atom_site_type_symbol
_atom_site_label
_atom_site_fract_x
_atom_site_fract_y
_atom_site_fract_z
Si Si1 0.870469 0.780144 0.477005
Si Si2 0.071031 0.177050 0.113904
Si Si3 0.450356 0.636024 0.339790
Si Si4 0.409948 0.071479 0.534844
Si Si5 0.655937 0.608594 0.798616
Si Si6 0.545241 0.291849 0.215889
Si Si7 0.203906 0.732958 0.344883
Si Si8 0.977004 0.671116 0.241739
O O1 0.717839 0.606294 0.557165
O O2 0.844556 0.523295 0.588482
O O3 0.000000 0.000000 0.500000
O O4 0.934496 0.002242 0.240128
O O5 0.201780 0.295671 0.187802
O O6 0.105869 0.413236 0.877324
O O7 0.028103 0.937407 0.163233
O O8 0.500000 0.500000 0.500000
O O9 0.542680 0.895263 0.316313
O O10 0.459629 0.672140 0.169517
O O11 0.321318 0.132258 0.422233
O O12 0.540100 0.344229 0.321033
O O13 0.382926 0.806110 0.664394
O O14 0.615350 0.531056 0.976109
O O15 0.375823 0.008751 0.271816
O O16 0.130816 0.601519 0.531315
O O17 0.121624 0.791750 0.204869
#
# Coordination Sequence:
#
# PCOD9004130 Si02
#       8
#     2   2   2   2   2   2   2   2
#     4  11  21  41  64  86 126 170 212 260 322 381
#     4  10  21  37  64  92 124 167 212 261 314 392
#     4  10  22  42  64  90 127 173 219 261 324 388
#     4  10  23  40  61  96 128 171 212 266 331 376
#     4  11  23  40  63  96 129 170 221 261 320 390
#     4  11  23  38  66  96 130 167 211 279 321 385
#     4  10  21  41  62  91 131 162 207 266 329 378
#     4   9  21  38  62  92 124 163 208 265 322 384
#
# _framework density 23.60162
#
# number of rings (size 3 to 8) (size 9 to 14) (size 15 to 20)
#    0.000    1.750    2.500    1.125    3.500    3.500 
#    0.000    0.625    0.000    0.000    0.000    0.000 
#    0.000    0.000    0.000    0.000    0.000    0.000 
#
# Total GULP energy -89183.847462 kJ/mol
# GULP energy per Si atom -5573.990466 kJ/mol
# Density = 2.354790 g / cm^3
# Si number density = 23.601620 Si / 1000 Ang^3
#
#
#
# Elastic Constant Matrix: (Units=GPa)
#
#
# Indices 1 2 3 4 5 6 
#
# 1 79.4435 12.8117 12.3614 12.9625 -6.4724 8.0897
# 2 12.8117 89.2293 9.8219 19.8791 1.6831 0.1463
# 3 12.3614 9.8219 71.7087 28.7776 4.5739 9.2253
# 4 12.9625 19.8791 28.7776 33.5442 6.7577 -3.3482
# 5 -6.4724 1.6831 4.5739 6.7577 21.3857 7.4455
# 6 8.0897 0.1463 9.2253 -3.3482 7.4455 48.2753
#
#
#
# Elastic Compliance Matrix: (Units=1/GPa)
#
#
# Indices 1 2 3 4 5 6 
#
# 1 0.015108 -0.000522 0.000945 -0.008564 0.008737 -0.004652
# 2 -0.000522 0.013280 0.002486 -0.010359 0.002047 -0.001462
# 3 0.000945 0.002486 0.023583 -0.023793 0.005037 -0.007100
# 4 -0.008564 -0.010359 -0.023793 0.065557 -0.022276 0.013996
# 5 0.008737 0.002047 0.005037 -0.022276 0.059801 -0.013201
# 6 -0.004652 -0.001462 -0.007100 0.013996 -0.013201 0.025862
#
#
# Mechanical properties :
#
#
# Convention : Reuss Voigt Hill
#
# Bulk Modulus (GPa) = 17.30471 34.48572 25.89522
# Shear Modulus (GPa) = 23.08025 34.33347 28.70686
#
# Velocity S-wave (km/s) = 3.13055 3.81820 3.49135
# Velocity P-wave (km/s) = 4.51830 5.83794 5.21999
#
# Compressibility (1/GPa) = 0.05778774
#
# Stress axis : x y z
#
# Youngs Moduli (GPa) = 66.19171 75.30027 42.40421
#
# Poissons Ratio (x) = 0.03934 -0.04008
# Poissons Ratio (y) = 0.03458 -0.10541
# Poissons Ratio (z) = -0.06257 -0.18719
#
# Static dielectric constant tensor:
#      x y z
#    x 1.939600 -0.009630 -0.019490 
#    y -0.009630 2.033640 0.015140 
#    z -0.019490 0.015140 1.980460 
# 
# From -- ./inp_files/452164.got.cif
#   From: 2010.05.17/outbox.cif.g08.bks.cpg/sg2_227_cif.got.tgz:452164.got - 2010.06.03 11:33:40.
