data_PCOD9004880
_publ_section_title
;
Structure prediction by ZEFSAII (Michael W. Deem and Ramdas Pophale) SiO2 
 PCOD9004880
Probable space group: P -1
;
_chemical_formula_sum "Si O2"
_cell_formula_units_Z 14
_cell_length_a 28.255457
_cell_length_b 9.101390
_cell_length_c 9.365709
_cell_angle_alpha 52.739514
_cell_angle_beta 26.794233
_cell_angle_gamma 37.727546
_cell_volume 618.637954
_symmetry_space_group_name_H-M "P -1"
_symmetry_group_IT_number 2
_symmetry_cell_setting 'triclinic'
loop_
_space_group_symop_operation_xyz
x,y,z
-x,-y,-z
loop_
_atom_site_type_symbol
_atom_site_label
_atom_site_fract_x
_atom_site_fract_y
_atom_site_fract_z
Si Si1 0.357852 0.566208 0.783803
Si Si2 0.928183 0.389910 0.712217
Si Si3 0.606270 0.377440 0.648011
Si Si4 0.428542 0.283698 0.033247
Si Si5 0.090515 0.179457 0.122594
Si Si6 0.945302 0.951152 0.000003
Si Si7 0.193215 0.448714 0.780854
O O1 0.500000 0.500000 0.500000
O O2 0.388244 0.482552 0.583822
O O3 0.352269 0.418108 0.007901
O O4 0.209488 0.870315 0.012881
O O5 0.000000 0.500000 0.500000
O O6 0.988780 0.107171 0.748463
O O7 0.787271 0.575265 0.086925
O O8 0.951211 0.359325 0.498410
O O9 0.773275 0.160112 0.377410
O O10 0.500000 0.500000 0.000000
O O11 0.554176 0.268299 0.756841
O O12 0.310671 0.420285 0.395897
O O13 0.500000 0.000000 0.000000
O O14 0.038616 0.201912 0.090264
O O15 0.177172 0.263384 0.869686
O O16 0.958388 0.259592 0.014112
#
# Coordination Sequence:
#
# PCOD9004880 Si02
#       7
#     2   2   2   2   2   2   2
#     4   9  19  36  59  82 115 163 201 236 294 363
#     4  10  22  37  56  84 118 154 196 246 299 354
#     4  10  22  40  61  89 123 157 198 251 305 354
#     4  11  22  40  62  87 120 163 204 243 295 368
#     4  10  21  38  59  88 120 154 200 252 300 354
#     4  11  21  38  61  89 119 157 198 249 303 355
#     4  11  22  37  61  91 120 156 202 249 300 358
#
# _framework density 22.630358999999999
#
# number of rings (size 3 to 8) (size 9 to 14) (size 15 to 20)
#    0.000    1.714    0.000    5.571    0.000    3.429 
#    0.000    5.000    0.000    0.000    0.000    0.000 
#    0.000    0.000    0.000    0.000    0.000    0.000 
#
# Total GULP energy -77964.090249 kJ/mol
# GULP energy per Si atom -5568.863589 kJ/mol
# Density = 2.257885 g / cm^3
# Si number density = 22.630359 Si / 1000 Ang^3
#
#
#
# Elastic Constant Matrix: (Units=GPa)
#
#
# Indices 1 2 3 4 5 6 
#
# 1 84.3967 19.0401 41.4475 9.3072 -3.6803 19.1287
# 2 19.0401 65.7003 16.1275 -14.7501 -6.7115 13.3209
# 3 41.4475 16.1275 138.0581 16.3179 29.8666 0.2206
# 4 9.3072 -14.7501 16.3179 36.0451 14.2981 -5.0437
# 5 -3.6803 -6.7115 29.8666 14.2981 33.3982 10.3580
# 6 19.1287 13.3209 0.2206 -5.0437 10.3580 41.4348
#
#
#
# Elastic Compliance Matrix: (Units=1/GPa)
#
#
# Indices 1 2 3 4 5 6 
#
# 1 0.023775 -0.001485 -0.010272 -0.013671 0.022890 -0.017830
# 2 -0.001485 0.020284 -0.004196 0.006980 0.006739 -0.006648
# 3 -0.010272 -0.004196 0.014758 0.004010 -0.020495 0.011624
# 4 -0.013671 0.006980 0.004010 0.046006 -0.028594 0.016794
# 5 0.022890 0.006739 -0.020495 -0.028594 0.075213 -0.034907
# 6 -0.017830 -0.006648 0.011624 0.016794 -0.034907 0.045212
#
#
# Mechanical properties :
#
#
# Convention : Reuss Voigt Hill
#
# Bulk Modulus (GPa) = 37.15647 49.04282 43.09964
# Shear Modulus (GPa) = 18.78813 36.27828 27.53320
#
# Velocity S-wave (km/s) = 2.88448 4.00819 3.49183
# Velocity P-wave (km/s) = 5.24863 6.56804 5.94505
#
# Compressibility (1/GPa) = 0.02691322
#
# Stress axis : x y z
#
# Youngs Moduli (GPa) = 42.06040 49.29915 67.75784
#
# Poissons Ratio (x) = 0.07319 0.69600
# Poissons Ratio (y) = 0.06244 0.28432
# Poissons Ratio (z) = 0.43204 0.20686
#
# Static dielectric constant tensor:
#      x y z
#    x 1.870320 0.032230 0.001620 
#    y 0.032230 1.828370 -0.068350 
#    z 0.001620 -0.068350 1.840840 
# 
# From -- ./inp_files/200952.got.cif
#   From: 2010.05.17/outbox.cif.g08.bks.cpg/sg2_101_cif.got.tgz:200952.got - 2010.06.03 11:33:40.
