data_PCOD9004065
_publ_section_title
;
Structure prediction by ZEFSAII (Michael W. Deem and Ramdas Pophale) SiO2 
 PCOD9004065
Probable space group: P -1
;
_chemical_formula_sum "Si O2"
_cell_formula_units_Z 16
_cell_length_a 11.026061
_cell_length_b 12.423543
_cell_length_c 13.470207
_cell_angle_alpha 61.554024
_cell_angle_beta 136.692004
_cell_angle_gamma 83.494810
_cell_volume 719.912186
_symmetry_space_group_name_H-M "P -1"
_symmetry_group_IT_number 2
_symmetry_cell_setting 'triclinic'
loop_
_space_group_symop_operation_xyz
x,y,z
-x,-y,-z
loop_
_atom_site_type_symbol
_atom_site_label
_atom_site_fract_x
_atom_site_fract_y
_atom_site_fract_z
Si Si1 0.212286 0.451559 0.219315
Si Si2 0.782688 0.934152 0.378245
Si Si3 0.174231 0.298038 0.639860
Si Si4 0.188039 0.738111 0.080299
Si Si5 0.300415 0.391306 0.507978
Si Si6 0.805436 0.819496 0.087567
Si Si7 0.885232 0.107940 0.235710
Si Si8 0.168974 0.859028 0.331509
O O1 0.106476 0.643823 0.094418
O O2 0.258969 0.354785 0.392112
O O3 0.510416 0.320504 0.410075
O O4 0.000000 0.500000 0.000000
O O5 0.928096 0.751411 0.478392
O O6 0.970945 0.882259 0.602215
O O7 0.723323 0.088320 0.208209
O O8 0.492670 0.036144 0.200885
O O9 0.376925 0.264172 0.701991
O O10 0.261756 0.171941 0.840613
O O11 0.000000 0.500000 0.500000
O O12 0.458829 0.637246 0.342471
O O13 0.942770 0.958059 0.865114
O O14 0.243884 0.738414 0.995591
O O15 0.013066 0.605585 0.268626
O O16 0.986841 0.846139 0.184195
O O17 0.097114 0.917169 0.379028
#
# Coordination Sequence:
#
# PCOD9004065 Si02
#       8
#     2   2   2   2   2   2   2   2
#     4  12  28  46  67  94 138 175 228 289 331 394
#     4  11  20  39  67 103 139 175 225 268 349 403
#     4  10  21  37  64 100 133 171 220 272 335 398
#     4  10  22  45  66  92 133 171 230 271 331 398
#     4  11  24  41  66  99 132 178 226 277 332 401
#     4  11  21  39  70  99 137 171 222 281 331 405
#     4   9  23  40  65 100 140 181 215 280 337 408
#     4  10  23  45  69  95 131 182 218 280 339 388
#
# _framework density 22.224933
#
# number of rings (size 3 to 8) (size 9 to 14) (size 15 to 20)
#    0.750    0.750    2.500    2.250    3.500    1.000 
#    2.250    0.000    0.000    6.750    0.000    0.000 
#    0.000    0.000    0.000    0.000    0.000    0.000 
#
# Total GULP energy -89180.671156 kJ/mol
# GULP energy per Si atom -5573.791947 kJ/mol
# Density = 2.217435 g / cm^3
# Si number density = 22.224933 Si / 1000 Ang^3
#
#
#
# Elastic Constant Matrix: (Units=GPa)
#
#
# Indices 1 2 3 4 5 6 
#
# 1 79.6522 8.5136 33.0969 11.7770 -4.7035 13.4745
# 2 8.5136 68.9441 33.9684 17.6798 16.0315 11.9875
# 3 33.0969 33.9684 90.5076 21.1145 11.9298 6.4906
# 4 11.7770 17.6798 21.1145 43.8926 0.7727 -3.1390
# 5 -4.7035 16.0315 11.9298 0.7727 37.1287 5.2163
# 6 13.4745 11.9875 6.4906 -3.1390 5.2163 32.1208
#
#
#
# Elastic Compliance Matrix: (Units=1/GPa)
#
#
# Indices 1 2 3 4 5 6 
#
# 1 0.016946 0.002081 -0.006321 -0.002966 0.004411 -0.007614
# 2 0.002081 0.021614 -0.005962 -0.006823 -0.005967 -0.007432
# 3 -0.006321 -0.005962 0.016870 -0.003829 -0.003808 0.001712
# 4 -0.002966 -0.006823 -0.003829 0.028630 0.002221 0.007002
# 5 0.004411 -0.005967 -0.003808 0.002221 0.031780 -0.003798
# 6 -0.007614 -0.007432 0.001712 0.007002 -0.003798 0.038055
#
#
# Mechanical properties :
#
#
# Convention : Reuss Voigt Hill
#
# Bulk Modulus (GPa) = 28.54998 43.36244 35.95621
# Shear Modulus (GPa) = 26.88538 33.53011 30.20774
#
# Velocity S-wave (km/s) = 3.48184 3.88837 3.69071
# Velocity P-wave (km/s) = 5.38870 6.30177 5.86304
#
# Compressibility (1/GPa) = 0.03502629
#
# Stress axis : x y z
#
# Youngs Moduli (GPa) = 59.01187 46.26543 59.27668
#
# Poissons Ratio (x) = -0.09626 0.37469
# Poissons Ratio (y) = -0.12279 0.35339
# Poissons Ratio (z) = 0.37301 0.27582
#
# Static dielectric constant tensor:
#      x y z
#    x 1.890250 0.001500 -0.054030 
#    y 0.001500 1.848470 -0.037560 
#    z -0.054030 -0.037560 1.799870 
# 
# From -- ./inp_files/428257.got.cif
#   From: 2010.05.17/outbox.cif.g08.bks.cpg/sg2_215_cif.got.tgz:428257.got - 2010.06.03 11:33:40.
