data_PCOD9004026
_publ_section_title
;
Structure prediction by ZEFSAII (Michael W. Deem and Ramdas Pophale) SiO2 
 PCOD9004026
Probable space group: P -1
;
_chemical_formula_sum "Si O2"
_cell_formula_units_Z 16
_cell_length_a 11.015622
_cell_length_b 17.070341
_cell_length_c 6.868976
_cell_angle_alpha 103.711022
_cell_angle_beta 80.908162
_cell_angle_gamma 38.446306
_cell_volume 641.667904
_symmetry_space_group_name_H-M "P -1"
_symmetry_group_IT_number 2
_symmetry_cell_setting 'triclinic'
loop_
_space_group_symop_operation_xyz
x,y,z
-x,-y,-z
loop_
_atom_site_type_symbol
_atom_site_label
_atom_site_fract_x
_atom_site_fract_y
_atom_site_fract_z
Si Si1 0.640842 0.499538 0.889752
Si Si2 0.173268 0.979181 0.421586
Si Si3 0.540566 0.061871 0.900149
Si Si4 0.558987 0.664463 0.347453
Si Si5 0.838309 0.795320 0.384096
Si Si6 0.346242 0.249297 0.378638
Si Si7 0.353495 0.661500 0.688436
Si Si8 0.128053 0.110114 0.870205
O O1 0.481821 0.623407 0.828025
O O2 0.906148 0.328888 0.655674
O O3 0.500000 0.500000 0.000000
O O4 0.674601 0.540943 0.087394
O O5 0.251511 0.983837 0.211861
O O6 0.424061 0.807087 0.340400
O O7 0.066636 0.099061 0.679435
O O8 0.000000 0.000000 0.500000
O O9 0.622869 0.970851 0.625664
O O10 0.324440 0.236523 0.149289
O O11 0.500000 0.000000 0.000000
O O12 0.692832 0.638824 0.468243
O O13 0.371396 0.715043 0.542797
O O14 0.790028 0.732424 0.428587
O O15 0.857186 0.806193 0.157656
O O16 0.624325 0.065442 0.224898
O O17 0.500000 0.500000 0.500000
O O18 0.089768 0.782280 0.872407
#
# Coordination Sequence:
#
# PCOD9004026 Si02
#       8
#     2   2   2   2   2   2   2   2
#     4  12  24  44  67  94 133 180 223 274 329 401
#     4  10  22  36  65  99 134 174 209 282 346 381
#     4   9  21  40  65  96 134 173 218 271 332 404
#     4  11  26  42  64  99 136 171 222 278 336 396
#     4  10  21  43  66  93 131 176 221 272 329 400
#     4  10  23  39  66  98 130 170 219 274 337 397
#     4  12  25  41  66  98 131 179 224 268 332 401
#     4  10  21  37  63  95 130 166 214 269 335 399
#
# _framework density 24.935016999999998
#
# number of rings (size 3 to 8) (size 9 to 14) (size 15 to 20)
#    0.000    1.500    2.500    1.125    8.750    2.500 
#    0.000    0.625    0.000    0.000    0.000    0.000 
#    0.000    0.000    0.000    0.000    0.000    0.000 
#
# Total GULP energy -89093.593418 kJ/mol
# GULP energy per Si atom -5568.349589 kJ/mol
# Density = 2.487826 g / cm^3
# Si number density = 24.935017 Si / 1000 Ang^3
#
#
#
# Elastic Constant Matrix: (Units=GPa)
#
#
# Indices 1 2 3 4 5 6 
#
# 1 114.0185 12.5792 54.3950 -8.2607 -8.8469 27.1013
# 2 12.5792 74.2996 38.4085 -12.9604 -16.8131 -2.1330
# 3 54.3950 38.4085 101.2481 -17.0118 2.8395 10.7990
# 4 -8.2607 -12.9604 -17.0118 40.4121 5.2698 -10.4257
# 5 -8.8469 -16.8131 2.8395 5.2698 52.8261 2.0198
# 6 27.1013 -2.1330 10.7990 -10.4257 2.0198 32.0020
#
#
#
# Elastic Compliance Matrix: (Units=1/GPa)
#
#
# Indices 1 2 3 4 5 6 
#
# 1 0.015415 0.001836 -0.008441 -0.003340 0.004391 -0.011449
# 2 0.001836 0.019629 -0.008440 0.003083 0.006579 0.003190
# 3 -0.008441 -0.008440 0.018301 0.004589 -0.005628 0.002261
# 4 -0.003340 0.003083 0.004589 0.030406 -0.003301 0.011599
# 5 0.004391 0.006579 -0.005628 -0.003301 0.022539 -0.003879
# 6 -0.011449 0.003190 0.002261 0.011599 -0.003879 0.044417
#
#
# Mechanical properties :
#
#
# Convention : Reuss Voigt Hill
#
# Bulk Modulus (GPa) = 43.00023 55.59238 49.29630
# Shear Modulus (GPa) = 26.51832 37.32693 31.92263
#
# Velocity S-wave (km/s) = 3.26467 3.87326 3.58192
# Velocity P-wave (km/s) = 5.61187 6.50740 6.07615
#
# Compressibility (1/GPa) = 0.02325569
#
# Stress axis : x y z
#
# Youngs Moduli (GPa) = 64.87163 50.94504 54.64150
#
# Poissons Ratio (x) = -0.09354 0.46125
# Poissons Ratio (y) = -0.11912 0.46115
# Poissons Ratio (z) = 0.54761 0.42995
#
# Static dielectric constant tensor:
#      x y z
#    x 2.175700 -0.112340 0.119390 
#    y -0.112340 2.122370 -0.131810 
#    z 0.119390 -0.131810 2.033770 
# 
# From -- ./inp_files/279600.got.cif
#   From: 2010.05.17/outbox.cif.g08.bks.cpg/sg2_140_cif.got.tgz:279600.got - 2010.06.03 11:33:40.
