data_PCOD9004601
_publ_section_title
;
Structure prediction by ZEFSAII (Michael W. Deem and Ramdas Pophale) SiO2 
 PCOD9004601
Probable space group: P -1
;
_chemical_formula_sum "Si O2"
_cell_formula_units_Z 14
_cell_length_a 5.387478
_cell_length_b 10.265189
_cell_length_c 11.845976
_cell_angle_alpha 90.131381
_cell_angle_beta 116.498564
_cell_angle_gamma 74.674157
_cell_volume 560.352665
_symmetry_space_group_name_H-M "P -1"
_symmetry_group_IT_number 2
_symmetry_cell_setting 'triclinic'
loop_
_space_group_symop_operation_xyz
x,y,z
-x,-y,-z
loop_
_atom_site_type_symbol
_atom_site_label
_atom_site_fract_x
_atom_site_fract_y
_atom_site_fract_z
Si Si1 0.650548 0.661797 0.732674
Si Si2 0.641471 0.026998 0.847325
Si Si3 0.239808 0.643323 0.308967
Si Si4 0.148593 0.161542 0.922658
Si Si5 0.681295 0.434670 0.146597
Si Si6 0.653499 0.047102 0.425429
Si Si7 0.822603 0.613787 0.378000
O O1 0.655476 0.520892 0.667865
O O2 0.487881 0.651098 0.816537
O O3 0.481833 0.792069 0.627556
O O4 0.989620 0.649426 0.815579
O O5 0.432909 0.121808 0.900130
O O6 0.921061 0.071250 0.864516
O O7 0.444227 0.019414 0.703947
O O8 0.746973 0.880200 0.930227
O O9 0.519342 0.694732 0.369518
O O10 0.052390 0.691865 0.157370
O O11 0.031220 0.693843 0.371867
O O12 0.722476 0.546693 0.245860
O O13 0.500000 0.500000 0.000000
O O14 0.500000 0.000000 0.500000
O O15 0.000000 0.000000 0.500000
O O16 0.000000 0.500000 0.500000
#
# Coordination Sequence:
#
# PCOD9004601 Si02
#       7
#     2   2   2   2   2   2   2
#     4  10  23  43  65  97 131 168 219 279 322 387
#     4  10  23  43  67  95 132 172 220 277 316 393
#     4  10  21  41  65  98 125 165 205 267 333 386
#     4  10  21  43  68 100 128 167 220 272 340 387
#     4  10  21  39  64  94 130 167 207 264 337 398
#     4  12  26  47  67  93 132 185 233 267 326 396
#     4  10  21  38  54  88 134 161 202 249 323 389
#
# _framework density 24.984266000000002
#
# number of rings (size 3 to 8) (size 9 to 14) (size 15 to 20)
#    0.000    1.714    0.000    3.429    0.000    4.571 
#   30.857    2.857    0.000    0.000    0.000    0.000 
#    0.000    0.000    0.000    0.000    0.000    0.000 
#
# Total GULP energy -78353.089071 kJ/mol
# GULP energy per Si atom -5596.649219 kJ/mol
# Density = 2.492740 g / cm^3
# Si number density = 24.984266 Si / 1000 Ang^3
#
#
#
# Elastic Constant Matrix: (Units=GPa)
#
#
# Indices 1 2 3 4 5 6 
#
# 1 256.7707 33.9731 81.3391 -25.3841 13.3672 7.3592
# 2 33.9731 100.8362 39.0019 -33.1549 -2.7023 1.5553
# 3 81.3391 39.0019 195.0838 -33.6560 6.4555 3.4804
# 4 -25.3841 -33.1549 -33.6560 52.4551 1.8120 1.4165
# 5 13.3672 -2.7023 6.4555 1.8120 44.6773 -9.4637
# 6 7.3592 1.5553 3.4804 1.4165 -9.4637 25.9318
#
#
#
# Elastic Compliance Matrix: (Units=1/GPa)
#
#
# Indices 1 2 3 4 5 6 
#
# 1 0.004713 -0.000685 -0.001582 0.000935 -0.001627 -0.001729
# 2 -0.000685 0.012945 -0.001084 0.007144 0.000737 -0.000558
# 3 -0.001582 -0.001084 0.006525 0.002786 -0.000820 -0.000813
# 4 0.000935 0.007144 0.002786 0.025975 -0.001984 -0.003211
# 5 -0.001627 0.000737 -0.000820 -0.001984 0.025196 0.009831
# 6 -0.001729 -0.000558 -0.000813 -0.003211 0.009831 0.042959
#
#
# Mechanical properties :
#
#
# Convention : Reuss Voigt Hill
#
# Bulk Modulus (GPa) = 57.21013 95.70211 76.45612
# Shear Modulus (GPa) = 38.21418 51.17127 44.69272
#
# Velocity S-wave (km/s) = 3.91516 4.53055 4.23405
# Velocity P-wave (km/s) = 6.58682 8.10900 7.38722
#
# Compressibility (1/GPa) = 0.01747942
#
# Stress axis : x y z
#
# Youngs Moduli (GPa) = 212.17513 77.25189 153.26603
#
# Poissons Ratio (x) = 0.05295 0.24247
# Poissons Ratio (y) = 0.14542 0.16615
# Poissons Ratio (z) = 0.33566 0.08375
#
# Static dielectric constant tensor:
#      x y z
#    x 2.090510 -0.006400 -0.019460 
#    y -0.006400 2.010950 0.012210 
#    z -0.019460 0.012210 1.947370 
# 
# From -- ./inp_files/362998.got.cif
#   From: 2010.05.17/outbox.cif.g08.bks.cpg/sg2_182_cif.got.tgz:362998.got - 2010.06.03 11:33:40.
