data_PCOD9004890
_publ_section_title
;
Structure prediction by ZEFSAII (Michael W. Deem and Ramdas Pophale) SiO2 
 PCOD9004890
Probable space group: P -1
;
_chemical_formula_sum "Si O2"
_cell_formula_units_Z 15
_cell_length_a 8.048124
_cell_length_b 23.888989
_cell_length_c 17.080886
_cell_angle_alpha 163.366864
_cell_angle_beta 122.972489
_cell_angle_gamma 50.387562
_cell_volume 690.270307
_symmetry_space_group_name_H-M "P -1"
_symmetry_group_IT_number 2
_symmetry_cell_setting 'triclinic'
loop_
_space_group_symop_operation_xyz
x,y,z
-x,-y,-z
loop_
_atom_site_type_symbol
_atom_site_label
_atom_site_fract_x
_atom_site_fract_y
_atom_site_fract_z
Si Si1 0.425254 0.230898 0.166258
Si Si2 0.669452 0.468626 0.606407
Si Si3 0.367982 0.273988 0.901997
Si Si4 0.232989 0.578178 0.128190
Si Si5 0.000000 0.500000 0.500000
Si Si6 0.133887 0.248009 0.363408
Si Si7 0.255732 0.524147 0.886801
Si Si8 0.182952 0.967294 0.395152
O O1 0.481015 0.389080 0.450143
O O2 0.400431 0.338784 0.218820
O O3 0.185271 0.274809 0.194850
O O4 0.636746 0.986018 0.893475
O O5 0.906486 0.262327 0.361745
O O6 0.687110 0.569785 0.828281
O O7 0.299382 0.079943 0.629641
O O8 0.633331 0.160707 0.797073
O O9 0.243737 0.419924 0.989108
O O10 0.476191 0.567681 0.174403
O O11 0.042267 0.832001 0.427554
O O12 0.203493 0.494019 0.922485
O O13 0.931159 0.646594 0.597726
O O14 0.178040 0.407927 0.647361
O O15 0.147170 0.786725 0.191834
#
# Coordination Sequence:
#
# PCOD9004890 Si02
#       8
#     2   2   2   2   1   2   2   2
#     4  10  23  43  66  92 128 162 210 267 318 383
#     4  10  23  42  64  93 125 165 216 260 316 382
#     4  10  22  38  61  92 126 166 215 259 309 378
#     4  10  21  38  59  90 126 169 210 259 308 380
#     4  10  24  42  66  94 126 158 214 266 314 382
#     4  11  23  43  66  93 126 170 208 264 323 376
#     4  10  23  38  60  92 128 163 216 254 313 384
#     4  10  21  38  59  88 128 168 208 262 307 371
#
# _framework density 21.730619000000001
#
# number of rings (size 3 to 8) (size 9 to 14) (size 15 to 20)
#    0.000    1.867    0.000    2.400    3.733    7.467 
#    2.400    0.000    0.000    0.000    0.000    0.000 
#    0.000    0.000    0.000    0.000    0.000    0.000 
#
# Total GULP energy -83606.216960 kJ/mol
# GULP energy per Si atom -5573.747797 kJ/mol
# Density = 2.168116 g / cm^3
# Si number density = 21.730619 Si / 1000 Ang^3
#
#
#
# Elastic Constant Matrix: (Units=GPa)
#
#
# Indices 1 2 3 4 5 6 
#
# 1 34.7868 11.5970 17.7623 5.6092 -15.4679 10.3411
# 2 11.5970 65.2749 56.7900 3.5565 -6.2662 15.8802
# 3 17.7623 56.7900 100.2770 11.5086 -23.2814 12.0720
# 4 5.6092 3.5565 11.5086 38.8172 -19.0476 -15.7805
# 5 -15.4679 -6.2662 -23.2814 -19.0476 40.6932 4.6012
# 6 10.3411 15.8802 12.0720 -15.7805 4.6012 26.1609
#
#
#
# Elastic Compliance Matrix: (Units=1/GPa)
#
#
# Indices 1 2 3 4 5 6 
#
# 1 0.045098 0.001132 -0.000721 -0.009745 0.015368 -0.026763
# 2 0.001132 0.035452 -0.018898 -0.007981 -0.006750 -0.016874
# 3 -0.000721 -0.018898 0.023338 -0.000653 0.009994 -0.001164
# 4 -0.009745 -0.007981 -0.000653 0.049761 0.013849 0.036579
# 5 0.015368 -0.006750 0.009994 0.013849 0.042217 -0.005660
# 6 -0.026763 -0.016874 -0.001164 0.036579 -0.005660 0.082644
#
#
# Mechanical properties :
#
#
# Convention : Reuss Voigt Hill
#
# Bulk Modulus (GPa) = 14.94447 41.40414 28.17431
# Shear Modulus (GPa) = 14.80213 28.74691 21.77452
#
# Velocity S-wave (km/s) = 2.61274 3.64108 3.16890
# Velocity P-wave (km/s) = 3.99925 6.06394 5.13641
#
# Compressibility (1/GPa) = 0.06691438
#
# Stress axis : x y z
#
# Youngs Moduli (GPa) = 22.17399 28.20697 42.84841
#
# Poissons Ratio (x) = -0.03194 0.03090
# Poissons Ratio (y) = -0.02511 0.80975
# Poissons Ratio (z) = 0.01599 0.53306
#
# Static dielectric constant tensor:
#      x y z
#    x 1.927390 -0.046400 -0.007400 
#    y -0.046400 1.742300 0.017140 
#    z -0.007400 0.017140 1.763640 
# 
# From -- ./inp_files/508211.got.cif
#   From: 2010.05.17/outbox.cif.g08.bks.cpg/sg2_255_cif.got.tgz:508211.got - 2010.06.03 11:33:40.
