data_PCOD9004436
_publ_section_title
;
Structure prediction by ZEFSAII (Michael W. Deem and Ramdas Pophale) SiO2 
 PCOD9004436
Probable space group: P -1
;
_chemical_formula_sum "Si O2"
_cell_formula_units_Z 16
_cell_length_a 11.099776
_cell_length_b 9.345249
_cell_length_c 15.440049
_cell_angle_alpha 40.390922
_cell_angle_beta 104.792878
_cell_angle_gamma 126.452706
_cell_volume 772.719363
_symmetry_space_group_name_H-M "P -1"
_symmetry_group_IT_number 2
_symmetry_cell_setting 'triclinic'
loop_
_space_group_symop_operation_xyz
x,y,z
-x,-y,-z
loop_
_atom_site_type_symbol
_atom_site_label
_atom_site_fract_x
_atom_site_fract_y
_atom_site_fract_z
Si Si1 0.499030 0.761175 0.881924
Si Si2 0.155754 0.201428 0.371416
Si Si3 0.206792 0.475052 0.850603
Si Si4 0.784986 0.244898 0.604046
Si Si5 0.672361 0.066711 0.478347
Si Si6 0.021854 0.137144 0.674016
Si Si7 0.147148 0.034814 0.910664
Si Si8 0.344351 0.866215 0.089219
O O1 0.315399 0.609458 0.894547
O O2 0.607304 0.989204 0.720924
O O3 0.587984 0.944070 0.899144
O O4 0.500000 0.500000 0.000000
O O5 0.292620 0.158643 0.421512
O O6 0.243598 0.534181 0.246959
O O7 0.000000 0.000000 0.500000
O O8 0.082602 0.109667 0.302511
O O9 0.247821 0.736151 0.682246
O O10 0.239349 0.313236 0.862195
O O11 0.025281 0.223214 0.961126
O O12 0.857449 0.563112 0.494804
O O13 0.899561 0.169628 0.685300
O O14 0.780245 0.244413 0.499710
O O15 0.500000 0.000000 0.500000
O O16 0.114728 0.100828 0.779780
O O17 0.242512 0.917343 0.988277
O O18 0.500000 0.000000 0.000000
#
# Coordination Sequence:
#
# PCOD9004436 Si02
#       8
#     2   2   2   2   2   2   2   2
#     4  12  24  43  71  99 140 183 238 290 357 412
#     4  11  26  48  69  98 150 195 233 289 373 433
#     4  11  23  40  72 107 130 177 238 298 340 417
#     4  10  21  37  67 105 135 170 240 298 347 410
#     4  11  22  41  72 101 134 178 240 299 344 414
#     4  10  22  39  70 101 135 184 235 293 352 418
#     4  11  24  43  69 102 141 178 237 288 355 425
#     4  12  30  47  68 103 149 189 233 292 367 432
#
# _framework density 20.706092999999999
#
# number of rings (size 3 to 8) (size 9 to 14) (size 15 to 20)
#    0.000    1.000    3.750    2.250    8.750    0.500 
#    2.250    0.625    0.000    0.000    0.000    0.000 
#    0.000    0.000    0.000    0.000    0.000    0.000 
#
# Total GULP energy -89241.488977 kJ/mol
# GULP energy per Si atom -5577.593061 kJ/mol
# Density = 2.065897 g / cm^3
# Si number density = 20.706093 Si / 1000 Ang^3
#
#
#
# Elastic Constant Matrix: (Units=GPa)
#
#
# Indices 1 2 3 4 5 6 
#
# 1 94.7356 32.3494 46.5105 -5.1348 16.8264 14.0083
# 2 32.3494 120.3532 56.5582 -11.1770 20.1087 3.0092
# 3 46.5105 56.5582 108.5789 -6.7807 18.6749 1.8218
# 4 -5.1348 -11.1770 -6.7807 39.6045 4.3479 1.5635
# 5 16.8264 20.1087 18.6749 4.3479 35.7833 2.0411
# 6 14.0083 3.0092 1.8218 1.5635 2.0411 25.4998
#
#
#
# Elastic Compliance Matrix: (Units=1/GPa)
#
#
# Indices 1 2 3 4 5 6 
#
# 1 0.015302 -0.000620 -0.005345 0.001618 -0.003812 -0.007745
# 2 -0.000620 0.011771 -0.004984 0.002853 -0.004038 -0.000544
# 3 -0.005345 -0.004984 0.014512 0.000552 -0.002478 0.002652
# 4 0.001618 0.002853 0.000552 0.027094 -0.005804 -0.002462
# 5 -0.003812 -0.004038 -0.002478 -0.005804 0.033984 0.000383
# 6 -0.007745 -0.000544 0.002652 -0.002462 0.000383 0.043466
#
#
# Mechanical properties :
#
#
# Convention : Reuss Voigt Hill
#
# Bulk Modulus (GPa) = 50.79746 66.05596 58.42671
# Shear Modulus (GPa) = 28.63898 32.72749 30.68324
#
# Velocity S-wave (km/s) = 3.72306 3.97995 3.85365
# Velocity P-wave (km/s) = 6.56258 7.28636 6.93392
#
# Compressibility (1/GPa) = 0.01968602
#
# Stress axis : x y z
#
# Youngs Moduli (GPa) = 65.35302 84.95527 68.91035
#
# Poissons Ratio (x) = 0.05270 0.36831
# Poissons Ratio (y) = 0.04054 0.34344
# Poissons Ratio (z) = 0.34929 0.42341
#
# Static dielectric constant tensor:
#      x y z
#    x 1.760130 -0.044840 -0.026750 
#    y -0.044840 1.694610 -0.066210 
#    z -0.026750 -0.066210 1.662150 
# 
# From -- ./inp_files/494382.got.cif
#   From: 2010.05.17/outbox.cif.g08.bks.cpg/sg2_248_cif.got.tgz:494382.got - 2010.06.03 11:33:40.
