data_PCOD9004768
_publ_section_title
;
Structure prediction by ZEFSAII (Michael W. Deem and Ramdas Pophale) SiO2 
 PCOD9004768
Probable space group: P -1
;
_chemical_formula_sum "Si O2"
_cell_formula_units_Z 15
_cell_length_a 6.804504
_cell_length_b 16.723996
_cell_length_c 18.468439
_cell_angle_alpha 24.278515
_cell_angle_beta 42.840053
_cell_angle_gamma 42.979302
_cell_volume 572.376642
_symmetry_space_group_name_H-M "P -1"
_symmetry_group_IT_number 2
_symmetry_cell_setting 'triclinic'
loop_
_space_group_symop_operation_xyz
x,y,z
-x,-y,-z
loop_
_atom_site_type_symbol
_atom_site_label
_atom_site_fract_x
_atom_site_fract_y
_atom_site_fract_z
Si Si1 0.481198 0.452139 0.158771
Si Si2 0.703828 0.833183 0.919504
Si Si3 0.258045 0.230269 0.647649
Si Si4 0.348765 0.130254 0.364744
Si Si5 0.154432 0.020137 0.090805
Si Si6 0.850795 0.350897 0.786403
Si Si7 0.681762 0.222009 0.428706
Si Si8 0.000000 0.500000 0.000000
O O1 0.410818 0.336790 0.205492
O O2 0.224525 0.494234 0.253098
O O3 0.742482 0.343446 0.238901
O O4 0.659624 0.619281 0.957774
O O5 0.884321 0.889974 0.892339
O O6 0.934762 0.671280 0.944589
O O7 0.515632 0.039703 0.763106
O O8 0.442945 0.719481 0.104217
O O9 0.434543 0.338806 0.453779
O O10 0.097341 0.353898 0.656792
O O11 0.996289 0.165087 0.727122
O O12 0.992932 0.160973 0.434085
O O13 0.500000 0.000000 0.500000
O O14 0.432859 0.968778 0.410716
O O15 0.002064 0.160024 0.952129
O O16 0.500000 0.000000 0.000000
#
# Coordination Sequence:
#
# PCOD9004768 Si02
#       8
#     2   2   2   2   2   2   2   1
#     4  10  23  43  61  89 131 158 204 256 313 371
#     4  10  21  38  58  90 129 153 204 255 306 368
#     4  11  22  36  63  92 121 163 213 250 303 366
#     4   9  21  42  62  85 125 161 208 251 297 367
#     4  11  19  38  64  88 121 168 205 251 307 360
#     4  10  21  40  57  91 127 157 202 264 299 362
#     4  10  23  40  64  90 121 168 204 258 305 363
#     4  10  24  38  64  92 124 160 190 264 312 364
#
# _framework density 26.206520999999999
#
# number of rings (size 3 to 8) (size 9 to 14) (size 15 to 20)
#    0.000    1.867    2.667    0.800    7.467    3.733 
#    0.000    3.333    0.000    0.000    0.000    0.000 
#    0.000    0.000    0.000    0.000    0.000    0.000 
#
# Total GULP energy -83570.104952 kJ/mol
# GULP energy per Si atom -5571.340330 kJ/mol
# Density = 2.614687 g / cm^3
# Si number density = 26.206521 Si / 1000 Ang^3
#
#
#
# Elastic Constant Matrix: (Units=GPa)
#
#
# Indices 1 2 3 4 5 6 
#
# 1 141.9260 37.8051 25.2330 8.0970 -25.0570 32.2563
# 2 37.8051 173.1422 39.2864 27.0388 -12.6326 19.0319
# 3 25.2330 39.2864 93.5122 6.2695 -7.0973 16.8144
# 4 8.0970 27.0388 6.2695 42.6815 9.8634 -9.3089
# 5 -25.0570 -12.6326 -7.0973 9.8634 21.5350 -2.2847
# 6 32.2563 19.0319 16.8144 -9.3089 -2.2847 46.2909
#
#
#
# Elastic Compliance Matrix: (Units=1/GPa)
#
#
# Indices 1 2 3 4 5 6 
#
# 1 0.013234 0.001357 0.000007 -0.010312 0.019766 -0.010880
# 2 0.001357 0.008463 -0.001716 -0.008646 0.009400 -0.005077
# 3 0.000007 -0.001716 0.012642 -0.002595 0.003909 -0.004220
# 4 -0.010312 -0.008646 -0.002595 0.043620 -0.035922 0.018682
# 5 0.019766 0.009400 0.003909 -0.035922 0.090375 -0.021821
# 6 -0.010880 -0.005077 -0.004220 0.018682 -0.021821 0.035484
#
#
# Mechanical properties :
#
#
# Convention : Reuss Voigt Hill
#
# Bulk Modulus (GPa) = 29.73053 68.13659 48.93356
# Shear Modulus (GPa) = 23.17686 42.51853 32.84770
#
# Velocity S-wave (km/s) = 2.97710 4.03232 3.54420
# Velocity P-wave (km/s) = 4.81527 6.90911 5.95494
#
# Compressibility (1/GPa) = 0.03363546
#
# Stress axis : x y z
#
# Youngs Moduli (GPa) = 75.56343 118.16814 79.09963
#
# Poissons Ratio (x) = -0.16040 -0.00053
# Poissons Ratio (y) = -0.10257 0.13571
# Poissons Ratio (z) = -0.00050 0.20274
#
# Static dielectric constant tensor:
#      x y z
#    x 2.127390 -0.157280 0.103760 
#    y -0.157280 2.293160 -0.121970 
#    z 0.103760 -0.121970 2.418320 
# 
# From -- ./inp_files/64708.got.cif
#   From: 2010.05.17/outbox.cif.g08.bks.cpg/sg2_33_cif.got.tgz:64708.got - 2010.06.03 11:33:40.
