data_PCOD9004283
_publ_section_title
;
Structure prediction by ZEFSAII (Michael W. Deem and Ramdas Pophale) SiO2 
 PCOD9004283
Probable space group: P -1
;
_chemical_formula_sum "Si O2"
_cell_formula_units_Z 16
_cell_length_a 11.908901
_cell_length_b 15.161905
_cell_length_c 11.578907
_cell_angle_alpha 36.373657
_cell_angle_beta 142.415437
_cell_angle_gamma 122.071982
_cell_volume 722.356803
_symmetry_space_group_name_H-M "P -1"
_symmetry_group_IT_number 2
_symmetry_cell_setting 'triclinic'
loop_
_space_group_symop_operation_xyz
x,y,z
-x,-y,-z
loop_
_atom_site_type_symbol
_atom_site_label
_atom_site_fract_x
_atom_site_fract_y
_atom_site_fract_z
Si Si1 0.144545 0.264503 0.691910
Si Si2 0.899185 0.649445 0.839573
Si Si3 0.224695 0.819825 0.578537
Si Si4 0.302534 0.102050 0.780027
Si Si5 0.348982 0.969329 0.317652
Si Si6 0.358336 0.422097 0.842010
Si Si7 0.414439 0.342192 0.238559
Si Si8 0.989491 0.071196 0.287545
O O1 0.296367 0.213816 0.764892
O O2 0.937680 0.270641 0.463202
O O3 0.179648 0.408502 0.635684
O O4 0.216890 0.123014 0.989989
O O5 0.794070 0.782032 0.523354
O O6 0.749334 0.612498 0.845977
O O7 0.021895 0.747428 0.906060
O O8 0.000000 0.500000 0.000000
O O9 0.223084 0.888408 0.377165
O O10 0.440592 0.709333 0.890307
O O11 0.165754 0.961773 0.471722
O O12 0.189142 0.979481 0.855336
O O13 0.500000 0.000000 0.000000
O O14 0.482654 0.842129 0.475881
O O15 0.500000 0.000000 0.500000
O O16 0.333602 0.390725 0.991098
O O17 0.415065 0.577646 0.700761
O O18 0.000000 0.000000 0.500000
#
# Coordination Sequence:
#
# PCOD9004283 Si02
#       8
#     2   2   2   2   2   2   2   2
#     4  11  22  38  65  93 127 159 217 261 323 380
#     4  11  24  41  67  94 133 172 214 272 321 390
#     4  10  21  37  65  93 125 160 220 260 321 382
#     4  10  23  41  64  95 125 171 221 264 322 389
#     4  11  19  38  65  91 121 168 206 268 317 374
#     4  10  23  41  66  92 130 173 202 276 326 382
#     4  10  22  40  64  92 127 169 215 250 336 381
#     4   9  21  37  61  92 123 169 213 257 322 385
#
# _framework density 22.149719000000001
#
# number of rings (size 3 to 8) (size 9 to 14) (size 15 to 20)
#    0.000    1.750    2.500    1.875    8.750    0.000 
#    0.000   10.625    0.000    0.000    0.000    0.000 
#    0.000    0.000    0.000    0.000    0.000    0.000 
#
# Total GULP energy -89298.186571 kJ/mol
# GULP energy per Si atom -5581.136661 kJ/mol
# Density = 2.209931 g / cm^3
# Si number density = 22.149719 Si / 1000 Ang^3
#
#
#
# Elastic Constant Matrix: (Units=GPa)
#
#
# Indices 1 2 3 4 5 6 
#
# 1 114.7978 36.3137 13.8167 -10.0028 16.2782 -16.5033
# 2 36.3137 129.5081 20.6266 -8.7017 4.5167 -3.8871
# 3 13.8167 20.6266 53.6714 -11.7486 9.3372 3.4087
# 4 -10.0028 -8.7017 -11.7486 28.9064 -6.6605 0.0414
# 5 16.2782 4.5167 9.3372 -6.6605 26.6875 -9.6548
# 6 -16.5033 -3.8871 3.4087 0.0414 -9.6548 30.2238
#
#
#
# Elastic Compliance Matrix: (Units=1/GPa)
#
#
# Indices 1 2 3 4 5 6 
#
# 1 0.010989 -0.002518 -0.001117 0.001708 -0.003800 0.004586
# 2 -0.002518 0.008914 -0.002853 0.000992 0.001477 0.000564
# 3 -0.001117 -0.002853 0.023104 0.006430 -0.007478 -0.005980
# 4 0.001708 0.000992 0.006430 0.039807 0.007436 0.002656
# 5 -0.003800 0.001477 -0.007478 0.007436 0.049331 0.014707
# 6 0.004586 0.000564 -0.005980 0.002656 0.014707 0.041032
#
#
# Mechanical properties :
#
#
# Convention : Reuss Voigt Hill
#
# Bulk Modulus (GPa) = 33.30010 48.83236 41.06623
# Shear Modulus (GPa) = 25.48864 32.31156 28.90010
#
# Velocity S-wave (km/s) = 3.39594 3.82354 3.61607
# Velocity P-wave (km/s) = 5.51754 6.44880 6.00126
#
# Compressibility (1/GPa) = 0.03002994
#
# Stress axis : x y z
#
# Youngs Moduli (GPa) = 90.99912 112.18131 43.28186
#
# Poissons Ratio (x) = 0.28252 0.04836
# Poissons Ratio (y) = 0.22917 0.12349
# Poissons Ratio (z) = 0.10167 0.32007
#
# Static dielectric constant tensor:
#      x y z
#    x 1.861150 0.002510 -0.024370 
#    y 0.002510 1.939490 -0.004920 
#    z -0.024370 -0.004920 1.892880 
# 
# From -- ./inp_files/433748.got.cif
#   From: 2010.05.17/outbox.cif.g08.bks.cpg/sg2_217_cif.got.tgz:433748.got - 2010.06.03 11:33:40.
