data_PCOD9004881
_publ_section_title
;
Structure prediction by ZEFSAII (Michael W. Deem and Ramdas Pophale) SiO2 
 PCOD9004881
Probable space group: P -1
;
_chemical_formula_sum "Si O2"
_cell_formula_units_Z 14
_cell_length_a 15.986838
_cell_length_b 8.366710
_cell_length_c 18.386351
_cell_angle_alpha 48.680449
_cell_angle_beta 20.398273
_cell_angle_gamma 41.258131
_cell_volume 554.645459
_symmetry_space_group_name_H-M "P -1"
_symmetry_group_IT_number 2
_symmetry_cell_setting 'triclinic'
loop_
_space_group_symop_operation_xyz
x,y,z
-x,-y,-z
loop_
_atom_site_type_symbol
_atom_site_label
_atom_site_fract_x
_atom_site_fract_y
_atom_site_fract_z
Si Si1 0.757979 0.440330 0.703856
Si Si2 0.454949 0.730024 0.190972
Si Si3 0.772285 0.455755 0.382511
Si Si4 0.852620 0.729077 0.738159
Si Si5 0.842858 0.259846 0.838752
Si Si6 0.133240 0.731213 0.793937
Si Si7 0.011509 0.747097 0.044730
O O1 0.755010 0.336814 0.658352
O O2 0.798329 0.248454 0.792472
O O3 0.000000 0.500000 0.500000
O O4 0.446463 0.667198 0.906640
O O5 0.680275 0.488787 0.122425
O O6 0.295822 0.012791 0.262079
O O7 0.634893 0.743619 0.973099
O O8 0.454059 0.535112 0.606774
O O9 0.934764 0.312913 0.219159
O O10 0.895931 0.314186 0.399696
O O11 0.810803 0.693939 0.274261
O O12 0.903742 0.480971 0.732496
O O13 0.086318 0.005241 0.746389
O O14 0.954390 0.741168 0.006709
O O15 0.000000 0.000000 0.000000
#
# Coordination Sequence:
#
# PCOD9004881 Si02
#       7
#     2   2   2   2   2   2   2
#     4  10  21  38  59  88 121 156 199 249 307 365
#     4   9  19  37  60  86 119 157 198 248 306 363
#     4  10  23  41  63  88 122 166 206 254 307 365
#     4   9  18  38  62  86 118 157 202 252 304 356
#     4  10  22  39  63  90 119 158 203 256 307 360
#     4  11  23  41  63  91 125 162 207 252 308 370
#     4  11  23  40  63  91 124 162 205 254 307 367
#
# _framework density 25.241350000000001
#
# number of rings (size 3 to 8) (size 9 to 14) (size 15 to 20)
#    0.000    2.000    0.000    3.857    0.000    9.143 
#    0.000    8.571    0.000    0.000    0.000    0.000 
#    0.000    0.000    0.000    0.000    0.000    0.000 
#
# Total GULP energy -78229.484215 kJ/mol
# GULP energy per Si atom -5587.820301 kJ/mol
# Density = 2.518390 g / cm^3
# Si number density = 25.241350 Si / 1000 Ang^3
#
#
#
# Elastic Constant Matrix: (Units=GPa)
#
#
# Indices 1 2 3 4 5 6 
#
# 1 131.4678 40.2051 -3.4209 14.7802 7.9922 -3.7428
# 2 40.2051 140.8617 8.4836 5.2117 -4.1731 -8.2497
# 3 -3.4209 8.4836 52.2286 0.8023 -12.3182 7.1705
# 4 14.7802 5.2117 0.8023 22.2040 -1.0258 -10.2838
# 5 7.9922 -4.1731 -12.3182 -1.0258 43.2523 -6.5816
# 6 -3.7428 -8.2497 7.1705 -10.2838 -6.5816 29.7544
#
#
#
# Elastic Compliance Matrix: (Units=1/GPa)
#
#
# Indices 1 2 3 4 5 6 
#
# 1 0.009295 -0.002682 0.000989 -0.006959 -0.002274 -0.002721
# 2 -0.002682 0.008130 -0.001632 0.001431 0.001320 0.003097
# 3 0.000989 -0.001632 0.021439 -0.003425 0.004831 -0.005610
# 4 -0.006959 0.001431 -0.003425 0.060005 0.005257 0.022249
# 5 -0.002274 0.001320 0.004831 0.005257 0.026160 0.006520
# 6 -0.002721 0.003097 -0.005610 0.022249 0.006520 0.044609
#
#
# Mechanical properties :
#
#
# Convention : Reuss Voigt Hill
#
# Bulk Modulus (GPa) = 31.04265 46.12152 38.58209
# Shear Modulus (GPa) = 26.73418 37.66147 32.19783
#
# Velocity S-wave (km/s) = 3.25798 3.86690 3.57543
# Velocity P-wave (km/s) = 5.14564 6.18459 5.68888
#
# Compressibility (1/GPa) = 0.03221374
#
# Stress axis : x y z
#
# Youngs Moduli (GPa) = 107.57936 122.99405 46.64498
#
# Poissons Ratio (x) = 0.32986 -0.04611
# Poissons Ratio (y) = 0.28852 0.07613
# Poissons Ratio (z) = -0.10635 0.20073
#
# Static dielectric constant tensor:
#      x y z
#    x 2.051690 0.032510 0.027770 
#    y 0.032510 1.986920 -0.038210 
#    z 0.027770 -0.038210 2.155580 
# 
# From -- ./inp_files/467184.got.cif
#   From: 2010.05.17/outbox.cif.g08.bks.cpg/sg2_234_cif.got.tgz:467184.got - 2010.06.03 11:33:40.
