data_PCOD9004658
_publ_section_title
;
Structure prediction by ZEFSAII (Michael W. Deem and Ramdas Pophale) SiO2 
 PCOD9004658
Probable space group: P -1
;
_chemical_formula_sum "Si O2"
_cell_formula_units_Z 16
_cell_length_a 16.769286
_cell_length_b 5.235771
_cell_length_c 12.648680
_cell_angle_alpha 102.565889
_cell_angle_beta 92.956841
_cell_angle_gamma 130.370733
_cell_volume 797.679194
_symmetry_space_group_name_H-M "P -1"
_symmetry_group_IT_number 2
_symmetry_cell_setting 'triclinic'
loop_
_space_group_symop_operation_xyz
x,y,z
-x,-y,-z
loop_
_atom_site_type_symbol
_atom_site_label
_atom_site_fract_x
_atom_site_fract_y
_atom_site_fract_z
Si Si1 0.074753 0.846831 0.112279
Si Si2 0.136614 0.402750 0.831322
Si Si3 0.240016 0.084675 0.772819
Si Si4 0.571061 0.401132 0.000859
Si Si5 0.595332 0.550259 0.370550
Si Si6 0.204331 0.631634 0.097748
Si Si7 0.421212 0.603495 0.414380
Si Si8 0.604172 0.211952 0.775864
O O1 0.155386 0.796679 0.150760
O O2 0.988543 0.795871 0.178051
O O3 0.136206 0.221730 0.092106
O O4 0.000000 0.500000 0.000000
O O5 0.159195 0.152706 0.780299
O O6 0.184418 0.696072 0.771557
O O7 0.196904 0.602310 0.966284
O O8 0.304814 0.195541 0.677965
O O9 0.330987 0.348478 0.890237
O O10 0.610419 0.436773 0.888486
O O11 0.500000 0.500000 0.000000
O O12 0.500000 0.000000 0.000000
O O13 0.503170 0.570470 0.369505
O O14 0.633713 0.616367 0.501292
O O15 0.520954 0.145609 0.285612
O O16 0.321969 0.853318 0.177228
O O17 0.354152 0.587611 0.314952
O O18 0.500000 0.000000 0.500000
#
# Coordination Sequence:
#
# PCOD9004658 Si02
#       8
#     2   2   2   2   2   2   2   2
#     4  10  21  38  57  78 118 157 200 243 286 338
#     4  11  22  37  55  84 116 157 196 237 285 349
#     4  12  23  35  58  85 121 160 195 227 290 353
#     4  12  24  35  50  79 127 166 186 225 283 348
#     4  10  22  39  58  85 119 156 200 245 288 342
#     4  11  22  36  58  85 116 160 196 239 290 343
#     4   9  21  40  60  78 116 154 204 249 285 333
#     4  11  23  35  58  85 121 155 199 241 289 346
#
# _framework density 20.05819
#
# number of rings (size 3 to 8) (size 9 to 14) (size 15 to 20)
#    0.000    1.250    2.500    5.250    5.250    0.000 
#    0.000    0.000    0.000    0.000    0.000    5.250 
#    0.000    0.000    0.000    0.000    0.000    0.000 
#
# Total GULP energy -89331.382035 kJ/mol
# GULP energy per Si atom -5583.211377 kJ/mol
# Density = 2.001254 g / cm^3
# Si number density = 20.058190 Si / 1000 Ang^3
#
#
#
# Elastic Constant Matrix: (Units=GPa)
#
#
# Indices 1 2 3 4 5 6 
#
# 1 130.8785 13.2312 50.2769 -21.5203 -1.4175 -10.8256
# 2 13.2312 78.2080 14.7164 -24.0407 1.5033 -12.2725
# 3 50.2769 14.7164 102.6436 -31.9732 -4.0221 1.5449
# 4 -21.5203 -24.0407 -31.9732 32.2135 -1.6168 -2.3391
# 5 -1.4175 1.5033 -4.0221 -1.6168 23.4037 -3.9458
# 6 -10.8256 -12.2725 1.5449 -2.3391 -3.9458 30.3499
#
#
#
# Elastic Compliance Matrix: (Units=1/GPa)
#
#
# Indices 1 2 3 4 5 6 
#
# 1 0.010075 0.000954 -0.003861 0.003992 0.000938 0.004605
# 2 0.000954 0.019236 0.002366 0.018149 0.002113 0.009672
# 3 -0.003861 0.002366 0.016269 0.015542 0.003553 0.000411
# 4 0.003992 0.018149 0.015542 0.064127 0.008542 0.014025
# 5 0.000938 0.002113 0.003553 0.008542 0.045120 0.007532
# 6 0.004605 0.009672 0.000411 0.014025 0.007532 0.040542
#
#
# Mechanical properties :
#
#
# Convention : Reuss Voigt Hill
#
# Bulk Modulus (GPa) = 22.47378 52.01991 37.24685
# Shear Modulus (GPa) = 23.66491 32.76044 28.21268
#
# Velocity S-wave (km/s) = 3.43857 4.04576 3.75446
# Velocity P-wave (km/s) = 5.19554 6.91484 6.11591
#
# Compressibility (1/GPa) = 0.04449630
#
# Stress axis : x y z
#
# Youngs Moduli (GPa) = 99.25751 51.98614 61.46821
#
# Poissons Ratio (x) = -0.04958 0.23731
# Poissons Ratio (y) = -0.09466 -0.14540
# Poissons Ratio (z) = 0.38321 -0.12297
#
# Static dielectric constant tensor:
#      x y z
#    x 1.772560 -0.034860 -0.010700 
#    y -0.034860 1.779950 -0.020910 
#    z -0.010700 -0.020910 1.812670 
# 
# From -- ./inp_files/127449.got.cif
#   From: 2010.05.17/outbox.cif.g08.bks.cpg/sg2_64_cif.got.tgz:127449.got - 2010.06.03 11:33:40.
