data_PCOD9004386
_publ_section_title
;
Structure prediction by ZEFSAII (Michael W. Deem and Ramdas Pophale) SiO2 
 PCOD9004386
Probable space group: P -1
;
_chemical_formula_sum "Si O2"
_cell_formula_units_Z 16
_cell_length_a 14.893700
_cell_length_b 8.795001
_cell_length_c 14.308180
_cell_angle_alpha 143.306645
_cell_angle_beta 40.951430
_cell_angle_gamma 143.056365
_cell_volume 638.031251
_symmetry_space_group_name_H-M "P -1"
_symmetry_group_IT_number 2
_symmetry_cell_setting 'triclinic'
loop_
_space_group_symop_operation_xyz
x,y,z
-x,-y,-z
loop_
_atom_site_type_symbol
_atom_site_label
_atom_site_fract_x
_atom_site_fract_y
_atom_site_fract_z
Si Si1 0.725045 0.983044 0.337665
Si Si2 0.816654 0.597025 0.202042
Si Si3 0.864317 0.994827 0.778578
Si Si4 0.637962 0.553858 0.490857
Si Si5 0.004277 0.433478 0.574168
Si Si6 0.730651 0.144909 0.791525
Si Si7 0.495676 0.103799 0.686044
Si Si8 0.424665 0.105734 0.955416
O O1 0.887109 0.253584 0.308272
O O2 0.598818 0.816850 0.274498
O O3 0.755215 0.757496 0.260501
O O4 0.658419 0.144275 0.538284
O O5 0.791769 0.669142 0.363803
O O6 0.695645 0.248937 0.121603
O O7 0.006414 0.783480 0.139422
O O8 0.921686 0.781262 0.584402
O O9 0.839504 0.197207 0.821397
O O10 0.694620 0.793010 0.862114
O O11 0.500000 0.500000 0.500000
O O12 0.601725 0.252628 0.415121
O O13 0.652850 0.795897 0.668952
O O14 0.000000 0.500000 0.500000
O O15 0.837426 0.288502 0.687084
O O16 0.582193 0.196750 0.935706
O O17 0.482068 0.184637 0.842405
#
# Coordination Sequence:
#
# PCOD9004386 Si02
#       8
#     2   2   2   2   2   2   2   2
#     4  11  21  39  64  99 122 168 215 261 317 375
#     4  11  21  40  66  91 126 161 214 271 306 368
#     4  12  26  41  64  99 129 167 214 260 327 376
#     4  11  17  36  67  93 119 161 216 269 306 351
#     4  12  24  40  65  92 136 164 206 264 319 379
#     4  12  23  41  67  94 128 169 216 262 314 380
#     4  10  21  37  66  93 126 163 219 264 310 376
#     4  11  24  45  66  92 128 171 212 266 317 376
#
# _framework density 25.077143
#
# number of rings (size 3 to 8) (size 9 to 14) (size 15 to 20)
#    0.000    0.750    6.250    2.625    3.500    1.000 
#    0.000    4.375    0.000    0.000    0.000    0.000 
#    0.000    0.000    0.000    0.000    0.000    0.000 
#
# Total GULP energy -89508.042812 kJ/mol
# GULP energy per Si atom -5594.252676 kJ/mol
# Density = 2.502007 g / cm^3
# Si number density = 25.077143 Si / 1000 Ang^3
#
#
#
# Elastic Constant Matrix: (Units=GPa)
#
#
# Indices 1 2 3 4 5 6 
#
# 1 158.8570 28.7630 16.6958 -13.8613 -17.1824 0.2526
# 2 28.7630 90.2270 21.9257 -12.2902 -11.0335 6.0370
# 3 16.6958 21.9257 69.6970 -13.3489 -16.8416 -0.7400
# 4 -13.8613 -12.2902 -13.3489 45.4605 5.9021 0.5220
# 5 -17.1824 -11.0335 -16.8416 5.9021 28.6482 -11.8065
# 6 0.2526 6.0370 -0.7400 0.5220 -11.8065 30.4910
#
#
#
# Elastic Compliance Matrix: (Units=1/GPa)
#
#
# Indices 1 2 3 4 5 6 
#
# 1 0.007158 -0.001759 0.000102 0.001167 0.004221 0.001906
# 2 -0.001759 0.012916 -0.003120 0.001976 0.000696 -0.002383
# 3 0.000102 -0.003120 0.018738 0.003137 0.011481 0.005463
# 4 0.001167 0.001976 0.003137 0.024132 -0.002345 -0.001646
# 5 0.004221 0.000696 0.011481 -0.002345 0.053542 0.020878
# 6 0.001906 -0.002383 0.005463 -0.001646 0.020878 0.041498
#
#
# Mechanical properties :
#
#
# Convention : Reuss Voigt Hill
#
# Bulk Modulus (GPa) = 34.17928 50.39443 42.28686
# Shear Modulus (GPa) = 28.20231 37.67970 32.94101
#
# Velocity S-wave (km/s) = 3.35718 3.88048 3.62828
# Velocity P-wave (km/s) = 5.35600 6.34168 5.86957
#
# Compressibility (1/GPa) = 0.02925749
#
# Stress axis : x y z
#
# Youngs Moduli (GPa) = 139.70224 77.42374 53.36795
#
# Poissons Ratio (x) = 0.13620 -0.00547
# Poissons Ratio (y) = 0.24576 0.16653
# Poissons Ratio (z) = -0.01431 0.24160
#
# Static dielectric constant tensor:
#      x y z
#    x 2.045870 0.046060 -0.015320 
#    y 0.046060 1.991820 -0.011170 
#    z -0.015320 -0.011170 2.081820 
# 
# From -- ./inp_files/530229.got.cif
#   From: 2010.05.17/outbox.cif.g08.bks.cpg/sg2_266_cif.got.tgz:530229.got - 2010.06.03 11:33:40.
