data_PCOD9004731
_publ_section_title
;
Structure prediction by ZEFSAII (Michael W. Deem and Ramdas Pophale) SiO2 
 PCOD9004731
Probable space group: P -1
;
_chemical_formula_sum "Si O2"
_cell_formula_units_Z 14
_cell_length_a 6.793893
_cell_length_b 11.385087
_cell_length_c 14.062447
_cell_angle_alpha 45.340238
_cell_angle_beta 128.246110
_cell_angle_gamma 136.313003
_cell_volume 520.641800
_symmetry_space_group_name_H-M "P -1"
_symmetry_group_IT_number 2
_symmetry_cell_setting 'triclinic'
loop_
_space_group_symop_operation_xyz
x,y,z
-x,-y,-z
loop_
_atom_site_type_symbol
_atom_site_label
_atom_site_fract_x
_atom_site_fract_y
_atom_site_fract_z
Si Si1 0.473858 0.283731 0.977116
Si Si2 0.701281 0.136745 0.568119
Si Si3 0.672884 0.463202 0.301835
Si Si4 0.599785 0.437974 0.658177
Si Si5 0.534035 0.957418 0.240996
Si Si6 0.102555 0.146124 0.201984
Si Si7 0.013916 0.422541 0.909403
O O1 0.239253 0.341938 0.841181
O O2 0.730052 0.360658 0.928301
O O3 0.675439 0.411333 0.052417
O O4 0.370102 0.065732 0.094713
O O5 0.836707 0.355163 0.449307
O O6 0.529088 0.105752 0.632703
O O7 0.500000 0.000000 0.500000
O O8 0.908429 0.053425 0.701259
O O9 0.545383 0.502514 0.336817
O O10 0.411481 0.305222 0.247408
O O11 0.500000 0.500000 0.500000
O O12 0.519301 0.218664 0.740709
O O13 0.937118 0.515205 0.745182
O O14 0.872724 0.113737 0.234054
O O15 0.034338 0.231145 0.040090
#
# Coordination Sequence:
#
# PCOD9004731 Si02
#       7
#     2   2   2   2   2   2   2
#     4   8  16  33  59  85 105 150 200 231 270 339
#     4  10  21  38  58  85 121 148 185 246 283 326
#     4   9  18  37  59  82 124 149 181 244 291 320
#     4  11  20  33  56  86 121 152 182 235 296 342
#     4  11  21  36  62  87 109 152 201 224 285 352
#     4   9  20  39  63  86 109 152 199 236 273 336
#     4   8  16  34  55  82 120 147 184 241 286 321
#
# _framework density 26.889887000000002
#
# number of rings (size 3 to 8) (size 9 to 14) (size 15 to 20)
#    0.000    2.571    1.429    2.571    0.000    7.429 
#    5.143    7.857    0.000    0.000    0.000    0.000 
#    0.000    0.000    0.000    0.000    0.000    0.000 
#
# Total GULP energy -78192.233586 kJ/mol
# GULP energy per Si atom -5585.159542 kJ/mol
# Density = 2.682868 g / cm^3
# Si number density = 26.889887 Si / 1000 Ang^3
#
#
#
# Elastic Constant Matrix: (Units=GPa)
#
#
# Indices 1 2 3 4 5 6 
#
# 1 99.6775 17.4584 63.1013 -5.0271 -7.0764 -11.8983
# 2 17.4584 72.2537 64.6995 -17.2619 12.0069 -14.4547
# 3 63.1013 64.6995 280.3502 -32.7639 20.6048 -25.0579
# 4 -5.0271 -17.2619 -32.7639 47.6430 -19.7106 7.5858
# 5 -7.0764 12.0069 20.6048 -19.7106 60.0596 -5.5217
# 6 -11.8983 -14.4547 -25.0579 7.5858 -5.5217 27.3839
#
#
#
# Elastic Compliance Matrix: (Units=1/GPa)
#
#
# Indices 1 2 3 4 5 6 
#
# 1 0.012332 -0.000473 -0.002575 -0.000043 0.002722 0.003312
# 2 -0.000473 0.019012 -0.003317 0.003175 -0.001154 0.005682
# 3 -0.002575 -0.003317 0.005280 0.001612 -0.000798 0.001354
# 4 -0.000043 0.003175 0.001612 0.026716 0.007318 -0.002793
# 5 0.002722 -0.001154 -0.000798 0.007318 0.020048 0.001858
# 6 0.003312 0.005682 0.001354 -0.002793 0.001858 0.043344
#
#
# Mechanical properties :
#
#
# Convention : Reuss Voigt Hill
#
# Bulk Modulus (GPa) = 41.85490 82.53333 62.19412
# Shear Modulus (GPa) = 33.91469 47.48544 40.70006
#
# Velocity S-wave (km/s) = 3.55525 4.20685 3.89470
# Velocity P-wave (km/s) = 5.69668 7.37268 6.58819
#
# Compressibility (1/GPa) = 0.02389206
#
# Stress axis : x y z
#
# Youngs Moduli (GPa) = 81.08904 52.59820 189.38354
#
# Poissons Ratio (x) = 0.02490 0.48774
# Poissons Ratio (y) = 0.03839 0.62824
# Poissons Ratio (z) = 0.20884 0.17448
#
# Static dielectric constant tensor:
#      x y z
#    x 2.252690 -0.006700 -0.044660 
#    y -0.006700 2.101820 0.005540 
#    z -0.044660 0.005540 2.159800 
# 
# From -- ./inp_files/331585.got.cif
#   From: 2010.05.17/outbox.cif.g08.bks.cpg/sg2_166_cif.got.tgz:331585.got - 2010.06.03 11:33:40.
