data_PCOD9004776
_publ_section_title
;
Structure prediction by ZEFSAII (Michael W. Deem and Ramdas Pophale) SiO2 
 PCOD9004776
Probable space group: P -1
;
_chemical_formula_sum "Si O2"
_cell_formula_units_Z 16
_cell_length_a 12.112814
_cell_length_b 12.180746
_cell_length_c 11.215862
_cell_angle_alpha 67.843011
_cell_angle_beta 93.716680
_cell_angle_gamma 144.233540
_cell_volume 801.954751
_symmetry_space_group_name_H-M "P -1"
_symmetry_group_IT_number 2
_symmetry_cell_setting 'triclinic'
loop_
_space_group_symop_operation_xyz
x,y,z
-x,-y,-z
loop_
_atom_site_type_symbol
_atom_site_label
_atom_site_fract_x
_atom_site_fract_y
_atom_site_fract_z
Si Si1 0.222586 0.035712 0.533946
Si Si2 0.391493 0.417632 0.155135
Si Si3 0.678874 0.286939 0.082638
Si Si4 0.050387 0.087541 0.629518
Si Si5 0.615029 0.856669 0.048269
Si Si6 0.024201 0.142325 0.862450
Si Si7 0.140289 0.809071 0.850464
Si Si8 0.414538 0.648986 0.726163
O O1 0.053906 0.908548 0.466703
O O2 0.445410 0.184070 0.444760
O O3 0.144142 0.876522 0.696222
O O4 0.224351 0.168241 0.541465
O O5 0.140544 0.176766 0.238703
O O6 0.472017 0.608573 0.146825
O O7 0.470885 0.372119 0.240894
O O8 0.500000 0.500000 0.000000
O O9 0.736582 0.203492 0.139826
O O10 0.568171 0.245162 0.206765
O O11 0.531350 0.175039 0.003671
O O12 0.899052 0.557991 0.968579
O O13 0.114697 0.195047 0.717476
O O14 0.742200 0.005783 0.115269
O O15 0.789993 0.980785 0.911035
O O16 0.173854 0.385539 0.815187
O O17 0.000000 0.000000 0.000000
#
# Coordination Sequence:
#
# PCOD9004776 Si02
#       8
#     2   2   2   2   2   2   2   2
#     4  10  23  41  58  87 132 168 200 254 320 376
#     4  11  18  33  61  95 118 159 199 248 316 366
#     4  11  24  43  69  89 122 161 225 266 304 367
#     4  10  21  38  58  92 133 165 201 247 319 389
#     4  12  21  37  67  95 126 158 208 268 310 367
#     4  12  21  35  64  97 131 162 208 259 309 376
#     4  11  25  44  64  93 122 169 212 267 311 363
#     4  11  22  38  59  93 124 165 204 251 315 376
#
# _framework density 19.951250999999999
#
# number of rings (size 3 to 8) (size 9 to 14) (size 15 to 20)
#    0.000    1.000    5.000    2.625    0.000    1.000 
#    6.750    0.000    0.000    1.500    0.000    0.000 
#    0.000    0.000    0.000    0.000    0.000    0.000 
#
# Total GULP energy -89198.773110 kJ/mol
# GULP energy per Si atom -5574.923319 kJ/mol
# Density = 1.990584 g / cm^3
# Si number density = 19.951251 Si / 1000 Ang^3
#
#
#
# Elastic Constant Matrix: (Units=GPa)
#
#
# Indices 1 2 3 4 5 6 
#
# 1 75.6650 4.3935 34.7959 -0.7237 -1.2221 7.9167
# 2 4.3935 58.2485 14.9556 6.3685 -2.2867 -6.5931
# 3 34.7959 14.9556 93.9397 16.6097 -7.4983 -8.6284
# 4 -0.7237 6.3685 16.6097 27.7556 4.4533 -3.1463
# 5 -1.2221 -2.2867 -7.4983 4.4533 24.7915 -1.0467
# 6 7.9167 -6.5931 -8.6284 -3.1463 -1.0467 25.3585
#
#
#
# Elastic Compliance Matrix: (Units=1/GPa)
#
#
# Indices 1 2 3 4 5 6 
#
# 1 0.018019 -0.000807 -0.008476 0.005288 -0.003045 -0.008189
# 2 -0.000807 0.018528 -0.001544 -0.003182 0.001953 0.004230
# 3 -0.008476 -0.001544 0.017047 -0.010353 0.006753 0.007039
# 4 0.005288 -0.003182 -0.010353 0.044795 -0.011249 -0.000907
# 5 -0.003045 0.001953 0.006753 -0.011249 0.044607 0.004201
# 6 -0.008189 0.004230 0.007039 -0.000907 0.004201 0.045547
#
#
# Mechanical properties :
#
#
# Convention : Reuss Voigt Hill
#
# Bulk Modulus (GPa) = 31.30883 37.34925 34.32904
# Shear Modulus (GPa) = 22.64053 27.16167 24.90110
#
# Velocity S-wave (km/s) = 3.37232 3.69372 3.53667
# Velocity P-wave (km/s) = 5.55789 6.07884 5.82419
#
# Compressibility (1/GPa) = 0.03193987
#
# Stress axis : x y z
#
# Youngs Moduli (GPa) = 55.49674 53.97112 58.66270
#
# Poissons Ratio (x) = 0.04358 0.49723
# Poissons Ratio (y) = 0.04481 0.09056
# Poissons Ratio (z) = 0.47039 0.08331
#
# Static dielectric constant tensor:
#      x y z
#    x 1.722550 0.039030 -0.019120 
#    y 0.039030 1.799660 -0.124050 
#    z -0.019120 -0.124050 2.189150 
# 
# From -- ./inp_files/425653.got.cif
#   From: 2010.05.17/outbox.cif.g08.bks.cpg/sg2_213_cif.got.tgz:425653.got - 2010.06.03 11:33:40.
