data_PCOD9004234
_publ_section_title
;
Structure prediction by ZEFSAII (Michael W. Deem and Ramdas Pophale) SiO2 
 PCOD9004234
Probable space group: P -1
;
_chemical_formula_sum "Si O2"
_cell_formula_units_Z 14
_cell_length_a 10.534109
_cell_length_b 7.949705
_cell_length_c 7.893841
_cell_angle_alpha 118.443553
_cell_angle_beta 74.985211
_cell_angle_gamma 101.863188
_cell_volume 558.776902
_symmetry_space_group_name_H-M "P -1"
_symmetry_group_IT_number 2
_symmetry_cell_setting 'triclinic'
loop_
_space_group_symop_operation_xyz
x,y,z
-x,-y,-z
loop_
_atom_site_type_symbol
_atom_site_label
_atom_site_fract_x
_atom_site_fract_y
_atom_site_fract_z
Si Si1 0.632248 0.026375 0.357149
Si Si2 0.678868 0.661918 0.975405
Si Si3 0.194183 0.419526 0.768889
Si Si4 0.902297 0.235045 0.876184
Si Si5 0.113123 0.885074 0.499160
Si Si6 0.925434 0.854367 0.823935
Si Si7 0.366491 0.521826 0.455397
O O1 0.760734 0.989663 0.409209
O O2 0.655548 0.252737 0.418247
O O3 0.500000 0.000000 0.500000
O O4 0.626174 0.870825 0.132850
O O5 0.694844 0.581851 0.121976
O O6 0.382750 0.454416 0.221552
O O7 0.827882 0.704426 0.877396
O O8 0.252471 0.400231 0.550622
O O9 0.059339 0.293187 0.816960
O O10 0.145305 0.631462 0.900404
O O11 0.841610 0.262054 0.724639
O O12 0.851699 0.014313 0.826520
O O13 0.032769 0.779734 0.628587
O O14 0.000000 0.000000 0.500000
O O15 0.000000 0.000000 0.000000
O O16 0.500000 0.500000 0.500000
#
# Coordination Sequence:
#
# PCOD9004234 Si02
#       7
#     2   2   2   2   2   2   2
#     4  12  27  48  78 106 146 198 249 299 374 442
#     4  12  25  47  76 102 146 195 240 308 370 427
#     4  11  23  43  66 104 145 183 241 304 366 434
#     4  10  21  37  65 102 144 184 231 304 368 428
#     4  10  21  39  69 106 139 183 243 300 357 433
#     4  11  19  37  67 102 142 186 238 292 366 432
#     4  12  30  49  71 107 146 195 254 301 359 444
#
# _framework density 25.054725000000001
#
# number of rings (size 3 to 8) (size 9 to 14) (size 15 to 20)
#    0.000    0.857    2.857    4.286    0.000    7.429 
#    0.000    5.000    0.000    0.000    0.000    0.000 
#    0.000    0.000    0.000    0.000    0.000    0.000 
#
# Total GULP energy -78093.588010 kJ/mol
# GULP energy per Si atom -5578.113429 kJ/mol
# Density = 2.499770 g / cm^3
# Si number density = 25.054725 Si / 1000 Ang^3
#
#
#
# Elastic Constant Matrix: (Units=GPa)
#
#
# Indices 1 2 3 4 5 6 
#
# 1 93.8934 20.6568 30.7266 3.0071 2.2895 2.4631
# 2 20.6568 93.8953 29.2581 3.1782 4.3250 -5.9429
# 3 30.7266 29.2581 147.1542 7.2439 9.9750 0.8644
# 4 3.0071 3.1782 7.2439 46.0744 12.0350 -6.3783
# 5 2.2895 4.3250 9.9750 12.0350 36.4560 -9.4733
# 6 2.4631 -5.9429 0.8644 -6.3783 -9.4733 27.0786
#
#
#
# Elastic Compliance Matrix: (Units=1/GPa)
#
#
# Indices 1 2 3 4 5 6 
#
# 1 0.011825 -0.002052 -0.002013 -0.000486 -0.000217 -0.001652
# 2 -0.002052 0.011891 -0.001953 0.000019 -0.000011 0.002859
# 3 -0.002013 -0.001953 0.007772 -0.000642 -0.001897 -0.001308
# 4 -0.000486 0.000019 -0.000642 0.024095 -0.006884 0.003336
# 5 -0.000217 -0.000011 -0.001897 -0.006884 0.032819 0.009938
# 6 -0.001652 0.002859 -0.001308 0.003336 0.009938 0.042012
#
#
# Mechanical properties :
#
#
# Convention : Reuss Voigt Hill
#
# Bulk Modulus (GPa) = 51.40816 55.13620 53.27218
# Shear Modulus (GPa) = 33.57208 38.87524 36.22366
#
# Velocity S-wave (km/s) = 3.66450 3.94333 3.80647
# Velocity P-wave (km/s) = 6.20223 6.54119 6.37396
#
# Compressibility (1/GPa) = 0.01945216
#
# Stress axis : x y z
#
# Youngs Moduli (GPa) = 84.56842 84.09733 128.66832
#
# Poissons Ratio (x) = 0.17260 0.25896
# Poissons Ratio (y) = 0.17357 0.25125
# Poissons Ratio (z) = 0.17021 0.16422
#
# Static dielectric constant tensor:
#      x y z
#    x 1.935400 0.228280 -0.018190 
#    y 0.228280 1.386420 0.340640 
#    z -0.018190 0.340640 2.028060 
# 
# From -- ./inp_files/174951.got.cif
#   From: 2010.05.17/outbox.cif.g08.bks.cpg/sg2_88_cif.got.tgz:174951.got - 2010.06.03 11:33:40.
