data_PCOD9004813
_publ_section_title
;
Structure prediction by ZEFSAII (Michael W. Deem and Ramdas Pophale) SiO2 
 PCOD9004813
Probable space group: P -1
;
_chemical_formula_sum "Si O2"
_cell_formula_units_Z 16
_cell_length_a 9.036397
_cell_length_b 11.119819
_cell_length_c 10.666129
_cell_angle_alpha 56.864217
_cell_angle_beta 61.963472
_cell_angle_gamma 42.259406
_cell_volume 599.446554
_symmetry_space_group_name_H-M "P -1"
_symmetry_group_IT_number 2
_symmetry_cell_setting 'triclinic'
loop_
_space_group_symop_operation_xyz
x,y,z
-x,-y,-z
loop_
_atom_site_type_symbol
_atom_site_label
_atom_site_fract_x
_atom_site_fract_y
_atom_site_fract_z
Si Si1 0.937771 0.348727 0.759528
Si Si2 0.242167 0.811841 0.964868
Si Si3 0.358643 0.161128 0.862507
Si Si4 0.299721 0.581787 0.689180
Si Si5 0.680898 0.196862 0.618840
Si Si6 0.121795 0.046630 0.644895
Si Si7 0.126849 0.301527 0.343766
Si Si8 0.693732 0.629715 0.005640
O O1 0.166222 0.209449 0.826451
O O2 0.980491 0.238674 0.678720
O O3 0.886610 0.546104 0.653774
O O4 0.760835 0.357862 0.908052
O O5 0.432749 0.768297 0.001962
O O6 0.262590 0.870406 0.785422
O O7 0.000000 0.000000 0.000000
O O8 0.544973 0.128037 0.721235
O O9 0.240176 0.333897 0.910033
O O10 0.500000 0.000000 0.000000
O O11 0.530367 0.381801 0.664747
O O12 0.324055 0.734183 0.557108
O O13 0.111524 0.631262 0.639454
O O14 0.245000 0.566510 0.861406
O O15 0.929765 0.057301 0.650609
O O16 0.237890 0.099293 0.478058
O O17 0.220707 0.320722 0.168804
#
# Coordination Sequence:
#
# PCOD9004813 Si02
#       8
#     2   2   2   2   2   2   2   2
#     4  11  20  35  59  88 114 143 195 245 275 324
#     4  10  21  39  59  80 112 155 192 230 286 343
#     4  11  20  34  60  88 111 143 197 242 275 332
#     4   9  17  33  56  82 109 143 185 226 278 334
#     4   9  17  33  58  84 106 147 186 230 279 328
#     4  10  21  38  59  84 116 152 191 233 283 340
#     4  11  22  36  59  86 118 149 189 237 287 337
#     4  11  22  38  60  80 115 157 185 227 294 350
#
# _framework density 26.691288
#
# number of rings (size 3 to 8) (size 9 to 14) (size 15 to 20)
#    0.000    1.750    2.500    6.000    0.000    1.000 
#    2.250    0.000    2.750    2.250    0.000    0.000 
#    0.000    0.000    0.000    0.000    0.000    0.000 
#
# Total GULP energy -89390.728074 kJ/mol
# GULP energy per Si atom -5586.920505 kJ/mol
# Density = 2.663054 g / cm^3
# Si number density = 26.691288 Si / 1000 Ang^3
#
#
#
# Elastic Constant Matrix: (Units=GPa)
#
#
# Indices 1 2 3 4 5 6 
#
# 1 106.6692 15.8402 28.3669 9.0905 -11.5394 -23.8471
# 2 15.8402 37.4227 15.5938 -0.0517 -6.8582 0.8019
# 3 28.3669 15.5938 219.4876 2.5202 -22.8582 1.7708
# 4 9.0905 -0.0517 2.5202 45.6679 7.2363 4.8836
# 5 -11.5394 -6.8582 -22.8582 7.2363 47.7447 -2.9499
# 6 -23.8471 0.8019 1.7708 4.8836 -2.9499 34.4437
#
#
#
# Elastic Compliance Matrix: (Units=1/GPa)
#
#
# Indices 1 2 3 4 5 6 
#
# 1 0.013414 -0.004849 -0.001079 -0.004247 0.003311 0.010341
# 2 -0.004849 0.029764 -0.001252 0.001163 0.002082 -0.003972
# 3 -0.001079 -0.001252 0.004997 -0.000289 0.001948 -0.000767
# 4 -0.004247 0.001163 -0.000289 0.024299 -0.005103 -0.006835
# 5 0.003311 0.002082 0.001948 -0.005103 0.024055 0.004928
# 6 0.010341 -0.003972 -0.000767 -0.006835 0.004928 0.037715
#
#
# Mechanical properties :
#
#
# Convention : Reuss Voigt Hill
#
# Bulk Modulus (GPa) = 29.57293 53.68682 41.62988
# Shear Modulus (GPa) = 31.27420 45.82317 38.54868
#
# Velocity S-wave (km/s) = 3.42673 4.14790 3.80444
# Velocity P-wave (km/s) = 5.17303 6.56489 5.91008
#
# Compressibility (1/GPa) = 0.03381470
#
# Stress axis : x y z
#
# Youngs Moduli (GPa) = 74.55047 33.59728 200.12522
#
# Poissons Ratio (x) = 0.16290 0.21592
# Poissons Ratio (y) = 0.36148 0.25064
# Poissons Ratio (z) = 0.08043 0.04208
#
# Static dielectric constant tensor:
#      x y z
#    x 2.173180 0.191280 -0.173490 
#    y 0.191280 2.317950 -0.066640 
#    z -0.173490 -0.066640 2.270920 
# 
# From -- ./inp_files/305648.got.cif
#   From: 2010.05.17/outbox.cif.g08.bks.cpg/sg2_153_cif.got.tgz:305648.got - 2010.06.03 11:33:40.
