data_PCOD9004042
_publ_section_title
;
Structure prediction by ZEFSAII (Michael W. Deem and Ramdas Pophale) SiO2 
 PCOD9004042
Probable space group: P -1
;
_chemical_formula_sum "Si O2"
_cell_formula_units_Z 15
_cell_length_a 7.624339
_cell_length_b 5.043619
_cell_length_c 14.891384
_cell_angle_alpha 77.641489
_cell_angle_beta 94.511539
_cell_angle_gamma 76.109703
_cell_volume 537.880052
_symmetry_space_group_name_H-M "P -1"
_symmetry_group_IT_number 2
_symmetry_cell_setting 'triclinic'
loop_
_space_group_symop_operation_xyz
x,y,z
-x,-y,-z
loop_
_atom_site_type_symbol
_atom_site_label
_atom_site_fract_x
_atom_site_fract_y
_atom_site_fract_z
Si Si1 0.869412 0.226960 0.172517
Si Si2 0.184720 0.165772 0.644291
Si Si3 0.227175 0.709615 0.545389
Si Si4 0.661608 0.512823 0.624272
Si Si5 0.000000 0.000000 0.000000
Si Si6 0.389276 0.025174 0.280981
Si Si7 0.379304 0.313616 0.962738
Si Si8 0.800909 0.575174 0.885913
O O1 0.878708 0.000327 0.265914
O O2 0.880509 0.087744 0.084495
O O3 0.701271 0.512953 0.142211
O O4 0.046556 0.342255 0.171976
O O5 0.156687 0.021110 0.559334
O O6 0.402147 0.084307 0.674624
O O7 0.136522 0.500364 0.612545
O O8 0.447491 0.623976 0.580302
O O9 0.224758 0.625138 0.447539
O O10 0.705329 0.776091 0.655001
O O11 0.679037 0.253198 0.712443
O O12 0.846325 0.246386 0.920795
O O13 0.377250 0.225566 0.180092
O O14 0.500000 0.500000 0.000000
O O15 0.198106 0.318568 0.017531
O O16 0.500000 0.000000 0.000000
#
# Coordination Sequence:
#
# PCOD9004042 Si02
#       8
#     2   2   2   2   1   2   2   2
#     4  11  26  43  66  92 132 175 221 263 325 401
#     4  10  21  37  63  97 126 164 215 270 316 372
#     4   9  18  35  61  94 130 164 206 262 326 383
#     4   9  18  35  61  94 130 164 206 262 326 383
#     4  10  24  44  64  84 120 176 220 250 316 392
#     4  10  21  37  63  97 126 164 215 270 316 372
#     4  11  26  43  68  94 125 163 214 280 329 372
#     4  11  26  43  66  92 132 175 221 263 325 401
#
# _framework density 27.887257999999999
#
# number of rings (size 3 to 8) (size 9 to 14) (size 15 to 20)
#    0.000    1.867    0.000    3.200   11.200    6.400 
#    0.000    0.000    0.000    4.800    0.000    0.000 
#    0.000    0.000    0.000    0.000    0.000    0.000 
#
# Total GULP energy -83797.365328 kJ/mol
# GULP energy per Si atom -5586.491022 kJ/mol
# Density = 2.782379 g / cm^3
# Si number density = 27.887258 Si / 1000 Ang^3
#
#
#
# Elastic Constant Matrix: (Units=GPa)
#
#
# Indices 1 2 3 4 5 6 
#
# 1 71.8288 10.6781 -0.6874 -5.0731 -4.8480 -6.9850
# 2 10.6781 121.4333 -6.0689 -18.1215 -7.7000 -3.1503
# 3 -0.6874 -6.0689 88.0240 -2.9019 -12.1068 4.3708
# 4 -5.0731 -18.1215 -2.9019 39.7233 4.7621 -5.3532
# 5 -4.8480 -7.7000 -12.1068 4.7621 50.3981 -5.3427
# 6 -6.9850 -3.1503 4.3708 -5.3532 -5.3427 37.2704
#
#
#
# Elastic Compliance Matrix: (Units=1/GPa)
#
#
# Indices 1 2 3 4 5 6 
#
# 1 0.014572 -0.000841 0.000162 0.001730 0.001477 0.003101
# 2 -0.000841 0.009080 0.000865 0.004120 0.001261 0.001281
# 3 0.000162 0.000865 0.011878 0.000840 0.002841 -0.000762
# 4 0.001730 0.004120 0.000840 0.028076 -0.001185 0.004437
# 5 0.001477 0.001261 0.002841 -0.001185 0.021282 0.002931
# 6 0.003101 0.001281 -0.000762 0.004437 0.002931 0.028667
#
#
# Mechanical properties :
#
#
# Convention : Reuss Voigt Hill
#
# Bulk Modulus (GPa) = 27.85344 32.12551 29.98948
# Shear Modulus (GPa) = 39.95220 43.96931 41.96076
#
# Velocity S-wave (km/s) = 3.78912 3.97505 3.88320
# Velocity P-wave (km/s) = 5.39933 5.71077 5.55723
#
# Compressibility (1/GPa) = 0.03590220
#
# Stress axis : x y z
#
# Youngs Moduli (GPa) = 68.62459 110.13110 84.19138
#
# Poissons Ratio (x) = 0.09262 -0.01365
# Poissons Ratio (y) = 0.05771 -0.07283
# Poissons Ratio (z) = -0.01112 -0.09527
#
# Static dielectric constant tensor:
#      x y z
#    x 2.206920 -0.094590 0.011410 
#    y -0.094590 2.105400 -0.000200 
#    z 0.011410 -0.000200 2.191800 
# 
# From -- ./inp_files/136728.got.cif
#   From: 2010.05.17/outbox.cif.g08.bks.cpg/sg2_69_cif.got.tgz:136728.got - 2010.06.03 11:33:40.
