data_PCOD9004221
_publ_section_title
;
Structure prediction by ZEFSAII (Michael W. Deem and Ramdas Pophale) SiO2 
 PCOD9004221
Probable space group: P -1
;
_chemical_formula_sum "Si O2"
_cell_formula_units_Z 16
_cell_length_a 13.213786
_cell_length_b 6.491850
_cell_length_c 10.304429
_cell_angle_alpha 65.830987
_cell_angle_beta 89.339097
_cell_angle_gamma 112.556425
_cell_volume 729.696476
_symmetry_space_group_name_H-M "P -1"
_symmetry_group_IT_number 2
_symmetry_cell_setting 'triclinic'
loop_
_space_group_symop_operation_xyz
x,y,z
-x,-y,-z
loop_
_atom_site_type_symbol
_atom_site_label
_atom_site_fract_x
_atom_site_fract_y
_atom_site_fract_z
Si Si1 0.381522 0.329648 0.989938
Si Si2 0.609174 0.231732 0.276119
Si Si3 0.226386 0.361524 0.674794
Si Si4 0.963970 0.450170 0.364223
Si Si5 0.191374 0.109495 0.463477
Si Si6 0.341459 0.985509 0.304658
Si Si7 0.194785 0.577611 0.214726
Si Si8 0.288982 0.959811 0.883596
O O1 0.319089 0.162404 0.153442
O O2 0.500000 0.500000 0.000000
O O3 0.343291 0.527616 0.882036
O O4 0.389703 0.153601 0.920909
O O5 0.659167 0.384393 0.367801
O O6 0.474648 0.088059 0.304256
O O7 0.666107 0.071932 0.249078
O O8 0.127440 0.442801 0.686817
O O9 0.222717 0.270452 0.551963
O O10 0.218046 0.121203 0.820175
O O11 0.000000 0.500000 0.500000
O O12 0.075912 0.580157 0.246298
O O13 0.911312 0.150832 0.430515
O O14 0.280753 0.018621 0.425129
O O15 0.174241 0.291282 0.310342
O O16 0.283674 0.730898 0.288288
O O17 0.235545 0.718424 0.039915
#
# Coordination Sequence:
#
# PCOD9004221 Si02
#       8
#     2   2   2   2   2   2   2   2
#     4   8  17  33  58  91 127 170 211 257 310 372
#     4  10  21  41  61  94 141 174 210 260 317 390
#     4  11  25  43  66  94 133 177 213 262 328 383
#     4  12  24  46  70  93 128 165 220 278 322 383
#     4  12  23  42  68  97 127 171 221 267 325 379
#     4  10  21  37  64  99 132 169 218 265 313 384
#     4  11  24  41  70 103 124 167 223 269 324 382
#     4  10  22  41  65  96 136 171 210 264 327 385
#
# _framework density 21.926926000000002
#
# number of rings (size 3 to 8) (size 9 to 14) (size 15 to 20)
#    0.000    1.500    2.500    1.875    0.000    8.500 
#    0.000    6.875    0.000    0.000    0.000    0.000 
#    0.000    0.000    0.000    0.000    0.000    0.000 
#
# Total GULP energy -89142.114015 kJ/mol
# GULP energy per Si atom -5571.382126 kJ/mol
# Density = 2.187702 g / cm^3
# Si number density = 21.926926 Si / 1000 Ang^3
#
#
#
# Elastic Constant Matrix: (Units=GPa)
#
#
# Indices 1 2 3 4 5 6 
#
# 1 87.1244 31.0330 13.0954 -4.9126 -3.3395 -1.2561
# 2 31.0330 86.4032 37.8607 1.8448 -5.1409 8.7692
# 3 13.0954 37.8607 72.2350 -8.0338 1.0588 0.4828
# 4 -4.9126 1.8448 -8.0338 36.3869 -9.4802 3.3169
# 5 -3.3395 -5.1409 1.0588 -9.4802 33.2240 -3.3850
# 6 -1.2561 8.7692 0.4828 3.3169 -3.3850 29.0089
#
#
#
# Elastic Compliance Matrix: (Units=1/GPa)
#
#
# Indices 1 2 3 4 5 6 
#
# 1 0.013488 -0.005257 0.000541 0.002389 0.001416 0.002056
# 2 -0.005257 0.017935 -0.008740 -0.002771 0.001221 -0.005045
# 3 0.000541 -0.008740 0.018809 0.004384 -0.000463 0.001797
# 4 0.002389 -0.002771 0.004384 0.031264 0.008417 -0.001725
# 5 0.001416 0.001221 -0.000463 0.008417 0.033111 0.002601
# 6 0.002056 -0.005045 0.001797 -0.001725 0.002601 0.036557
#
#
# Mechanical properties :
#
#
# Convention : Reuss Voigt Hill
#
# Bulk Modulus (GPa) = 42.88009 45.52676 44.20342
# Shear Modulus (GPa) = 26.90381 30.64220 28.77300
#
# Velocity S-wave (km/s) = 3.50662 3.74233 3.62639
# Velocity P-wave (km/s) = 5.99946 6.28342 6.14308
#
# Compressibility (1/GPa) = 0.02332085
#
# Stress axis : x y z
#
# Youngs Moduli (GPa) = 74.14253 55.75659 53.16682
#
# Poissons Ratio (x) = 0.29311 -0.02878
# Poissons Ratio (y) = 0.38976 0.46466
# Poissons Ratio (z) = -0.04013 0.48729
#
# Static dielectric constant tensor:
#      x y z
#    x 1.817220 -0.008860 0.096430 
#    y -0.008860 1.837950 -0.085220 
#    z 0.096430 -0.085220 2.051380 
# 
# From -- ./inp_files/410074.got.cif
#   From: 2010.05.17/outbox.cif.g08.bks.cpg/sg2_206_cif.got.tgz:410074.got - 2010.06.03 11:33:40.
