data_PCOD9004294
_publ_section_title
;
Structure prediction by ZEFSAII (Michael W. Deem and Ramdas Pophale) SiO2 
 PCOD9004294
Probable space group: P -1
;
_chemical_formula_sum "Si O2"
_cell_formula_units_Z 16
_cell_length_a 8.078946
_cell_length_b 9.233800
_cell_length_c 10.567352
_cell_angle_alpha 78.425219
_cell_angle_beta 69.767896
_cell_angle_gamma 63.207696
_cell_volume 659.327340
_symmetry_space_group_name_H-M "P -1"
_symmetry_group_IT_number 2
_symmetry_cell_setting 'triclinic'
loop_
_space_group_symop_operation_xyz
x,y,z
-x,-y,-z
loop_
_atom_site_type_symbol
_atom_site_label
_atom_site_fract_x
_atom_site_fract_y
_atom_site_fract_z
Si Si1 0.927299 0.617460 0.167273
Si Si2 0.453198 0.143559 0.088014
Si Si3 0.402443 0.298333 0.580122
Si Si4 0.734206 0.967513 0.630953
Si Si5 0.033028 0.826842 0.366249
Si Si6 0.293464 0.490385 0.948764
Si Si7 0.586007 0.489859 0.680549
Si Si8 0.845940 0.961540 0.124810
O O1 0.820692 0.638954 0.326490
O O2 0.858306 0.500894 0.124435
O O3 0.830544 0.799672 0.105844
O O4 0.152293 0.573396 0.089232
O O5 0.295226 0.135167 0.228340
O O6 0.640155 0.104977 0.132727
O O7 0.404115 0.306039 0.995741
O O8 0.500000 0.000000 0.000000
O O9 0.531026 0.107105 0.607056
O O10 0.489716 0.395038 0.633470
O O11 0.420774 0.356884 0.424572
O O12 0.848564 0.071233 0.633616
O O13 0.867272 0.850430 0.508304
O O14 0.194626 0.644232 0.337253
O O15 0.926105 0.914724 0.252110
O O16 0.454637 0.536812 0.833243
O O17 0.000000 0.000000 0.000000
#
# Coordination Sequence:
#
# PCOD9004294 Si02
#       8
#     2   2   2   2   2   2   2   2
#     4  10  21  39  59  95 126 161 217 261 316 381
#     4  12  21  40  67  92 129 167 215 264 320 382
#     4   9  17  36  61  86 119 162 209 257 307 372
#     4  10  21  40  65  93 122 170 219 260 313 386
#     4  10  23  39  60  95 128 163 217 263 320 379
#     4  10  21  37  65  94 122 166 216 260 312 385
#     4   9  18  36  59  86 122 161 205 258 313 368
#     4  12  24  40  63  93 135 169 207 273 327 374
#
# _framework density 24.267157000000001
#
# number of rings (size 3 to 8) (size 9 to 14) (size 15 to 20)
#    0.000    1.750    2.500    3.000    1.750    1.500 
#    4.500    4.375    0.000    0.000    0.000    0.000 
#    0.000    0.000    0.000    0.000    0.000    0.000 
#
# Total GULP energy -89470.551938 kJ/mol
# GULP energy per Si atom -5591.909496 kJ/mol
# Density = 2.421192 g / cm^3
# Si number density = 24.267157 Si / 1000 Ang^3
#
#
#
# Elastic Constant Matrix: (Units=GPa)
#
#
# Indices 1 2 3 4 5 6 
#
# 1 66.5256 23.0912 55.0501 13.1193 -2.0861 -21.1878
# 2 23.0912 71.0953 36.8684 3.5425 2.7787 -14.1822
# 3 55.0501 36.8684 197.0047 4.5574 -28.6573 -12.5973
# 4 13.1193 3.5425 4.5574 40.3132 -2.7249 -6.0596
# 5 -2.0861 2.7787 -28.6573 -2.7249 40.4198 1.1682
# 6 -21.1878 -14.1822 -12.5973 -6.0596 1.1682 33.8086
#
#
#
# Elastic Compliance Matrix: (Units=1/GPa)
#
#
# Indices 1 2 3 4 5 6 
#
# 1 0.026119 -0.002239 -0.006535 -0.006016 -0.003885 0.012051
# 2 -0.002239 0.017373 -0.002810 0.000033 -0.003443 0.004962
# 3 -0.006535 -0.002810 0.008091 0.001520 0.005758 -0.002186
# 4 -0.006016 0.000033 0.001520 0.026995 0.002539 0.001561
# 5 -0.003885 -0.003443 0.005758 0.002539 0.029096 -0.002284
# 6 0.012051 0.004962 -0.002186 0.001561 -0.002284 0.038756
#
#
# Mechanical properties :
#
#
# Convention : Reuss Voigt Hill
#
# Bulk Modulus (GPa) = 35.19278 62.73834 48.96556
# Shear Modulus (GPa) = 27.92216 37.54938 32.73577
#
# Velocity S-wave (km/s) = 3.39575 3.93788 3.67682
# Velocity P-wave (km/s) = 5.46887 6.82534 6.18441
#
# Compressibility (1/GPa) = 0.02841492
#
# Stress axis : x y z
#
# Youngs Moduli (GPa) = 38.28590 57.56122 123.60000
#
# Poissons Ratio (x) = 0.12887 0.80774
# Poissons Ratio (y) = 0.08572 0.34731
# Poissons Ratio (z) = 0.25020 0.16174
#
# Static dielectric constant tensor:
#      x y z
#    x 1.947100 0.048460 -0.060880 
#    y 0.048460 1.871830 0.115740 
#    z -0.060880 0.115740 1.801330 
# 
# From -- ./inp_files/273484.got.cif
#   From: 2010.05.17/outbox.cif.g08.bks.cpg/sg2_137_cif.got.tgz:273484.got - 2010.06.03 11:33:40.
