data_PCOD9004248
_publ_section_title
;
Structure prediction by ZEFSAII (Michael W. Deem and Ramdas Pophale) SiO2 
 PCOD9004248
Probable space group: P -1
;
_chemical_formula_sum "Si O2"
_cell_formula_units_Z 14
_cell_length_a 11.898671
_cell_length_b 24.729191
_cell_length_c 8.749457
_cell_angle_alpha 36.204260
_cell_angle_beta 125.550562
_cell_angle_gamma 149.684442
_cell_volume 708.004538
_symmetry_space_group_name_H-M "P -1"
_symmetry_group_IT_number 2
_symmetry_cell_setting 'triclinic'
loop_
_space_group_symop_operation_xyz
x,y,z
-x,-y,-z
loop_
_atom_site_type_symbol
_atom_site_label
_atom_site_fract_x
_atom_site_fract_y
_atom_site_fract_z
Si Si1 0.506348 0.413098 0.309471
Si Si2 0.967377 0.380822 0.680801
Si Si3 0.676374 0.568504 0.620585
Si Si4 0.842425 0.048506 0.297852
Si Si5 0.627420 0.746292 0.726106
Si Si6 0.608233 0.049295 0.306338
Si Si7 0.159697 0.789058 0.319503
O O1 0.341194 0.354654 0.453205
O O2 0.419791 0.285796 0.419338
O O3 0.777910 0.535660 0.295622
O O4 0.500000 0.500000 0.000000
O O5 0.884524 0.322236 0.572621
O O6 0.000000 0.500000 0.500000
O O7 0.765130 0.221869 0.986986
O O8 0.500000 0.500000 0.500000
O O9 0.933940 0.685600 0.486780
O O10 0.571297 0.422141 0.958824
O O11 0.787107 0.061410 0.390149
O O12 0.115349 0.161765 0.249127
O O13 0.661401 0.867614 0.532047
O O14 0.818823 0.115258 0.001199
O O15 0.500000 0.000000 0.500000
O O16 0.394115 0.914913 0.322976
#
# Coordination Sequence:
#
# PCOD9004248 Si02
#       7
#     2   2   2   2   2   2   2
#     4  10  21  37  65  88 123 161 206 255 307 364
#     4  11  24  42  65  93 125 164 212 253 310 373
#     4  11  19  39  61  92 117 155 205 253 306 359
#     4  10  21  43  59  88 123 165 202 247 313 363
#     4  10  22  36  66  89 121 157 207 257 297 368
#     4  11  26  42  61  88 127 166 202 252 311 375
#     4  11  23  41  66  84 128 167 199 253 314 369
#
# _framework density 19.773883000000001
#
# number of rings (size 3 to 8) (size 9 to 14) (size 15 to 20)
#    0.000    1.429    2.857    4.286   10.000    1.143 
#    0.000    2.143    0.000    0.000    0.000    0.000 
#    0.000    0.000    0.000    0.000    0.000    0.000 
#
# Total GULP energy -78174.656697 kJ/mol
# GULP energy per Si atom -5583.904050 kJ/mol
# Density = 1.972888 g / cm^3
# Si number density = 19.773883 Si / 1000 Ang^3
#
#
#
# Elastic Constant Matrix: (Units=GPa)
#
#
# Indices 1 2 3 4 5 6 
#
# 1 148.1999 28.2102 77.3205 -13.6826 -15.7331 -24.6408
# 2 28.2102 77.0103 22.6525 -7.4508 2.4842 -13.8052
# 3 77.3205 22.6525 84.3700 -23.8282 -13.5376 -16.5095
# 4 -13.6826 -7.4508 -23.8282 26.3929 -4.4411 -2.2316
# 5 -15.7331 2.4842 -13.5376 -4.4411 38.9039 -4.3034
# 6 -24.6408 -13.8052 -16.5095 -2.2316 -4.3034 42.7865
#
#
#
# Elastic Compliance Matrix: (Units=1/GPa)
#
#
# Indices 1 2 3 4 5 6 
#
# 1 0.013871 -0.001287 -0.013063 -0.004616 0.000883 0.002381
# 2 -0.001287 0.014824 -0.001907 0.001807 -0.001566 0.003243
# 3 -0.013063 -0.001907 0.035377 0.027185 0.011143 0.008051
# 4 -0.004616 0.001807 0.027185 0.064429 0.016317 0.013416
# 5 0.000883 -0.001566 0.011143 0.016317 0.032837 0.008457
# 6 0.002381 0.003243 0.008051 0.013416 0.008457 0.030446
#
#
# Mechanical properties :
#
#
# Convention : Reuss Voigt Hill
#
# Bulk Modulus (GPa) = 31.68697 62.88296 47.28497
# Shear Modulus (GPa) = 21.29298 33.70977 27.50138
#
# Velocity S-wave (km/s) = 3.28506 4.13336 3.73338
# Velocity P-wave (km/s) = 5.51799 7.39253 6.52295
#
# Compressibility (1/GPa) = 0.03155871
#
# Stress axis : x y z
#
# Youngs Moduli (GPa) = 72.09084 67.45657 28.26683
#
# Poissons Ratio (x) = 0.08683 0.36925
# Poissons Ratio (y) = 0.09279 0.05391
# Poissons Ratio (z) = 0.94172 0.12864
#
# Static dielectric constant tensor:
#      x y z
#    x 1.741520 -0.008660 0.010710 
#    y -0.008660 1.726490 -0.009490 
#    z 0.010710 -0.009490 1.676860 
# 
# From -- ./inp_files/224047.got.cif
#   From: 2010.05.17/outbox.cif.g08.bks.cpg/sg2_113_cif.got.tgz:224047.got - 2010.06.03 11:33:40.
