data_PCOD9004438
_publ_section_title
;
Structure prediction by ZEFSAII (Michael W. Deem and Ramdas Pophale) SiO2 
 PCOD9004438
Probable space group: P -1
;
_chemical_formula_sum "Si O2"
_cell_formula_units_Z 14
_cell_length_a 8.656784
_cell_length_b 19.702254
_cell_length_c 20.153366
_cell_angle_alpha 157.334441
_cell_angle_beta 141.247267
_cell_angle_gamma 28.835097
_cell_volume 631.273297
_symmetry_space_group_name_H-M "P -1"
_symmetry_group_IT_number 2
_symmetry_cell_setting 'triclinic'
loop_
_space_group_symop_operation_xyz
x,y,z
-x,-y,-z
loop_
_atom_site_type_symbol
_atom_site_label
_atom_site_fract_x
_atom_site_fract_y
_atom_site_fract_z
Si Si1 0.370533 0.126488 0.640804
Si Si2 0.517350 0.967286 0.054368
Si Si3 0.653475 0.693506 0.590616
Si Si4 0.542019 0.565854 0.893598
Si Si5 0.612344 0.536641 0.740125
Si Si6 0.260797 0.113750 0.735903
Si Si7 0.241833 0.713571 0.059558
O O1 0.326560 0.029911 0.605461
O O2 0.642158 0.140243 0.765720
O O3 0.004670 0.371097 0.728095
O O4 0.500000 0.000000 0.500000
O O5 0.888420 0.841647 0.083434
O O6 0.312104 0.200937 0.238093
O O7 0.462475 0.789924 0.894977
O O8 0.500000 0.000000 0.000000
O O9 0.483199 0.583715 0.446119
O O10 0.000000 0.500000 0.500000
O O11 0.430262 0.904430 0.654271
O O12 0.481587 0.555097 0.786846
O O13 0.876519 0.313468 0.797161
O O14 0.608619 0.746606 0.082591
O O15 0.283355 0.638619 0.928970
O O16 0.500000 0.500000 0.000000
#
# Coordination Sequence:
#
# PCOD9004438 Si02
#       7
#     2   2   2   2   2   2   2
#     4  10  21  37  67 107 138 174 226 303 353 409
#     4  12  28  48  71 103 146 188 236 296 358 424
#     4  12  28  45  70 100 141 195 240 285 348 436
#     4   9  19  38  74  99 129 178 230 291 349 413
#     4  11  24  45  71 101 138 183 240 290 351 427
#     4   9  19  40  65 101 136 174 235 287 343 416
#     4  11  21  39  71 101 134 179 229 285 355 416
#
# _framework density 22.177399999999999
#
# number of rings (size 3 to 8) (size 9 to 14) (size 15 to 20)
#    0.000    1.429    2.857    2.571    2.000    8.000 
#    0.000    0.000    0.000    0.000    0.000    0.000 
#    0.000    0.000    0.000    0.000    0.000    0.000 
#
# Total GULP energy -78263.300517 kJ/mol
# GULP energy per Si atom -5590.235751 kJ/mol
# Density = 2.212692 g / cm^3
# Si number density = 22.177400 Si / 1000 Ang^3
#
#
#
# Elastic Constant Matrix: (Units=GPa)
#
#
# Indices 1 2 3 4 5 6 
#
# 1 79.3409 16.4061 56.4394 6.7400 -25.3793 8.8498
# 2 16.4061 55.9865 38.1700 -0.9839 1.1944 4.4106
# 3 56.4394 38.1700 130.2986 -1.9870 -15.3737 13.7901
# 4 6.7400 -0.9839 -1.9870 17.5268 -0.9217 -8.6419
# 5 -25.3793 1.1944 -15.3737 -0.9217 45.9135 -9.0532
# 6 8.8498 4.4106 13.7901 -8.6419 -9.0532 39.2691
#
#
#
# Elastic Compliance Matrix: (Units=1/GPa)
#
#
# Indices 1 2 3 4 5 6 
#
# 1 0.022930 -0.001184 -0.008417 -0.010464 0.009233 -0.002253
# 2 -0.001184 0.022778 -0.006495 0.000450 -0.003557 -0.000732
# 3 -0.008417 -0.006495 0.013396 0.003743 -0.000178 -0.001295
# 4 -0.010464 0.000450 0.003743 0.069581 0.000073 0.016323
# 5 0.009233 -0.003557 -0.000178 0.000073 0.027869 0.004822
# 6 -0.002253 -0.000732 -0.001295 0.016323 0.004822 0.031214
#
#
# Mechanical properties :
#
#
# Convention : Reuss Voigt Hill
#
# Bulk Modulus (GPa) = 37.15868 54.18411 45.67140
# Shear Modulus (GPa) = 21.84062 30.84926 26.34494
#
# Velocity S-wave (km/s) = 3.14158 3.73369 3.45036
# Velocity P-wave (km/s) = 5.47275 6.56296 6.04249
#
# Compressibility (1/GPa) = 0.02691161
#
# Stress axis : x y z
#
# Youngs Moduli (GPa) = 43.61151 43.90178 74.64704
#
# Poissons Ratio (x) = 0.05199 0.62830
# Poissons Ratio (y) = 0.05164 0.48485
# Poissons Ratio (z) = 0.36708 0.28515
#
# Static dielectric constant tensor:
#      x y z
#    x 1.761250 0.038540 -0.081020 
#    y 0.038540 1.785920 0.009300 
#    z -0.081020 0.009300 1.770990 
# 
# From -- ./inp_files/591558.got.cif
#   From: 2010.05.17/outbox.cif.g08.bks.cpg/sg2_296_cif.got.tgz:591558.got - 2010.06.03 11:33:40.
