data_PCOD9004551
_publ_section_title
;
Structure prediction by ZEFSAII (Michael W. Deem and Ramdas Pophale) SiO2 
 PCOD9004551
Probable space group: P -1
;
_chemical_formula_sum "Si O2"
_cell_formula_units_Z 16
_cell_length_a 14.841719
_cell_length_b 14.996073
_cell_length_c 10.730597
_cell_angle_alpha 50.907724
_cell_angle_beta 34.157889
_cell_angle_gamma 35.182378
_cell_volume 764.869038
_symmetry_space_group_name_H-M "P -1"
_symmetry_group_IT_number 2
_symmetry_cell_setting 'triclinic'
loop_
_space_group_symop_operation_xyz
x,y,z
-x,-y,-z
loop_
_atom_site_type_symbol
_atom_site_label
_atom_site_fract_x
_atom_site_fract_y
_atom_site_fract_z
Si Si1 0.005402 0.093535 0.305320
Si Si2 0.259129 0.293596 0.206909
Si Si3 0.415816 0.463550 0.952383
Si Si4 0.390170 0.654089 0.608699
Si Si5 0.749385 0.632077 0.138239
Si Si6 0.066400 0.981702 0.797130
Si Si7 0.130573 0.683184 0.316420
Si Si8 0.591556 0.947462 0.080920
O O1 0.069160 0.012996 0.165935
O O2 0.000000 0.000000 0.500000
O O3 0.765029 0.259072 0.410084
O O4 0.173250 0.108121 0.138654
O O5 0.016447 0.357667 0.447652
O O6 0.427954 0.107547 0.203617
O O7 0.345078 0.364445 0.118805
O O8 0.274665 0.325540 0.016970
O O9 0.367613 0.547793 0.801963
O O10 0.668972 0.372786 0.774260
O O11 0.258780 0.598356 0.115820
O O12 0.628382 0.575686 0.366260
O O13 0.291864 0.803228 0.678528
O O14 0.631623 0.795741 0.199183
O O15 0.000000 0.500000 0.000000
O O16 0.039011 0.128716 0.666622
O O17 0.000000 0.000000 0.000000
O O18 0.500000 0.000000 0.000000
#
# Coordination Sequence:
#
# PCOD9004551 Si02
#       8
#     2   2   2   2   2   2   2   2
#     4  10  21  37  69  99 130 177 230 280 337 409
#     4  11  24  41  64  95 132 176 224 278 338 405
#     4  11  24  42  65  99 134 180 232 276 343 411
#     4  10  23  42  66  99 136 171 226 282 336 406
#     4  11  24  41  63  95 134 173 217 280 349 397
#     4  10  21  41  70  99 135 179 228 281 344 404
#     4  11  22  42  69  94 134 182 231 280 335 413
#     4  10  22  41  60  94 131 164 226 277 332 413
#
# _framework density 20.918613000000001
#
# number of rings (size 3 to 8) (size 9 to 14) (size 15 to 20)
#    0.750    0.750    1.250    4.125    5.250    0.500 
#    2.250    0.000    0.000    3.000    0.000    0.000 
#    0.000    0.000    0.000    0.000    0.000    0.000 
#
# Total GULP energy -89197.442789 kJ/mol
# GULP energy per Si atom -5574.840174 kJ/mol
# Density = 2.087100 g / cm^3
# Si number density = 20.918613 Si / 1000 Ang^3
#
#
#
# Elastic Constant Matrix: (Units=GPa)
#
#
# Indices 1 2 3 4 5 6 
#
# 1 88.8158 22.0302 32.7240 -6.7462 -10.9000 3.6577
# 2 22.0302 109.1848 23.7617 -6.6774 -6.1736 10.5015
# 3 32.7240 23.7617 119.5000 -8.2931 -22.7684 2.2733
# 4 -6.7462 -6.6774 -8.2931 34.0866 -1.1252 -3.2838
# 5 -10.9000 -6.1736 -22.7684 -1.1252 36.9941 -2.1120
# 6 3.6577 10.5015 2.2733 -3.2838 -2.1120 24.1153
#
#
#
# Elastic Compliance Matrix: (Units=1/GPa)
#
#
# Indices 1 2 3 4 5 6 
#
# 1 0.013090 -0.001785 -0.002751 0.001579 0.001882 -0.000569
# 2 -0.001785 0.010264 -0.001385 0.000947 0.000139 -0.003927
# 3 -0.002751 -0.001385 0.010585 0.002019 0.005579 0.000786
# 4 0.001579 0.000947 0.002019 0.030774 0.003008 0.003612
# 5 0.001882 0.000139 0.005579 0.003008 0.031264 0.002276
# 6 -0.000569 -0.003927 0.000786 0.003612 0.002276 0.043881
#
#
# Mechanical properties :
#
#
# Convention : Reuss Voigt Hill
#
# Bulk Modulus (GPa) = 45.25461 52.72582 48.99022
# Shear Modulus (GPa) = 31.43373 34.97152 33.20262
#
# Velocity S-wave (km/s) = 3.88063 4.09319 3.98833
# Velocity P-wave (km/s) = 6.46217 6.89919 6.68426
#
# Compressibility (1/GPa) = 0.02209719
#
# Stress axis : x y z
#
# Youngs Moduli (GPa) = 76.39565 97.42935 94.47212
#
# Poissons Ratio (x) = 0.17389 0.25987
# Poissons Ratio (y) = 0.13635 0.13087
# Poissons Ratio (z) = 0.21014 0.13497
#
# Static dielectric constant tensor:
#      x y z
#    x 1.775490 0.034000 0.026100 
#    y 0.034000 1.804610 -0.006050 
#    z 0.026100 -0.006050 1.806520 
# 
# From -- ./inp_files/203166.got.cif
#   From: 2010.05.17/outbox.cif.g08.bks.cpg/sg2_102_cif.got.tgz:203166.got - 2010.06.03 11:33:40.
