data_PCOD9004853
_publ_section_title
;
Structure prediction by ZEFSAII (Michael W. Deem and Ramdas Pophale) SiO2 
 PCOD9004853
Probable space group: P -1
;
_chemical_formula_sum "Si O2"
_cell_formula_units_Z 16
_cell_length_a 8.253913
_cell_length_b 16.571821
_cell_length_c 11.898788
_cell_angle_alpha 29.249606
_cell_angle_beta 72.551477
_cell_angle_gamma 89.146500
_cell_volume 643.667967
_symmetry_space_group_name_H-M "P -1"
_symmetry_group_IT_number 2
_symmetry_cell_setting 'triclinic'
loop_
_space_group_symop_operation_xyz
x,y,z
-x,-y,-z
loop_
_atom_site_type_symbol
_atom_site_label
_atom_site_fract_x
_atom_site_fract_y
_atom_site_fract_z
Si Si1 0.244779 0.339653 0.813108
Si Si2 0.016004 0.970883 0.199272
Si Si3 0.181827 0.418779 0.385620
Si Si4 0.000645 0.163625 0.377379
Si Si5 0.565886 0.457061 0.157332
Si Si6 0.827819 0.242739 0.127274
Si Si7 0.613764 0.975056 0.292112
Si Si8 0.395306 0.682099 0.215075
O O1 0.348770 0.563825 0.483857
O O2 0.400510 0.300354 0.890935
O O3 0.037950 0.282140 0.984209
O O4 0.191108 0.196143 0.890100
O O5 0.993178 0.805377 0.321165
O O6 0.024009 0.896380 0.414092
O O7 0.816915 0.977905 0.221684
O O8 0.389420 0.430659 0.306716
O O9 0.168038 0.558238 0.127355
O O10 0.209447 0.533526 0.355083
O O11 0.213814 0.364975 0.078486
O O12 0.000000 0.000000 0.500000
O O13 0.831558 0.183298 0.326322
O O14 0.548807 0.251864 0.404926
O O15 0.500000 0.500000 0.000000
O O16 0.658438 0.078359 0.280492
O O17 0.583223 0.111938 0.048165
#
# Coordination Sequence:
#
# PCOD9004853 Si02
#       8
#     2   2   2   2   2   2   2   2
#     4  10  21  41  63  85 119 159 198 256 291 354
#     4  10  21  38  59  86 125 154 199 244 295 353
#     4  10  22  38  58  94 119 156 202 240 294 362
#     4  12  20  37  62  87 120 164 193 242 303 347
#     4  11  20  39  61  85 127 155 190 247 291 348
#     4  10  21  38  60  87 123 161 201 237 298 357
#     4   9  19  38  58  87 117 155 197 239 291 355
#     4  10  22  40  64  89 113 158 206 244 305 344
#
# _framework density 24.857536
#
# number of rings (size 3 to 8) (size 9 to 14) (size 15 to 20)
#    0.000    1.750    5.000    0.750    0.000    6.500 
#    2.250    3.125    0.000    8.250    0.000    0.000 
#    0.000    0.000    0.000    0.000    0.000    0.000 
#
# Total GULP energy -89443.537503 kJ/mol
# GULP energy per Si atom -5590.221094 kJ/mol
# Density = 2.480096 g / cm^3
# Si number density = 24.857536 Si / 1000 Ang^3
#
#
#
# Elastic Constant Matrix: (Units=GPa)
#
#
# Indices 1 2 3 4 5 6 
#
# 1 84.2445 23.9496 50.6075 -13.2946 20.0174 1.4491
# 2 23.9496 46.8200 34.4974 -21.5594 -4.4417 5.7145
# 3 50.6075 34.4974 186.8653 -36.0013 22.5366 6.3983
# 4 -13.2946 -21.5594 -36.0013 43.1828 4.5399 -5.4589
# 5 20.0174 -4.4417 22.5366 4.5399 53.8888 -2.5846
# 6 1.4491 5.7145 6.3983 -5.4589 -2.5846 33.5622
#
#
#
# Elastic Compliance Matrix: (Units=1/GPa)
#
#
# Indices 1 2 3 4 5 6 
#
# 1 0.016848 -0.007338 -0.002506 0.000116 -0.005797 0.000572
# 2 -0.007338 0.032944 -0.002500 0.011209 0.005419 -0.002575
# 3 -0.002506 -0.002500 0.007769 0.004715 -0.002941 -0.000407
# 4 0.000116 0.011209 0.004715 0.033413 -0.003794 0.002330
# 5 -0.005797 0.005419 -0.002941 -0.003794 0.022755 0.001024
# 6 0.000572 -0.002575 -0.000407 0.002330 0.001024 0.030745
#
#
# Mechanical properties :
#
#
# Convention : Reuss Voigt Hill
#
# Bulk Modulus (GPa) = 30.42185 59.55987 44.99086
# Shear Modulus (GPa) = 27.75938 40.05180 33.90559
#
# Velocity S-wave (km/s) = 3.34539 4.01840 3.69724
# Velocity P-wave (km/s) = 5.21414 6.74852 6.03033
#
# Compressibility (1/GPa) = 0.03287111
#
# Stress axis : x y z
#
# Youngs Moduli (GPa) = 59.35520 30.35462 128.72186
#
# Poissons Ratio (x) = 0.22274 0.32261
# Poissons Ratio (y) = 0.43554 0.32187
# Poissons Ratio (z) = 0.14876 0.07590
#
# Static dielectric constant tensor:
#      x y z
#    x 1.942660 0.024240 -0.020400 
#    y 0.024240 2.078660 0.042990 
#    z -0.020400 0.042990 1.997350 
# 
# From -- ./inp_files/507825.got.cif
#   From: 2010.05.17/outbox.cif.g08.bks.cpg/sg2_254_cif.got.tgz:507825.got - 2010.06.03 11:33:40.
