data_PCOD9004426
_publ_section_title
;
Structure prediction by ZEFSAII (Michael W. Deem and Ramdas Pophale) SiO2 
 PCOD9004426
Probable space group: P -1
;
_chemical_formula_sum "Si O2"
_cell_formula_units_Z 16
_cell_length_a 11.731792
_cell_length_b 25.790914
_cell_length_c 9.075634
_cell_angle_alpha 150.376571
_cell_angle_beta 121.263957
_cell_angle_gamma 36.892059
_cell_volume 655.524042
_symmetry_space_group_name_H-M "P -1"
_symmetry_group_IT_number 2
_symmetry_cell_setting 'triclinic'
loop_
_space_group_symop_operation_xyz
x,y,z
-x,-y,-z
loop_
_atom_site_type_symbol
_atom_site_label
_atom_site_fract_x
_atom_site_fract_y
_atom_site_fract_z
Si Si1 0.124926 0.363176 0.951850
Si Si2 0.408938 0.995619 0.071910
Si Si3 0.580659 0.359403 0.509736
Si Si4 0.036917 0.818698 0.880153
Si Si5 0.279662 0.184087 0.904189
Si Si6 0.723159 0.561731 0.960550
Si Si7 0.078553 0.758113 0.089687
Si Si8 0.400677 0.691842 0.292155
O O1 0.257193 0.177763 0.512454
O O2 0.129766 0.349024 0.094773
O O3 0.874925 0.520762 0.089991
O O4 0.267195 0.370580 0.006587
O O5 0.222105 0.027356 0.982289
O O6 0.619450 0.828787 0.911597
O O7 0.500000 0.000000 0.000000
O O8 0.790076 0.217267 0.182538
O O9 0.323399 0.531418 0.687638
O O10 0.587931 0.280784 0.463371
O O11 0.594717 0.469437 0.859968
O O12 0.156391 0.625462 0.466384
O O13 0.028413 0.841292 0.104010
O O14 0.500000 0.000000 0.500000
O O15 0.127868 0.183293 0.852824
O O16 0.475995 0.703390 0.223730
O O17 0.150550 0.799943 0.358797
#
# Coordination Sequence:
#
# PCOD9004426 Si02
#       8
#     2   2   2   2   2   2   2   2
#     4   9  19  32  53  70 100 133 170 199 246 300
#     4  10  19  33  50  72  97 132 169 212 240 281
#     4   8  16  26  45  74  99 123 158 206 251 286
#     4  10  18  29  50  76 104 126 159 206 262 290
#     4  10  20  31  51  73  97 131 174 206 238 288
#     4   9  17  32  50  74 104 132 157 202 258 307
#     4  10  17  28  47  76 102 121 163 212 249 288
#     4   8  16  26  47  69 100 123 158 198 247 293
#
# _framework density 24.407951000000001
#
# number of rings (size 3 to 8) (size 9 to 14) (size 15 to 20)
#    0.750    2.000    1.250    1.125    5.250    0.000 
#    0.000    0.625    2.750    3.000    0.000    1.750 
#    0.000    0.000    0.000    0.000    0.000    0.000 
#
# Total GULP energy -89311.316389 kJ/mol
# GULP energy per Si atom -5581.957274 kJ/mol
# Density = 2.435240 g / cm^3
# Si number density = 24.407951 Si / 1000 Ang^3
#
#
#
# Elastic Constant Matrix: (Units=GPa)
#
#
# Indices 1 2 3 4 5 6 
#
# 1 64.0674 17.5557 15.8208 0.3118 -37.2772 0.0152
# 2 17.5557 140.0727 10.9239 -8.9109 -28.3115 12.8400
# 3 15.8208 10.9239 56.1313 -3.5230 -2.7329 0.1350
# 4 0.3118 -8.9109 -3.5230 18.7107 3.1404 -17.1822
# 5 -37.2772 -28.3115 -2.7329 3.1404 42.6664 2.5153
# 6 0.0152 12.8400 0.1350 -17.1822 2.5153 35.4142
#
#
#
# Elastic Compliance Matrix: (Units=1/GPa)
#
#
# Indices 1 2 3 4 5 6 
#
# 1 0.040527 0.003797 -0.011503 -0.020726 0.039555 -0.014215
# 2 0.003797 0.009143 -0.002532 -0.002689 0.009733 -0.005303
# 3 -0.011503 -0.002532 0.021708 0.011830 -0.011646 0.007407
# 4 -0.020726 -0.002689 0.011830 0.113264 -0.030895 0.058086
# 5 0.039555 0.009733 -0.011646 -0.030895 0.067355 -0.023275
# 6 -0.014215 -0.005303 0.007407 0.058086 -0.023275 0.059973
#
#
# Mechanical properties :
#
#
# Convention : Reuss Voigt Hill
#
# Bulk Modulus (GPa) = 19.64494 38.76358 29.20426
# Shear Modulus (GPa) = 14.30975 33.75633 24.03304
#
# Velocity S-wave (km/s) = 2.42394 3.72291 3.14130
# Velocity P-wave (km/s) = 3.98748 5.86482 5.01478
#
# Compressibility (1/GPa) = 0.05090370
#
# Stress axis : x y z
#
# Youngs Moduli (GPa) = 24.67462 109.37485 46.06659
#
# Poissons Ratio (x) = -0.41530 0.52988
# Poissons Ratio (y) = -0.09369 0.11662
# Poissons Ratio (z) = 0.28382 0.27690
#
# Static dielectric constant tensor:
#      x y z
#    x 2.343910 -0.210450 0.068560 
#    y -0.210450 2.086250 0.039230 
#    z 0.068560 0.039230 1.997170 
# 
# From -- ./inp_files/284938.got.cif
#   From: 2010.05.17/outbox.cif.g08.bks.cpg/sg2_143_cif.got.tgz:284938.got - 2010.06.03 11:33:40.
