data_PCOD9004209
_publ_section_title
;
Structure prediction by ZEFSAII (Michael W. Deem and Ramdas Pophale) SiO2 
 PCOD9004209
Probable space group: P -1
;
_chemical_formula_sum "Si O2"
_cell_formula_units_Z 13
_cell_length_a 22.859078
_cell_length_b 5.425752
_cell_length_c 18.951528
_cell_angle_alpha 98.385136
_cell_angle_beta 166.033571
_cell_angle_gamma 77.806044
_cell_volume 536.791388
_symmetry_space_group_name_H-M "P -1"
_symmetry_group_IT_number 2
_symmetry_cell_setting 'triclinic'
loop_
_space_group_symop_operation_xyz
x,y,z
-x,-y,-z
loop_
_atom_site_type_symbol
_atom_site_label
_atom_site_fract_x
_atom_site_fract_y
_atom_site_fract_z
Si Si1 0.500000 0.500000 0.500000
Si Si2 0.410506 0.902167 0.179361
Si Si3 0.064649 0.489642 0.492912
Si Si4 0.888490 0.267832 0.838000
Si Si5 0.269979 0.959344 0.178841
Si Si6 0.487200 0.663978 0.770760
Si Si7 0.169308 0.923294 0.546529
O O1 0.606719 0.380535 0.541243
O O2 0.251458 0.689662 0.177349
O O3 0.367009 0.932985 0.212850
O O4 0.557692 0.604418 0.319405
O O5 0.545406 0.104470 0.314158
O O6 0.126980 0.982147 0.818610
O O7 0.000000 0.500000 0.500000
O O8 0.194403 0.706332 0.627684
O O9 0.788101 0.570302 0.136165
O O10 0.217704 0.193662 0.638378
O O11 0.000000 0.500000 0.000000
O O12 0.000000 0.000000 0.000000
O O13 0.017540 0.185600 0.909085
O O14 0.500000 0.000000 0.500000
O O15 0.333766 0.785355 0.666412
#
# Coordination Sequence:
#
# PCOD9004209 Si02
#       7
#     1   2   2   2   2   2   2
#     4  10  22  40  58  82 118 144 192 254 318 374
#     4  10  24  40  59  87 118 161 209 250 304 371
#     4  10  21  37  64  98 128 157 203 251 289 353
#     4  10  21  38  57  80 112 144 180 245 309 368
#     4  11  23  40  62  87 120 153 208 268 322 369
#     4  10  22  42  62  87 125 166 201 244 300 368
#     4  10  21  41  61  88 129 165 203 242 301 363
#
# _framework density 24.217974999999999
#
# number of rings (size 3 to 8) (size 9 to 14) (size 15 to 20)
#    0.000    1.846    1.538    1.385    2.154    2.462 
#    5.538    0.000    0.000    0.000    0.000    0.000 
#    0.000    0.000    0.000    0.000    0.000    0.000 
#
# Total GULP energy -72375.871149 kJ/mol
# GULP energy per Si atom -5567.374704 kJ/mol
# Density = 2.416285 g / cm^3
# Si number density = 24.217975 Si / 1000 Ang^3
#
#
#
# Elastic Constant Matrix: (Units=GPa)
#
#
# Indices 1 2 3 4 5 6 
#
# 1 195.8565 96.4739 11.0491 -43.5877 22.2298 0.7722
# 2 96.4739 190.3113 53.0836 -47.4070 16.4795 7.6331
# 3 11.0491 53.0836 69.6632 -30.6134 24.2606 -6.2921
# 4 -43.5877 -47.4070 -30.6134 46.8153 -20.5516 13.0118
# 5 22.2298 16.4795 24.2606 -20.5516 47.8525 -18.0941
# 6 0.7722 7.6331 -6.2921 13.0118 -18.0941 49.8104
#
#
#
# Elastic Compliance Matrix: (Units=1/GPa)
#
#
# Indices 1 2 3 4 5 6 
#
# 1 0.008565 -0.003840 0.005499 0.006767 -0.003213 -0.001785
# 2 -0.003840 0.009815 -0.006115 0.004064 0.002330 -0.002432
# 3 0.005499 -0.006115 0.026978 0.013137 -0.009472 -0.002613
# 4 0.006767 0.004064 0.013137 0.044943 0.004650 -0.009119
# 5 -0.003213 0.002330 -0.009472 0.004650 0.031716 0.008802
# 6 -0.001785 -0.002432 -0.002613 -0.009119 0.008802 0.025726
#
#
# Mechanical properties :
#
#
# Convention : Reuss Voigt Hill
#
# Bulk Modulus (GPa) = 27.43785 86.33823 56.88804
# Shear Modulus (GPa) = 29.62019 48.57726 39.09873
#
# Velocity S-wave (km/s) = 3.50103 4.48351 4.02238
# Velocity P-wave (km/s) = 5.26280 7.90762 6.71668
#
# Compressibility (1/GPa) = 0.03644601
#
# Stress axis : x y z
#
# Youngs Moduli (GPa) = 116.75599 101.88473 37.06684
#
# Poissons Ratio (x) = 0.39125 -0.20384
# Poissons Ratio (y) = 0.44836 0.22668
# Poissons Ratio (z) = -0.64208 0.62306
#
# Static dielectric constant tensor:
#      x y z
#    x 1.662600 -0.645910 0.122060 
#    y -0.645910 0.784410 0.393780 
#    z 0.122060 0.393780 1.854260 
# 
# From -- ./inp_files/576638.got.cif
#   From: 2010.05.17/outbox.cif.g08.bks.cpg/sg2_289_cif.got.tgz:576638.got - 2010.06.03 11:33:40.
