data_PCOD9004569
_publ_section_title
;
Structure prediction by ZEFSAII (Michael W. Deem and Ramdas Pophale) SiO2 
 PCOD9004569
Probable space group: P -1
;
_chemical_formula_sum "Si O2"
_cell_formula_units_Z 14
_cell_length_a 15.335277
_cell_length_b 8.949225
_cell_length_c 5.385223
_cell_angle_alpha 97.686301
_cell_angle_beta 117.618292
_cell_angle_gamma 68.494449
_cell_volume 608.673017
_symmetry_space_group_name_H-M "P -1"
_symmetry_group_IT_number 2
_symmetry_cell_setting 'triclinic'
loop_
_space_group_symop_operation_xyz
x,y,z
-x,-y,-z
loop_
_atom_site_type_symbol
_atom_site_label
_atom_site_fract_x
_atom_site_fract_y
_atom_site_fract_z
Si Si1 0.791813 0.978077 0.382293
Si Si2 0.510944 0.803340 0.386052
Si Si3 0.727970 0.166214 0.844966
Si Si4 0.384379 0.173098 0.975246
Si Si5 0.693084 0.531249 0.760629
Si Si6 0.994329 0.318976 0.442970
Si Si7 0.087281 0.586343 0.145036
O O1 0.691704 0.920670 0.217734
O O2 0.893525 0.818994 0.451074
O O3 0.784723 0.061815 0.658539
O O4 0.783262 0.093979 0.161015
O O5 0.390896 0.833794 0.289612
O O6 0.536290 0.835725 0.144687
O O7 0.584975 0.615156 0.488353
O O8 0.561317 0.876043 0.693596
O O9 0.712284 0.350196 0.814251
O O10 0.316324 0.359304 0.983894
O O11 0.794167 0.535892 0.741325
O O12 0.000000 0.500000 0.500000
O O13 0.934234 0.309947 0.612712
O O14 0.933816 0.310941 0.110951
O O15 0.000000 0.500000 0.000000
#
# Coordination Sequence:
#
# PCOD9004569 Si02
#       7
#     2   2   2   2   2   2   2
#     4  12  26  44  68 103 139 173 223 283 344 392
#     4  10  24  41  71  97 136 181 236 262 324 400
#     4  12  27  44  66  98 149 179 211 279 346 395
#     4  10  23  40  71  92 135 173 243 262 319 386
#     4  10  26  43  71 100 135 181 232 266 329 409
#     4  10  22  40  67  93 126 165 219 275 331 390
#     4  10  21  37  70  96 121 160 224 284 320 370
#
# _framework density 23.000852999999999
#
# number of rings (size 3 to 8) (size 9 to 14) (size 15 to 20)
#    0.857    0.571    0.000    4.714    8.000    4.000 
#    0.000    4.286    0.000    0.000    0.000    0.000 
#    0.000    0.000    0.000    0.000    0.000    0.000 
#
# Total GULP energy -78257.719514 kJ/mol
# GULP energy per Si atom -5589.837108 kJ/mol
# Density = 2.294850 g / cm^3
# Si number density = 23.000853 Si / 1000 Ang^3
#
#
#
# Elastic Constant Matrix: (Units=GPa)
#
#
# Indices 1 2 3 4 5 6 
#
# 1 88.9447 42.4625 42.3898 13.1621 -17.9163 -35.7457
# 2 42.4625 116.3025 29.8538 1.5297 -18.2350 -20.0080
# 3 42.3898 29.8538 152.2224 -0.9548 -37.2649 -18.8274
# 4 13.1621 1.5297 -0.9548 30.7234 -16.8318 2.0891
# 5 -17.9163 -18.2350 -37.2649 -16.8318 40.5517 5.4228
# 6 -35.7457 -20.0080 -18.8274 2.0891 5.4228 48.5015
#
#
#
# Elastic Compliance Matrix: (Units=1/GPa)
#
#
# Indices 1 2 3 4 5 6 
#
# 1 0.022371 -0.005057 -0.004468 -0.012256 -0.003398 0.013575
# 2 -0.005057 0.011089 0.000521 0.004346 0.004994 0.000304
# 3 -0.004468 0.000521 0.010521 0.008610 0.011591 -0.000660
# 4 -0.012256 0.004346 0.008610 0.053857 0.028057 -0.009354
# 5 -0.003398 0.004994 0.011591 0.028057 0.048039 -0.002524
# 6 0.013575 0.000304 -0.000660 -0.009354 -0.002524 0.031177
#
#
# Mechanical properties :
#
#
# Convention : Reuss Voigt Hill
#
# Bulk Modulus (GPa) = 38.50083 65.20909 51.85496
# Shear Modulus (GPa) = 24.54349 40.13955 32.34152
#
# Velocity S-wave (km/s) = 3.27015 4.18201 3.75387
# Velocity P-wave (km/s) = 5.57079 7.19244 6.43292
#
# Compressibility (1/GPa) = 0.02597346
#
# Stress axis : x y z
#
# Youngs Moduli (GPa) = 44.70017 90.17856 95.04716
#
# Poissons Ratio (x) = 0.45606 0.42464
# Poissons Ratio (y) = 0.22606 -0.04951
# Poissons Ratio (z) = 0.19971 -0.04698
#
# Static dielectric constant tensor:
#      x y z
#    x 1.875750 -0.056090 -0.007030 
#    y -0.056090 1.929130 -0.041050 
#    z -0.007030 -0.041050 1.891220 
# 
# From -- ./inp_files/90135.got.cif
#   From: 2010.05.17/outbox.cif.g08.bks.cpg/sg2_46_cif.got.tgz:90135.got - 2010.06.03 11:33:40.
