data_PCOD9004992
_publ_section_title
;
Structure prediction by ZEFSAII (Michael W. Deem and Ramdas Pophale) SiO2 
 PCOD9004992
Probable space group: P -1
;
_chemical_formula_sum "Si O2"
_cell_formula_units_Z 16
_cell_length_a 17.294526
_cell_length_b 7.340425
_cell_length_c 6.427347
_cell_angle_alpha 59.744917
_cell_angle_beta 59.978585
_cell_angle_gamma 62.979367
_cell_volume 587.518350
_symmetry_space_group_name_H-M "P -1"
_symmetry_group_IT_number 2
_symmetry_cell_setting 'triclinic'
loop_
_space_group_symop_operation_xyz
x,y,z
-x,-y,-z
loop_
_atom_site_type_symbol
_atom_site_label
_atom_site_fract_x
_atom_site_fract_y
_atom_site_fract_z
Si Si1 0.634598 0.855016 0.837403
Si Si2 0.112633 0.996473 0.176284
Si Si3 0.374542 0.536711 0.190017
Si Si4 0.045792 0.651064 0.992890
Si Si5 0.850382 0.692401 0.676325
Si Si6 0.574738 0.808792 0.389628
Si Si7 0.165233 0.552749 0.540372
Si Si8 0.688803 0.068194 0.252167
O O1 0.596128 0.683631 0.857095
O O2 0.740079 0.728139 0.835217
O O3 0.653620 0.049704 0.550005
O O4 0.573270 0.880355 0.111912
O O5 0.205198 0.937313 0.938718
O O6 0.128802 0.132317 0.285333
O O7 0.024039 0.116423 0.088322
O O8 0.097486 0.774391 0.412718
O O9 0.423784 0.438308 0.399501
O O10 0.266010 0.579973 0.350067
O O11 0.374419 0.738783 0.921034
O O12 0.146799 0.591592 0.785088
O O13 0.074793 0.533264 0.235929
O O14 0.000000 0.500000 0.000000
O O15 0.851343 0.656094 0.441170
O O16 0.500000 0.000000 0.500000
O O17 0.673282 0.843964 0.311662
#
# Coordination Sequence:
#
# PCOD9004992 Si02
#       8
#     2   2   2   2   2   2   2   2
#     4  10  21  40  65  88 124 165 210 251 322 378
#     4  10  21  40  58  88 124 165 213 266 312 373
#     4   9  22  40  64  90 127 163 209 262 305 378
#     4  10  22  35  58  87 125 165 213 267 313 365
#     4  10  21  38  60  86 116 170 205 258 318 364
#     4  11  23  41  67  94 125 163 201 254 323 388
#     4  10  21  40  58  86 125 163 216 262 309 372
#     4  10  22  42  62  91 127 162 210 265 308 379
#
# _framework density 27.233193
#
# number of rings (size 3 to 8) (size 9 to 14) (size 15 to 20)
#    0.000    2.000    1.250    1.125    8.750    6.000 
#    6.750    1.250    0.000    0.000    0.000    0.000 
#    0.000    0.000    0.000    0.000    0.000    0.000 
#
# Total GULP energy -89076.573378 kJ/mol
# GULP energy per Si atom -5567.285836 kJ/mol
# Density = 2.717121 g / cm^3
# Si number density = 27.233193 Si / 1000 Ang^3
#
#
#
# Elastic Constant Matrix: (Units=GPa)
#
#
# Indices 1 2 3 4 5 6 
#
# 1 54.4595 11.8677 29.9270 1.2793 12.6157 -11.1223
# 2 11.8677 92.1078 62.4699 -13.6828 0.5493 -13.8966
# 3 29.9270 62.4699 213.5529 -15.7143 -6.3148 -27.7100
# 4 1.2793 -13.6828 -15.7143 62.3820 -16.9279 8.3151
# 5 12.6157 0.5493 -6.3148 -16.9279 38.5682 -1.3607
# 6 -11.1223 -13.8966 -27.7100 8.3151 -1.3607 39.9182
#
#
#
# Elastic Compliance Matrix: (Units=1/GPa)
#
#
# Indices 1 2 3 4 5 6 
#
# 1 0.023729 -0.000891 -0.003101 -0.004881 -0.010229 0.004816
# 2 -0.000891 0.013957 -0.003567 0.002083 0.000484 0.001716
# 3 -0.003101 -0.003567 0.006650 0.001425 0.002861 0.002311
# 4 -0.004881 0.002083 0.001425 0.020285 0.010580 -0.003511
# 5 -0.010229 0.000484 0.002861 0.010580 0.034318 -0.001730
# 6 0.004816 0.001716 0.002311 -0.003511 -0.001730 0.029267
#
#
# Mechanical properties :
#
#
# Convention : Reuss Voigt Hill
#
# Bulk Modulus (GPa) = 34.22855 63.18327 48.70591
# Shear Modulus (GPa) = 32.66588 45.23071 38.94830
#
# Velocity S-wave (km/s) = 3.46712 4.07979 3.78587
# Velocity P-wave (km/s) = 5.35013 6.74123 6.08556
#
# Compressibility (1/GPa) = 0.02921538
#
# Stress axis : x y z
#
# Youngs Moduli (GPa) = 42.14305 71.64948 150.37200
#
# Poissons Ratio (x) = 0.06387 0.46634
# Poissons Ratio (y) = 0.03757 0.53645
# Poissons Ratio (z) = 0.13070 0.25561
#
# Static dielectric constant tensor:
#      x y z
#    x 2.297640 -0.183460 -0.426410 
#    y -0.183460 2.295520 0.492050 
#    z -0.426410 0.492050 4.126090 
# 
# From -- ./inp_files/116638.got.cif
#   From: 2010.05.17/outbox.cif.g08.bks.cpg/sg2_59_cif.got.tgz:116638.got - 2010.06.03 11:33:40.
