data_PCOD9004093
_publ_section_title
;
Structure prediction by ZEFSAII (Michael W. Deem and Ramdas Pophale) SiO2 
 PCOD9004093
Probable space group: P -1
;
_chemical_formula_sum "Si O2"
_cell_formula_units_Z 16
_cell_length_a 11.220068
_cell_length_b 9.585640
_cell_length_c 16.687187
_cell_angle_alpha 151.499851
_cell_angle_beta 111.457565
_cell_angle_gamma 58.021351
_cell_volume 704.074845
_symmetry_space_group_name_H-M "P -1"
_symmetry_group_IT_number 2
_symmetry_cell_setting 'triclinic'
loop_
_space_group_symop_operation_xyz
x,y,z
-x,-y,-z
loop_
_atom_site_type_symbol
_atom_site_label
_atom_site_fract_x
_atom_site_fract_y
_atom_site_fract_z
Si Si1 0.636091 0.637621 0.842307
Si Si2 0.047797 0.582626 0.138414
Si Si3 0.449014 0.543471 0.865001
Si Si4 0.791570 0.448394 0.301515
Si Si5 0.954696 0.883183 0.694466
Si Si6 0.696285 0.733172 0.740687
Si Si7 0.991244 0.366874 0.180775
Si Si8 0.337098 0.091123 0.346623
O O1 0.781448 0.629525 0.907422
O O2 0.587072 0.432637 0.784200
O O3 0.658104 0.549750 0.709653
O O4 0.500000 0.000000 0.000000
O O5 0.968357 0.533714 0.171722
O O6 0.031014 0.945075 0.296011
O O7 0.000000 0.500000 0.000000
O O8 0.314040 0.631471 0.818411
O O9 0.503379 0.218492 0.767835
O O10 0.408385 0.874157 0.071530
O O11 0.867195 0.578413 0.320963
O O12 0.925794 0.141652 0.223882
O O13 0.701069 0.700584 0.476018
O O14 0.000000 0.500000 0.500000
O O15 0.788402 0.027104 0.755526
O O16 0.858260 0.668946 0.766731
O O17 0.680517 0.674226 0.614676
O O18 0.000000 0.000000 0.000000
#
# Coordination Sequence:
#
# PCOD9004093 Si02
#       8
#     2   2   2   2   2   2   2   2
#     4   9  21  39  58  91 129 167 206 269 335 378
#     4  11  23  38  67  99 127 168 223 277 320 388
#     4  11  21  39  64  87 127 166 217 262 327 388
#     4  11  23  40  64  90 128 173 209 268 328 385
#     4  10  22  41  62  89 130 174 215 261 324 390
#     4  10  21  37  64  89 122 170 206 269 325 383
#     4  11  21  39  64  97 129 162 216 274 329 382
#     4  11  22  40  61  91 125 167 220 257 324 397
#
# _framework density 22.724857
#
# number of rings (size 3 to 8) (size 9 to 14) (size 15 to 20)
#    0.000    1.500    3.750    1.500    3.500    0.000 
#    4.500    5.625    0.000    0.000    0.000    0.000 
#    0.000    0.000    0.000    0.000    0.000    0.000 
#
# Total GULP energy -89280.676646 kJ/mol
# GULP energy per Si atom -5580.042290 kJ/mol
# Density = 2.267313 g / cm^3
# Si number density = 22.724857 Si / 1000 Ang^3
#
#
#
# Elastic Constant Matrix: (Units=GPa)
#
#
# Indices 1 2 3 4 5 6 
#
# 1 69.2408 34.1265 6.1222 -12.8952 -16.1284 11.8784
# 2 34.1265 153.5824 28.9906 -17.9594 -7.1718 11.2530
# 3 6.1222 28.9906 60.5233 -14.5906 -12.3024 10.7932
# 4 -12.8952 -17.9594 -14.5906 35.0971 8.2202 -11.0052
# 5 -16.1284 -7.1718 -12.3024 8.2202 24.6010 -4.8137
# 6 11.8784 11.2530 10.7932 -11.0052 -4.8137 48.1776
#
#
#
# Elastic Compliance Matrix: (Units=1/GPa)
#
#
# Indices 1 2 3 4 5 6 
#
# 1 0.019984 -0.003986 0.003610 0.003048 0.012160 -0.002894
# 2 -0.003986 0.008167 -0.003609 0.001847 -0.002646 0.000041
# 3 0.003610 -0.003609 0.021651 0.005332 0.009833 -0.002697
# 4 0.003048 0.001847 0.005332 0.035750 -0.005721 0.005217
# 5 0.012160 -0.002646 0.009833 -0.005721 0.054593 -0.000435
# 6 -0.002894 0.000041 -0.002697 0.005217 -0.000435 0.023213
#
#
# Mechanical properties :
#
#
# Convention : Reuss Voigt Hill
#
# Bulk Modulus (GPa) = 23.90375 46.86943 35.38659
# Shear Modulus (GPa) = 26.98728 35.84897 31.41812
#
# Velocity S-wave (km/s) = 3.44985 3.97611 3.72229
# Velocity P-wave (km/s) = 5.13909 6.46133 5.83777
#
# Compressibility (1/GPa) = 0.04183444
#
# Stress axis : x y z
#
# Youngs Moduli (GPa) = 50.03942 122.43701 46.18708
#
# Poissons Ratio (x) = 0.48800 -0.16675
# Poissons Ratio (y) = 0.19944 0.16668
# Poissons Ratio (z) = -0.18066 0.44186
#
# Static dielectric constant tensor:
#      x y z
#    x 1.919240 0.042120 0.028270 
#    y 0.042120 1.913000 0.001010 
#    z 0.028270 0.001010 1.893630 
# 
# From -- ./inp_files/516405.got.cif
#   From: 2010.05.17/outbox.cif.g08.bks.cpg/sg2_259_cif.got.tgz:516405.got - 2010.06.03 11:33:40.
