data_PCOD9004522
_publ_section_title
;
Structure prediction by ZEFSAII (Michael W. Deem and Ramdas Pophale) SiO2 
 PCOD9004522
Probable space group: P -1
;
_chemical_formula_sum "Si O2"
_cell_formula_units_Z 14
_cell_length_a 14.925092
_cell_length_b 9.922037
_cell_length_c 8.275946
_cell_angle_alpha 101.416886
_cell_angle_beta 128.571947
_cell_angle_gamma 113.926762
_cell_volume 679.578002
_symmetry_space_group_name_H-M "P -1"
_symmetry_group_IT_number 2
_symmetry_cell_setting 'triclinic'
loop_
_space_group_symop_operation_xyz
x,y,z
-x,-y,-z
loop_
_atom_site_type_symbol
_atom_site_label
_atom_site_fract_x
_atom_site_fract_y
_atom_site_fract_z
Si Si1 0.843280 0.277481 0.298466
Si Si2 0.090288 0.964835 0.702669
Si Si3 0.417294 0.340539 0.506464
Si Si4 0.432015 0.052615 0.311496
Si Si5 0.622260 0.686901 0.045540
Si Si6 0.370704 0.702000 0.724498
Si Si7 0.823422 0.730183 0.580577
O O1 0.906417 0.182855 0.410822
O O2 0.715954 0.251309 0.260711
O O3 0.000000 0.500000 0.500000
O O4 0.736569 0.141970 0.992687
O O5 0.001833 0.878980 0.753106
O O6 0.268306 0.166548 0.942638
O O7 0.000000 0.000000 0.500000
O O8 0.500000 0.500000 0.500000
O O9 0.423189 0.188070 0.430163
O O10 0.239409 0.237094 0.330008
O O11 0.520875 0.477496 0.809896
O O12 0.550633 0.175617 0.321723
O O13 0.500000 0.000000 0.500000
O O14 0.730404 0.718078 0.317610
O O15 0.511499 0.727006 0.970441
O O16 0.236821 0.473633 0.498906
#
# Coordination Sequence:
#
# PCOD9004522 Si02
#       7
#     2   2   2   2   2   2   2
#     4  12  25  45  71  96 138 176 225 277 333 404
#     4  10  21  39  64 102 128 163 224 277 331 385
#     4  11  20  40  62  90 134 168 219 273 323 394
#     4  12  28  41  65 104 137 177 223 276 341 388
#     4  10  21  38  69  98 128 170 235 270 325 399
#     4  11  21  42  67  94 131 180 228 272 325 401
#     4  10  21  37  69 100 127 176 226 274 332 394
#
# _framework density 20.601020999999999
#
# number of rings (size 3 to 8) (size 9 to 14) (size 15 to 20)
#    0.000    1.143    5.714    2.143    4.000    1.143 
#    0.000    5.000    0.000    0.000    0.000    0.000 
#    0.000    0.000    0.000    0.000    0.000    0.000 
#
# Total GULP energy -78042.016137 kJ/mol
# GULP energy per Si atom -5574.429724 kJ/mol
# Density = 2.055413 g / cm^3
# Si number density = 20.601021 Si / 1000 Ang^3
#
#
#
# Elastic Constant Matrix: (Units=GPa)
#
#
# Indices 1 2 3 4 5 6 
#
# 1 186.8168 71.2649 38.4959 19.2733 15.2557 -13.7278
# 2 71.2649 154.5613 49.9911 12.5578 5.0298 -9.0612
# 3 38.4959 49.9911 58.4753 14.5299 11.3518 -9.7008
# 4 19.2733 12.5578 14.5299 44.1372 4.1718 8.4289
# 5 15.2557 5.0298 11.3518 4.1718 22.3759 11.6093
# 6 -13.7278 -9.0612 -9.7008 8.4289 11.6093 61.1324
#
#
#
# Elastic Compliance Matrix: (Units=1/GPa)
#
#
# Indices 1 2 3 4 5 6 
#
# 1 0.007309 -0.002692 -0.000617 -0.002215 -0.004886 0.002378
# 2 -0.002692 0.010031 -0.008033 0.000819 0.004177 -0.001299
# 3 -0.000617 -0.008033 0.030543 -0.007448 -0.015794 0.007544
# 4 -0.002215 0.000819 -0.007448 0.026658 0.003161 -0.005834
# 5 -0.004886 0.004177 -0.015794 0.003161 0.062432 -0.015276
# 6 0.002378 -0.001299 0.007544 -0.005834 -0.015276 0.021602
#
#
# Mechanical properties :
#
#
# Convention : Reuss Voigt Hill
#
# Bulk Modulus (GPa) = 39.68463 79.92860 59.80662
# Shear Modulus (GPa) = 26.36314 41.53587 33.94951
#
# Velocity S-wave (km/s) = 3.58117 4.49509 4.06390
# Velocity P-wave (km/s) = 6.03365 8.11318 7.14943
#
# Compressibility (1/GPa) = 0.02519867
#
# Stress axis : x y z
#
# Youngs Moduli (GPa) = 136.81461 99.69304 32.74062
#
# Poissons Ratio (x) = 0.26839 0.02020
# Poissons Ratio (y) = 0.36833 0.26301
# Poissons Ratio (z) = 0.08441 0.80084
#
# Static dielectric constant tensor:
#      x y z
#    x 1.799560 0.022340 0.026650 
#    y 0.022340 1.746610 0.013990 
#    z 0.026650 0.013990 1.784910 
# 
# From -- ./inp_files/295879.got.cif
#   From: 2010.05.17/outbox.cif.g08.bks.cpg/sg2_148_cif.got.tgz:295879.got - 2010.06.03 11:33:40.
