data_PCOD9004991
_publ_section_title
;
Structure prediction by ZEFSAII (Michael W. Deem and Ramdas Pophale) SiO2 
 PCOD9004991
Probable space group: P -1
;
_chemical_formula_sum "Si O2"
_cell_formula_units_Z 14
_cell_length_a 8.703312
_cell_length_b 10.282805
_cell_length_c 7.347699
_cell_angle_alpha 102.417903
_cell_angle_beta 73.252798
_cell_angle_gamma 115.960756
_cell_volume 563.121948
_symmetry_space_group_name_H-M "P -1"
_symmetry_group_IT_number 2
_symmetry_cell_setting 'triclinic'
loop_
_space_group_symop_operation_xyz
x,y,z
-x,-y,-z
loop_
_atom_site_type_symbol
_atom_site_label
_atom_site_fract_x
_atom_site_fract_y
_atom_site_fract_z
Si Si1 0.316899 0.855269 0.795541
Si Si2 0.944577 0.623273 0.970436
Si Si3 0.317045 0.310262 0.649050
Si Si4 0.823737 0.855423 0.697497
Si Si5 0.230630 0.985631 0.553926
Si Si6 0.374189 0.544204 0.190045
Si Si7 0.532218 0.819298 0.007700
O O1 0.314828 0.884672 0.588974
O O2 0.437636 0.785897 0.830306
O O3 0.120835 0.762058 0.903497
O O4 0.403814 0.017472 0.895348
O O5 0.819626 0.655596 0.168646
O O6 0.825584 0.559558 0.811540
O O7 0.000000 0.500000 0.000000
O O8 0.241205 0.276971 0.462118
O O9 0.516140 0.421379 0.650382
O O10 0.310444 0.149908 0.651938
O O11 0.715077 0.806817 0.902157
O O12 0.029423 0.918243 0.665285
O O13 0.780046 0.983952 0.648978
O O14 0.500000 0.500000 0.000000
O O15 0.399345 0.701264 0.148507
#
# Coordination Sequence:
#
# PCOD9004991 Si02
#       7
#     2   2   2   2   2   2   2
#     4  11  23  35  62  88 118 150 193 243 282 340
#     4  11  22  38  59  85 121 150 190 241 288 340
#     4   9  19  39  59  84 111 152 190 236 284 337
#     4   9  20  36  60  88 117 143 194 245 283 340
#     4   9  19  37  58  94 110 148 195 239 292 328
#     4  10  21  38  60  86 116 153 195 233 284 344
#     4  11  21  38  60  93 112 151 195 237 290 336
#
# _framework density 24.861402999999999
#
# number of rings (size 3 to 8) (size 9 to 14) (size 15 to 20)
#    0.857    1.143    2.857    0.857    4.000    1.714 
#    0.000    4.286    0.000    1.714    0.000    0.000 
#    0.000    0.000    0.000    0.000    0.000    0.000 
#
# Total GULP energy -78118.547852 kJ/mol
# GULP energy per Si atom -5579.896275 kJ/mol
# Density = 2.480482 g / cm^3
# Si number density = 24.861403 Si / 1000 Ang^3
#
#
#
# Elastic Constant Matrix: (Units=GPa)
#
#
# Indices 1 2 3 4 5 6 
#
# 1 84.9297 29.2276 8.0299 -3.8429 13.9776 15.2956
# 2 29.2276 95.4949 -1.6913 -5.5548 9.9732 14.3149
# 3 8.0299 -1.6913 36.6881 -2.1385 10.6814 -12.2379
# 4 -3.8429 -5.5548 -2.1385 35.3129 1.5566 10.3779
# 5 13.9776 9.9732 10.6814 1.5566 40.1106 -6.5248
# 6 15.2956 14.3149 -12.2379 10.3779 -6.5248 46.4550
#
#
#
# Elastic Compliance Matrix: (Units=1/GPa)
#
#
# Indices 1 2 3 4 5 6 
#
# 1 0.015311 -0.003125 -0.004137 0.003038 -0.004632 -0.006497
# 2 -0.003125 0.012465 0.001103 0.002873 -0.002999 -0.003585
# 3 -0.004137 0.001103 0.032956 -0.000653 -0.006121 0.008990
# 4 0.003038 0.002873 -0.000653 0.032157 -0.004452 -0.009867
# 5 -0.004632 -0.002999 -0.006121 -0.004452 0.030079 0.006056
# 6 -0.006497 -0.003585 0.008990 -0.009867 0.006056 0.030193
#
#
# Mechanical properties :
#
#
# Convention : Reuss Voigt Hill
#
# Bulk Modulus (GPa) = 20.65460 32.02724 26.34092
# Shear Modulus (GPa) = 27.53055 36.47878 32.00467
#
# Velocity S-wave (km/s) = 3.33131 3.83467 3.59182
# Velocity P-wave (km/s) = 4.80862 5.70233 5.27444
#
# Compressibility (1/GPa) = 0.04841536
#
# Stress axis : x y z
#
# Youngs Moduli (GPa) = 65.31315 80.22180 30.34358
#
# Poissons Ratio (x) = 0.25070 0.12553
# Poissons Ratio (y) = 0.20411 -0.03348
# Poissons Ratio (z) = 0.27019 -0.08852
#
# Static dielectric constant tensor:
#      x y z
#    x 2.006490 -0.104000 0.114550 
#    y -0.104000 2.031570 -0.053300 
#    z 0.114550 -0.053300 2.033510 
# 
# From -- ./inp_files/179109.got.cif
#   From: 2010.05.17/outbox.cif.g08.bks.cpg/sg2_90_cif.got.tgz:179109.got - 2010.06.03 11:33:40.
