data_PCOD9004269
_publ_section_title
;
Structure prediction by ZEFSAII (Michael W. Deem and Ramdas Pophale) SiO2 
 PCOD9004269
Probable space group: P -1
;
_chemical_formula_sum "Si O2"
_cell_formula_units_Z 14
_cell_length_a 8.671187
_cell_length_b 19.044603
_cell_length_c 9.494388
_cell_angle_alpha 46.007702
_cell_angle_beta 123.332854
_cell_angle_gamma 146.998808
_cell_volume 612.188420
_symmetry_space_group_name_H-M "P -1"
_symmetry_group_IT_number 2
_symmetry_cell_setting 'triclinic'
loop_
_space_group_symop_operation_xyz
x,y,z
-x,-y,-z
loop_
_atom_site_type_symbol
_atom_site_label
_atom_site_fract_x
_atom_site_fract_y
_atom_site_fract_z
Si Si1 0.203973 0.637700 0.299613
Si Si2 0.504854 0.283952 0.948393
Si Si3 0.347854 0.837384 0.610220
Si Si4 0.691701 0.539849 0.164163
Si Si5 0.517675 0.908933 0.289987
Si Si6 0.947346 0.140337 0.973923
Si Si7 0.678678 0.567924 0.640101
O O1 0.410816 0.683952 0.217907
O O2 0.381174 0.779977 0.290088
O O3 0.000000 0.500000 0.500000
O O4 0.941850 0.579563 0.163130
O O5 0.647240 0.442708 0.852205
O O6 0.166093 0.159355 0.976805
O O7 0.607119 0.229237 0.159002
O O8 0.485604 0.859274 0.500726
O O9 0.012157 0.720383 0.578290
O O10 0.500000 0.000000 0.500000
O O11 0.469905 0.417377 0.344411
O O12 0.870711 0.691479 0.129836
O O13 0.500000 0.500000 0.000000
O O14 0.327770 0.932152 0.148981
O O15 0.828822 0.053351 0.183940
O O16 0.500000 0.500000 0.500000
#
# Coordination Sequence:
#
# PCOD9004269 Si02
#       7
#     2   2   2   2   2   2   2
#     4  11  23  41  67 100 126 174 228 283 331 406
#     4  11  24  44  70 103 139 176 236 286 347 409
#     4  12  27  42  69 108 145 180 225 294 353 403
#     4  10  21  37  65  91 125 167 222 272 334 394
#     4  10  23  44  67  90 144 176 229 274 345 411
#     4   9  22  43  69  94 129 188 224 278 337 412
#     4  11  23  47  70  95 133 186 233 278 341 417
#
# _framework density 22.868776
#
# number of rings (size 3 to 8) (size 9 to 14) (size 15 to 20)
#    0.000    1.429    0.000    5.571    8.000    4.571 
#    5.143    0.000    0.000    0.000    0.000    0.000 
#    0.000    0.000    0.000    0.000    0.000    0.000 
#
# Total GULP energy -78109.361772 kJ/mol
# GULP energy per Si atom -5579.240127 kJ/mol
# Density = 2.281673 g / cm^3
# Si number density = 22.868776 Si / 1000 Ang^3
#
#
#
# Elastic Constant Matrix: (Units=GPa)
#
#
# Indices 1 2 3 4 5 6 
#
# 1 112.8347 35.6200 40.3561 -7.0467 -38.9472 32.4994
# 2 35.6200 69.0973 26.2061 -9.9242 -1.4046 22.5945
# 3 40.3561 26.2061 119.3001 -5.9247 -23.9100 12.5681
# 4 -7.0467 -9.9242 -5.9247 38.4433 1.4153 -11.2215
# 5 -38.9472 -1.4046 -23.9100 1.4153 47.5942 -13.2852
# 6 32.4994 22.5945 12.5681 -11.2215 -13.2852 29.8723
#
#
#
# Elastic Compliance Matrix: (Units=1/GPa)
#
#
# Indices 1 2 3 4 5 6 
#
# 1 0.017652 -0.004982 -0.001736 -0.001837 0.010484 -0.010732
# 2 -0.004982 0.023029 -0.003690 0.000620 -0.009271 -0.014335
# 3 -0.001736 -0.003690 0.010437 0.000935 0.004412 0.002602
# 4 -0.001837 0.000620 0.000935 0.029735 0.001753 0.013086
# 5 0.010484 -0.009271 0.004412 0.001753 0.034161 0.009601
# 6 -0.010732 -0.014335 0.002602 0.013086 0.009601 0.064086
#
#
# Mechanical properties :
#
#
# Convention : Reuss Voigt Hill
#
# Bulk Modulus (GPa) = 33.00391 56.17739 44.59065
# Shear Modulus (GPa) = 23.80773 36.45197 30.12985
#
# Velocity S-wave (km/s) = 3.23004 3.99678 3.63369
# Velocity P-wave (km/s) = 5.32674 6.77624 6.09473
#
# Compressibility (1/GPa) = 0.03029944
#
# Stress axis : x y z
#
# Youngs Moduli (GPa) = 56.65210 43.42440 95.81611
#
# Poissons Ratio (x) = 0.21636 0.16633
# Poissons Ratio (y) = 0.28226 0.35359
# Poissons Ratio (z) = 0.09834 0.16025
#
# Static dielectric constant tensor:
#      x y z
#    x 2.068450 0.111730 0.052720 
#    y 0.111730 1.877890 -0.082530 
#    z 0.052720 -0.082530 2.002070 
# 
# From -- ./inp_files/207627.got.cif
#   From: 2010.05.17/outbox.cif.g08.bks.cpg/sg2_104_cif.got.tgz:207627.got - 2010.06.03 11:33:40.
