data_PCOD9004866
_publ_section_title
;
Structure prediction by ZEFSAII (Michael W. Deem and Ramdas Pophale) SiO2 
 PCOD9004866
Probable space group: P -1
;
_chemical_formula_sum "Si O2"
_cell_formula_units_Z 16
_cell_length_a 8.903814
_cell_length_b 24.878987
_cell_length_c 21.271506
_cell_angle_alpha 20.911706
_cell_angle_beta 147.192050
_cell_angle_gamma 135.940492
_cell_volume 855.682656
_symmetry_space_group_name_H-M "P -1"
_symmetry_group_IT_number 2
_symmetry_cell_setting 'triclinic'
loop_
_space_group_symop_operation_xyz
x,y,z
-x,-y,-z
loop_
_atom_site_type_symbol
_atom_site_label
_atom_site_fract_x
_atom_site_fract_y
_atom_site_fract_z
Si Si1 0.694595 0.146170 0.736886
Si Si2 0.337136 0.236891 0.139729
Si Si3 0.677383 0.373382 0.013075
Si Si4 0.799523 0.535151 0.580812
Si Si5 0.675115 0.858376 0.263845
Si Si6 0.638542 0.736288 0.632939
Si Si7 0.849085 0.463849 0.425326
Si Si8 0.302949 0.893967 0.467301
O O1 0.522979 0.138541 0.748320
O O2 0.485489 0.164866 0.582133
O O3 0.778549 0.305154 0.588864
O O4 0.000000 0.000000 0.000000
O O5 0.479165 0.207698 0.290649
O O6 0.283222 0.076606 0.272668
O O7 0.571336 0.277299 0.133281
O O8 0.035019 0.386020 0.862774
O O9 0.623972 0.556326 0.817679
O O10 0.458754 0.396801 0.851758
O O11 0.018300 0.291063 0.207455
O O12 0.500000 0.500000 0.500000
O O13 0.740080 0.692912 0.429532
O O14 0.950399 0.554556 0.546413
O O15 0.980989 0.878029 0.371846
O O16 0.500000 0.000000 0.000000
O O17 0.445526 0.828113 0.522567
O O18 0.000000 0.500000 0.500000
#
# Coordination Sequence:
#
# PCOD9004866 Si02
#       8
#     2   2   2   2   2   2   2   2
#     4  11  23  39  60  86 117 153 194 245 300 358
#     4  10  23  40  58  86 123 159 200 247 299 356
#     4   9  20  39  59  85 116 154 201 247 295 355
#     4  11  23  40  64  91 122 161 204 250 303 360
#     4  12  24  41  64  89 121 158 202 250 304 366
#     4  10  21  38  62  87 115 152 202 250 299 359
#     4  10  21  38  59  87 120 155 198 244 295 354
#     4  11  23  39  60  89 122 158 201 250 300 358
#
# _framework density 18.698519000000001
#
# number of rings (size 3 to 8) (size 9 to 14) (size 15 to 20)
#    0.000    1.500    0.000    6.000    0.000    9.500 
#    0.000    1.250    0.000    0.000    0.000    0.000 
#    0.000    0.000    0.000    0.000    0.000    0.000 
#
# Total GULP energy -89405.890110 kJ/mol
# GULP energy per Si atom -5587.868132 kJ/mol
# Density = 1.865596 g / cm^3
# Si number density = 18.698519 Si / 1000 Ang^3
#
#
#
# Elastic Constant Matrix: (Units=GPa)
#
#
# Indices 1 2 3 4 5 6 
#
# 1 158.7399 77.1406 96.9325 18.1143 -5.1080 2.4909
# 2 77.1406 113.9312 61.6265 26.0466 1.9755 5.8508
# 3 96.9325 61.6265 138.1557 15.3970 -4.9028 -4.4606
# 4 18.1143 26.0466 15.3970 28.1984 3.0148 -0.6792
# 5 -5.1080 1.9755 -4.9028 3.0148 33.8787 4.0184
# 6 2.4909 5.8508 -4.4606 -0.6792 4.0184 36.7487
#
#
#
# Elastic Compliance Matrix: (Units=1/GPa)
#
#
# Indices 1 2 3 4 5 6 
#
# 1 0.013009 -0.005043 -0.006847 -0.000136 0.001403 -0.001066
# 2 -0.005043 0.016079 -0.002618 -0.010154 -0.000861 -0.002629
# 3 -0.006847 -0.002618 0.013374 -0.000515 0.000816 0.002406
# 4 -0.000136 -0.010154 -0.000515 0.045697 -0.003906 0.002835
# 5 0.001403 -0.000861 0.000816 -0.003906 0.030634 -0.003281
# 6 -0.001066 -0.002629 0.002406 0.002835 -0.003281 0.028406
#
#
# Mechanical properties :
#
#
# Convention : Reuss Voigt Hill
#
# Bulk Modulus (GPa) = 74.37175 98.02513 86.19844
# Shear Modulus (GPa) = 27.67070 31.44032 29.55551
#
# Velocity S-wave (km/s) = 3.85103 4.10498 3.98003
# Velocity P-wave (km/s) = 7.72233 8.66058 8.20488
#
# Compressibility (1/GPa) = 0.01344597
#
# Stress axis : x y z
#
# Youngs Moduli (GPa) = 76.87151 62.19217 74.77075
#
# Poissons Ratio (x) = 0.31362 0.51197
# Poissons Ratio (y) = 0.38765 0.19575
# Poissons Ratio (z) = 0.52636 0.16282
#
# Static dielectric constant tensor:
#      x y z
#    x 1.616370 0.005750 -0.017650 
#    y 0.005750 1.606600 0.053140 
#    z -0.017650 0.053140 1.597800 
# 
# From -- ./inp_files/274499.got.cif
#   From: 2010.05.17/outbox.cif.g08.bks.cpg/sg2_138_cif.got.tgz:274499.got - 2010.06.03 11:33:40.
