data_PCOD9004870
_publ_section_title
;
Structure prediction by ZEFSAII (Michael W. Deem and Ramdas Pophale) SiO2 
 PCOD9004870
Probable space group: P -1
;
_chemical_formula_sum "Si O2"
_cell_formula_units_Z 16
_cell_length_a 18.000327
_cell_length_b 8.405703
_cell_length_c 7.367668
_cell_angle_alpha 119.036452
_cell_angle_beta 134.459802
_cell_angle_gamma 73.429699
_cell_volume 692.967662
_symmetry_space_group_name_H-M "P -1"
_symmetry_group_IT_number 2
_symmetry_cell_setting 'triclinic'
loop_
_space_group_symop_operation_xyz
x,y,z
-x,-y,-z
loop_
_atom_site_type_symbol
_atom_site_label
_atom_site_fract_x
_atom_site_fract_y
_atom_site_fract_z
Si Si1 0.497085 0.735770 0.301479
Si Si2 0.639198 0.635497 0.191678
Si Si3 0.976247 0.289994 0.024027
Si Si4 0.891518 0.337262 0.523600
Si Si5 0.214380 0.165355 0.743870
Si Si6 0.028595 0.930049 0.767641
Si Si7 0.290877 0.898401 0.008753
Si Si8 0.721906 0.729304 0.736343
O O1 0.552133 0.750378 0.204954
O O2 0.399642 0.269408 0.401887
O O3 0.429384 0.541807 0.092051
O O4 0.409526 0.874561 0.244629
O O5 0.711382 0.740291 0.227030
O O6 0.712058 0.603335 0.475697
O O7 0.044020 0.472353 0.306669
O O8 0.927016 0.188007 0.059080
O O9 0.898949 0.333256 0.752669
O O10 0.046458 0.144487 0.964219
O O11 0.777605 0.293589 0.217175
O O12 0.942664 0.161818 0.423766
O O13 0.097481 0.109874 0.451811
O O14 0.265993 0.991187 0.823700
O O15 0.210223 0.299133 0.987588
O O16 0.252327 0.057533 0.159239
#
# Coordination Sequence:
#
# PCOD9004870 Si02
#       8
#     2   2   2   2   2   2   2   2
#     4   9  19  40  60  86 118 155 192 250 295 351
#     4   9  20  38  61  84 118 154 198 241 297 354
#     4  10  23  41  66  85 123 166 203 251 312 349
#     4  11  23  43  62  92 125 162 205 255 298 366
#     4  10  22  36  60  90 117 154 202 241 292 370
#     4  11  23  42  63  92 125 161 205 253 303 363
#     4  10  21  38  59  87 122 150 205 242 292 363
#     4   8  19  38  59  82 117 153 193 234 301 350
#
# _framework density 23.089099999999998
#
# number of rings (size 3 to 8) (size 9 to 14) (size 15 to 20)
#    1.500    0.750    1.250    1.125    1.750    4.000 
#    2.250    0.000    0.000    0.000    0.000    0.000 
#    0.000    0.000    0.000    0.000    0.000    0.000 
#
# Total GULP energy -89089.721773 kJ/mol
# GULP energy per Si atom -5568.107611 kJ/mol
# Density = 2.303655 g / cm^3
# Si number density = 23.089100 Si / 1000 Ang^3
#
#
#
# Elastic Constant Matrix: (Units=GPa)
#
#
# Indices 1 2 3 4 5 6 
#
# 1 65.2300 5.2343 9.1485 4.9628 1.6595 -0.7195
# 2 5.2343 25.5441 6.9047 6.9598 1.4628 -3.1974
# 3 9.1485 6.9047 125.5147 21.4011 5.6773 -5.6070
# 4 4.9628 6.9598 21.4011 39.1071 0.1559 -5.1756
# 5 1.6595 1.4628 5.6773 0.1559 25.4389 1.1025
# 6 -0.7195 -3.1974 -5.6070 -5.1756 1.1025 29.1661
#
#
#
# Elastic Compliance Matrix: (Units=1/GPa)
#
#
# Indices 1 2 3 4 5 6 
#
# 1 0.015757 -0.002702 -0.000789 -0.001115 -0.000680 -0.000231
# 2 -0.002702 0.042174 -0.000805 -0.006267 -0.002177 0.003372
# 3 -0.000789 -0.000805 0.008969 -0.004540 -0.001914 0.000883
# 4 -0.001115 -0.006267 -0.004540 0.029792 0.001105 0.003658
# 5 -0.000680 -0.002177 -0.001914 0.001105 0.039984 -0.001939
# 6 -0.000231 0.003372 0.000883 0.003658 -0.001939 0.035542
#
#
# Mechanical properties :
#
#
# Convention : Reuss Voigt Hill
#
# Bulk Modulus (GPa) = 17.15062 28.76264 22.95663
# Shear Modulus (GPa) = 24.96909 31.74250 28.35579
#
# Velocity S-wave (km/s) = 3.29207 3.71183 3.50823
# Velocity P-wave (km/s) = 4.67915 5.55468 5.13561
#
# Compressibility (1/GPa) = 0.05830694
#
# Stress axis : x y z
#
# Youngs Moduli (GPa) = 63.46208 23.71151 111.49213
#
# Poissons Ratio (x) = 0.06406 0.08802
# Poissons Ratio (y) = 0.17146 0.08980
# Poissons Ratio (z) = 0.05010 0.01910
#
# Static dielectric constant tensor:
#      x y z
#    x 1.890100 -0.057550 0.032910 
#    y -0.057550 1.924100 0.024240 
#    z 0.032910 0.024240 1.909760 
# 
# From -- ./inp_files/327874.got.cif
#   From: 2010.05.17/outbox.cif.g08.bks.cpg/sg2_164_cif.got.tgz:327874.got - 2010.06.03 11:33:40.
