data_PCOD9004001
_publ_section_title
;
Structure prediction by ZEFSAII (Michael W. Deem and Ramdas Pophale) SiO2 
 PCOD9004001
Probable space group: P -1
;
_chemical_formula_sum "Si O2"
_cell_formula_units_Z 16
_cell_length_a 30.643155
_cell_length_b 9.166055
_cell_length_c 15.003664
_cell_angle_alpha 47.469073
_cell_angle_beta 162.379690
_cell_angle_gamma 141.490788
_cell_volume 737.793852
_symmetry_space_group_name_H-M "P -1"
_symmetry_group_IT_number 2
_symmetry_cell_setting 'triclinic'
loop_
_space_group_symop_operation_xyz
x,y,z
-x,-y,-z
loop_
_atom_site_type_symbol
_atom_site_label
_atom_site_fract_x
_atom_site_fract_y
_atom_site_fract_z
Si Si1 0.970635 0.386834 0.709663
Si Si2 0.042501 0.902043 0.370349
Si Si3 0.194318 0.807588 0.350643
Si Si4 0.568705 0.749791 0.692795
Si Si5 0.091541 0.243782 0.638549
Si Si6 0.646056 0.233208 0.591090
Si Si7 0.650370 0.709763 0.637043
Si Si8 0.195276 0.429648 0.406334
O O1 0.843795 0.182667 0.624169
O O2 0.897619 0.542216 0.480345
O O3 0.960894 0.255903 0.652508
O O4 0.169513 0.587161 0.062942
O O5 0.027349 0.815977 0.478262
O O6 0.848023 0.849094 0.006309
O O7 0.195681 0.200693 0.528601
O O8 0.221776 0.599073 0.471121
O O9 0.350215 0.076898 0.498376
O O10 0.004662 0.697713 0.974943
O O11 0.534557 0.837687 0.681586
O O12 0.376137 0.477574 0.413273
O O13 0.620593 0.974621 0.634661
O O14 0.712310 0.694136 0.990921
O O15 0.000000 0.000000 0.500000
O O16 0.671724 0.378192 0.491342
O O17 0.500000 0.500000 0.500000
#
# Coordination Sequence:
#
# PCOD9004001 Si02
#       8
#     2   2   2   2   2   2   2   2
#     4  11  22  40  61  90 124 161 210 248 297 361
#     4  11  23  37  63  92 120 162 208 255 297 358
#     4   9  20  34  60  90 121 161 202 252 302 359
#     4  11  22  37  61  95 120 160 198 252 310 357
#     4  12  24  41  63  86 125 168 203 243 306 374
#     4  10  21  37  63  93 122 155 202 259 302 357
#     4  11  20  35  62  92 125 153 202 257 308 351
#     4   9  19  35  60  89 121 153 206 252 303 352
#
# _framework density 21.686274000000001
#
# number of rings (size 3 to 8) (size 9 to 14) (size 15 to 20)
#    0.000    1.500    3.750    1.875    5.250    1.500 
#    0.000    0.625    0.000    1.500    0.000    0.000 
#    0.000    0.000    0.000    0.000    0.000    0.000 
#
# Total GULP energy -89147.236786 kJ/mol
# GULP energy per Si atom -5571.702299 kJ/mol
# Density = 2.163692 g / cm^3
# Si number density = 21.686274 Si / 1000 Ang^3
#
#
#
# Elastic Constant Matrix: (Units=GPa)
#
#
# Indices 1 2 3 4 5 6 
#
# 1 121.5871 36.1893 15.3792 -1.1602 6.8990 9.1714
# 2 36.1893 110.4116 7.6771 4.4590 10.5542 15.8288
# 3 15.3792 7.6771 16.3583 -6.2966 2.5215 8.9253
# 4 -1.1602 4.4590 -6.2966 25.1856 -5.2984 4.1063
# 5 6.8990 10.5542 2.5215 -5.2984 22.2494 5.0053
# 6 9.1714 15.8288 8.9253 4.1063 5.0053 35.2343
#
#
#
# Elastic Compliance Matrix: (Units=1/GPa)
#
#
# Indices 1 2 3 4 5 6 
#
# 1 0.010198 -0.002638 -0.009689 -0.002066 -0.001633 0.001458
# 2 -0.002638 0.010966 -0.001520 -0.002858 -0.004235 -0.002920
# 3 -0.009689 -0.001520 0.094768 0.028721 0.005431 -0.024920
# 4 -0.002066 -0.002858 0.028721 0.052526 0.014311 -0.013608
# 5 -0.001633 -0.004235 0.005431 0.014311 0.052078 -0.008114
# 6 0.001458 -0.002920 -0.024920 -0.013608 -0.008114 0.038365
#
#
# Mechanical properties :
#
#
# Convention : Reuss Voigt Hill
#
# Bulk Modulus (GPa) = 11.33304 40.76092 26.04698
# Shear Modulus (GPa) = 15.82235 29.14130 22.48183
#
# Velocity S-wave (km/s) = 2.70405 3.66972 3.22325
# Velocity P-wave (km/s) = 3.87123 6.06567 5.08816
#
# Compressibility (1/GPa) = 0.08823756
#
# Stress axis : x y z
#
# Youngs Moduli (GPa) = 98.05514 91.18759 10.55212
#
# Poissons Ratio (x) = 0.24060 0.10224
# Poissons Ratio (y) = 0.25872 0.01604
# Poissons Ratio (z) = 0.95004 0.13862
#
# Static dielectric constant tensor:
#      x y z
#    x 1.904880 -0.014550 -0.041170 
#    y -0.014550 1.766010 -0.060510 
#    z -0.041170 -0.060510 1.599650 
# 
# From -- ./inp_files/544823.got.cif
#   From: 2010.05.17/outbox.cif.g08.bks.cpg/sg2_273_cif.got.tgz:544823.got - 2010.06.03 11:33:40.
