data_PCOD9004320
_publ_section_title
;
Structure prediction by ZEFSAII (Michael W. Deem and Ramdas Pophale) SiO2 
 PCOD9004320
Probable space group: P -1
;
_chemical_formula_sum "Si O2"
_cell_formula_units_Z 14
_cell_length_a 15.162730
_cell_length_b 5.276134
_cell_length_c 12.081000
_cell_angle_alpha 69.771424
_cell_angle_beta 47.806942
_cell_angle_gamma 95.494878
_cell_volume 592.413074
_symmetry_space_group_name_H-M "P -1"
_symmetry_group_IT_number 2
_symmetry_cell_setting 'triclinic'
loop_
_space_group_symop_operation_xyz
x,y,z
-x,-y,-z
loop_
_atom_site_type_symbol
_atom_site_label
_atom_site_fract_x
_atom_site_fract_y
_atom_site_fract_z
Si Si1 0.245914 0.355244 0.728720
Si Si2 0.623332 0.256797 0.999491
Si Si3 0.242718 0.724419 0.892665
Si Si4 0.363112 0.175039 0.215352
Si Si5 0.951544 0.431497 0.177377
Si Si6 0.733990 0.730276 0.505333
Si Si7 0.152144 0.620022 0.389859
O O1 0.272510 0.577353 0.778867
O O2 0.108689 0.333218 0.792327
O O3 0.330734 0.441154 0.529986
O O4 0.240545 0.042037 0.820687
O O5 0.622162 0.575953 0.925192
O O6 0.741787 0.272155 0.818453
O O7 0.654735 0.224931 0.103446
O O8 0.465943 0.034821 0.137297
O O9 0.092478 0.502239 0.103343
O O10 0.377875 0.296120 0.309031
O O11 0.208254 0.920943 0.372281
O O12 0.831965 0.090042 0.343313
O O13 0.000000 0.500000 0.000000
O O14 0.821245 0.607738 0.519914
O O15 0.000000 0.500000 0.500000
#
# Coordination Sequence:
#
# PCOD9004320 Si02
#       7
#     2   2   2   2   2   2   2
#     4  11  22  42  63 105 141 188 227 297 361 423
#     4  10  25  46  70  98 139 195 240 293 355 438
#     4  11  25  38  70 104 138 184 241 291 352 431
#     4  10  24  49  68  96 142 195 238 291 367 424
#     4  10  21  37  65  96 146 180 233 282 367 414
#     4  11  23  41  68  99 145 187 231 295 366 426
#     4  11  26  40  73 108 139 181 241 308 360 422
#
# _framework density 23.632159000000001
#
# number of rings (size 3 to 8) (size 9 to 14) (size 15 to 20)
#    0.000    1.429    2.857    1.714   10.000    1.143 
#    0.000    1.429    0.000    0.000    0.000    0.000 
#    0.000    0.000    0.000    0.000    0.000    0.000 
#
# Total GULP energy -78064.639726 kJ/mol
# GULP energy per Si atom -5576.045695 kJ/mol
# Density = 2.357837 g / cm^3
# Si number density = 23.632159 Si / 1000 Ang^3
#
#
#
# Elastic Constant Matrix: (Units=GPa)
#
#
# Indices 1 2 3 4 5 6 
#
# 1 108.6950 37.9062 28.5955 14.1154 7.3870 7.7293
# 2 37.9062 121.1240 38.9970 11.9109 23.1264 -0.7715
# 3 28.5955 38.9970 91.1903 15.3506 22.8789 3.7277
# 4 14.1154 11.9109 15.3506 41.9703 4.5151 10.3131
# 5 7.3870 23.1264 22.8789 4.5151 37.0599 2.3301
# 6 7.7293 -0.7715 3.7277 10.3131 2.3301 27.1736
#
#
#
# Elastic Compliance Matrix: (Units=1/GPa)
#
#
# Indices 1 2 3 4 5 6 
#
# 1 0.011073 -0.002856 -0.002196 -0.001656 0.001284 -0.002411
# 2 -0.002856 0.011004 -0.002494 -0.001324 -0.004746 0.002376
# 3 -0.002196 -0.002494 0.015003 -0.003393 -0.006878 0.000373
# 4 -0.001656 -0.001324 -0.003393 0.028391 0.000415 -0.009912
# 5 0.001284 -0.004746 -0.006878 0.000415 0.034050 -0.002634
# 6 -0.002411 0.002376 0.000373 -0.009912 -0.002634 0.041490
#
#
# Mechanical properties :
#
#
# Convention : Reuss Voigt Hill
#
# Bulk Modulus (GPa) = 45.47797 59.11185 52.29491
# Shear Modulus (GPa) = 30.59377 35.60812 33.10094
#
# Velocity S-wave (km/s) = 3.60193 3.88592 3.74662
# Velocity P-wave (km/s) = 6.04851 6.72320 6.39476
#
# Compressibility (1/GPa) = 0.02198867
#
# Stress axis : x y z
#
# Youngs Moduli (GPa) = 90.30997 90.87418 66.65505
#
# Poissons Ratio (x) = 0.25954 0.14635
# Poissons Ratio (y) = 0.25793 0.16623
# Poissons Ratio (z) = 0.19829 0.22662
#
# Static dielectric constant tensor:
#      x y z
#    x 1.924880 0.019920 -0.089950 
#    y 0.019920 1.995920 0.036410 
#    z -0.089950 0.036410 2.092510 
# 
# From -- ./inp_files/441612.got.cif
#   From: 2010.05.17/outbox.cif.g08.bks.cpg/sg2_221_cif.got.tgz:441612.got - 2010.06.03 11:33:40.
