data_PCOD9004084
_publ_section_title
;
Structure prediction by ZEFSAII (Michael W. Deem and Ramdas Pophale) SiO2 
 PCOD9004084
Probable space group: P -1
;
_chemical_formula_sum "Si O2"
_cell_formula_units_Z 14
_cell_length_a 12.486067
_cell_length_b 7.422647
_cell_length_c 13.196604
_cell_angle_alpha 98.004422
_cell_angle_beta 148.045032
_cell_angle_gamma 66.039491
_cell_volume 535.576998
_symmetry_space_group_name_H-M "P -1"
_symmetry_group_IT_number 2
_symmetry_cell_setting 'triclinic'
loop_
_space_group_symop_operation_xyz
x,y,z
-x,-y,-z
loop_
_atom_site_type_symbol
_atom_site_label
_atom_site_fract_x
_atom_site_fract_y
_atom_site_fract_z
Si Si1 0.361842 0.818269 0.866366
Si Si2 0.311974 0.330437 0.551916
Si Si3 0.759480 0.479664 0.702196
Si Si4 0.846427 0.874119 0.443447
Si Si5 0.625559 0.386370 0.939590
Si Si6 0.498254 0.871854 0.641035
Si Si7 0.066264 0.984266 0.168073
O O1 0.577757 0.603345 0.968114
O O2 0.116621 0.818046 0.651880
O O3 0.284608 0.041622 0.764529
O O4 0.411152 0.759425 0.019359
O O5 0.208370 0.422456 0.366571
O O6 0.148633 0.318144 0.506523
O O7 0.432318 0.450642 0.701306
O O8 0.525818 0.074055 0.691736
O O9 0.500000 0.500000 0.500000
O O10 0.727350 0.632193 0.784032
O O11 0.944050 0.221461 0.822262
O O12 0.676830 0.080480 0.399315
O O13 0.886494 0.215494 0.092871
O O14 0.326632 0.928529 0.409569
O O15 0.000000 0.000000 0.000000
#
# Coordination Sequence:
#
# PCOD9004084 Si02
#       7
#     2   2   2   2   2   2   2
#     4  10  22  40  65  84 122 163 204 244 291 354
#     4  10  22  37  63  89 122 152 201 251 297 356
#     4  10  21  37  64  87 117 163 194 240 299 368
#     4   9  21  40  64  85 112 167 198 249 287 357
#     4  11  22  38  59  94 122 156 200 251 297 347
#     4   9  20  41  59  88 119 157 199 243 296 360
#     4  11  23  38  62  91 120 155 202 247 299 362
#
# _framework density 26.140034
#
# number of rings (size 3 to 8) (size 9 to 14) (size 15 to 20)
#    0.857    1.143    1.429    2.143    6.000    1.143 
#    0.000    7.143    0.000    0.000    0.000    0.000 
#    0.000    0.000    0.000    0.000    0.000    0.000 
#
# Total GULP energy -78157.832783 kJ/mol
# GULP energy per Si atom -5582.702342 kJ/mol
# Density = 2.608054 g / cm^3
# Si number density = 26.140034 Si / 1000 Ang^3
#
#
#
# Elastic Constant Matrix: (Units=GPa)
#
#
# Indices 1 2 3 4 5 6 
#
# 1 68.5966 23.4694 20.9934 -24.2976 -0.9871 -1.0523
# 2 23.4694 73.2699 14.5980 -10.7276 -2.2109 -5.2776
# 3 20.9934 14.5980 56.2436 -13.7809 -5.6473 -7.7338
# 4 -24.2976 -10.7276 -13.7809 35.3276 -0.6394 -7.2132
# 5 -0.9871 -2.2109 -5.6473 -0.6394 31.9181 -6.3652
# 6 -1.0523 -5.2776 -7.7338 -7.2132 -6.3652 46.5044
#
#
#
# Elastic Compliance Matrix: (Units=1/GPa)
#
#
# Indices 1 2 3 4 5 6 
#
# 1 0.021578 -0.004257 -0.003709 0.012380 0.000232 0.001340
# 2 -0.004257 0.015750 -0.001773 0.001545 0.001031 0.001777
# 3 -0.003709 -0.001773 0.022508 0.006840 0.004917 0.005192
# 4 0.012380 0.001545 0.006840 0.041804 0.004265 0.008661
# 5 0.000232 0.001031 0.004917 0.004265 0.033601 0.006201
# 6 0.001340 0.001777 0.005192 0.008661 0.006201 0.024791
#
#
# Mechanical properties :
#
#
# Convention : Reuss Voigt Hill
#
# Bulk Modulus (GPa) = 24.77693 35.13687 29.95690
# Shear Modulus (GPa) = 25.91191 32.01995 28.96593
#
# Velocity S-wave (km/s) = 3.15186 3.50371 3.33243
# Velocity P-wave (km/s) = 4.76915 5.46250 5.12756
#
# Compressibility (1/GPa) = 0.04036012
#
# Stress axis : x y z
#
# Youngs Moduli (GPa) = 46.34282 63.49126 44.42907
#
# Poissons Ratio (x) = 0.27028 0.16477
# Poissons Ratio (y) = 0.19728 0.07875
# Poissons Ratio (z) = 0.17187 0.11254
#
# Static dielectric constant tensor:
#      x y z
#    x 2.106120 0.021440 -0.001340 
#    y 0.021440 2.058530 0.005670 
#    z -0.001340 0.005670 2.087830 
# 
# From -- ./inp_files/419475.got.cif
#   From: 2010.05.17/outbox.cif.g08.bks.cpg/sg2_210_cif.got.tgz:419475.got - 2010.06.03 11:33:40.
