data_PCOD9004966
_publ_section_title
;
Structure prediction by ZEFSAII (Michael W. Deem and Ramdas Pophale) SiO2 
 PCOD9004966
Probable space group: P -1
;
_chemical_formula_sum "Si O2"
_cell_formula_units_Z 16
_cell_length_a 12.946862
_cell_length_b 7.163235
_cell_length_c 14.607928
_cell_angle_alpha 88.665596
_cell_angle_beta 38.863836
_cell_angle_gamma 114.617234
_cell_volume 612.726786
_symmetry_space_group_name_H-M "P -1"
_symmetry_group_IT_number 2
_symmetry_cell_setting 'triclinic'
loop_
_space_group_symop_operation_xyz
x,y,z
-x,-y,-z
loop_
_atom_site_type_symbol
_atom_site_label
_atom_site_fract_x
_atom_site_fract_y
_atom_site_fract_z
Si Si1 0.731043 0.277517 0.802714
Si Si2 0.486898 0.635785 0.411163
Si Si3 0.705195 0.825648 0.682398
Si Si4 0.881115 0.798959 0.732046
Si Si5 0.758413 0.437165 0.582518
Si Si6 0.961140 0.096603 0.178518
Si Si7 0.739511 0.292404 0.309721
Si Si8 0.661240 0.449403 0.191780
O O1 0.741696 0.497350 0.832179
O O2 0.718390 0.280355 0.700588
O O3 0.989053 0.397087 0.635997
O O4 0.500000 0.000000 0.000000
O O5 0.434697 0.729239 0.360092
O O6 0.281717 0.533779 0.621090
O O7 0.480870 0.420674 0.380104
O O8 0.726306 0.850750 0.295355
O O9 0.756159 0.855508 0.754449
O O10 0.730757 0.626928 0.637563
O O11 0.466185 0.708081 0.810644
O O12 0.896467 0.072147 0.484896
O O13 0.954694 0.914319 0.782016
O O14 0.926624 0.294242 0.213147
O O15 0.159826 0.251396 0.964509
O O16 0.753260 0.359404 0.193559
O O17 0.500000 0.000000 0.500000
#
# Coordination Sequence:
#
# PCOD9004966 Si02
#       8
#     2   2   2   2   2   2   2   2
#     4  10  21  43  65  94 129 171 225 275 331 396
#     4  10  21  41  66  89 129 177 214 265 324 404
#     4   9  20  41  66  90 127 174 219 270 326 397
#     4  10  21  42  64  93 130 169 219 264 335 395
#     4   9  20  41  65  93 127 172 223 272 330 394
#     4  11  23  40  61 102 135 165 216 277 329 389
#     4  10  21  38  60  84 123 170 216 253 318 392
#     4  11  22  40  63  96 130 171 219 275 328 383
#
# _framework density 26.112780000000001
#
# number of rings (size 3 to 8) (size 9 to 14) (size 15 to 20)
#    0.000    2.000    0.000    3.375    0.000    2.500 
#   24.750    0.000    0.000    0.000    0.000    0.000 
#    0.000    0.000    0.000    0.000    0.000    0.000 
#
# Total GULP energy -89440.288635 kJ/mol
# GULP energy per Si atom -5590.018040 kJ/mol
# Density = 2.605335 g / cm^3
# Si number density = 26.112780 Si / 1000 Ang^3
#
#
#
# Elastic Constant Matrix: (Units=GPa)
#
#
# Indices 1 2 3 4 5 6 
#
# 1 206.4380 17.2885 63.6657 -8.4140 23.6907 42.5721
# 2 17.2885 74.5583 22.1744 -6.7866 3.2226 15.6748
# 3 63.6657 22.1744 130.6081 -15.1021 6.5644 7.9301
# 4 -8.4140 -6.7866 -15.1021 35.3898 -2.4440 -5.5339
# 5 23.6907 3.2226 6.5644 -2.4440 32.2463 2.4942
# 6 42.5721 15.6748 7.9301 -5.5339 2.4942 37.9441
#
#
#
# Elastic Compliance Matrix: (Units=1/GPa)
#
#
# Indices 1 2 3 4 5 6 
#
# 1 0.008127 0.001092 -0.003500 -0.001038 -0.004775 -0.008675
# 2 0.001092 0.015511 -0.002574 0.000977 -0.001223 -0.006872
# 3 -0.003500 -0.002574 0.009960 0.003507 0.000807 0.003367
# 4 -0.001038 0.000977 0.003507 0.030507 0.001927 0.004351
# 5 -0.004775 -0.001223 0.000807 0.001927 0.034336 0.003718
# 6 -0.008675 -0.006872 0.003367 0.004351 0.003718 0.038613
#
#
# Mechanical properties :
#
#
# Convention : Reuss Voigt Hill
#
# Bulk Modulus (GPa) = 42.31218 68.65128 55.48173
# Shear Modulus (GPa) = 32.27960 41.68110 36.98035
#
# Velocity S-wave (km/s) = 3.51972 3.99958 3.76730
# Velocity P-wave (km/s) = 5.72335 6.90479 6.34164
#
# Compressibility (1/GPa) = 0.02363385
#
# Stress axis : x y z
#
# Youngs Moduli (GPa) = 123.05103 64.46940 100.39925
#
# Poissons Ratio (x) = -0.07042 0.35142
# Poissons Ratio (y) = -0.13441 0.25845
# Poissons Ratio (z) = 0.43070 0.16596
#
# Static dielectric constant tensor:
#      x y z
#    x 2.067670 -0.007520 0.014700 
#    y -0.007520 2.177910 0.022880 
#    z 0.014700 0.022880 2.067340 
# 
# From -- ./inp_files/399647.got.cif
#   From: 2010.05.17/outbox.cif.g08.bks.cpg/sg2_200_cif.got.tgz:399647.got - 2010.06.03 11:33:40.
