data_PCOD9004007
_publ_section_title
;
Structure prediction by ZEFSAII (Michael W. Deem and Ramdas Pophale) SiO2 
 PCOD9004007
Probable space group: P -1
;
_chemical_formula_sum "Si O2"
_cell_formula_units_Z 16
_cell_length_a 11.203731
_cell_length_b 9.295437
_cell_length_c 11.697648
_cell_angle_alpha 97.777100
_cell_angle_beta 80.205525
_cell_angle_gamma 142.027546
_cell_volume 738.631848
_symmetry_space_group_name_H-M "P -1"
_symmetry_group_IT_number 2
_symmetry_cell_setting 'triclinic'
loop_
_space_group_symop_operation_xyz
x,y,z
-x,-y,-z
loop_
_atom_site_type_symbol
_atom_site_label
_atom_site_fract_x
_atom_site_fract_y
_atom_site_fract_z
Si Si1 0.625206 0.195523 0.400700
Si Si2 0.644025 0.847623 0.682164
Si Si3 0.145077 0.002493 0.948418
Si Si4 0.167414 0.080463 0.554050
Si Si5 0.903521 0.557451 0.564789
Si Si6 0.682452 0.629165 0.208272
Si Si7 0.020766 0.613248 0.778547
Si Si8 0.954766 0.240357 0.841456
O O1 0.483675 0.132010 0.323934
O O2 0.740567 0.427399 0.480864
O O3 0.784091 0.251154 0.309932
O O4 0.500000 0.000000 0.500000
O O5 0.665312 0.790015 0.550958
O O6 0.528105 0.635023 0.763309
O O7 0.851504 0.087966 0.725853
O O8 0.312175 0.244103 0.877526
O O9 0.054151 0.794193 0.858532
O O10 0.178298 0.945009 0.053471
O O11 0.000000 0.000000 0.000000
O O12 0.239410 0.224472 0.671815
O O13 0.000000 0.000000 0.500000
O O14 0.064674 0.832190 0.573289
O O15 0.000000 0.500000 0.500000
O O16 0.851207 0.477984 0.696471
O O17 0.836651 0.642557 0.163471
O O18 0.974755 0.432049 0.846783
#
# Coordination Sequence:
#
# PCOD9004007 Si02
#       8
#     2   2   2   2   2   2   2   2
#     4  11  22  37  62 102 140 168 215 270 331 402
#     4  12  23  40  67  97 136 176 215 273 332 396
#     4  10  24  44  71  94 129 178 226 279 327 384
#     4  12  22  39  63  96 133 175 217 260 340 400
#     4  10  21  37  63  93 134 171 210 262 325 397
#     4  11  23  43  63  98 135 168 222 274 332 402
#     4  11  20  43  69  97 130 173 226 274 325 395
#     4  11  23  44  69  92 128 176 227 274 326 384
#
# _framework density 21.661670000000001
#
# number of rings (size 3 to 8) (size 9 to 14) (size 15 to 20)
#    0.000    1.000    3.750    5.250    0.000    0.500 
#    0.000    0.625    8.250    0.000    0.000    0.000 
#    0.000    0.000    0.000    0.000    0.000    0.000 
#
# Total GULP energy -89301.105831 kJ/mol
# GULP energy per Si atom -5581.319114 kJ/mol
# Density = 2.161237 g / cm^3
# Si number density = 21.661670 Si / 1000 Ang^3
#
#
#
# Elastic Constant Matrix: (Units=GPa)
#
#
# Indices 1 2 3 4 5 6 
#
# 1 59.7204 18.5394 16.6731 -5.8054 1.3379 -18.1288
# 2 18.5394 102.8372 18.8045 -20.2244 -2.0591 -28.6717
# 3 16.6731 18.8045 86.9927 -8.2072 1.0918 -18.0046
# 4 -5.8054 -20.2244 -8.2072 44.4227 -12.1968 7.3965
# 5 1.3379 -2.0591 1.0918 -12.1968 24.9746 -3.4509
# 6 -18.1288 -28.6717 -18.0046 7.3965 -3.4509 36.9065
#
#
#
# Elastic Compliance Matrix: (Units=1/GPa)
#
#
# Indices 1 2 3 4 5 6 
#
# 1 0.020079 -0.000863 -0.001918 0.000618 0.000367 0.008167
# 2 -0.000863 0.013896 -0.000371 0.006071 0.005484 0.009487
# 3 -0.001918 -0.000371 0.013091 0.001414 0.000875 0.004954
# 4 0.000618 0.006071 0.001414 0.029536 0.014995 0.001193
# 5 0.000367 0.005484 0.000875 0.014995 0.048644 0.006411
# 6 0.008167 0.009487 0.004954 0.001193 0.006411 0.041255
#
#
# Mechanical properties :
#
#
# Convention : Reuss Voigt Hill
#
# Bulk Modulus (GPa) = 24.53242 39.73159 32.13201
# Shear Modulus (GPa) = 26.82523 34.29632 30.56078
#
# Velocity S-wave (km/s) = 3.52287 3.98335 3.76017
# Velocity P-wave (km/s) = 5.28179 6.28791 5.80668
#
# Compressibility (1/GPa) = 0.04076239
#
# Stress axis : x y z
#
# Youngs Moduli (GPa) = 49.80267 71.96136 76.38939
#
# Poissons Ratio (x) = 0.06212 0.14650
# Poissons Ratio (y) = 0.04299 0.02834
# Poissons Ratio (z) = 0.09551 0.02670
#
# Static dielectric constant tensor:
#      x y z
#    x 1.823140 -0.002180 0.024310 
#    y -0.002180 1.815030 -0.041000 
#    z 0.024310 -0.041000 1.834980 
# 
# From -- ./inp_files/180325.got.cif
#   From: 2010.05.17/outbox.cif.g08.bks.cpg/sg2_91_cif.got.tgz:180325.got - 2010.06.03 11:33:40.
