data_PCOD9004252
_publ_section_title
;
Structure prediction by ZEFSAII (Michael W. Deem and Ramdas Pophale) SiO2 
 PCOD9004252
Probable space group: P -1
;
_chemical_formula_sum "Si O2"
_cell_formula_units_Z 16
_cell_length_a 15.450956
_cell_length_b 8.917307
_cell_length_c 9.226141
_cell_angle_alpha 133.556066
_cell_angle_beta 97.464386
_cell_angle_gamma 57.576863
_cell_volume 715.520631
_symmetry_space_group_name_H-M "P -1"
_symmetry_group_IT_number 2
_symmetry_cell_setting 'triclinic'
loop_
_space_group_symop_operation_xyz
x,y,z
-x,-y,-z
loop_
_atom_site_type_symbol
_atom_site_label
_atom_site_fract_x
_atom_site_fract_y
_atom_site_fract_z
Si Si1 0.316238 0.774744 0.463859
Si Si2 0.864892 0.975950 0.935124
Si Si3 0.323902 0.562545 0.630334
Si Si4 0.846981 0.330535 0.692521
Si Si5 0.738482 0.765172 0.745974
Si Si6 0.555306 0.028460 0.395039
Si Si7 0.998620 0.054362 0.790226
Si Si8 0.510283 0.806127 0.992744
O O1 0.306964 0.746498 0.615680
O O2 0.213132 0.803525 0.390142
O O3 0.339776 0.976623 0.564067
O O4 0.423405 0.485934 0.243978
O O5 0.744343 0.257425 0.127688
O O6 0.930213 0.910722 0.059339
O O7 0.836425 0.783698 0.758648
O O8 0.933221 0.992345 0.837972
O O9 0.269490 0.420857 0.484021
O O10 0.454390 0.321464 0.509063
O O11 0.758728 0.629353 0.816840
O O12 0.927259 0.175161 0.466978
O O13 0.911799 0.299052 0.829358
O O14 0.617617 0.049761 0.898167
O O15 0.500000 0.000000 0.500000
O O16 0.574786 0.816223 0.145664
O O17 0.500000 0.000000 0.000000
#
# Coordination Sequence:
#
# PCOD9004252 Si02
#       8
#     2   2   2   2   2   2   2   2
#     4  11  21  39  67  86 124 166 195 245 299 358
#     4  11  22  40  65  86 118 160 201 249 304 353
#     4  10  21  40  59  92 122 157 200 246 294 362
#     4  10  21  41  61  89 122 155 201 253 299 348
#     4  10  21  37  65  89 118 154 203 241 299 361
#     4  11  25  38  60  96 128 154 199 247 300 360
#     4  10  23  41  60  88 121 155 204 253 300 348
#     4  11  21  38  64  93 119 159 204 235 292 379
#
# _framework density 22.361340999999999
#
# number of rings (size 3 to 8) (size 9 to 14) (size 15 to 20)
#    0.000    1.500    6.250    1.125    1.750    4.500 
#    0.000    0.000    0.000    0.000    0.000    0.000 
#    0.000    0.000    0.000    0.000    0.000    0.000 
#
# Total GULP energy -89356.681167 kJ/mol
# GULP energy per Si atom -5584.792573 kJ/mol
# Density = 2.231045 g / cm^3
# Si number density = 22.361341 Si / 1000 Ang^3
#
#
#
# Elastic Constant Matrix: (Units=GPa)
#
#
# Indices 1 2 3 4 5 6 
#
# 1 85.7815 -21.1008 46.9993 21.6413 14.5576 35.8631
# 2 -21.1008 4.0794 24.2171 6.1980 -3.4437 2.4758
# 3 46.9993 24.2171 71.7081 -11.7785 6.7970 17.6557
# 4 21.6413 6.1980 -11.7785 11.3728 2.1238 -9.0065
# 5 14.5576 -3.4437 6.7970 2.1238 17.5434 3.2368
# 6 35.8631 2.4758 17.6557 -9.0065 3.2368 30.6114
#
#
#
# Elastic Compliance Matrix: (Units=1/GPa)
#
#
# Indices 1 2 3 4 5 6 
#
# 1 0.006075 -0.022116 0.006976 0.004411 -0.011354 -0.006853
# 2 -0.022116 0.034536 0.001165 0.050901 0.011844 0.036169
# 3 0.006976 0.001165 0.011432 -0.016473 -0.004445 -0.019237
# 4 0.004411 0.050901 -0.016473 0.043709 0.005109 0.012536
# 5 -0.011354 0.011844 -0.004445 0.005109 0.068154 0.009205
# 6 -0.006853 0.036169 -0.019237 0.012536 0.009205 0.051581
#
#
# Mechanical properties :
#
#
# Convention : Reuss Voigt Hill
#
# Bulk Modulus (GPa) = 41.50875 29.08890 35.29882
# Shear Modulus (GPa) = 19.88328 19.33574 19.60951
#
# Velocity S-wave (km/s) = 2.98515 2.94376 2.96453
# Velocity P-wave (km/s) = 5.52128 4.95894 5.24765
#
# Compressibility (1/GPa) = 0.02409130
#
# Stress axis : x y z
#
# Youngs Moduli (GPa) = 164.61922 28.95564 87.47277
#
# Poissons Ratio (x) = 0.64038 -0.61017
# Poissons Ratio (y) = 3.64070 -0.10189
# Poissons Ratio (z) = -1.14831 -0.03373
#
# Static dielectric constant tensor:
#      x y z
#    x 1.879550 -0.048950 -0.015240 
#    y -0.048950 1.867500 0.002810 
#    z -0.015240 0.002810 1.851360 
# 
# From -- ./inp_files/296797.got.cif
#   From: 2010.05.17/outbox.cif.g08.bks.cpg/sg2_149_cif.got.tgz:296797.got - 2010.06.03 11:33:40.
