data_PCOD9004998
_publ_section_title
;
Structure prediction by ZEFSAII (Michael W. Deem and Ramdas Pophale) SiO2 
 PCOD9004998
Probable space group: P -1
;
_chemical_formula_sum "Si O2"
_cell_formula_units_Z 14
_cell_length_a 19.944956
_cell_length_b 5.299731
_cell_length_c 4.903128
_cell_angle_alpha 97.450584
_cell_angle_beta 109.239921
_cell_angle_gamma 88.511766
_cell_volume 485.118549
_symmetry_space_group_name_H-M "P -1"
_symmetry_group_IT_number 2
_symmetry_cell_setting 'triclinic'
loop_
_space_group_symop_operation_xyz
x,y,z
-x,-y,-z
loop_
_atom_site_type_symbol
_atom_site_label
_atom_site_fract_x
_atom_site_fract_y
_atom_site_fract_z
Si Si1 0.015956 0.729716 0.840237
Si Si2 0.552479 0.248438 0.364812
Si Si3 0.585384 0.568456 0.949596
Si Si4 0.267275 0.243371 0.042915
Si Si5 0.702296 0.050390 0.455652
Si Si6 0.127483 0.265575 0.551290
Si Si7 0.841031 0.281797 0.761821
O O1 0.101271 0.728170 0.916248
O O2 0.042161 0.277737 0.482688
O O3 0.000000 0.500000 0.000000
O O4 0.000000 0.000000 0.000000
O O5 0.556007 0.335983 0.692678
O O6 0.469988 0.209893 0.170646
O O7 0.618490 0.068218 0.384266
O O8 0.576944 0.484219 0.235869
O O9 0.666053 0.603184 0.970480
O O10 0.186609 0.307614 0.869284
O O11 0.280299 0.984850 0.843207
O O12 0.276693 0.188022 0.363779
O O13 0.755747 0.264878 0.680432
O O14 0.141868 0.482800 0.377386
O O15 0.142773 0.986078 0.409109
#
# Coordination Sequence:
#
# PCOD9004998 Si02
#       7
#     2   2   2   2   2   2   2
#     4   8  14  28  53  82 116 156 200 250 304 362
#     4  10  21  38  60  86 118 160 207 256 311 371
#     4  10  21  38  60  86 118 160 207 256 311 371
#     4  11  23  38  58  88 121 161 208 256 311 370
#     4  11  23  38  58  88 121 161 208 256 311 370
#     4   9  18  34  57  87 121 160 205 254 308 367
#     4   9  18  34  57  87 121 160 205 254 308 367
#
# _framework density 28.858924999999999
#
# number of rings (size 3 to 8) (size 9 to 14) (size 15 to 20)
#    0.000    2.286    0.000    2.571    0.000    3.429 
#    0.000    0.714    0.000    0.000    0.000   31.000 
#    0.000    0.000    0.000    0.000    0.000    0.000 
#
# Total GULP energy -78389.153348 kJ/mol
# GULP energy per Si atom -5599.225239 kJ/mol
# Density = 2.879324 g / cm^3
# Si number density = 28.858925 Si / 1000 Ang^3
#
#
#
# Elastic Constant Matrix: (Units=GPa)
#
#
# Indices 1 2 3 4 5 6 
#
# 1 167.9821 41.3024 54.8046 -5.1473 40.7724 -23.2429
# 2 41.3024 126.9241 40.7072 -23.8049 14.1203 0.4362
# 3 54.8046 40.7072 135.3105 1.4168 41.5946 7.0883
# 4 -5.1473 -23.8049 1.4168 34.1373 5.8069 12.0855
# 5 40.7724 14.1203 41.5946 5.8069 75.1414 -9.4952
# 6 -23.2429 0.4362 7.0883 12.0855 -9.4952 48.1888
#
#
#
# Elastic Compliance Matrix: (Units=1/GPa)
#
#
# Indices 1 2 3 4 5 6 
#
# 1 0.008259 -0.001926 -0.002283 -0.001097 -0.002244 0.004170
# 2 -0.001926 0.010931 -0.002176 0.008646 -0.000858 -0.003045
# 3 -0.002283 -0.002176 0.010576 -0.000283 -0.004625 -0.003478
# 4 -0.001097 0.008646 -0.000283 0.040255 -0.005467 -0.011739
# 5 -0.002244 -0.000858 -0.004625 -0.005467 0.018247 0.004572
# 6 0.004170 -0.003045 -0.003478 -0.011739 0.004572 0.027147
#
#
# Mechanical properties :
#
#
# Convention : Reuss Voigt Hill
#
# Bulk Modulus (GPa) = 58.83334 78.20501 68.51917
# Shear Modulus (GPa) = 37.35492 51.05364 44.20428
#
# Velocity S-wave (km/s) = 3.60168 4.21060 3.91799
# Velocity P-wave (km/s) = 6.14222 7.12719 6.65296
#
# Compressibility (1/GPa) = 0.01699717
#
# Stress axis : x y z
#
# Youngs Moduli (GPa) = 121.07296 91.48492 94.55056
#
# Poissons Ratio (x) = 0.17620 0.21586
# Poissons Ratio (y) = 0.23319 0.20572
# Poissons Ratio (z) = 0.27641 0.19905
#
# Static dielectric constant tensor:
#      x y z
#    x 2.239270 -0.129580 0.055700 
#    y -0.129580 2.313580 0.112290 
#    z 0.055700 0.112290 2.141760 
# 
# From -- ./inp_files/121596.got.cif
#   From: 2010.05.17/outbox.cif.g08.bks.cpg/sg2_61_cif.got.tgz:121596.got - 2010.06.03 11:33:40.
