data_PCOD9004682
_publ_section_title
;
Structure prediction by ZEFSAII (Michael W. Deem and Ramdas Pophale) SiO2 
 PCOD9004682
Probable space group: P -1
;
_chemical_formula_sum "Si O2"
_cell_formula_units_Z 16
_cell_length_a 17.242266
_cell_length_b 8.408546
_cell_length_c 20.507983
_cell_angle_alpha 123.978914
_cell_angle_beta 19.886455
_cell_angle_gamma 131.051488
_cell_volume 742.479051
_symmetry_space_group_name_H-M "P -1"
_symmetry_group_IT_number 2
_symmetry_cell_setting 'triclinic'
loop_
_space_group_symop_operation_xyz
x,y,z
-x,-y,-z
loop_
_atom_site_type_symbol
_atom_site_label
_atom_site_fract_x
_atom_site_fract_y
_atom_site_fract_z
Si Si1 0.402436 0.939725 0.900063
Si Si2 0.885819 0.355025 0.310367
Si Si3 0.034208 0.973228 0.091205
Si Si4 0.170923 0.737762 0.447216
Si Si5 0.602181 0.238272 0.006076
Si Si6 0.507401 0.300941 0.484849
Si Si7 0.473043 0.096442 0.683845
Si Si8 0.319853 0.281658 0.128825
O O1 0.193544 0.897621 0.998561
O O2 0.357877 0.101241 0.019651
O O3 0.394415 0.764615 0.918582
O O4 0.685058 0.077088 0.677482
O O5 0.763152 0.359152 0.338232
O O6 0.638163 0.250781 0.529898
O O7 0.020914 0.197383 0.168172
O O8 0.108897 0.593812 0.206115
O O9 0.174130 0.003405 0.917863
O O10 0.737373 0.800375 0.296138
O O11 0.394972 0.762193 0.323939
O O12 0.000000 0.500000 0.500000
O O13 0.976116 0.782163 0.654893
O O14 0.408872 0.309270 0.139920
O O15 0.500000 0.000000 0.000000
O O16 0.500000 0.500000 0.500000
O O17 0.484640 0.114827 0.409631
O O18 0.500000 0.500000 0.000000
#
# Coordination Sequence:
#
# PCOD9004682 Si02
#       8
#     2   2   2   2   2   2   2   2
#     4  10  21  38  57  88 125 160 208 259 313 373
#     4  11  23  41  66  94 125 169 218 264 317 380
#     4  10  21  41  68  94 125 163 213 262 318 381
#     4  11  22  35  63  92 123 165 213 252 310 375
#     4  10  23  38  59  90 128 168 210 263 321 373
#     4  11  24  43  69  93 130 165 208 267 328 382
#     4  10  23  41  66  98 126 164 219 264 311 385
#     4  11  19  35  59  80 119 166 209 254 305 362
#
# _framework density 21.549429
#
# number of rings (size 3 to 8) (size 9 to 14) (size 15 to 20)
#    0.000    1.500    1.250    5.250    3.500    4.000 
#    0.000    5.000    0.000    0.000    0.000    0.000 
#    0.000    0.000    0.000    0.000    0.000    0.000 
#
# Total GULP energy -89156.440797 kJ/mol
# GULP energy per Si atom -5572.277550 kJ/mol
# Density = 2.150038 g / cm^3
# Si number density = 21.549429 Si / 1000 Ang^3
#
#
#
# Elastic Constant Matrix: (Units=GPa)
#
#
# Indices 1 2 3 4 5 6 
#
# 1 81.9817 19.8638 -1.8806 -8.9015 -9.5997 -14.6658
# 2 19.8638 69.1629 25.1016 -21.6180 2.5205 3.4635
# 3 -1.8806 25.1016 129.6628 -10.8717 17.6695 -2.7902
# 4 -8.9015 -21.6180 -10.8717 25.0958 6.3302 1.8870
# 5 -9.5997 2.5205 17.6695 6.3302 37.6644 -6.5003
# 6 -14.6658 3.4635 -2.7902 1.8870 -6.5003 24.8484
#
#
#
# Elastic Compliance Matrix: (Units=1/GPa)
#
#
# Indices 1 2 3 4 5 6 
#
# 1 0.016692 -0.006629 0.000664 -0.002228 0.006978 0.012845
# 2 -0.006629 0.024423 -0.002316 0.020434 -0.007590 -0.011114
# 3 0.000664 -0.002316 0.009051 0.003249 -0.004411 0.000330
# 4 -0.002228 0.020434 0.003249 0.063143 -0.016290 -0.012855
# 5 0.006978 -0.007590 -0.004411 -0.016290 0.036304 0.015415
# 6 0.012845 -0.011114 0.000330 -0.012855 0.015415 0.054420
#
#
# Mechanical properties :
#
#
# Convention : Reuss Voigt Hill
#
# Bulk Modulus (GPa) = 29.75731 40.77521 35.26626
# Shear Modulus (GPa) = 21.57063 33.36988 27.47025
#
# Velocity S-wave (km/s) = 3.16727 3.93940 3.57425
# Velocity P-wave (km/s) = 5.21673 6.29719 5.78225
#
# Compressibility (1/GPa) = 0.03360518
#
# Stress axis : x y z
#
# Youngs Moduli (GPa) = 59.90788 40.94483 110.48614
#
# Poissons Ratio (x) = 0.27142 -0.07338
# Poissons Ratio (y) = 0.39713 0.25586
# Poissons Ratio (z) = -0.03979 0.09482
#
# Static dielectric constant tensor:
#      x y z
#    x 1.891540 -0.052640 -0.016580 
#    y -0.052640 1.816370 0.007290 
#    z -0.016580 0.007290 1.783810 
# 
# From -- ./inp_files/272795.got.cif
#   From: 2010.05.17/outbox.cif.g08.bks.cpg/sg2_137_cif.got.tgz:272795.got - 2010.06.03 11:33:40.
