data_PCOD9004684
_publ_section_title
;
Structure prediction by ZEFSAII (Michael W. Deem and Ramdas Pophale) SiO2 
 PCOD9004684
Probable space group: P -1
;
_chemical_formula_sum "Si O2"
_cell_formula_units_Z 16
_cell_length_a 24.833760
_cell_length_b 13.330197
_cell_length_c 19.376184
_cell_angle_alpha 31.212674
_cell_angle_beta 18.390024
_cell_angle_gamma 23.406943
_cell_volume 797.648835
_symmetry_space_group_name_H-M "P -1"
_symmetry_group_IT_number 2
_symmetry_cell_setting 'triclinic'
loop_
_space_group_symop_operation_xyz
x,y,z
-x,-y,-z
loop_
_atom_site_type_symbol
_atom_site_label
_atom_site_fract_x
_atom_site_fract_y
_atom_site_fract_z
Si Si1 0.621682 0.532797 0.023009
Si Si2 0.763815 0.005299 0.120031
Si Si3 0.999171 0.211039 0.342268
Si Si4 0.464431 0.323404 0.106532
Si Si5 0.312005 0.992837 0.206827
Si Si6 0.889793 0.792771 0.946648
Si Si7 0.003506 0.432019 0.414357
Si Si8 0.251300 0.283492 0.580030
O O1 0.485853 0.672903 0.035502
O O2 0.812649 0.556366 0.786725
O O3 0.730818 0.244829 0.047622
O O4 0.444771 0.697577 0.203192
O O5 0.517221 0.090758 0.355825
O O6 0.844456 0.813095 0.197746
O O7 0.905444 0.889473 0.945162
O O8 0.007830 0.212917 0.248084
O O9 0.207472 0.147953 0.170407
O O10 0.000000 0.000000 0.500000
O O11 0.373764 0.966030 0.892612
O O12 0.201782 0.468038 0.345632
O O13 0.500000 0.500000 0.000000
O O14 0.121122 0.153353 0.402837
O O15 0.500000 0.000000 0.000000
O O16 0.207098 0.512817 0.540976
O O17 0.000000 0.500000 0.000000
O O18 0.881705 0.616538 0.388013
#
# Coordination Sequence:
#
# PCOD9004684 Si02
#       8
#     2   2   2   2   2   2   2   2
#     4  11  21  38  61  92 121 165 211 260 312 380
#     4  11  22  38  61  88 126 165 211 255 319 375
#     4  11  22  35  63  91 115 156 209 260 310 364
#     4  12  23  40  63  93 123 163 214 264 314 378
#     4   9  20  36  55  87 121 154 199 255 307 361
#     4  12  24  41  63  92 128 165 207 264 324 373
#     4  10  22  38  61  88 126 161 209 262 317 369
#     4  10  21  38  57  89 123 161 208 258 311 379
#
# _framework density 20.058952000000001
#
# number of rings (size 3 to 8) (size 9 to 14) (size 15 to 20)
#    0.000    1.250    5.000    1.125    3.500    0.500 
#    0.000    0.000    0.000    0.750    0.000    0.000 
#    0.000    0.000    0.000    0.000    0.000    0.000 
#
# Total GULP energy -89100.256292 kJ/mol
# GULP energy per Si atom -5568.766018 kJ/mol
# Density = 2.001330 g / cm^3
# Si number density = 20.058952 Si / 1000 Ang^3
#
#
#
# Elastic Constant Matrix: (Units=GPa)
#
#
# Indices 1 2 3 4 5 6 
#
# 1 90.9439 28.6623 27.0084 -10.2608 15.5174 11.7286
# 2 28.6623 134.0321 23.2027 -2.4115 15.1207 7.9374
# 3 27.0084 23.2027 62.1873 6.6781 15.5675 -0.0476
# 4 -10.2608 -2.4115 6.6781 30.8837 1.5667 3.6415
# 5 15.5174 15.1207 15.5675 1.5667 43.0608 2.4601
# 6 11.7286 7.9374 -0.0476 3.6415 2.4601 25.5662
#
#
#
# Elastic Compliance Matrix: (Units=1/GPa)
#
#
# Indices 1 2 3 4 5 6 
#
# 1 0.015601 -0.001341 -0.006417 0.007493 -0.002672 -0.007563
# 2 -0.001341 0.008460 -0.002290 0.001027 -0.001582 -0.002010
# 3 -0.006417 -0.002290 0.021710 -0.007377 -0.004761 0.005204
# 4 0.007493 0.001027 -0.007377 0.037671 -0.001250 -0.009016
# 5 -0.002672 -0.001582 -0.004761 -0.001250 0.026546 -0.000668
# 6 -0.007563 -0.002010 0.005204 -0.009016 -0.000668 0.044566
#
#
# Mechanical properties :
#
#
# Convention : Reuss Voigt Hill
#
# Bulk Modulus (GPa) = 38.94856 49.43445 44.19151
# Shear Modulus (GPa) = 27.29150 33.78814 30.53982
#
# Velocity S-wave (km/s) = 3.69259 4.10865 3.90616
# Velocity P-wave (km/s) = 6.13510 6.87067 6.51328
#
# Compressibility (1/GPa) = 0.02567489
#
# Stress axis : x y z
#
# Youngs Moduli (GPa) = 64.09944 118.20185 46.06243
#
# Poissons Ratio (x) = 0.15854 0.29557
# Poissons Ratio (y) = 0.08597 0.10547
# Poissons Ratio (z) = 0.41131 0.27066
#
# Static dielectric constant tensor:
#      x y z
#    x 1.750530 0.019230 -0.019550 
#    y 0.019230 1.783340 0.028590 
#    z -0.019550 0.028590 1.786930 
# 
# From -- ./inp_files/579160.got.cif
#   From: 2010.05.17/outbox.cif.g08.bks.cpg/sg2_290_cif.got.tgz:579160.got - 2010.06.03 11:33:40.
