data_PCOD9004794
_publ_section_title
;
Structure prediction by ZEFSAII (Michael W. Deem and Ramdas Pophale) SiO2 
 PCOD9004794
Probable space group: P -1
;
_chemical_formula_sum "Si O2"
_cell_formula_units_Z 16
_cell_length_a 9.512656
_cell_length_b 29.740663
_cell_length_c 12.683127
_cell_angle_alpha 24.913558
_cell_angle_beta 35.022253
_cell_angle_gamma 41.298473
_cell_volume 866.919795
_symmetry_space_group_name_H-M "P -1"
_symmetry_group_IT_number 2
_symmetry_cell_setting 'triclinic'
loop_
_space_group_symop_operation_xyz
x,y,z
-x,-y,-z
loop_
_atom_site_type_symbol
_atom_site_label
_atom_site_fract_x
_atom_site_fract_y
_atom_site_fract_z
Si Si1 0.054687 0.191815 0.766178
Si Si2 0.060498 0.190305 0.295126
Si Si3 0.757602 0.993006 0.294149
Si Si4 0.150310 0.402492 0.901360
Si Si5 0.294942 0.625625 0.353432
Si Si6 0.515099 0.123088 0.759429
Si Si7 0.850315 0.327777 0.432446
Si Si8 0.510234 0.136440 0.981882
O O1 0.306610 0.182635 0.692142
O O2 0.853909 0.262775 0.805559
O O3 0.063128 0.258393 0.510470
O O4 0.938605 0.078847 0.050453
O O5 0.785982 0.165216 0.485058
O O6 0.124189 0.123258 0.506494
O O7 0.092199 0.314180 0.037932
O O8 0.258483 0.147865 0.178312
O O9 0.500000 0.000000 0.500000
O O10 0.677952 0.035530 0.137107
O O11 0.174855 0.524157 0.590128
O O12 0.418643 0.370257 0.851990
O O13 0.950913 0.393530 0.134827
O O14 0.271698 0.606187 0.536438
O O15 0.465324 0.131730 0.896178
O O16 0.500000 0.000000 0.000000
O O17 0.660234 0.241229 0.694729
#
# Coordination Sequence:
#
# PCOD9004794 Si02
#       8
#     2   2   2   2   2   2   2   2
#     4   9  20  39  52  83 119 145 186 235 278 327
#     4  11  21  36  58  84 114 148 193 227 284 336
#     4   9  17  35  59  80 108 144 187 235 282 323
#     4  11  18  34  64  91 106 149 185 238 281 331
#     4   9  20  35  59  87 121 133 192 237 281 325
#     4  12  24  39  55  80 117 156 190 227 278 347
#     4   9  18  36  60  84 112 143 187 237 278 325
#     4  10  21  38  59  82 113 150 185 241 280 327
#
# _framework density 18.456147999999999
#
# number of rings (size 3 to 8) (size 9 to 14) (size 15 to 20)
#    0.750    1.250    3.750    1.125    0.000    2.000 
#    2.250    0.625    0.000    0.750    0.000    0.000 
#    0.000    0.000    0.000    0.000    0.000    0.000 
#
# Total GULP energy -89164.422531 kJ/mol
# GULP energy per Si atom -5572.776408 kJ/mol
# Density = 1.841414 g / cm^3
# Si number density = 18.456148 Si / 1000 Ang^3
#
#
#
# Elastic Constant Matrix: (Units=GPa)
#
#
# Indices 1 2 3 4 5 6 
#
# 1 88.8733 17.9937 22.1198 6.6321 -14.5778 7.7467
# 2 17.9937 60.7601 16.9166 -0.9380 -9.0518 10.3456
# 3 22.1198 16.9166 63.9428 5.7487 -19.6775 7.2615
# 4 6.6321 -0.9380 5.7487 34.6483 2.0707 -7.2599
# 5 -14.5778 -9.0518 -19.6775 2.0707 20.2310 -1.3766
# 6 7.7467 10.3456 7.2615 -7.2599 -1.3766 19.3603
#
#
#
# Elastic Compliance Matrix: (Units=1/GPa)
#
#
# Indices 1 2 3 4 5 6 
#
# 1 0.013999 -0.001814 -0.000710 -0.004247 0.008655 -0.005343
# 2 -0.001814 0.019846 -0.001876 -0.001044 0.005229 -0.009195
# 3 -0.000710 -0.001876 0.025315 -0.007472 0.023400 -0.009347
# 4 -0.004247 -0.001044 -0.007472 0.035314 -0.013228 0.017362
# 5 0.008655 0.005229 0.023400 -0.013228 0.081152 -0.014225
# 6 -0.005343 -0.009195 -0.009347 0.017362 -0.014225 0.067708
#
#
# Mechanical properties :
#
#
# Convention : Reuss Voigt Hill
#
# Bulk Modulus (GPa) = 19.85720 36.40404 28.13062
# Shear Modulus (GPa) = 18.59280 25.28431 21.93855
#
# Velocity S-wave (km/s) = 3.17741 3.70532 3.45147
# Velocity P-wave (km/s) = 4.92379 6.17036 5.58198
#
# Compressibility (1/GPa) = 0.05035958
#
# Stress axis : x y z
#
# Youngs Moduli (GPa) = 71.43616 50.38735 39.50198
#
# Poissons Ratio (x) = 0.09141 0.02806
# Poissons Ratio (y) = 0.12960 0.07409
# Poissons Ratio (z) = 0.05075 0.09451
#
# Static dielectric constant tensor:
#      x y z
#    x 1.616950 -0.003200 0.014600 
#    y -0.003200 1.673470 -0.010880 
#    z 0.014600 -0.010880 1.648160 
# 
# From -- ./inp_files/407104.got.cif
#   From: 2010.05.17/outbox.cif.g08.bks.cpg/sg2_204_cif.got.tgz:407104.got - 2010.06.03 11:33:40.
