data_PCOD9004911
_publ_section_title
;
Structure prediction by ZEFSAII (Michael W. Deem and Ramdas Pophale) SiO2 
 PCOD9004911
Probable space group: P -1
;
_chemical_formula_sum "Si O2"
_cell_formula_units_Z 16
_cell_length_a 8.800420
_cell_length_b 7.901049
_cell_length_c 12.613583
_cell_angle_alpha 74.727126
_cell_angle_beta 81.821030
_cell_angle_gamma 122.905666
_cell_volume 664.785606
_symmetry_space_group_name_H-M "P -1"
_symmetry_group_IT_number 2
_symmetry_cell_setting 'triclinic'
loop_
_space_group_symop_operation_xyz
x,y,z
-x,-y,-z
loop_
_atom_site_type_symbol
_atom_site_label
_atom_site_fract_x
_atom_site_fract_y
_atom_site_fract_z
Si Si1 0.906640 0.895567 0.239517
Si Si2 0.589884 0.419119 0.352575
Si Si3 0.851096 0.350816 0.446794
Si Si4 0.145994 0.721457 0.239805
Si Si5 0.483132 0.132889 0.218909
Si Si6 0.193122 0.067690 0.525153
Si Si7 0.193790 0.644764 0.027402
Si Si8 0.291843 0.332101 0.107139
O O1 0.708650 0.668430 0.253107
O O2 0.841951 0.953014 0.341838
O O3 0.017299 0.795339 0.278313
O O4 0.077341 0.116342 0.122438
O O5 0.692819 0.392443 0.444873
O O6 0.593801 0.265466 0.290736
O O7 0.374758 0.310118 0.430227
O O8 0.000000 0.500000 0.500000
O O9 0.000615 0.461541 0.314236
O O10 0.765073 0.097785 0.495780
O O11 0.186372 0.777412 0.102021
O O12 0.339076 0.868622 0.265768
O O13 0.353474 0.219756 0.198929
O O14 0.634163 0.210579 0.096457
O O15 0.000000 0.000000 0.500000
O O16 0.241062 0.496925 0.109364
O O17 0.000000 0.500000 0.000000
O O18 0.500000 0.500000 0.000000
#
# Coordination Sequence:
#
# PCOD9004911 Si02
#       8
#     2   2   2   2   2   2   2   2
#     4  10  21  38  59  90 124 161 211 262 313 380
#     4  11  23  42  64  92 128 170 216 269 324 386
#     4  11  23  41  64  92 127 166 211 268 328 389
#     4  10  21  39  61  89 124 164 210 264 321 383
#     4  10  21  41  63  88 125 166 211 265 322 387
#     4  12  23  39  63  90 126 170 212 262 320 385
#     4  11  21  38  63  93 124 163 210 263 325 387
#     4   9  20  40  63  88 123 162 206 261 322 381
#
# _framework density 24.067912
#
# number of rings (size 3 to 8) (size 9 to 14) (size 15 to 20)
#    0.000    1.500    0.000    7.125    0.000    0.000 
#    0.000   15.000    0.000    0.000    0.000    0.000 
#    0.000    0.000    0.000    0.000    0.000    0.000 
#
# Total GULP energy -89119.104117 kJ/mol
# GULP energy per Si atom -5569.944007 kJ/mol
# Density = 2.401313 g / cm^3
# Si number density = 24.067912 Si / 1000 Ang^3
#
#
#
# Elastic Constant Matrix: (Units=GPa)
#
#
# Indices 1 2 3 4 5 6 
#
# 1 57.5432 8.6926 13.1487 -5.7842 -16.6676 17.0549
# 2 8.6926 122.4885 42.9020 -17.4091 -22.1730 20.2677
# 3 13.1487 42.9020 75.8381 -7.5396 -31.8514 9.2833
# 4 -5.7842 -17.4091 -7.5396 54.6451 5.1828 -5.0982
# 5 -16.6676 -22.1730 -31.8514 5.1828 32.1914 -4.1132
# 6 17.0549 20.2677 9.2833 -5.0982 -4.1132 33.0845
#
#
#
# Elastic Compliance Matrix: (Units=1/GPa)
#
#
# Indices 1 2 3 4 5 6 
#
# 1 0.024730 0.002427 0.002289 0.001092 0.014922 -0.012854
# 2 0.002427 0.011587 -0.004428 0.002404 0.003667 -0.006281
# 3 0.002289 -0.004428 0.025142 -0.000104 0.022682 -0.002718
# 4 0.001092 0.002404 -0.000104 0.019331 -0.000884 0.000863
# 5 0.014922 0.003667 0.022682 -0.000884 0.062798 -0.008632
# 6 -0.012854 -0.006281 -0.002718 0.000863 -0.008632 0.040522
#
#
# Mechanical properties :
#
#
# Convention : Reuss Voigt Hill
#
# Bulk Modulus (GPa) = 16.11979 42.81736 29.46858
# Shear Modulus (GPa) = 24.48408 36.72598 30.60503
#
# Velocity S-wave (km/s) = 3.19296 3.91055 3.56983
# Velocity P-wave (km/s) = 4.50616 6.18213 5.40945
#
# Compressibility (1/GPa) = 0.06203553
#
# Stress axis : x y z
#
# Youngs Moduli (GPa) = 40.43599 86.30081 39.77332
#
# Poissons Ratio (x) = -0.20942 -0.09103
# Poissons Ratio (y) = -0.09812 0.17611
# Poissons Ratio (z) = -0.09255 0.38213
#
# Static dielectric constant tensor:
#      x y z
#    x 1.906260 0.052790 0.016190 
#    y 0.052790 2.079270 -0.082480 
#    z 0.016190 -0.082480 2.034420 
# 
# From -- ./inp_files/492762.got.cif
#   From: 2010.05.17/outbox.cif.g08.bks.cpg/sg2_247_cif.got.tgz:492762.got - 2010.06.03 11:33:40.
