data_PCOD9004607
_publ_section_title
;
Structure prediction by ZEFSAII (Michael W. Deem and Ramdas Pophale) SiO2 
 PCOD9004607
Probable space group: P -1
;
_chemical_formula_sum "Si O2"
_cell_formula_units_Z 14
_cell_length_a 14.055756
_cell_length_b 9.459010
_cell_length_c 15.474554
_cell_angle_alpha 82.347558
_cell_angle_beta 30.521318
_cell_angle_gamma 105.496725
_cell_volume 674.571125
_symmetry_space_group_name_H-M "P -1"
_symmetry_group_IT_number 2
_symmetry_cell_setting 'triclinic'
loop_
_space_group_symop_operation_xyz
x,y,z
-x,-y,-z
loop_
_atom_site_type_symbol
_atom_site_label
_atom_site_fract_x
_atom_site_fract_y
_atom_site_fract_z
Si Si1 0.662940 0.221913 0.964956
Si Si2 0.757042 0.015752 0.016242
Si Si3 0.333588 0.223506 0.739699
Si Si4 0.798624 0.603723 0.788869
Si Si5 0.410538 0.334442 0.486296
Si Si6 0.930036 0.972148 0.368938
Si Si7 0.940267 0.201220 0.607622
O O1 0.748961 0.432936 0.896130
O O2 0.896090 0.282943 0.714497
O O3 0.638243 0.099035 0.073853
O O4 0.365041 0.044010 0.160142
O O5 0.096244 0.227587 0.757233
O O6 0.590207 0.840482 0.237687
O O7 0.797982 0.934891 0.907258
O O8 0.485443 0.302162 0.520721
O O9 0.381468 0.414183 0.717154
O O10 0.000000 0.000000 0.000000
O O11 0.982617 0.827965 0.676634
O O12 0.948330 0.656862 0.575872
O O13 0.500000 0.500000 0.000000
O O14 0.333347 0.186421 0.479633
O O15 0.875051 0.824991 0.499498
#
# Coordination Sequence:
#
# PCOD9004607 Si02
#       7
#     2   2   2   2   2   2   2
#     4  10  21  38  55  78 112 150 194 228 269 323
#     4   8  18  33  53  82 108 140 180 229 270 326
#     4   9  15  31  55  82 107 135 174 232 279 323
#     4  12  23  35  55  78 113 159 187 227 274 323
#     4   8  17  31  52  84 109 133 179 232 272 326
#     4   9  19  35  50  81 111 139 185 224 274 323
#     4  10  21  39  53  76 114 149 193 233 266 319
#
# _framework density 20.753927999999998
#
# number of rings (size 3 to 8) (size 9 to 14) (size 15 to 20)
#    0.857    1.714    1.429    0.857    0.000    2.286 
#    0.000    0.000    0.000    0.857    0.000    6.000 
#    0.000    0.000    0.000    0.000    0.000    0.000 
#
# Total GULP energy -77994.059818 kJ/mol
# GULP energy per Si atom -5571.004273 kJ/mol
# Density = 2.070669 g / cm^3
# Si number density = 20.753928 Si / 1000 Ang^3
#
#
#
# Elastic Constant Matrix: (Units=GPa)
#
#
# Indices 1 2 3 4 5 6 
#
# 1 93.5503 41.1359 27.6097 -12.1621 45.0331 -1.2876
# 2 41.1359 85.9610 31.7617 -23.8299 14.1563 -3.4524
# 3 27.6097 31.7617 52.1137 -15.1639 18.8807 -5.1600
# 4 -12.1621 -23.8299 -15.1639 19.2254 -6.6002 2.1007
# 5 45.0331 14.1563 18.8807 -6.6002 36.6652 -12.8028
# 6 -1.2876 -3.4524 -5.1600 2.1007 -12.8028 24.9216
#
#
#
# Elastic Compliance Matrix: (Units=1/GPa)
#
#
# Indices 1 2 3 4 5 6 
#
# 1 0.047431 -0.016220 0.003745 -0.006399 -0.066466 -0.032627
# 2 -0.016220 0.024733 -0.007104 0.021019 0.021429 0.010354
# 3 0.003745 -0.007104 0.030936 0.012592 -0.016976 -0.004168
# 4 -0.006399 0.021019 0.012592 0.087048 0.009966 0.002971
# 5 -0.066466 0.021429 -0.016976 0.009966 0.133421 0.063721
# 6 -0.032627 0.010354 -0.004168 0.002971 0.063721 0.071496
#
#
# Mechanical properties :
#
#
# Convention : Reuss Voigt Hill
#
# Bulk Modulus (GPa) = 15.63888 48.07107 31.85498
# Shear Modulus (GPa) = 10.97608 24.90363 17.93986
#
# Velocity S-wave (km/s) = 2.30221 3.46778 2.94327
# Velocity P-wave (km/s) = 3.82343 6.26472 5.18967
#
# Compressibility (1/GPa) = 0.06394318
#
# Stress axis : x y z
#
# Youngs Moduli (GPa) = 21.08343 40.43151 32.32493
#
# Poissons Ratio (x) = 0.65578 -0.12105
# Poissons Ratio (y) = 0.34196 0.22962
# Poissons Ratio (z) = -0.07896 0.28721
#
# Static dielectric constant tensor:
#      x y z
#    x 1.787890 0.011790 0.012340 
#    y 0.011790 1.739190 0.035180 
#    z 0.012340 0.035180 1.794210 
# 
# From -- ./inp_files/528475.got.cif
#   From: 2010.05.17/outbox.cif.g08.bks.cpg/sg2_265_cif.got.tgz:528475.got - 2010.06.03 11:33:40.
