data_PCOD9004738
_publ_section_title
;
Structure prediction by ZEFSAII (Michael W. Deem and Ramdas Pophale) SiO2 
 PCOD9004738
Probable space group: P -1
;
_chemical_formula_sum "Si O2"
_cell_formula_units_Z 16
_cell_length_a 7.095955
_cell_length_b 11.416720
_cell_length_c 8.441958
_cell_angle_alpha 95.926670
_cell_angle_beta 82.030568
_cell_angle_gamma 74.937174
_cell_volume 647.054002
_symmetry_space_group_name_H-M "P -1"
_symmetry_group_IT_number 2
_symmetry_cell_setting 'triclinic'
loop_
_space_group_symop_operation_xyz
x,y,z
-x,-y,-z
loop_
_atom_site_type_symbol
_atom_site_label
_atom_site_fract_x
_atom_site_fract_y
_atom_site_fract_z
Si Si1 0.187555 0.664723 0.267283
Si Si2 0.976561 0.546972 0.689285
Si Si3 0.188214 0.197719 0.127540
Si Si4 0.888998 0.922532 0.306972
Si Si5 0.488795 0.774971 0.124601
Si Si6 0.669638 0.381975 0.403932
Si Si7 0.243174 0.847541 0.847821
Si Si8 0.715057 0.996842 0.659264
O O1 0.121087 0.544144 0.221654
O O2 0.399297 0.664878 0.169626
O O3 0.214785 0.674259 0.455955
O O4 0.011372 0.781654 0.250668
O O5 0.845700 0.684751 0.738754
O O6 0.000000 0.500000 0.500000
O O7 0.191826 0.558120 0.712714
O O8 0.315454 0.086879 0.203990
O O9 0.977657 0.171213 0.115097
O O10 0.296027 0.233469 0.967610
O O11 0.743428 0.936291 0.475931
O O12 0.777696 0.016983 0.198895
O O13 0.069891 0.981008 0.333269
O O14 0.438265 0.870484 0.288015
O O15 0.347032 0.833301 0.002122
O O16 0.500000 0.500000 0.500000
O O17 0.639896 0.265613 0.295501
#
# Coordination Sequence:
#
# PCOD9004738 Si02
#       8
#     2   2   2   2   2   2   2   2
#     4  10  21  39  63  91 116 165 202 241 312 355
#     4   9  19  37  62  84 111 161 200 241 305 351
#     4  10  21  38  58  86 127 160 196 252 302 362
#     4   9  17  36  66  84 121 156 203 255 295 357
#     4  11  23  37  62  91 124 161 201 246 304 368
#     4  10  21  40  64  89 120 154 203 257 296 356
#     4  10  22  40  62  91 120 161 203 249 308 349
#     4   9  17  34  60  86 114 159 199 242 304 349
#
# _framework density 24.727457999999999
#
# number of rings (size 3 to 8) (size 9 to 14) (size 15 to 20)
#    0.000    2.250    0.000    4.875    3.500    5.000 
#    2.250    1.875    5.500    0.000    0.000    0.875 
#    0.000    0.000    0.000    0.000    0.000    0.000 
#
# Total GULP energy -89406.416970 kJ/mol
# GULP energy per Si atom -5587.901061 kJ/mol
# Density = 2.467118 g / cm^3
# Si number density = 24.727458 Si / 1000 Ang^3
#
#
#
# Elastic Constant Matrix: (Units=GPa)
#
#
# Indices 1 2 3 4 5 6 
#
# 1 87.5842 32.4843 24.4802 -9.0111 -6.6566 8.5765
# 2 32.4843 109.5486 10.1864 -0.5226 -0.9175 19.2133
# 3 24.4802 10.1864 73.3131 -4.3507 -12.2251 1.7402
# 4 -9.0111 -0.5226 -4.3507 34.7836 1.1501 -12.2829
# 5 -6.6566 -0.9175 -12.2251 1.1501 48.8290 -7.2653
# 6 8.5765 19.2133 1.7402 -12.2829 -7.2653 30.7430
#
#
#
# Elastic Compliance Matrix: (Units=1/GPa)
#
#
# Indices 1 2 3 4 5 6 
#
# 1 0.014333 -0.003885 -0.003920 0.003179 0.000843 0.000120
# 2 -0.003885 0.011720 -0.000623 -0.003701 -0.001577 -0.008057
# 3 -0.003920 -0.000623 0.015688 0.001550 0.003654 0.002078
# 4 0.003179 -0.003701 0.001550 0.035277 0.002298 0.015976
# 5 0.000843 -0.001577 0.003654 0.002298 0.022432 0.006763
# 6 0.000120 -0.008057 0.002078 0.015976 0.006763 0.045393
#
#
# Mechanical properties :
#
#
# Convention : Reuss Voigt Hill
#
# Bulk Modulus (GPa) = 40.18213 44.97199 42.57706
# Shear Modulus (GPa) = 29.41288 36.42410 32.91849
#
# Velocity S-wave (km/s) = 3.45263 3.84216 3.65259
# Velocity P-wave (km/s) = 5.67270 6.15707 5.91984
#
# Compressibility (1/GPa) = 0.02488669
#
# Stress axis : x y z
#
# Youngs Moduli (GPa) = 69.76720 85.32079 63.74459
#
# Poissons Ratio (x) = 0.33144 0.24988
# Poissons Ratio (y) = 0.27102 0.03969
# Poissons Ratio (z) = 0.27349 0.05313
#
# Static dielectric constant tensor:
#      x y z
#    x 2.040520 0.007020 -0.021850 
#    y 0.007020 1.952250 -0.016810 
#    z -0.021850 -0.016810 2.001760 
# 
# From -- ./inp_files/187417.got.cif
#   From: 2010.05.17/outbox.cif.g08.bks.cpg/sg2_94_cif.got.tgz:187417.got - 2010.06.03 11:33:40.
