data_PCOD9004270
_publ_section_title
;
Structure prediction by ZEFSAII (Michael W. Deem and Ramdas Pophale) SiO2 
 PCOD9004270
Probable space group: P -1
;
_chemical_formula_sum "Si O2"
_cell_formula_units_Z 14
_cell_length_a 16.675197
_cell_length_b 19.602408
_cell_length_c 7.539240
_cell_angle_alpha 125.283235
_cell_angle_beta 44.353648
_cell_angle_gamma 159.688986
_cell_volume 552.395528
_symmetry_space_group_name_H-M "P -1"
_symmetry_group_IT_number 2
_symmetry_cell_setting 'triclinic'
loop_
_space_group_symop_operation_xyz
x,y,z
-x,-y,-z
loop_
_atom_site_type_symbol
_atom_site_label
_atom_site_fract_x
_atom_site_fract_y
_atom_site_fract_z
Si Si1 0.647610 0.114740 0.682214
Si Si2 0.788176 0.746844 0.896329
Si Si3 0.067241 0.841634 0.870777
Si Si4 0.227817 0.624546 0.178733
Si Si5 0.967213 0.345876 0.877389
Si Si6 0.975466 0.956986 0.256684
Si Si7 0.386634 0.551572 0.782313
O O1 0.570059 0.159203 0.831548
O O2 0.911229 0.300772 0.689242
O O3 0.759847 0.129197 0.370116
O O4 0.357953 0.880021 0.867882
O O5 0.789280 0.815470 0.156483
O O6 0.500000 0.500000 0.000000
O O7 0.037751 0.849900 0.722694
O O8 0.858330 0.846285 0.760211
O O9 0.755100 0.613603 0.117164
O O10 0.153194 0.988830 0.037916
O O11 0.000000 0.500000 0.500000
O O12 0.321469 0.595555 0.046309
O O13 0.107357 0.520830 0.015698
O O14 0.177667 0.415025 0.731918
O O15 0.721928 0.785878 0.546202
#
# Coordination Sequence:
#
# PCOD9004270 Si02
#       7
#     2   2   2   2   2   2   2
#     4  11  20  42  59  96 123 167 224 252 321 376
#     4   9  21  41  62  91 121 165 211 258 316 383
#     4  10  21  37  65  91 131 163 207 269 313 387
#     4  10  21  39  59  87 128 166 209 258 317 370
#     4   9  24  37  63  90 124 173 211 268 308 378
#     4   9  21  41  62  92 123 164 209 258 324 377
#     4  10  21  40  63  92 130 168 205 268 318 377
#
# _framework density 25.344158
#
# number of rings (size 3 to 8) (size 9 to 14) (size 15 to 20)
#    1.714    0.571    1.429    0.857    2.000    4.571 
#    2.571    2.143    0.000    0.000    0.000    0.000 
#    0.000    0.000    0.000    0.000    0.000    0.000 
#
# Total GULP energy -77961.858862 kJ/mol
# GULP energy per Si atom -5568.704204 kJ/mol
# Density = 2.528647 g / cm^3
# Si number density = 25.344158 Si / 1000 Ang^3
#
#
#
# Elastic Constant Matrix: (Units=GPa)
#
#
# Indices 1 2 3 4 5 6 
#
# 1 102.8072 34.2353 19.8629 1.0642 14.2065 -18.1331
# 2 34.2353 157.1140 14.9956 4.1647 3.7838 -20.3536
# 3 19.8629 14.9956 68.0702 2.2302 6.3122 -16.3606
# 4 1.0642 4.1647 2.2302 34.7284 -4.8655 -1.6243
# 5 14.2065 3.7838 6.3122 -4.8655 37.5742 6.5022
# 6 -18.1331 -20.3536 -16.3606 -1.6243 6.5022 44.2506
#
#
#
# Elastic Compliance Matrix: (Units=1/GPa)
#
#
# Indices 1 2 3 4 5 6 
#
# 1 0.012068 -0.001795 -0.001641 -0.000539 -0.004906 0.004214
# 2 -0.001795 0.007142 -0.000391 -0.000731 -0.000494 0.002451
# 3 -0.001641 -0.000391 0.017024 -0.001193 -0.003375 0.005894
# 4 -0.000539 -0.000731 -0.001193 0.029566 0.004404 -0.000560
# 5 -0.004906 -0.000494 -0.003375 0.004404 0.031020 -0.007882
# 6 0.004214 0.002451 0.005894 -0.000560 -0.007882 0.028770
#
#
# Mechanical properties :
#
#
# Convention : Reuss Voigt Hill
#
# Bulk Modulus (GPa) = 34.98689 51.79766 43.39227
# Shear Modulus (GPa) = 35.02128 40.57047 37.79587
#
# Velocity S-wave (km/s) = 3.72133 4.00532 3.86593
# Velocity P-wave (km/s) = 5.68323 6.47087 6.08980
#
# Compressibility (1/GPa) = 0.02858214
#
# Stress axis : x y z
#
# Youngs Moduli (GPa) = 82.86099 140.01794 58.73949
#
# Poissons Ratio (x) = 0.25129 0.09637
# Poissons Ratio (y) = 0.14871 0.02296
# Poissons Ratio (z) = 0.13595 0.05473
#
# Static dielectric constant tensor:
#      x y z
#    x 2.322120 0.061770 0.003420 
#    y 0.061770 2.041250 0.061810 
#    z 0.003420 0.061810 2.006970 
# 
# From -- ./inp_files/349095.got.cif
#   From: 2010.05.17/outbox.cif.g08.bks.cpg/sg2_175_cif.got.tgz:349095.got - 2010.06.03 11:33:40.
