data_PCOD9004466
_publ_section_title
;
Structure prediction by ZEFSAII (Michael W. Deem and Ramdas Pophale) SiO2 
 PCOD9004466
Probable space group: P -1
;
_chemical_formula_sum "Si O2"
_cell_formula_units_Z 16
_cell_length_a 8.174181
_cell_length_b 12.807548
_cell_length_c 17.290504
_cell_angle_alpha 31.068793
_cell_angle_beta 119.818993
_cell_angle_gamma 129.650231
_cell_volume 713.706723
_symmetry_space_group_name_H-M "P -1"
_symmetry_group_IT_number 2
_symmetry_cell_setting 'triclinic'
loop_
_space_group_symop_operation_xyz
x,y,z
-x,-y,-z
loop_
_atom_site_type_symbol
_atom_site_label
_atom_site_fract_x
_atom_site_fract_y
_atom_site_fract_z
Si Si1 0.907254 0.799463 0.373808
Si Si2 0.124362 0.126307 0.846528
Si Si3 0.171766 0.685481 0.151231
Si Si4 0.561236 0.453463 0.794701
Si Si5 0.239206 0.806589 0.648741
Si Si6 0.787136 0.301552 0.673828
Si Si7 0.635046 0.812436 0.445873
Si Si8 0.319237 0.167912 0.299691
O O1 0.789158 0.792286 0.271439
O O2 0.941104 0.574872 0.524125
O O3 0.766772 0.784073 0.424649
O O4 0.125946 0.037477 0.278009
O O5 0.307561 0.292361 0.843075
O O6 0.918828 0.163724 0.781695
O O7 0.090613 0.872406 0.007823
O O8 0.330704 0.698383 0.112237
O O9 0.281477 0.721362 0.238173
O O10 0.971200 0.432072 0.260206
O O11 0.600173 0.633461 0.619832
O O12 0.659575 0.605540 0.797349
O O13 0.452551 0.779350 0.714540
O O14 0.237618 0.938689 0.642261
O O15 0.264099 0.975872 0.475944
O O16 0.589610 0.225895 0.617476
#
# Coordination Sequence:
#
# PCOD9004466 Si02
#       8
#     2   2   2   2   2   2   2   2
#     4  12  22  41  64  96 123 162 213 258 307 359
#     4  12  27  40  62  94 131 166 204 254 313 374
#     4  12  24  44  62  92 131 168 201 251 318 377
#     4  11  22  40  65  95 126 162 208 258 310 364
#     4  10  21  39  64  94 126 160 206 259 312 361
#     4  12  23  41  65  91 125 165 212 255 304 364
#     4  11  22  39  68  97 120 159 214 265 302 357
#     4  10  21  37  67  96 120 158 214 262 301 361
#
# _framework density 22.418171000000001
#
# number of rings (size 3 to 8) (size 9 to 14) (size 15 to 20)
#    0.000    0.750    3.750    4.500    3.500    2.000 
#    0.000    6.250    0.000    0.000    0.000    0.000 
#    0.000    0.000    0.000    0.000    0.000    0.000 
#
# Total GULP energy -89583.982613 kJ/mol
# GULP energy per Si atom -5598.998913 kJ/mol
# Density = 2.236715 g / cm^3
# Si number density = 22.418171 Si / 1000 Ang^3
#
#
#
# Elastic Constant Matrix: (Units=GPa)
#
#
# Indices 1 2 3 4 5 6 
#
# 1 71.8386 4.3013 15.4560 -1.6118 20.9197 2.5160
# 2 4.3013 90.3692 29.5191 -18.2713 12.6903 0.2655
# 3 15.4560 29.5191 65.2760 -12.9701 22.2964 -9.3298
# 4 -1.6118 -18.2713 -12.9701 18.5821 -5.7895 1.2548
# 5 20.9197 12.6903 22.2964 -5.7895 17.4955 0.1867
# 6 2.5160 0.2655 -9.3298 1.2548 0.1867 40.0755
#
#
#
# Elastic Compliance Matrix: (Units=1/GPa)
#
#
# Indices 1 2 3 4 5 6 
#
# 1 0.023616 0.001417 0.006072 -0.004310 -0.038434 0.000236
# 2 0.001417 0.015048 -0.003687 0.011125 -0.004215 -0.001376
# 3 0.006072 -0.003687 0.033052 0.005459 -0.044981 0.007377
# 4 -0.004310 0.011125 0.005459 0.072669 0.014183 -0.000874
# 5 -0.038434 -0.004215 -0.044981 0.014183 0.168288 -0.009259
# 6 0.000236 -0.001376 0.007377 -0.000874 -0.009259 0.026735
#
#
# Mechanical properties :
#
#
# Convention : Reuss Voigt Hill
#
# Bulk Modulus (GPa) = 12.60680 36.22629 24.41654
# Shear Modulus (GPa) = 13.95702 27.11111 20.53406
#
# Velocity S-wave (km/s) = 2.49785 3.48132 3.02976
# Velocity P-wave (km/s) = 3.73560 5.68805 4.81189
#
# Compressibility (1/GPa) = 0.07932229
#
# Stress axis : x y z
#
# Youngs Moduli (GPa) = 42.34443 66.45432 30.25499
#
# Poissons Ratio (x) = -0.09420 -0.18372
# Poissons Ratio (y) = -0.06002 0.11155
# Poissons Ratio (z) = -0.25713 0.24501
#
# Static dielectric constant tensor:
#      x y z
#    x 1.835460 -0.011230 -0.011840 
#    y -0.011230 1.814520 0.001350 
#    z -0.011840 0.001350 1.817460 
# 
# From -- ./inp_files/184400.got.cif
#   From: 2010.05.17/outbox.cif.g08.bks.cpg/sg2_93_cif.got.tgz:184400.got - 2010.06.03 11:33:40.
