data_PCOD9004673
_publ_section_title
;
Structure prediction by ZEFSAII (Michael W. Deem and Ramdas Pophale) SiO2 
 PCOD9004673
Probable space group: P -1
;
_chemical_formula_sum "Si O2"
_cell_formula_units_Z 13
_cell_length_a 5.804879
_cell_length_b 5.330876
_cell_length_c 18.380696
_cell_angle_alpha 119.826206
_cell_angle_beta 84.001844
_cell_angle_gamma 90.426961
_cell_volume 490.093646
_symmetry_space_group_name_H-M "P -1"
_symmetry_group_IT_number 2
_symmetry_cell_setting 'triclinic'
loop_
_space_group_symop_operation_xyz
x,y,z
-x,-y,-z
loop_
_atom_site_type_symbol
_atom_site_label
_atom_site_fract_x
_atom_site_fract_y
_atom_site_fract_z
Si Si1 0.793373 0.731161 0.832555
Si Si2 0.468601 0.327775 0.367050
Si Si3 0.801274 0.971882 0.217832
Si Si4 0.814592 0.252735 0.482238
Si Si5 0.097431 0.838045 0.329600
Si Si6 0.500000 0.000000 0.000000
Si Si7 0.114112 0.569556 0.930442
O O1 0.783047 0.476644 0.735996
O O2 0.982121 0.934699 0.822559
O O3 0.911381 0.592881 0.881450
O O4 0.570276 0.899419 0.897251
O O5 0.625719 0.241560 0.280046
O O6 0.637089 0.289723 0.425784
O O7 0.339658 0.644407 0.427939
O O8 0.281065 0.081802 0.343849
O O9 0.709979 0.691723 0.140542
O O10 0.903092 0.870533 0.277559
O O11 0.000000 0.500000 0.500000
O O12 0.948593 0.939803 0.420749
O O13 0.744375 0.150542 0.022652
O O14 0.000000 0.500000 0.000000
#
# Coordination Sequence:
#
# PCOD9004673 Si02
#       7
#     2   2   2   2   2   1   2
#     4  11  24  41  59  88 121 158 206 255 303 372
#     4   9  16  32  59  85 115 159 196 242 302 354
#     4  10  21  38  57  85 123 154 199 253 299 357
#     4   8  15  30  58  88 116 154 199 240 298 355
#     4   9  19  36  57  84 118 157 198 249 299 355
#     4  12  24  40  64  86 114 164 202 246 316 356
#     4  11  24  44  62  89 122 157 206 258 306 365
#
# _framework density 26.525547
#
# number of rings (size 3 to 8) (size 9 to 14) (size 15 to 20)
#    0.000    2.154    1.538    1.385    0.000    1.846 
#    0.000    0.769    0.000   31.385    0.000    0.000 
#    0.000    0.000    0.000    0.000    0.000    0.000 
#
# Total GULP energy -72487.225881 kJ/mol
# GULP energy per Si atom -5575.940452 kJ/mol
# Density = 2.646517 g / cm^3
# Si number density = 26.525547 Si / 1000 Ang^3
#
#
#
# Elastic Constant Matrix: (Units=GPa)
#
#
# Indices 1 2 3 4 5 6 
#
# 1 90.7650 12.3181 46.7496 13.1247 -14.9437 -6.1732
# 2 12.3181 26.2669 23.2430 0.4713 -8.9986 -5.5474
# 3 46.7496 23.2430 239.7516 5.8360 -37.2995 -1.5038
# 4 13.1247 0.4713 5.8360 43.3468 5.9359 -6.1012
# 5 -14.9437 -8.9986 -37.2995 5.9359 62.0511 -7.3378
# 6 -6.1732 -5.5474 -1.5038 -6.1012 -7.3378 40.5746
#
#
#
# Elastic Compliance Matrix: (Units=1/GPa)
#
#
# Indices 1 2 3 4 5 6 
#
# 1 0.013458 -0.003610 -0.001839 -0.003900 0.002137 0.001286
# 2 -0.003610 0.045318 -0.002969 0.001298 0.004569 0.006558
# 3 -0.001839 -0.002969 0.005179 -0.000440 0.002264 -0.000150
# 4 -0.003900 0.001298 -0.000440 0.025110 -0.003088 0.002785
# 5 0.002137 0.004569 0.002264 -0.003088 0.019432 0.004084
# 6 0.001286 0.006558 -0.000150 0.002785 0.004084 0.026890
#
#
# Mechanical properties :
#
#
# Convention : Reuss Voigt Hill
#
# Bulk Modulus (GPa) = 21.22277 57.93385 39.57831
# Shear Modulus (GPa) = 29.77419 47.49270 38.63345
#
# Velocity S-wave (km/s) = 3.35397 4.23596 3.82050
# Velocity P-wave (km/s) = 4.79761 6.76851 5.86642
#
# Compressibility (1/GPa) = 0.04711920
#
# Stress axis : x y z
#
# Youngs Moduli (GPa) = 74.30698 22.06618 193.07419
#
# Poissons Ratio (x) = 0.07967 0.35499
# Poissons Ratio (y) = 0.26828 0.57324
# Poissons Ratio (z) = 0.13662 0.06551
#
# Static dielectric constant tensor:
#      x y z
#    x 1.926410 -0.058330 -0.022500 
#    y -0.058330 2.066130 -0.008600 
#    z -0.022500 -0.008600 2.163680 
# 
# From -- ./inp_files/4644.got.cif
#   From: 2010.05.17/outbox.cif.g08.bks.cpg/sg2_3_cif.got.tgz:4644.got - 2010.06.03 11:33:40.
