data_PCOD9004060
_publ_section_title
;
Structure prediction by ZEFSAII (Michael W. Deem and Ramdas Pophale) SiO2 
 PCOD9004060
Probable space group: P -1
;
_chemical_formula_sum "Si O2"
_cell_formula_units_Z 14
_cell_length_a 5.129185
_cell_length_b 23.049629
_cell_length_c 23.006396
_cell_angle_alpha 168.173856
_cell_angle_beta 64.308125
_cell_angle_gamma 115.924942
_cell_volume 501.104975
_symmetry_space_group_name_H-M "P -1"
_symmetry_group_IT_number 2
_symmetry_cell_setting 'triclinic'
loop_
_space_group_symop_operation_xyz
x,y,z
-x,-y,-z
loop_
_atom_site_type_symbol
_atom_site_label
_atom_site_fract_x
_atom_site_fract_y
_atom_site_fract_z
Si Si1 0.688271 0.971395 0.363743
Si Si2 0.957347 0.794673 0.873511
Si Si3 0.649287 0.297619 0.349720
Si Si4 0.274069 0.397858 0.640466
Si Si5 0.344814 0.902117 0.213404
Si Si6 0.851419 0.057155 0.884183
Si Si7 0.224366 0.263832 0.753138
O O1 0.546581 0.862955 0.210889
O O2 0.033540 0.025187 0.378791
O O3 0.500153 0.235793 0.657239
O O4 0.656712 0.771367 0.227470
O O5 0.265877 0.708666 0.732638
O O6 0.726092 0.591907 0.662332
O O7 0.929691 0.787417 0.938337
O O8 0.893368 0.108505 0.168899
O O9 0.357090 0.137368 0.243555
O O10 0.478935 0.153145 0.403748
O O11 0.079541 0.166689 0.392524
O O12 0.256694 0.595524 0.893604
O O13 0.288631 0.673845 0.867505
O O14 0.000000 0.000000 0.500000
O O15 0.000000 0.500000 0.000000
#
# Coordination Sequence:
#
# PCOD9004060 Si02
#       7
#     2   2   2   2   2   2   2
#     4  11  26  50  80 108 160 198 243 316 372 454
#     4  10  21  37  63  99 134 176 228 293 380 461
#     4  10  21  37  63  99 134 176 228 293 380 461
#     4  10  26  46  65  99 132 186 264 302 364 440
#     4  11  26  49  71 107 143 204 255 304 376 436
#     4  11  21  46  65  95 136 185 239 310 374 428
#     4  11  26  46  77 123 153 194 244 300 386 450
#
# _framework density 27.938257
#
# number of rings (size 3 to 8) (size 9 to 14) (size 15 to 20)
#    0.000    1.429    1.429    2.143    2.000    5.714 
#   25.714    5.714    0.000    0.000    0.000    0.000 
#    0.000    0.000    0.000    0.000    0.000    0.000 
#
# Total GULP energy -78110.506236 kJ/mol
# GULP energy per Si atom -5579.321874 kJ/mol
# Density = 2.787467 g / cm^3
# Si number density = 27.938257 Si / 1000 Ang^3
#
#
#
# Elastic Constant Matrix: (Units=GPa)
#
#
# Indices 1 2 3 4 5 6 
#
# 1 176.9547 53.8114 52.3902 -10.4114 5.1615 -32.0474
# 2 53.8114 78.1942 55.0509 -4.1787 14.8721 -38.4284
# 3 52.3902 55.0509 221.8365 0.7370 4.7174 -24.9673
# 4 -10.4114 -4.1787 0.7370 38.2585 -7.2933 -1.0154
# 5 5.1615 14.8721 4.7174 -7.2933 28.7984 -8.3747
# 6 -32.0474 -38.4284 -24.9673 -1.0154 -8.3747 52.4522
#
#
#
# Elastic Compliance Matrix: (Units=1/GPa)
#
#
# Indices 1 2 3 4 5 6 
#
# 1 0.007443 -0.004214 -0.000588 0.001975 0.001880 0.001519
# 2 -0.004214 0.026947 -0.003945 0.000665 -0.008281 0.013981
# 3 -0.000588 -0.003945 0.005555 -0.000526 0.000965 -0.000461
# 4 0.001975 0.000665 -0.000526 0.028268 0.007474 0.003184
# 5 0.001880 -0.008281 0.000965 0.007474 0.041050 0.002241
# 6 0.001519 0.013981 -0.000461 0.003184 0.002241 0.030436
#
#
# Mechanical properties :
#
#
# Convention : Reuss Voigt Hill
#
# Bulk Modulus (GPa) = 44.53844 88.83227 66.68535
# Shear Modulus (GPa) = 30.36293 44.95067 37.65680
#
# Velocity S-wave (km/s) = 3.30022 4.01550 3.67530
# Velocity P-wave (km/s) = 5.52253 7.30506 6.47542
#
# Compressibility (1/GPa) = 0.02245252
#
# Stress axis : x y z
#
# Youngs Moduli (GPa) = 134.35284 37.10987 180.02350
#
# Poissons Ratio (x) = 0.15638 0.10579
# Poissons Ratio (y) = 0.56616 0.71011
# Poissons Ratio (z) = 0.07895 0.14638
#
# Static dielectric constant tensor:
#      x y z
#    x 2.116880 0.074440 0.048290 
#    y 0.074440 2.422340 0.044940 
#    z 0.048290 0.044940 2.138800 
# 
# From -- ./inp_files/616005.got.cif
#   From: 2010.05.17/outbox.cif.g08.bks.cpg/sg2_309_cif.got.tgz:616005.got - 2010.06.03 11:33:40.
