data_PCOD9004524
_publ_section_title
;
Structure prediction by ZEFSAII (Michael W. Deem and Ramdas Pophale) SiO2 
 PCOD9004524
Probable space group: P -1
;
_chemical_formula_sum "Si O2"
_cell_formula_units_Z 16
_cell_length_a 14.505296
_cell_length_b 5.902576
_cell_length_c 11.523047
_cell_angle_alpha 74.673899
_cell_angle_beta 52.719220
_cell_angle_gamma 88.600609
_cell_volume 745.160005
_symmetry_space_group_name_H-M "P -1"
_symmetry_group_IT_number 2
_symmetry_cell_setting 'triclinic'
loop_
_space_group_symop_operation_xyz
x,y,z
-x,-y,-z
loop_
_atom_site_type_symbol
_atom_site_label
_atom_site_fract_x
_atom_site_fract_y
_atom_site_fract_z
Si Si1 0.904751 0.662099 0.566285
Si Si2 0.502210 0.325503 0.864242
Si Si3 0.308429 0.983304 0.175264
Si Si4 0.498941 0.254233 0.601510
Si Si5 0.315907 0.258323 0.359103
Si Si6 0.970609 0.209067 0.082859
Si Si7 0.302567 0.978108 0.632761
Si Si8 0.075785 0.066608 0.258869
O O1 0.778571 0.572473 0.619346
O O2 0.892514 0.720305 0.702051
O O3 0.000000 0.500000 0.500000
O O4 0.959863 0.901631 0.421682
O O5 0.495538 0.264233 0.741120
O O6 0.553616 0.606373 0.787884
O O7 0.598589 0.194439 0.871670
O O8 0.378969 0.227766 0.031145
O O9 0.285090 0.043593 0.319442
O O10 0.186047 0.927033 0.206239
O O11 0.500000 0.500000 0.500000
O O12 0.619573 0.178466 0.477634
O O13 0.384456 0.073428 0.666549
O O14 0.300477 0.190473 0.513579
O O15 0.829420 0.144214 0.220298
O O16 0.044244 0.159211 0.147053
O O17 0.000000 0.500000 0.000000
O O18 0.000000 0.000000 0.000000
#
# Coordination Sequence:
#
# PCOD9004524 Si02
#       8
#     2   2   2   2   2   2   2   2
#     4  10  21  37  69 100 132 175 237 298 352 426
#     4  11  22  38  66  95 137 177 226 287 356 423
#     4  10  23  40  60  98 138 173 224 285 361 423
#     4  11  24  42  71 101 133 189 242 300 354 423
#     4  11  20  40  63  97 131 175 228 286 350 423
#     4  12  31  52  76 108 151 200 243 307 376 444
#     4  11  25  45  69 100 139 183 249 300 355 439
#     4  10  23  43  65 100 135 181 239 290 364 430
#
# _framework density 21.471899000000001
#
# number of rings (size 3 to 8) (size 9 to 14) (size 15 to 20)
#    0.000    1.250    3.750    1.125    5.250    1.000 
#    0.000    0.000    0.000    0.000    0.000    0.000 
#    0.000    0.000    0.000    0.000    0.000    0.000 
#
# Total GULP energy -89267.274092 kJ/mol
# GULP energy per Si atom -5579.204631 kJ/mol
# Density = 2.142303 g / cm^3
# Si number density = 21.471899 Si / 1000 Ang^3
#
#
#
# Elastic Constant Matrix: (Units=GPa)
#
#
# Indices 1 2 3 4 5 6 
#
# 1 126.1046 29.1464 56.1365 9.2504 8.6230 -3.7114
# 2 29.1464 55.4856 24.3912 4.4623 11.0762 0.7168
# 3 56.1365 24.3912 106.5304 -13.4913 -10.2954 11.1656
# 4 9.2504 4.4623 -13.4913 30.2774 6.2642 -5.4524
# 5 8.6230 11.0762 -10.2954 6.2642 49.6696 1.4958
# 6 -3.7114 0.7168 11.1656 -5.4524 1.4958 23.4513
#
#
#
# Elastic Compliance Matrix: (Units=1/GPa)
#
#
# Indices 1 2 3 4 5 6 
#
# 1 0.012518 -0.002387 -0.007467 -0.005441 -0.002638 0.004512
# 2 -0.002387 0.022821 -0.005022 -0.003634 -0.005282 0.000808
# 3 -0.007467 -0.005022 0.016771 0.008098 0.005096 -0.007455
# 4 -0.005441 -0.003634 0.008098 0.040068 -0.001765 0.004823
# 5 -0.002638 -0.005282 0.005096 -0.001765 0.023185 -0.004571
# 6 0.004512 0.000808 -0.007455 0.004823 -0.004571 0.048294
#
#
# Mechanical properties :
#
#
# Convention : Reuss Voigt Hill
#
# Bulk Modulus (GPa) = 44.72924 56.38542 50.55733
# Shear Modulus (GPa) = 24.89281 32.57609 28.73445
#
# Velocity S-wave (km/s) = 3.40857 3.89929 3.66216
# Velocity P-wave (km/s) = 6.03058 6.82566 6.44040
#
# Compressibility (1/GPa) = 0.02235674
#
# Stress axis : x y z
#
# Youngs Moduli (GPa) = 79.88526 43.81999 59.62703
#
# Poissons Ratio (x) = 0.10461 0.44522
# Poissons Ratio (y) = 0.19071 0.29946
# Poissons Ratio (z) = 0.59649 0.22008
#
# Static dielectric constant tensor:
#      x y z
#    x 2.022700 -0.182940 0.198120 
#    y -0.182940 2.012650 -0.193980 
#    z 0.198120 -0.193980 1.938380 
# 
# From -- ./inp_files/71701.got.cif
#   From: 2010.05.17/outbox.cif.g08.bks.cpg/sg2_36_cif.got.tgz:71701.got - 2010.06.03 11:33:40.
