data_PCOD9004347
_publ_section_title
;
Structure prediction by ZEFSAII (Michael W. Deem and Ramdas Pophale) SiO2 
 PCOD9004347
Probable space group: P -1
;
_chemical_formula_sum "Si O2"
_cell_formula_units_Z 15
_cell_length_a 16.022517
_cell_length_b 9.071227
_cell_length_c 11.854312
_cell_angle_alpha 140.111739
_cell_angle_beta 38.184899
_cell_angle_gamma 148.237897
_cell_volume 534.107433
_symmetry_space_group_name_H-M "P -1"
_symmetry_group_IT_number 2
_symmetry_cell_setting 'triclinic'
loop_
_space_group_symop_operation_xyz
x,y,z
-x,-y,-z
loop_
_atom_site_type_symbol
_atom_site_label
_atom_site_fract_x
_atom_site_fract_y
_atom_site_fract_z
Si Si1 0.703589 0.748099 0.405309
Si Si2 0.500000 0.000000 0.000000
Si Si3 0.795541 0.241030 0.449604
Si Si4 0.153561 0.995244 0.366072
Si Si5 0.165850 0.457807 0.174988
Si Si6 0.220109 0.686577 0.939791
Si Si7 0.245287 0.085959 0.973630
Si Si8 0.386383 0.527587 0.295454
O O1 0.500000 0.500000 0.500000
O O2 0.418121 0.910088 0.906475
O O3 0.804367 0.611721 0.215822
O O4 0.710405 0.912016 0.383853
O O5 0.810179 0.997033 0.536233
O O6 0.676521 0.323548 0.950238
O O7 0.799919 0.391547 0.649970
O O8 0.703530 0.321300 0.511669
O O9 0.983162 0.371216 0.283463
O O10 0.336500 0.313043 0.326621
O O11 0.000000 0.000000 0.500000
O O12 0.133368 0.758633 0.167075
O O13 0.140700 0.159977 0.054838
O O14 0.187811 0.784705 0.913642
O O15 0.418263 0.231612 0.804335
O O16 0.301403 0.289489 0.144695
#
# Coordination Sequence:
#
# PCOD9004347 Si02
#       8
#     2   1   2   2   2   2   2   2
#     4  12  26  46  72 108 146 194 242 297 370 441
#     4  12  22  40  70 102 138 188 234 294 362 440
#     4  10  22  39  66 101 141 183 236 302 361 426
#     4  11  26  43  71 104 140 189 244 301 360 428
#     4  10  21  37  66 100 138 183 240 293 362 433
#     4  11  24  43  70 100 143 184 242 292 355 438
#     4   9  18  37  62  98 131 185 228 288 356 430
#     4   9  18  37  64  95 135 179 235 288 356 428
#
# _framework density 28.084237999999999
#
# number of rings (size 3 to 8) (size 9 to 14) (size 15 to 20)
#    0.000    1.600    0.000    6.400    9.333    0.533 
#    0.000    4.667    0.000    0.000    0.000    0.000 
#    0.000    0.000    0.000    0.000    0.000    0.000 
#
# Total GULP energy -83760.489623 kJ/mol
# GULP energy per Si atom -5584.032642 kJ/mol
# Density = 2.802032 g / cm^3
# Si number density = 28.084238 Si / 1000 Ang^3
#
#
#
# Elastic Constant Matrix: (Units=GPa)
#
#
# Indices 1 2 3 4 5 6 
#
# 1 95.4603 24.8700 32.8561 11.5762 16.0917 -4.7169
# 2 24.8700 190.6207 66.5797 6.8472 8.4314 -27.5567
# 3 32.8561 66.5797 143.5978 28.5498 -8.4743 -4.3893
# 4 11.5762 6.8472 28.5498 45.4755 0.5989 -4.6677
# 5 16.0917 8.4314 -8.4743 0.5989 31.7986 -0.2469
# 6 -4.7169 -27.5567 -4.3893 -4.6677 -0.2469 44.2280
#
#
#
# Elastic Compliance Matrix: (Units=1/GPa)
#
#
# Indices 1 2 3 4 5 6 
#
# 1 0.012991 -0.000130 -0.003088 -0.001167 -0.007334 0.000834
# 2 -0.000130 0.007245 -0.003714 0.001753 -0.002845 0.004301
# 3 -0.003088 -0.003714 0.010790 -0.005722 0.005514 -0.002146
# 4 -0.001167 0.001753 -0.005722 0.025961 -0.001864 0.003129
# 5 -0.007334 -0.002845 0.005514 -0.001864 0.037403 -0.001995
# 6 0.000834 0.004301 -0.002146 0.003129 -0.001995 0.025485
#
#
# Mechanical properties :
#
#
# Convention : Reuss Voigt Hill
#
# Bulk Modulus (GPa) = 58.26641 75.36561 66.81601
# Shear Modulus (GPa) = 35.85295 44.65862 40.25579
#
# Velocity S-wave (km/s) = 3.57686 3.99202 3.79013
# Velocity P-wave (km/s) = 6.15229 6.93845 6.55716
#
# Compressibility (1/GPa) = 0.01716255
#
# Stress axis : x y z
#
# Youngs Moduli (GPa) = 76.97580 138.02857 92.67875
#
# Poissons Ratio (x) = 0.01788 0.28617
# Poissons Ratio (y) = 0.00997 0.34425
# Poissons Ratio (z) = 0.23768 0.51270
#
# Static dielectric constant tensor:
#      x y z
#    x 2.248570 0.011550 -0.003050 
#    y 0.011550 2.232630 0.010790 
#    z -0.003050 0.010790 2.298680 
# 
# From -- ./inp_files/602344.got.cif
#   From: 2010.05.17/outbox.cif.g08.bks.cpg/sg2_302_cif.got.tgz:602344.got - 2010.06.03 11:33:40.
