data_PCOD9004741
_publ_section_title
;
Structure prediction by ZEFSAII (Michael W. Deem and Ramdas Pophale) SiO2 
 PCOD9004741
Probable space group: P -1
;
_chemical_formula_sum "Si O2"
_cell_formula_units_Z 14
_cell_length_a 20.271454
_cell_length_b 9.051371
_cell_length_c 17.113028
_cell_angle_alpha 129.060758
_cell_angle_beta 21.016173
_cell_angle_gamma 140.571409
_cell_volume 655.790334
_symmetry_space_group_name_H-M "P -1"
_symmetry_group_IT_number 2
_symmetry_cell_setting 'triclinic'
loop_
_space_group_symop_operation_xyz
x,y,z
-x,-y,-z
loop_
_atom_site_type_symbol
_atom_site_label
_atom_site_fract_x
_atom_site_fract_y
_atom_site_fract_z
Si Si1 0.601005 0.076308 0.107079
Si Si2 0.807919 0.037019 0.708754
Si Si3 0.910464 0.405522 0.419588
Si Si4 0.851788 0.217134 0.043775
Si Si5 0.647108 0.761531 0.643996
Si Si6 0.093080 0.132299 0.171755
Si Si7 0.432930 0.691287 0.357148
O O1 0.537488 0.249035 0.210151
O O2 0.339662 0.806100 0.328380
O O3 0.698960 0.029601 0.908909
O O4 0.771907 0.186897 0.031265
O O5 0.936482 0.313640 0.624048
O O6 0.621332 0.829119 0.781946
O O7 0.000000 0.000000 0.500000
O O8 0.816107 0.408999 0.440019
O O9 0.050666 0.301949 0.232717
O O10 0.000665 0.120551 0.854855
O O11 0.000000 0.500000 0.000000
O O12 0.599826 0.988692 0.292021
O O13 0.612865 0.511114 0.600042
O O14 0.925115 0.007366 0.392422
O O15 0.383016 0.283527 0.902636
#
# Coordination Sequence:
#
# PCOD9004741 Si02
#       7
#     2   2   2   2   2   2   2
#     4  10  23  39  60  86 125 158 199 251 292 352
#     4  12  23  34  60  90 124 162 200 236 287 362
#     4  10  21  38  58  87 121 162 200 234 299 342
#     4   9  20  43  65  84 116 157 198 253 306 348
#     4  11  21  39  58  92 123 160 199 237 298 354
#     4   9  21  38  62  81 121 158 191 255 289 348
#     4   9  20  37  61  84 124 150 197 249 294 347
#
# _framework density 21.348286999999999
#
# number of rings (size 3 to 8) (size 9 to 14) (size 15 to 20)
#    0.857    1.143    1.429    2.143    0.000    4.000 
#    0.000    7.857    0.000    0.000    0.000    0.000 
#    0.000    0.000    0.000    0.000    0.000    0.000 
#
# Total GULP energy -78006.890704 kJ/mol
# GULP energy per Si atom -5571.920765 kJ/mol
# Density = 2.129970 g / cm^3
# Si number density = 21.348287 Si / 1000 Ang^3
#
#
#
# Elastic Constant Matrix: (Units=GPa)
#
#
# Indices 1 2 3 4 5 6 
#
# 1 60.4778 38.3238 22.7182 6.2588 -12.7687 -26.7196
# 2 38.3238 170.5233 14.1311 3.4329 -19.9630 -24.4379
# 3 22.7182 14.1311 48.4013 6.2213 -12.0171 -5.6721
# 4 6.2588 3.4329 6.2213 28.2415 -11.8122 -7.6782
# 5 -12.7687 -19.9630 -12.0171 -11.8122 28.8798 9.3352
# 6 -26.7196 -24.4379 -5.6721 -7.6782 9.3352 40.0317
#
#
#
# Elastic Compliance Matrix: (Units=1/GPa)
#
#
# Indices 1 2 3 4 5 6 
#
# 1 0.030326 -0.003366 -0.011071 0.001312 0.001685 0.016477
# 2 -0.003366 0.007249 0.000390 0.001870 0.003906 0.001682
# 3 -0.011071 0.000390 0.027260 -0.001850 0.007721 -0.005444
# 4 0.001312 0.001870 -0.001850 0.044166 0.017155 0.006226
# 5 0.001685 0.003906 0.007721 0.017155 0.049479 -0.003644
# 6 0.016477 0.001682 -0.005444 0.006226 -0.003644 0.038277
#
#
# Mechanical properties :
#
#
# Convention : Reuss Voigt Hill
#
# Bulk Modulus (GPa) = 27.21705 47.74983 37.48344
# Shear Modulus (GPa) = 21.08833 33.04590 27.06711
#
# Velocity S-wave (km/s) = 3.14637 3.93866 3.56460
# Velocity P-wave (km/s) = 5.09669 6.56503 5.87690
#
# Compressibility (1/GPa) = 0.03674167
#
# Stress axis : x y z
#
# Youngs Moduli (GPa) = 32.97467 137.94811 36.68404
#
# Poissons Ratio (x) = 0.46433 0.40612
# Poissons Ratio (y) = 0.11099 -0.01431
# Poissons Ratio (z) = 0.36506 -0.05380
#
# Static dielectric constant tensor:
#      x y z
#    x 1.792150 -0.054980 0.021530 
#    y -0.054980 1.801560 -0.025790 
#    z 0.021530 -0.025790 1.865770 
# 
# From -- ./inp_files/220387.got.cif
#   From: 2010.05.17/outbox.cif.g08.bks.cpg/sg2_111_cif.got.tgz:220387.got - 2010.06.03 11:33:40.
