data_PCOD9004553
_publ_section_title
;
Structure prediction by ZEFSAII (Michael W. Deem and Ramdas Pophale) SiO2 
 PCOD9004553
Probable space group: P -1
;
_chemical_formula_sum "Si O2"
_cell_formula_units_Z 16
_cell_length_a 7.193639
_cell_length_b 16.755974
_cell_length_c 9.128719
_cell_angle_alpha 135.919536
_cell_angle_beta 64.945500
_cell_angle_gamma 122.705702
_cell_volume 642.938700
_symmetry_space_group_name_H-M "P -1"
_symmetry_group_IT_number 2
_symmetry_cell_setting 'triclinic'
loop_
_space_group_symop_operation_xyz
x,y,z
-x,-y,-z
loop_
_atom_site_type_symbol
_atom_site_label
_atom_site_fract_x
_atom_site_fract_y
_atom_site_fract_z
Si Si1 0.674510 0.393156 0.428196
Si Si2 0.058533 0.336670 0.405463
Si Si3 0.166104 0.112478 0.936731
Si Si4 0.294293 0.998922 0.161651
Si Si5 0.800052 0.867610 0.385177
Si Si6 0.640240 0.197620 0.945233
Si Si7 0.864537 0.356794 0.798456
Si Si8 0.458509 0.371553 0.769631
O O1 0.755980 0.531180 0.521287
O O2 0.611283 0.303252 0.193562
O O3 0.500533 0.381984 0.597659
O O4 0.857363 0.352940 0.400233
O O5 0.007747 0.326974 0.582801
O O6 0.117983 0.223066 0.177832
O O7 0.249218 0.147839 0.789046
O O8 0.922038 0.004135 0.861026
O O9 0.388044 0.095324 0.892635
O O10 0.356629 0.106282 0.403944
O O11 0.220802 0.869542 0.104662
O O12 0.500000 0.000000 0.000000
O O13 0.782451 0.732054 0.258895
O O14 0.000000 0.000000 0.500000
O O15 0.763782 0.261410 0.840405
O O16 0.645361 0.341124 0.756162
O O17 0.000000 0.500000 0.000000
O O18 0.500000 0.500000 0.000000
#
# Coordination Sequence:
#
# PCOD9004553 Si02
#       8
#     2   2   2   2   2   2   2   2
#     4  10  21  37  69  99 137 193 239 281 371 420
#     4  10  21  41  67  98 147 190 233 301 357 441
#     4  11  24  43  70 104 137 186 243 297 359 440
#     4  11  26  48  75  97 144 191 239 306 369 429
#     4  10  23  44  69 104 146 186 245 298 365 435
#     4  12  24  44  73 103 143 186 245 299 366 431
#     4  11  24  42  66 108 148 186 241 300 370 432
#     4  11  23  42  72 105 143 190 242 298 364 437
#
# _framework density 24.885731
#
# number of rings (size 3 to 8) (size 9 to 14) (size 15 to 20)
#    0.000    1.250    3.750    1.500    1.750    4.500 
#    0.000    3.750    0.000    0.000    0.000    0.000 
#    0.000    0.000    0.000    0.000    0.000    0.000 
#
# Total GULP energy -89302.289192 kJ/mol
# GULP energy per Si atom -5581.393075 kJ/mol
# Density = 2.482909 g / cm^3
# Si number density = 24.885731 Si / 1000 Ang^3
#
#
#
# Elastic Constant Matrix: (Units=GPa)
#
#
# Indices 1 2 3 4 5 6 
#
# 1 107.7470 27.2499 16.8392 -15.0641 1.1428 17.3979
# 2 27.2499 144.5205 44.8496 -19.4440 9.3682 8.1207
# 3 16.8392 44.8496 166.6392 -12.7290 7.2428 2.6976
# 4 -15.0641 -19.4440 -12.7290 45.6208 -9.8417 0.2199
# 5 1.1428 9.3682 7.2428 -9.8417 17.5584 -3.6565
# 6 17.3979 8.1207 2.6976 0.2199 -3.6565 32.5105
#
#
#
# Elastic Compliance Matrix: (Units=1/GPa)
#
#
# Indices 1 2 3 4 5 6 
#
# 1 0.010985 -0.001241 -0.000480 0.003159 0.000778 -0.005463
# 2 -0.001241 0.008250 -0.001795 0.002014 -0.002780 -0.001574
# 3 -0.000480 -0.001795 0.006642 0.000627 -0.001401 -0.000008
# 4 0.003159 0.002014 0.000627 0.026877 0.013333 -0.000928
# 5 0.000778 -0.002780 -0.001401 0.013333 0.068095 0.007963
# 6 -0.005463 -0.001574 -0.000008 -0.000928 0.007963 0.034978
#
#
# Mechanical properties :
#
#
# Convention : Reuss Voigt Hill
#
# Bulk Modulus (GPa) = 53.06468 66.30934 59.68701
# Shear Modulus (GPa) = 29.56131 41.13580 35.34856
#
# Velocity S-wave (km/s) = 3.45031 4.07011 3.77295
# Velocity P-wave (km/s) = 6.10266 6.98506 6.55872
#
# Compressibility (1/GPa) = 0.01884493
#
# Stress axis : x y z
#
# Youngs Moduli (GPa) = 91.03074 121.21274 150.56779
#
# Poissons Ratio (x) = 0.15040 0.07231
# Poissons Ratio (y) = 0.11295 0.27026
# Poissons Ratio (z) = 0.04372 0.21757
#
# Static dielectric constant tensor:
#      x y z
#    x 2.068690 0.092340 0.001900 
#    y 0.092340 2.016570 -0.030040 
#    z 0.001900 -0.030040 1.942600 
# 
# From -- ./inp_files/218545.got.cif
#   From: 2010.05.17/outbox.cif.g08.bks.cpg/sg2_110_cif.got.tgz:218545.got - 2010.06.03 11:33:40.
