data_PCOD9004745
_publ_section_title
;
Structure prediction by ZEFSAII (Michael W. Deem and Ramdas Pophale) SiO2 
 PCOD9004745
Probable space group: P -1
;
_chemical_formula_sum "Si O2"
_cell_formula_units_Z 16
_cell_length_a 14.572396
_cell_length_b 9.634381
_cell_length_c 14.249125
_cell_angle_alpha 89.139027
_cell_angle_beta 30.668208
_cell_angle_gamma 110.144115
_cell_volume 728.035039
_symmetry_space_group_name_H-M "P -1"
_symmetry_group_IT_number 2
_symmetry_cell_setting 'triclinic'
loop_
_space_group_symop_operation_xyz
x,y,z
-x,-y,-z
loop_
_atom_site_type_symbol
_atom_site_label
_atom_site_fract_x
_atom_site_fract_y
_atom_site_fract_z
Si Si1 0.640696 0.906501 0.275009
Si Si2 0.883737 0.735763 0.048887
Si Si3 0.239279 0.215267 0.321791
Si Si4 0.701210 0.351157 0.248537
Si Si5 0.909189 0.680868 0.815420
Si Si6 0.410469 0.752437 0.862768
Si Si7 0.446823 0.610890 0.140460
Si Si8 0.596039 0.130582 0.712776
O O1 0.450856 0.794108 0.530364
O O2 0.504334 0.874026 0.300041
O O3 0.753824 0.814214 0.163995
O O4 0.878740 0.130458 0.091407
O O5 0.980688 0.761114 0.857597
O O6 0.681703 0.507965 0.254128
O O7 0.343631 0.203341 0.324995
O O8 0.226190 0.375416 0.341069
O O9 0.458846 0.315083 0.049322
O O10 0.000000 0.000000 0.500000
O O11 0.608390 0.240690 0.232490
O O12 0.000000 0.500000 0.000000
O O13 0.137471 0.799587 0.541387
O O14 0.814303 0.470880 0.908405
O O15 0.684534 0.661887 0.981268
O O16 0.417735 0.906606 0.903114
O O17 0.390685 0.727680 0.235415
#
# Coordination Sequence:
#
# PCOD9004745 Si02
#       8
#     2   2   2   2   2   2   2   2
#     4  11  22  36  59  94 125 170 217 259 315 379
#     4  10  21  38  58  87 131 169 215 262 310 380
#     4  10  22  45  68  91 127 169 206 266 326 375
#     4  11  22  39  61  90 131 174 211 262 316 377
#     4  10  21  42  62  89 132 168 207 265 316 372
#     4  10  23  39  62  96 127 165 218 260 313 383
#     4  10  23  43  67  94 125 161 214 260 319 388
#     4  12  23  39  66  96 126 168 212 262 319 378
#
# _framework density 21.976963000000001
#
# number of rings (size 3 to 8) (size 9 to 14) (size 15 to 20)
#    0.000    1.500    1.250    4.125    0.000    3.000 
#    0.000    8.750    0.000    0.000    0.000    0.000 
#    0.000    0.000    0.000    0.000    0.000    0.000 
#
# Total GULP energy -89439.376309 kJ/mol
# GULP energy per Si atom -5589.961019 kJ/mol
# Density = 2.192694 g / cm^3
# Si number density = 21.976963 Si / 1000 Ang^3
#
#
#
# Elastic Constant Matrix: (Units=GPa)
#
#
# Indices 1 2 3 4 5 6 
#
# 1 60.0040 6.3496 -2.4219 1.6037 -3.3476 8.3734
# 2 6.3496 156.6111 22.5747 -10.2982 1.9589 0.7486
# 3 -2.4219 22.5747 43.6689 -3.9185 -2.8309 -2.0754
# 4 1.6037 -10.2982 -3.9185 25.4995 3.4939 -1.1782
# 5 -3.3476 1.9589 -2.8309 3.4939 26.3238 -4.9350
# 6 8.3734 0.7486 -2.0754 -1.1782 -4.9350 31.6903
#
#
#
# Elastic Compliance Matrix: (Units=1/GPa)
#
#
# Indices 1 2 3 4 5 6 
#
# 1 0.017577 -0.001013 0.001256 -0.001778 0.001873 -0.004313
# 2 -0.001013 0.007137 -0.003621 0.002575 -0.001441 -0.000267
# 3 0.001256 -0.003621 0.025326 0.001996 0.003262 0.001995
# 4 -0.001778 0.002575 0.001996 0.041482 -0.005479 0.001229
# 5 0.001873 -0.001441 0.003262 -0.005479 0.040510 0.005857
# 6 -0.004313 -0.000267 0.001995 0.001229 0.005857 0.033790
#
#
# Mechanical properties :
#
#
# Convention : Reuss Voigt Hill
#
# Bulk Modulus (GPa) = 23.10337 34.80985 28.95661
# Shear Modulus (GPa) = 26.73703 32.28819 29.51261
#
# Velocity S-wave (km/s) = 3.49175 3.83715 3.66852
# Velocity P-wave (km/s) = 5.17608 5.95863 5.58109
#
# Compressibility (1/GPa) = 0.04328373
#
# Stress axis : x y z
#
# Youngs Moduli (GPa) = 56.89156 140.11818 39.48472
#
# Poissons Ratio (x) = 0.14199 -0.04958
# Poissons Ratio (y) = 0.05765 0.14296
# Poissons Ratio (z) = -0.07144 0.50732
#
# Static dielectric constant tensor:
#      x y z
#    x 1.832280 -0.012300 -0.017020 
#    y -0.012300 1.844070 -0.023800 
#    z -0.017020 -0.023800 1.790440 
# 
# From -- ./inp_files/357751.got.cif
#   From: 2010.05.17/outbox.cif.g08.bks.cpg/sg2_179_cif.got.tgz:357751.got - 2010.06.03 11:33:40.
