data_PCOD9004421
_publ_section_title
;
Structure prediction by ZEFSAII (Michael W. Deem and Ramdas Pophale) SiO2 
 PCOD9004421
Probable space group: P -1
;
_chemical_formula_sum "Si O2"
_cell_formula_units_Z 14
_cell_length_a 8.577277
_cell_length_b 8.283276
_cell_length_c 11.661116
_cell_angle_alpha 124.359826
_cell_angle_beta 58.246660
_cell_angle_gamma 103.810208
_cell_volume 579.553165
_symmetry_space_group_name_H-M "P -1"
_symmetry_group_IT_number 2
_symmetry_cell_setting 'triclinic'
loop_
_space_group_symop_operation_xyz
x,y,z
-x,-y,-z
loop_
_atom_site_type_symbol
_atom_site_label
_atom_site_fract_x
_atom_site_fract_y
_atom_site_fract_z
Si Si1 0.724755 0.644785 0.497510
Si Si2 0.308716 0.126493 0.620844
Si Si3 0.928438 0.249439 0.221744
Si Si4 0.841244 0.600314 0.016109
Si Si5 0.036831 0.088043 0.355167
Si Si6 0.609962 0.092665 0.151475
Si Si7 0.640808 0.225117 0.929989
O O1 0.694177 0.696576 0.397239
O O2 0.778156 0.415518 0.397769
O O3 0.899800 0.744723 0.520638
O O4 0.549484 0.753941 0.672440
O O5 0.245409 0.217770 0.802894
O O6 0.500000 0.000000 0.500000
O O7 0.162571 0.980809 0.575090
O O8 0.801801 0.106003 0.146538
O O9 0.040214 0.157256 0.249074
O O10 0.056396 0.345566 0.118037
O O11 0.686242 0.448987 0.992421
O O12 0.000000 0.500000 0.000000
O O13 0.181405 0.900995 0.239521
O O14 0.532866 0.877378 0.095487
O O15 0.632977 0.168747 0.044318
#
# Coordination Sequence:
#
# PCOD9004421 Si02
#       7
#     2   2   2   2   2   2   2
#     4  11  23  42  66  96 142 185 224 282 346 405
#     4  12  25  43  70 104 138 177 231 286 345 408
#     4  12  23  41  71 101 136 181 234 280 337 411
#     4  12  22  45  73  99 137 184 229 278 349 412
#     4  11  24  41  66 100 137 185 234 276 340 413
#     4  10  21  37  66  98 131 172 230 284 335 394
#     4  10  21  42  67  96 134 184 228 275 348 409
#
# _framework density 24.156542000000002
#
# number of rings (size 3 to 8) (size 9 to 14) (size 15 to 20)
#    0.000    0.857    4.286    2.143    0.000    5.714 
#    0.000    1.429    0.000   21.429    0.000    0.000 
#    0.000    0.000    0.000    0.000    0.000    0.000 
#
# Total GULP energy -78475.867137 kJ/mol
# GULP energy per Si atom -5605.419081 kJ/mol
# Density = 2.410156 g / cm^3
# Si number density = 24.156542 Si / 1000 Ang^3
#
#
#
# Elastic Constant Matrix: (Units=GPa)
#
#
# Indices 1 2 3 4 5 6 
#
# 1 105.9598 42.1630 28.6608 9.6152 6.2567 25.1914
# 2 42.1630 92.7496 17.1856 3.9996 4.4675 20.9414
# 3 28.6608 17.1856 85.1587 4.3252 -0.6136 3.5515
# 4 9.6152 3.9996 4.3252 33.3074 5.3844 9.1175
# 5 6.2567 4.4675 -0.6136 5.3844 38.0983 -1.2772
# 6 25.1914 20.9414 3.5515 9.1175 -1.2772 50.9069
#
#
#
# Elastic Compliance Matrix: (Units=1/GPa)
#
#
# Indices 1 2 3 4 5 6 
#
# 1 0.013333 -0.004304 -0.003376 -0.001423 -0.001685 -0.004379
# 2 -0.004304 0.013812 -0.001242 0.000940 -0.001189 -0.003664
# 3 -0.003376 -0.001242 0.013135 -0.001176 0.001128 0.001504
# 4 -0.001423 0.000940 -0.001176 0.032765 -0.004714 -0.005587
# 5 -0.001685 -0.001189 0.001128 -0.004714 0.027441 0.002777
# 6 -0.004379 -0.003664 0.001504 -0.005587 0.002777 0.024283
#
#
# Mechanical properties :
#
#
# Convention : Reuss Voigt Hill
#
# Bulk Modulus (GPa) = 44.57277 51.09855 47.83566
# Shear Modulus (GPa) = 33.31239 37.51976 35.41607
#
# Velocity S-wave (km/s) = 3.71755 3.94533 3.83313
# Velocity P-wave (km/s) = 6.07606 6.47713 6.27980
#
# Compressibility (1/GPa) = 0.02243522
#
# Stress axis : x y z
#
# Youngs Moduli (GPa) = 75.00067 72.39821 76.13336
#
# Poissons Ratio (x) = 0.31163 0.25703
# Poissons Ratio (y) = 0.32283 0.09458
# Poissons Ratio (z) = 0.25320 0.08994
#
# Static dielectric constant tensor:
#      x y z
#    x 1.914820 0.010740 0.008110 
#    y 0.010740 1.927440 0.002490 
#    z 0.008110 0.002490 1.909850 
# 
# From -- ./inp_files/383454.got.cif
#   From: 2010.05.17/outbox.cif.g08.bks.cpg/sg2_192_cif.got.tgz:383454.got - 2010.06.03 11:33:40.
