data_PCOD9004820
_publ_section_title
;
Structure prediction by ZEFSAII (Michael W. Deem and Ramdas Pophale) SiO2 
 PCOD9004820
Probable space group: P -1
;
_chemical_formula_sum "Si O2"
_cell_formula_units_Z 14
_cell_length_a 5.739572
_cell_length_b 7.972489
_cell_length_c 16.138991
_cell_angle_alpha 74.287538
_cell_angle_beta 122.341602
_cell_angle_gamma 82.810227
_cell_volume 566.552157
_symmetry_space_group_name_H-M "P -1"
_symmetry_group_IT_number 2
_symmetry_cell_setting 'triclinic'
loop_
_space_group_symop_operation_xyz
x,y,z
-x,-y,-z
loop_
_atom_site_type_symbol
_atom_site_label
_atom_site_fract_x
_atom_site_fract_y
_atom_site_fract_z
Si Si1 0.374767 0.101138 0.547863
Si Si2 0.414760 0.967409 0.747659
Si Si3 0.100822 0.582995 0.648416
Si Si4 0.854689 0.265664 0.658694
Si Si5 0.717312 0.260477 0.812512
Si Si6 0.834715 0.352514 0.997412
Si Si7 0.252138 0.661847 0.838790
O O1 0.444845 0.957875 0.656075
O O2 0.543853 0.243924 0.586206
O O3 0.037297 0.233128 0.456650
O O4 0.500000 0.000000 0.500000
O O5 0.591215 0.092671 0.801577
O O6 0.078662 0.088429 0.682641
O O7 0.445393 0.782972 0.827185
O O8 0.441985 0.454481 0.725556
O O9 0.051307 0.651875 0.725031
O O10 0.924048 0.442935 0.616464
O O11 0.911880 0.254654 0.769801
O O12 0.873817 0.247135 0.932109
O O13 0.482642 0.456494 0.921168
O O14 0.904470 0.264426 0.113970
O O15 0.000000 0.500000 0.000000
#
# Coordination Sequence:
#
# PCOD9004820 Si02
#       7
#     2   2   2   2   2   2   2
#     4  11  24  38  59  89 118 156 198 238 290 345
#     4  10  23  41  58  86 123 152 192 243 291 348
#     4  10  21  38  59  84 119 155 195 240 284 343
#     4  10  21  38  60  85 118 157 195 237 287 343
#     4   9  21  39  60  86 117 155 194 238 293 346
#     4  10  21  39  63  87 112 151 199 240 290 350
#     4  10  22  39  60  86 118 153 191 244 295 339
#
# _framework density 24.710878000000001
#
# number of rings (size 3 to 8) (size 9 to 14) (size 15 to 20)
#    0.000    2.000    0.000    2.143    0.000   16.000 
#    0.000    1.429    0.000    0.000    0.000    0.000 
#    0.000    0.000    0.000    0.000    0.000    0.000 
#
# Total GULP energy -78278.993435 kJ/mol
# GULP energy per Si atom -5591.356674 kJ/mol
# Density = 2.465463 g / cm^3
# Si number density = 24.710878 Si / 1000 Ang^3
#
#
#
# Elastic Constant Matrix: (Units=GPa)
#
#
# Indices 1 2 3 4 5 6 
#
# 1 57.7426 10.5886 23.7872 4.3596 -20.5730 -9.0727
# 2 10.5886 77.2777 32.7590 10.5188 -6.3562 -2.1581
# 3 23.7872 32.7590 112.2993 13.3464 -21.1937 -18.1981
# 4 4.3596 10.5188 13.3464 43.7798 -6.7362 -3.0481
# 5 -20.5730 -6.3562 -21.1937 -6.7362 44.0560 11.4479
# 6 -9.0727 -2.1581 -18.1981 -3.0481 11.4479 36.0199
#
#
#
# Elastic Compliance Matrix: (Units=1/GPa)
#
#
# Indices 1 2 3 4 5 6 
#
# 1 0.021787 -0.001250 -0.002440 0.000283 0.008470 0.001512
# 2 -0.001250 0.015143 -0.004198 -0.002403 -0.000366 -0.001615
# 3 -0.002440 -0.004198 0.012041 -0.001712 0.002690 0.004217
# 4 0.000283 -0.002403 -0.001712 0.024334 0.002607 0.000293
# 5 0.008470 -0.000366 0.002690 0.002607 0.029795 -0.005779
# 6 0.001512 -0.001615 0.004217 0.000293 -0.005779 0.032039
#
#
# Mechanical properties :
#
#
# Convention : Reuss Voigt Hill
#
# Bulk Modulus (GPa) = 30.12656 42.39883 36.26269
# Shear Modulus (GPa) = 30.86813 36.78346 33.82580
#
# Velocity S-wave (km/s) = 3.53820 3.86236 3.70383
# Velocity P-wave (km/s) = 5.37679 6.08980 5.74437
#
# Compressibility (1/GPa) = 0.03319330
#
# Stress axis : x y z
#
# Youngs Moduli (GPa) = 45.89953 66.03693 83.05184
#
# Poissons Ratio (x) = 0.08257 0.20267
# Poissons Ratio (y) = 0.05739 0.34864
# Poissons Ratio (z) = 0.11201 0.27721
#
# Static dielectric constant tensor:
#      x y z
#    x 1.961640 -0.020170 0.006620 
#    y -0.020170 1.956770 -0.042940 
#    z 0.006620 -0.042940 2.035150 
# 
# From -- ./inp_files/34550.got.cif
#   From: 2010.05.17/outbox.cif.g08.bks.cpg/sg2_18_cif.got.tgz:34550.got - 2010.06.03 11:33:40.
