data_PCOD9004792
_publ_section_title
;
Structure prediction by ZEFSAII (Michael W. Deem and Ramdas Pophale) SiO2 
 PCOD9004792
Probable space group: P -1
;
_chemical_formula_sum "Si O2"
_cell_formula_units_Z 10
_cell_length_a 7.997036
_cell_length_b 9.809838
_cell_length_c 12.905957
_cell_angle_alpha 117.810561
_cell_angle_beta 153.025290
_cell_angle_gamma 75.006442
_cell_volume 373.777852
_symmetry_space_group_name_H-M "P -1"
_symmetry_group_IT_number 2
_symmetry_cell_setting 'triclinic'
loop_
_space_group_symop_operation_xyz
x,y,z
-x,-y,-z
loop_
_atom_site_type_symbol
_atom_site_label
_atom_site_fract_x
_atom_site_fract_y
_atom_site_fract_z
Si Si1 0.080685 0.546562 0.402071
Si Si2 0.023810 0.010102 0.810918
Si Si3 0.960641 0.131298 0.441679
Si Si4 0.820165 0.730019 0.743517
Si Si5 0.110836 0.343175 0.018308
O O1 0.876116 0.676573 0.357946
O O2 0.353057 0.618841 0.473762
O O3 0.950307 0.350644 0.235959
O O4 0.404577 0.579633 0.684368
O O5 0.876698 0.890783 0.588201
O O6 0.821710 0.898541 0.758088
O O7 0.489283 0.073200 0.128502
O O8 0.970402 0.179979 0.813162
O O9 0.000000 0.000000 0.500000
O O10 0.012885 0.736240 0.963796
O O11 0.000000 0.500000 0.000000
#
# Coordination Sequence:
#
# PCOD9004792 Si02
#       5
#     2   2   2   2   2
#     4   8  19  36  56  78 119 136 180 232 278 315
#     4  10  21  38  59  82 112 145 188 227 272 330
#     4  10  22  38  56  78 116 153 180 224 277 331
#     4   9  18  37  59  81 110 141 183 236 272 317
#     4   9  18  33  58  83 110 140 178 232 280 317
#
# _framework density 26.753855999999999
#
# number of rings (size 3 to 8) (size 9 to 14) (size 15 to 20)
#    1.200    1.600    0.000    0.600    2.800    0.800 
#    3.600    3.000    0.000    0.000    0.000    0.000 
#    0.000    0.000    0.000    0.000    0.000    0.000 
#
# Total GULP energy -55755.371953 kJ/mol
# GULP energy per Si atom -5575.537195 kJ/mol
# Density = 2.669296 g / cm^3
# Si number density = 26.753856 Si / 1000 Ang^3
#
#
#
# Elastic Constant Matrix: (Units=GPa)
#
#
# Indices 1 2 3 4 5 6 
#
# 1 60.6563 39.9730 5.9792 4.5357 -21.8629 -6.3794
# 2 39.9730 218.0033 24.6410 -1.5105 -17.8377 -12.8550
# 3 5.9792 24.6410 54.4681 -17.1365 -5.7106 -8.8774
# 4 4.5357 -1.5105 -17.1365 41.6653 -7.7828 -12.1881
# 5 -21.8629 -17.8377 -5.7106 -7.7828 30.8075 10.2701
# 6 -6.3794 -12.8550 -8.8774 -12.1881 10.2701 49.9258
#
#
#
# Elastic Compliance Matrix: (Units=1/GPa)
#
#
# Indices 1 2 3 4 5 6 
#
# 1 0.024114 -0.003233 0.000320 0.000043 0.015610 -0.000895
# 2 -0.003233 0.005464 -0.002013 -0.000059 0.000294 0.000561
# 3 0.000320 -0.002013 0.024734 0.012736 0.004853 0.006031
# 4 0.000043 -0.000059 0.012736 0.033259 0.007839 0.008762
# 5 0.015610 0.000294 0.004853 0.007839 0.048283 -0.005085
# 6 -0.000895 0.000561 0.006031 0.008762 -0.005085 0.024317
#
#
# Mechanical properties :
#
#
# Convention : Reuss Voigt Hill
#
# Bulk Modulus (GPa) = 22.49256 52.70157 37.59707
# Shear Modulus (GPa) = 27.04984 41.98204 34.51594
#
# Velocity S-wave (km/s) = 3.18317 3.96561 3.59573
# Velocity P-wave (km/s) = 4.68354 6.38040 5.59665
#
# Compressibility (1/GPa) = 0.04445914
#
# Stress axis : x y z
#
# Youngs Moduli (GPa) = 41.46915 183.00910 40.43074
#
# Poissons Ratio (x) = 0.59166 -0.01293
# Poissons Ratio (y) = 0.13407 0.08140
# Poissons Ratio (z) = -0.01326 0.36846
#
# Static dielectric constant tensor:
#      x y z
#    x 2.186220 -0.115760 0.063560 
#    y -0.115760 2.120530 -0.010920 
#    z 0.063560 -0.010920 2.172280 
# 
# From -- ./inp_files/35109.got.cif
#   From: 2010.05.17/outbox.cif.g08.bks.cpg/sg2_18_cif.got.tgz:35109.got - 2010.06.03 11:33:40.
