data_PCOD9004191
_publ_section_title
;
Structure prediction by ZEFSAII (Michael W. Deem and Ramdas Pophale) SiO2 
 PCOD9004191
Probable space group: P -1
;
_chemical_formula_sum "Si O2"
_cell_formula_units_Z 16
_cell_length_a 15.357058
_cell_length_b 12.066984
_cell_length_c 9.052283
_cell_angle_alpha 45.318274
_cell_angle_beta 69.384482
_cell_angle_gamma 43.682251
_cell_volume 780.873148
_symmetry_space_group_name_H-M "P -1"
_symmetry_group_IT_number 2
_symmetry_cell_setting 'triclinic'
loop_
_space_group_symop_operation_xyz
x,y,z
-x,-y,-z
loop_
_atom_site_type_symbol
_atom_site_label
_atom_site_fract_x
_atom_site_fract_y
_atom_site_fract_z
Si Si1 0.632467 0.316868 0.185734
Si Si2 0.755583 0.510399 0.375391
Si Si3 0.945059 0.236146 0.771325
Si Si4 0.660379 0.618986 0.020167
Si Si5 0.694179 0.704816 0.610985
Si Si6 0.215929 0.066374 0.778246
Si Si7 0.498912 0.235389 0.552908
Si Si8 0.624933 0.006025 0.001190
O O1 0.671246 0.436901 0.112048
O O2 0.588765 0.255834 0.401080
O O3 0.735101 0.119243 0.195180
O O4 0.500000 0.500000 0.000000
O O5 0.889891 0.311529 0.566401
O O6 0.762320 0.498211 0.207602
O O7 0.635498 0.549762 0.479726
O O8 0.701043 0.750757 0.215169
O O9 0.815286 0.443077 0.746139
O O10 0.059895 0.225707 0.737515
O O11 0.000000 0.000000 0.000000
O O12 0.676366 0.720214 0.782648
O O13 0.515618 0.816847 0.995364
O O14 0.735651 0.826493 0.418000
O O15 0.566235 0.790632 0.517082
O O16 0.285163 0.975676 0.983377
O O17 0.588190 0.063310 0.796598
#
# Coordination Sequence:
#
# PCOD9004191 Si02
#       8
#     2   2   2   2   2   2   2   2
#     4  12  24  38  60 100 137 162 207 257 318 390
#     4  10  24  41  67  92 129 167 217 265 312 376
#     4  11  25  46  67  89 125 171 218 261 317 381
#     4  11  23  42  65  97 133 167 207 263 328 371
#     4  11  23  41  69  92 127 172 216 261 310 383
#     4  12  25  40  67  94 127 168 218 259 315 377
#     4  10  21  37  64  96 132 164 208 250 332 360
#     4  11  22  38  67  98 133 161 211 270 311 383
#
# _framework density 20.489882999999999
#
# number of rings (size 3 to 8) (size 9 to 14) (size 15 to 20)
#    0.000    1.000    5.000    2.625    5.250    4.000 
#    0.000    4.375    0.000    0.000    0.000    0.000 
#    0.000    0.000    0.000    0.000    0.000    0.000 
#
# Total GULP energy -89336.959420 kJ/mol
# GULP energy per Si atom -5583.559964 kJ/mol
# Density = 2.044325 g / cm^3
# Si number density = 20.489883 Si / 1000 Ang^3
#
#
#
# Elastic Constant Matrix: (Units=GPa)
#
#
# Indices 1 2 3 4 5 6 
#
# 1 95.5454 23.3601 52.6583 7.7889 18.0063 3.7891
# 2 23.3601 77.4504 40.3867 2.3097 7.6830 17.1649
# 3 52.6583 40.3867 128.4874 5.0756 36.3885 4.1126
# 4 7.7889 2.3097 5.0756 40.0443 11.9067 2.5915
# 5 18.0063 7.6830 36.3885 11.9067 36.7190 -1.5032
# 6 3.7891 17.1649 4.1126 2.5915 -1.5032 33.5333
#
#
#
# Elastic Compliance Matrix: (Units=1/GPa)
#
#
# Indices 1 2 3 4 5 6 
#
# 1 0.013836 -0.001469 -0.004800 -0.001632 -0.001197 -0.000150
# 2 -0.001469 0.017710 -0.005239 -0.000111 0.001909 -0.008162
# 3 -0.004800 -0.005239 0.014656 0.002899 -0.011987 0.000666
# 4 -0.001632 -0.000111 0.002899 0.028504 -0.011408 -0.002829
# 5 -0.001197 0.001909 -0.011987 -0.011408 0.043140 0.003444
# 6 -0.000150 -0.008162 0.000666 -0.002829 0.003444 0.034308
#
#
# Mechanical properties :
#
#
# Convention : Reuss Voigt Hill
#
# Bulk Modulus (GPa) = 43.13408 59.36592 51.25000
# Shear Modulus (GPa) = 27.33759 34.39788 30.86773
#
# Velocity S-wave (km/s) = 3.65663 4.10173 3.88556
# Velocity P-wave (km/s) = 6.23899 7.17415 6.72285
#
# Compressibility (1/GPa) = 0.02318352
#
# Stress axis : x y z
#
# Youngs Moduli (GPa) = 72.27737 56.46633 68.23220
#
# Poissons Ratio (x) = 0.08296 0.32752
# Poissons Ratio (y) = 0.10619 0.35750
# Poissons Ratio (z) = 0.34694 0.29585
#
# Static dielectric constant tensor:
#      x y z
#    x 1.718160 -0.114670 -0.038950 
#    y -0.114670 1.459680 -0.012070 
#    z -0.038950 -0.012070 1.777200 
# 
# From -- ./inp_files/306507.got.cif
#   From: 2010.05.17/outbox.cif.g08.bks.cpg/sg2_154_cif.got.tgz:306507.got - 2010.06.03 11:33:40.
