data_PCOD9004909
_publ_section_title
;
Structure prediction by ZEFSAII (Michael W. Deem and Ramdas Pophale) SiO2 
 PCOD9004909
Probable space group: P -1
;
_chemical_formula_sum "Si O2"
_cell_formula_units_Z 16
_cell_length_a 13.968456
_cell_length_b 9.110317
_cell_length_c 7.755562
_cell_angle_alpha 48.765817
_cell_angle_beta 109.193753
_cell_angle_gamma 108.158389
_cell_volume 694.658613
_symmetry_space_group_name_H-M "P -1"
_symmetry_group_IT_number 2
_symmetry_cell_setting 'triclinic'
loop_
_space_group_symop_operation_xyz
x,y,z
-x,-y,-z
loop_
_atom_site_type_symbol
_atom_site_label
_atom_site_fract_x
_atom_site_fract_y
_atom_site_fract_z
Si Si1 0.934175 0.784981 0.301811
Si Si2 0.947990 0.868827 0.723789
Si Si3 0.275737 0.106587 0.388089
Si Si4 0.041467 0.598197 0.212628
Si Si5 0.424806 0.771807 0.257497
Si Si6 0.590443 0.132569 0.182356
Si Si7 0.777366 0.061056 0.890631
Si Si8 0.503047 0.661718 0.727095
O O1 0.940700 0.626215 0.580245
O O2 0.832737 0.890747 0.147247
O O3 0.024986 0.967743 0.232773
O O4 0.953040 0.652698 0.249347
O O5 0.827263 0.811826 0.679988
O O6 0.000000 0.000000 0.500000
O O7 0.006905 0.687833 0.945757
O O8 0.379310 0.258440 0.311458
O O9 0.299326 0.933900 0.665936
O O10 0.252795 0.014698 0.258251
O O11 0.143785 0.738853 0.218115
O O12 0.437501 0.624406 0.539064
O O13 0.520076 0.937891 0.224032
O O14 0.420349 0.712574 0.098502
O O15 0.325234 0.881244 0.132148
O O16 0.550194 0.182779 0.307960
O O17 0.500000 0.500000 0.000000
#
# Coordination Sequence:
#
# PCOD9004909 Si02
#       8
#     2   2   2   2   2   2   2   2
#     4  10  21  38  60  89 120 160 211 265 310 370
#     4  11  23  40  62  89 130 172 208 261 318 373
#     4  11  20  40  63  87 119 166 217 251 311 390
#     4  10  21  38  59  90 122 155 217 265 308 371
#     4  10  21  39  63  88 122 161 208 259 313 387
#     4  10  21  39  63  90 120 162 210 260 313 380
#     4  11  18  37  64  88 119 166 211 257 322 378
#     4  11  23  41  63  96 130 161 208 267 321 381
#
# _framework density 23.032896000000001
#
# number of rings (size 3 to 8) (size 9 to 14) (size 15 to 20)
#    0.000    1.500    5.000    1.500    3.500    2.000 
#    2.250    1.250    0.000    0.000    0.000    0.000 
#    0.000    0.000    0.000    0.000    0.000    0.000 
#
# Total GULP energy -89246.929888 kJ/mol
# GULP energy per Si atom -5577.933118 kJ/mol
# Density = 2.298047 g / cm^3
# Si number density = 23.032896 Si / 1000 Ang^3
#
#
#
# Elastic Constant Matrix: (Units=GPa)
#
#
# Indices 1 2 3 4 5 6 
#
# 1 93.5385 22.9040 42.8453 10.4136 14.5068 17.5032
# 2 22.9040 46.7354 36.2565 -11.3386 11.5171 6.6572
# 3 42.8453 36.2565 205.6778 -5.4842 12.6872 12.1854
# 4 10.4136 -11.3386 -5.4842 30.9395 -10.1974 6.5999
# 5 14.5068 11.5171 12.6872 -10.1974 39.8798 11.6047
# 6 17.5032 6.6572 12.1854 6.5999 11.6047 23.6173
#
#
#
# Elastic Compliance Matrix: (Units=1/GPa)
#
#
# Indices 1 2 3 4 5 6 
#
# 1 0.015502 -0.006629 -0.001775 -0.008346 -0.004014 -0.004400
# 2 -0.006629 0.031783 -0.003454 0.014567 -0.000117 -0.006277
# 3 -0.001775 -0.003454 0.005907 0.000692 0.000254 -0.001077
# 4 -0.008346 0.014567 0.000692 0.051023 0.017857 -0.021310
# 5 -0.004014 -0.000117 0.000254 0.017857 0.036953 -0.020271
# 6 -0.004400 -0.006277 -0.001077 -0.021310 -0.020271 0.063844
#
#
# Mechanical properties :
#
#
# Convention : Reuss Voigt Hill
#
# Bulk Modulus (GPa) = 33.92682 61.10702 47.51692
# Shear Modulus (GPa) = 20.95971 35.15038 28.05504
#
# Velocity S-wave (km/s) = 3.01988 3.91076 3.49383
# Velocity P-wave (km/s) = 5.18857 6.85420 6.07870
#
# Compressibility (1/GPa) = 0.02947521
#
# Stress axis : x y z
#
# Youngs Moduli (GPa) = 64.50764 31.46369 169.28520
#
# Poissons Ratio (x) = 0.20858 0.30047
# Poissons Ratio (y) = 0.42764 0.58473
# Poissons Ratio (z) = 0.11450 0.10868
#
# Static dielectric constant tensor:
#      x y z
#    x 1.899430 -0.086860 -0.028460 
#    y -0.086860 1.911050 0.022910 
#    z -0.028460 0.022910 2.005360 
# 
# From -- ./inp_files/306341.got.cif
#   From: 2010.05.17/outbox.cif.g08.bks.cpg/sg2_154_cif.got.tgz:306341.got - 2010.06.03 11:33:40.
