data_PCOD9004525
_publ_section_title
;
Structure prediction by ZEFSAII (Michael W. Deem and Ramdas Pophale) SiO2 
 PCOD9004525
Probable space group: P -1
;
_chemical_formula_sum "Si O2"
_cell_formula_units_Z 16
_cell_length_a 5.240395
_cell_length_b 17.051941
_cell_length_c 11.163974
_cell_angle_alpha 62.430136
_cell_angle_beta 59.364485
_cell_angle_gamma 67.256153
_cell_volume 745.879235
_symmetry_space_group_name_H-M "P -1"
_symmetry_group_IT_number 2
_symmetry_cell_setting 'triclinic'
loop_
_space_group_symop_operation_xyz
x,y,z
-x,-y,-z
loop_
_atom_site_type_symbol
_atom_site_label
_atom_site_fract_x
_atom_site_fract_y
_atom_site_fract_z
Si Si1 0.202634 0.183689 0.350531
Si Si2 0.863091 0.472794 0.430912
Si Si3 0.108646 0.638614 0.822882
Si Si4 0.388560 0.847877 0.349266
Si Si5 0.321056 0.297324 0.452641
Si Si6 0.816514 0.031277 0.895435
Si Si7 0.146565 0.530006 0.096075
Si Si8 0.411389 0.990939 0.666823
O O1 0.372835 0.216250 0.400622
O O2 0.383428 0.104513 0.283465
O O3 0.105600 0.272628 0.233871
O O4 0.913774 0.154913 0.500823
O O5 0.500000 0.500000 0.500000
O O6 0.000000 0.500000 0.500000
O O7 0.998270 0.364377 0.463002
O O8 0.023104 0.528995 0.258526
O O9 0.434771 0.643512 0.686965
O O10 0.014385 0.548495 0.861417
O O11 0.077266 0.626484 0.980319
O O12 0.607449 0.752759 0.401596
O O13 0.291562 0.870553 0.217600
O O14 0.528077 0.928674 0.318796
O O15 0.063182 0.985571 0.770993
O O16 0.500000 0.000000 0.000000
O O17 0.000000 0.000000 0.000000
O O18 0.500000 0.500000 0.000000
O O19 0.500000 0.000000 0.500000
#
# Coordination Sequence:
#
# PCOD9004525 Si02
#       8
#     2   2   2   2   2   2   2   2
#     4  11  22  38  71 107 140 175 247 306 344 417
#     4  12  27  45  70 106 143 184 236 293 356 433
#     4  10  21  37  69 100 136 178 240 287 364 408
#     4  11  23  41  74 102 146 184 248 287 368 418
#     4  11  22  43  67 107 141 188 237 298 362 426
#     4  12  26  46  69 100 146 195 231 286 372 432
#     4  11  21  41  71  95 135 181 235 285 358 424
#     4  12  23  42  71 112 134 185 249 301 347 418
#
# _framework density 21.451194999999998
#
# number of rings (size 3 to 8) (size 9 to 14) (size 15 to 20)
#    0.000    0.750    6.250    1.125    3.500    0.000 
#    0.000    2.500    0.000    0.000    0.000    0.000 
#    0.000    0.000    0.000    0.000    0.000    0.000 
#
# Total GULP energy -89140.135149 kJ/mol
# GULP energy per Si atom -5571.258447 kJ/mol
# Density = 2.140237 g / cm^3
# Si number density = 21.451195 Si / 1000 Ang^3
#
#
#
# Elastic Constant Matrix: (Units=GPa)
#
#
# Indices 1 2 3 4 5 6 
#
# 1 121.5345 27.6450 63.6926 -7.7550 -5.6178 -15.4836
# 2 27.6450 67.5009 35.3587 -19.8207 3.6525 -16.0658
# 3 63.6926 35.3587 161.5965 -16.5076 21.7196 -21.4402
# 4 -7.7550 -19.8207 -16.5076 33.2698 -11.9715 8.5864
# 5 -5.6178 3.6525 21.7196 -11.9715 51.2274 -13.5428
# 6 -15.4836 -16.0658 -21.4402 8.5864 -13.5428 36.6962
#
#
#
# Elastic Compliance Matrix: (Units=1/GPa)
#
#
# Indices 1 2 3 4 5 6 
#
# 1 0.011453 -0.001971 -0.004218 0.000072 0.003984 0.002958
# 2 -0.001971 0.021240 -0.002463 0.010686 0.003333 0.005758
# 3 -0.004218 -0.002463 0.009068 0.000446 -0.003779 0.000941
# 4 0.000072 0.010686 0.000446 0.039908 0.008010 -0.001413
# 5 0.003984 0.003333 -0.003779 0.008010 0.025426 0.008442
# 6 0.002958 0.005758 0.000941 -0.001413 0.008442 0.035016
#
#
# Mechanical properties :
#
#
# Convention : Reuss Voigt Hill
#
# Bulk Modulus (GPa) = 40.89006 67.11382 54.00194
# Shear Modulus (GPa) = 29.83877 39.16773 34.50325
#
# Velocity S-wave (km/s) = 3.73367 4.27769 4.01490
# Velocity P-wave (km/s) = 6.13924 7.46678 6.83532
#
# Compressibility (1/GPa) = 0.02445582
#
# Stress axis : x y z
#
# Youngs Moduli (GPa) = 87.31455 47.08141 110.27599
#
# Poissons Ratio (x) = 0.09280 0.46519
# Poissons Ratio (y) = 0.17210 0.27161
# Poissons Ratio (z) = 0.36833 0.11596
#
# Static dielectric constant tensor:
#      x y z
#    x 1.894430 -0.035520 -0.021670 
#    y -0.035520 1.825930 -0.021210 
#    z -0.021670 -0.021210 1.559250 
# 
# From -- ./inp_files/368947.got.cif
#   From: 2010.05.17/outbox.cif.g08.bks.cpg/sg2_185_cif.got.tgz:368947.got - 2010.06.03 11:33:40.
