data_PCOD9004555
_publ_section_title
;
Structure prediction by ZEFSAII (Michael W. Deem and Ramdas Pophale) SiO2 
 PCOD9004555
Probable space group: P -1
;
_chemical_formula_sum "Si O2"
_cell_formula_units_Z 14
_cell_length_a 6.655307
_cell_length_b 9.505176
_cell_length_c 9.763772
_cell_angle_alpha 95.824686
_cell_angle_beta 101.239461
_cell_angle_gamma 107.176857
_cell_volume 570.391020
_symmetry_space_group_name_H-M "P -1"
_symmetry_group_IT_number 2
_symmetry_cell_setting 'triclinic'
loop_
_space_group_symop_operation_xyz
x,y,z
-x,-y,-z
loop_
_atom_site_type_symbol
_atom_site_label
_atom_site_fract_x
_atom_site_fract_y
_atom_site_fract_z
Si Si1 0.642659 0.172166 0.239381
Si Si2 0.273977 0.214666 0.037434
Si Si3 0.521238 0.157782 0.767526
Si Si4 0.915841 0.580055 0.618214
Si Si5 0.073896 0.964571 0.211339
Si Si6 0.781325 0.473399 0.880622
Si Si7 0.664931 0.803127 0.547332
O O1 0.501156 0.190552 0.094323
O O2 0.514550 0.200456 0.360240
O O3 0.878341 0.288399 0.284395
O O4 0.637652 0.002624 0.219327
O O5 0.292189 0.383048 0.089022
O O6 0.124968 0.102322 0.122650
O O7 0.145450 0.161071 0.874736
O O8 0.745337 0.117803 0.787486
O O9 0.592886 0.318408 0.866258
O O10 0.430799 0.179419 0.609269
O O11 0.830315 0.472684 0.724910
O O12 0.742580 0.658440 0.554004
O O13 0.000000 0.500000 0.500000
O O14 0.131191 0.050712 0.371296
O O15 0.000000 0.500000 0.000000
#
# Coordination Sequence:
#
# PCOD9004555 Si02
#       7
#     2   2   2   2   2   2   2
#     4  10  22  43  67  99 133 178 234 275 342 414
#     4   9  18  36  68  90 133 179 222 268 347 405
#     4  10  21  37  70 101 130 182 226 281 334 416
#     4  12  27  43  69 106 141 180 231 287 341 417
#     4   9  16  36  64  97 122 176 229 266 329 415
#     4  12  23  43  71 101 140 184 227 283 351 398
#     4  10  21  41  70  92 141 183 228 271 357 397
#
# _framework density 24.544567000000001
#
# number of rings (size 3 to 8) (size 9 to 14) (size 15 to 20)
#    0.000    2.000    4.286    2.571    2.000    1.714 
#    0.000    3.571    0.000    0.000    0.000    0.000 
#    0.000    0.000    0.000    0.000    0.000    0.000 
#
# Total GULP energy -78363.207756 kJ/mol
# GULP energy per Si atom -5597.371983 kJ/mol
# Density = 2.448870 g / cm^3
# Si number density = 24.544567 Si / 1000 Ang^3
#
#
#
# Elastic Constant Matrix: (Units=GPa)
#
#
# Indices 1 2 3 4 5 6 
#
# 1 52.6993 30.7963 22.0433 8.6820 -0.6793 6.0148
# 2 30.7963 155.9566 59.9581 15.6671 4.8785 8.2265
# 3 22.0433 59.9581 129.5518 7.3266 9.7016 11.7378
# 4 8.6820 15.6671 7.3266 39.4096 6.0388 2.2143
# 5 -0.6793 4.8785 9.7016 6.0388 47.4372 14.4693
# 6 6.0148 8.2265 11.7378 2.2143 14.4693 46.4311
#
#
#
# Elastic Compliance Matrix: (Units=1/GPa)
#
#
# Indices 1 2 3 4 5 6 
#
# 1 0.022634 -0.003255 -0.002101 -0.003515 0.002256 -0.002360
# 2 -0.003255 0.008524 -0.003263 -0.002065 0.000063 -0.000185
# 3 -0.002101 -0.003263 0.009785 0.000216 -0.001354 -0.001212
# 4 -0.003515 -0.002065 0.000216 0.027441 -0.003547 0.000563
# 5 0.002256 0.000063 -0.001354 -0.003547 0.024058 -0.007289
# 6 -0.002360 -0.000185 -0.001212 0.000563 -0.007289 0.024427
#
#
# Mechanical properties :
#
#
# Convention : Reuss Voigt Hill
#
# Bulk Modulus (GPa) = 42.18233 62.64479 52.41356
# Shear Modulus (GPa) = 35.20913 41.68290 38.44602
#
# Velocity S-wave (km/s) = 3.79159 4.12546 3.96204
# Velocity P-wave (km/s) = 6.03254 6.94772 6.50624
#
# Compressibility (1/GPa) = 0.02370661
#
# Stress axis : x y z
#
# Youngs Moduli (GPa) = 44.18156 117.31314 102.19367
#
# Poissons Ratio (x) = 0.38181 0.21474
# Poissons Ratio (y) = 0.14379 0.33341
# Poissons Ratio (z) = 0.09284 0.38274
#
# Static dielectric constant tensor:
#      x y z
#    x 2.012530 0.036380 -0.027800 
#    y 0.036380 1.896880 0.016030 
#    z -0.027800 0.016030 1.946360 
# 
# From -- ./inp_files/376772.got.cif
#   From: 2010.05.17/outbox.cif.g08.bks.cpg/sg2_189_cif.got.tgz:376772.got - 2010.06.03 11:33:40.
