data_PCOD9004211
_publ_section_title
;
Structure prediction by ZEFSAII (Michael W. Deem and Ramdas Pophale) SiO2 
 PCOD9004211
Probable space group: P -1
;
_chemical_formula_sum "Si O2"
_cell_formula_units_Z 14
_cell_length_a 18.546853
_cell_length_b 8.961590
_cell_length_c 20.673045
_cell_angle_alpha 145.377598
_cell_angle_beta 20.735068
_cell_angle_gamma 145.605331
_cell_volume 664.306186
_symmetry_space_group_name_H-M "P -1"
_symmetry_group_IT_number 2
_symmetry_cell_setting 'triclinic'
loop_
_space_group_symop_operation_xyz
x,y,z
-x,-y,-z
loop_
_atom_site_type_symbol
_atom_site_label
_atom_site_fract_x
_atom_site_fract_y
_atom_site_fract_z
Si Si1 0.128606 0.830758 0.443212
Si Si2 0.066192 0.222487 0.845669
Si Si3 0.473925 0.082171 0.477374
Si Si4 0.905611 0.168390 0.823272
Si Si5 0.072287 0.797127 0.913392
Si Si6 0.688368 0.358653 0.651901
Si Si7 0.523510 0.306960 0.972774
O O1 0.273979 0.809354 0.376146
O O2 0.914821 0.581929 0.533991
O O3 0.268158 0.791097 0.250857
O O4 0.039354 0.090453 0.624254
O O5 0.012668 0.102744 0.776969
O O6 0.309189 0.261179 0.673209
O O7 0.000000 0.500000 0.000000
O O8 0.930966 0.074202 0.966727
O O9 0.371462 0.818753 0.425110
O O10 0.500000 0.000000 0.500000
O O11 0.698113 0.221929 0.306768
O O12 0.921048 0.488309 0.925228
O O13 0.671803 0.964697 0.952013
O O14 0.000000 0.000000 0.000000
O O15 0.508321 0.508719 0.874299
O O16 0.500000 0.500000 0.000000
#
# Coordination Sequence:
#
# PCOD9004211 Si02
#       7
#     2   2   2   2   2   2   2
#     4   9  17  35  60  93 127 163 207 283 323 372
#     4  10  23  40  62  95 129 168 227 270 322 393
#     4  12  24  41  65  94 131 183 219 265 338 404
#     4  10  21  37  64  98 129 160 224 274 324 396
#     4  11  25  43  61  92 136 181 216 273 335 396
#     4   9  19  34  58  94 128 160 220 264 324 393
#     4   9  19  33  61  97 127 166 206 277 339 374
#
# _framework density 21.074619999999999
#
# number of rings (size 3 to 8) (size 9 to 14) (size 15 to 20)
#    0.000    2.000    2.857    0.857    4.000    4.571 
#    0.000    0.000    0.000    6.857    0.000    0.000 
#    0.000    0.000    0.000    0.000    0.000    0.000 
#
# Total GULP energy -78053.649744 kJ/mol
# GULP energy per Si atom -5575.260696 kJ/mol
# Density = 2.102665 g / cm^3
# Si number density = 21.074620 Si / 1000 Ang^3
#
#
#
# Elastic Constant Matrix: (Units=GPa)
#
#
# Indices 1 2 3 4 5 6 
#
# 1 70.7462 18.8662 17.9437 10.0196 7.2698 5.0887
# 2 18.8662 75.7273 22.3121 10.9436 0.9129 3.8473
# 3 17.9437 22.3121 165.3650 6.2547 23.8465 -3.0997
# 4 10.0196 10.9436 6.2547 27.1159 1.1189 5.9391
# 5 7.2698 0.9129 23.8465 1.1189 20.2276 4.9532
# 6 5.0887 3.8473 -3.0997 5.9391 4.9532 22.9283
#
#
#
# Elastic Compliance Matrix: (Units=1/GPa)
#
#
# Indices 1 2 3 4 5 6 
#
# 1 0.016258 -0.003178 -0.000539 -0.004176 -0.004569 -0.001079
# 2 -0.003178 0.015284 -0.002114 -0.004256 0.003627 -0.001826
# 3 -0.000539 -0.002114 0.007958 -0.001255 -0.010012 0.004038
# 4 -0.004176 -0.004256 -0.001255 0.042540 0.003333 -0.010268
# 5 -0.004569 0.003627 -0.010012 0.003333 0.066496 -0.016177
# 6 -0.001079 -0.001826 0.004038 -0.010268 -0.016177 0.050860
#
#
# Mechanical properties :
#
#
# Convention : Reuss Voigt Hill
#
# Bulk Modulus (GPa) = 35.92163 47.78693 41.85428
# Shear Modulus (GPa) = 22.69259 30.90214 26.79736
#
# Velocity S-wave (km/s) = 3.28498 3.83341 3.56974
# Velocity P-wave (km/s) = 5.60982 6.50521 6.07404
#
# Compressibility (1/GPa) = 0.02783838
#
# Stress axis : x y z
#
# Youngs Moduli (GPa) = 61.50916 65.42805 125.66333
#
# Poissons Ratio (x) = 0.20795 0.06769
# Poissons Ratio (y) = 0.19550 0.26560
# Poissons Ratio (z) = 0.03313 0.13829
#
# Static dielectric constant tensor:
#      x y z
#    x 1.785430 0.005460 0.033920 
#    y 0.005460 1.757380 0.011180 
#    z 0.033920 0.011180 1.800440 
# 
# From -- ./inp_files/451141.got.cif
#   From: 2010.05.17/outbox.cif.g08.bks.cpg/sg2_226_cif.got.tgz:451141.got - 2010.06.03 11:33:40.
