data_PCOD9004110
_publ_section_title
;
Structure prediction by ZEFSAII (Michael W. Deem and Ramdas Pophale) SiO2 
 PCOD9004110
Probable space group: P -1
;
_chemical_formula_sum "Si O2"
_cell_formula_units_Z 14
_cell_length_a 30.522786
_cell_length_b 14.531442
_cell_length_c 12.729461
_cell_angle_alpha 150.106080
_cell_angle_beta 160.846191
_cell_angle_gamma 20.130209
_cell_volume 627.477704
_symmetry_space_group_name_H-M "P -1"
_symmetry_group_IT_number 2
_symmetry_cell_setting 'triclinic'
loop_
_space_group_symop_operation_xyz
x,y,z
-x,-y,-z
loop_
_atom_site_type_symbol
_atom_site_label
_atom_site_fract_x
_atom_site_fract_y
_atom_site_fract_z
Si Si1 0.842367 0.924699 0.771023
Si Si2 0.462601 0.006078 0.299191
Si Si3 0.911829 0.240112 0.303772
Si Si4 0.743208 0.503757 0.800506
Si Si5 0.177910 0.389983 0.719353
Si Si6 0.853321 0.645986 0.714177
Si Si7 0.631874 0.310065 0.210292
O O1 0.735198 0.877782 0.409181
O O2 0.896845 0.752257 0.828093
O O3 0.030272 0.785489 0.984920
O O4 0.781016 0.189978 0.935210
O O5 0.641083 0.903625 0.535552
O O6 0.500000 0.000000 0.500000
O O7 0.274332 0.304891 0.128260
O O8 0.438636 0.816390 0.037504
O O9 0.902384 0.381702 0.320386
O O10 0.851954 0.442107 0.459807
O O11 0.135812 0.946575 0.544490
O O12 0.617472 0.471588 0.430885
O O13 0.688358 0.631896 0.917708
O O14 0.000000 0.500000 0.500000
O O15 0.000000 0.500000 0.000000
O O16 0.500000 0.500000 0.000000
#
# Coordination Sequence:
#
# PCOD9004110 Si02
#       7
#     2   2   2   2   2   2   2
#     4   9  20  39  61  88 121 155 201 250 298 351
#     4  12  23  40  60  84 124 155 197 250 300 361
#     4  10  22  40  60  90 125 157 201 252 297 359
#     4  10  21  37  64  91 117 158 203 247 299 351
#     4   9  18  36  63  92 119 154 206 251 296 347
#     4  11  24  38  60  86 119 164 201 243 305 361
#     4  11  22  36  60  88 124 157 195 246 299 356
#
# _framework density 22.31155
#
# number of rings (size 3 to 8) (size 9 to 14) (size 15 to 20)
#    0.000    1.714    1.429    4.286    2.000    8.000 
#    0.000    2.857    0.000    5.143    0.000    0.000 
#    0.000    0.000    0.000    0.000    0.000    0.000 
#
# Total GULP energy -78109.345403 kJ/mol
# GULP energy per Si atom -5579.238957 kJ/mol
# Density = 2.226077 g / cm^3
# Si number density = 22.311550 Si / 1000 Ang^3
#
#
#
# Elastic Constant Matrix: (Units=GPa)
#
#
# Indices 1 2 3 4 5 6 
#
# 1 71.9263 28.5447 38.9466 24.4572 -19.2923 -17.2706
# 2 28.5447 87.0865 40.0715 40.7946 -5.8909 -2.8130
# 3 38.9466 40.0715 114.5794 51.7887 -27.9865 -4.2853
# 4 24.4572 40.7946 51.7887 53.9623 -8.6904 5.7611
# 5 -19.2923 -5.8909 -27.9865 -8.6904 43.5236 5.2319
# 6 -17.2706 -2.8130 -4.2853 5.7611 5.2319 28.8127
#
#
#
# Elastic Compliance Matrix: (Units=1/GPa)
#
#
# Indices 1 2 3 4 5 6 
#
# 1 0.023261 -0.002421 -0.001678 -0.007675 0.005694 0.013958
# 2 -0.002421 0.018670 0.000383 -0.014004 -0.001517 0.003504
# 3 -0.001678 0.000383 0.018660 -0.016626 0.007534 0.003763
# 4 -0.007675 -0.014004 -0.016626 0.049810 -0.003916 -0.017689
# 5 0.005694 -0.001517 0.007534 -0.003916 0.029377 -0.000166
# 6 0.013958 0.003504 0.003763 -0.017689 -0.000166 0.047542
#
#
# Mechanical properties :
#
#
# Convention : Reuss Voigt Hill
#
# Bulk Modulus (GPa) = 18.81141 54.30197 36.55669
# Shear Modulus (GPa) = 23.53257 36.32834 29.93046
#
# Velocity S-wave (km/s) = 3.25118 4.03951 3.66659
# Velocity P-wave (km/s) = 4.74796 6.79321 5.86050
#
# Compressibility (1/GPa) = 0.05315924
#
# Stress axis : x y z
#
# Youngs Moduli (GPa) = 42.99059 53.56102 53.59182
#
# Poissons Ratio (x) = 0.12967 0.08994
# Poissons Ratio (y) = 0.10408 -0.02055
# Poissons Ratio (z) = 0.07215 -0.02054
#
# Static dielectric constant tensor:
#      x y z
#    x 1.776900 -0.055980 0.035150 
#    y -0.055980 1.943370 -0.033250 
#    z 0.035150 -0.033250 1.864920 
# 
# From -- ./inp_files/269852.got.cif
#   From: 2010.05.17/outbox.cif.g08.bks.cpg/sg2_135_cif.got.tgz:269852.got - 2010.06.03 11:33:40.
