data_PCOD9004511
_publ_section_title
;
Structure prediction by ZEFSAII (Michael W. Deem and Ramdas Pophale) SiO2 
 PCOD9004511
Probable space group: P -1
;
_chemical_formula_sum "Si O2"
_cell_formula_units_Z 14
_cell_length_a 8.987858
_cell_length_b 12.723863
_cell_length_c 6.986654
_cell_angle_alpha 68.539417
_cell_angle_beta 45.611555
_cell_angle_gamma 81.858996
_cell_volume 523.478564
_symmetry_space_group_name_H-M "P -1"
_symmetry_group_IT_number 2
_symmetry_cell_setting 'triclinic'
loop_
_space_group_symop_operation_xyz
x,y,z
-x,-y,-z
loop_
_atom_site_type_symbol
_atom_site_label
_atom_site_fract_x
_atom_site_fract_y
_atom_site_fract_z
Si Si1 0.296593 0.926852 0.137952
Si Si2 0.244981 0.478292 0.761443
Si Si3 0.162639 0.675363 0.487225
Si Si4 0.862731 0.906537 0.054419
Si Si5 0.964515 0.317728 0.838542
Si Si6 0.590445 0.613640 0.965607
Si Si7 0.483996 0.798474 0.704420
O O1 0.185400 0.810851 0.419869
O O2 0.379311 0.876399 0.896913
O O3 0.500000 0.000000 0.000000
O O4 0.149406 0.021222 0.173189
O O5 0.500000 0.500000 0.500000
O O6 0.143596 0.593610 0.746678
O O7 0.237346 0.412486 0.017353
O O8 0.142529 0.411782 0.710772
O O9 0.041532 0.657504 0.402031
O O10 0.396192 0.653232 0.227634
O O11 0.621249 0.869287 0.370477
O O12 0.969998 0.796606 0.056009
O O13 0.000000 0.000000 0.000000
O O14 0.711664 0.297207 0.122236
O O15 0.500000 0.500000 0.000000
O O16 0.645955 0.726434 0.708422
#
# Coordination Sequence:
#
# PCOD9004511 Si02
#       7
#     2   2   2   2   2   2   2
#     4  10  22  40  65  99 137 174 218 272 331 391
#     4  10  21  37  68  95 128 176 221 266 330 397
#     4   9  20  39  62  96 134 173 216 271 327 391
#     4  12  23  42  74  94 125 181 226 263 344 392
#     4  10  22  41  68  98 133 175 221 270 340 387
#     4   9  20  38  62  93 134 171 214 272 332 385
#     4  10  24  43  65  97 139 168 221 279 325 396
#
# _framework density 26.74417
#
# number of rings (size 3 to 8) (size 9 to 14) (size 15 to 20)
#    0.000    2.286    2.857    0.857   10.000    0.000 
#    0.000    5.000    0.000    0.000    0.000    0.000 
#    0.000    0.000    0.000    0.000    0.000    0.000 
#
# Total GULP energy -78172.626599 kJ/mol
# GULP energy per Si atom -5583.759043 kJ/mol
# Density = 2.668330 g / cm^3
# Si number density = 26.744170 Si / 1000 Ang^3
#
#
#
# Elastic Constant Matrix: (Units=GPa)
#
#
# Indices 1 2 3 4 5 6 
#
# 1 248.3402 55.5859 45.6951 -28.8914 -0.7749 -21.2343
# 2 55.5859 85.8785 30.5653 -30.7931 25.2050 -38.4740
# 3 45.6951 30.5653 114.7404 -23.1846 32.1356 -8.2106
# 4 -28.8914 -30.7931 -23.1846 56.3799 -16.3387 2.8554
# 5 -0.7749 25.2050 32.1356 -16.3387 42.4584 -17.8965
# 6 -21.2343 -38.4740 -8.2106 2.8554 -17.8965 68.9084
#
#
#
# Elastic Compliance Matrix: (Units=1/GPa)
#
#
# Indices 1 2 3 4 5 6 
#
# 1 0.005390 -0.003209 -0.002230 0.001366 0.004521 0.000721
# 2 -0.003209 0.023284 -0.000887 0.008554 -0.005669 0.010079
# 3 -0.002230 -0.000887 0.012548 0.000858 -0.009617 -0.002221
# 4 0.001366 0.008554 0.000858 0.025024 0.006427 0.005932
# 5 0.004521 -0.005669 -0.009617 0.006427 0.039763 0.007143
# 6 0.000721 0.010079 -0.002221 0.005932 0.007143 0.021706
#
#
# Mechanical properties :
#
#
# Convention : Reuss Voigt Hill
#
# Bulk Modulus (GPa) = 35.00329 79.18353 57.09341
# Shear Modulus (GPa) = 33.35765 54.69020 44.02392
#
# Velocity S-wave (km/s) = 3.53553 4.52701 4.06163
# Velocity P-wave (km/s) = 5.45740 7.54964 6.58712
#
# Compressibility (1/GPa) = 0.02856874
#
# Stress axis : x y z
#
# Youngs Moduli (GPa) = 185.52584 42.94862 79.69527
#
# Poissons Ratio (x) = 0.13783 0.17775
# Poissons Ratio (y) = 0.59537 0.07068
# Poissons Ratio (z) = 0.41379 0.03809
#
# Static dielectric constant tensor:
#      x y z
#    x 2.158890 0.129290 -0.071200 
#    y 0.129290 2.204620 -0.133190 
#    z -0.071200 -0.133190 2.506570 
# 
# From -- ./inp_files/199279.got.cif
#   From: 2010.05.17/outbox.cif.g08.bks.cpg/sg2_100_cif.got.tgz:199279.got - 2010.06.03 11:33:40.
