data_PCOD9004244
_publ_section_title
;
Structure prediction by ZEFSAII (Michael W. Deem and Ramdas Pophale) SiO2 
 PCOD9004244
Probable space group: P -1
;
_chemical_formula_sum "Si O2"
_cell_formula_units_Z 16
_cell_length_a 8.785852
_cell_length_b 13.554962
_cell_length_c 9.889203
_cell_angle_alpha 58.118509
_cell_angle_beta 124.654308
_cell_angle_gamma 93.550837
_cell_volume 773.249871
_symmetry_space_group_name_H-M "P -1"
_symmetry_group_IT_number 2
_symmetry_cell_setting 'triclinic'
loop_
_space_group_symop_operation_xyz
x,y,z
-x,-y,-z
loop_
_atom_site_type_symbol
_atom_site_label
_atom_site_fract_x
_atom_site_fract_y
_atom_site_fract_z
Si Si1 0.480521 0.958784 0.867785
Si Si2 0.326979 0.442675 0.444722
Si Si3 0.108048 0.455938 0.776189
Si Si4 0.075146 0.084030 0.571992
Si Si5 0.837182 0.305040 0.453807
Si Si6 0.610698 0.542039 0.835427
Si Si7 0.086615 0.078166 0.892476
Si Si8 0.544033 0.686756 0.126081
O O1 0.697780 0.932513 0.938611
O O2 0.435526 0.830695 0.938703
O O3 0.292283 0.068192 0.638032
O O4 0.500000 0.000000 0.000000
O O5 0.500000 0.500000 0.500000
O O6 0.326385 0.414228 0.306581
O O7 0.386331 0.335525 0.665720
O O8 0.111586 0.537514 0.306099
O O9 0.088320 0.580089 0.593587
O O10 0.262196 0.350217 0.843289
O O11 0.226380 0.466641 0.964012
O O12 0.926818 0.221471 0.427341
O O13 0.102434 0.031705 0.777999
O O14 0.000000 0.000000 0.500000
O O15 0.601673 0.360357 0.299260
O O16 0.933294 0.216456 0.692380
O O17 0.567851 0.411591 0.890585
O O18 0.000000 0.000000 0.000000
#
# Coordination Sequence:
#
# PCOD9004244 Si02
#       8
#     2   2   2   2   2   2   2   2
#     4  10  21  38  60  90 117 161 206 237 293 361
#     4  10  22  38  57  92 123 155 193 247 298 352
#     4  11  21  39  65  88 121 159 199 241 300 361
#     4   9  21  37  63  82 119 152 205 243 290 352
#     4   9  20  37  63  86 117 153 204 237 302 347
#     4  10  22  38  63  91 121 155 194 251 306 349
#     4   9  20  39  62  84 120 155 197 247 299 346
#     4  10  21  37  65  87 119 156 202 244 292 361
#
# _framework density 20.691887999999999
#
# number of rings (size 3 to 8) (size 9 to 14) (size 15 to 20)
#    0.750    1.500    0.000    3.000    3.500    4.000 
#    0.000    3.125    2.750    0.000    0.000    0.000 
#    0.000    0.000    0.000    0.000    0.000    0.000 
#
# Total GULP energy -89144.664900 kJ/mol
# GULP energy per Si atom -5571.541556 kJ/mol
# Density = 2.064479 g / cm^3
# Si number density = 20.691888 Si / 1000 Ang^3
#
#
#
# Elastic Constant Matrix: (Units=GPa)
#
#
# Indices 1 2 3 4 5 6 
#
# 1 100.2877 24.6787 48.6622 -2.1653 12.5283 4.9383
# 2 24.6787 67.9444 24.5700 -11.4393 11.0260 -8.5798
# 3 48.6622 24.5700 75.0800 1.7797 9.4159 0.2540
# 4 -2.1653 -11.4393 1.7797 35.8362 -4.4770 8.8531
# 5 12.5283 11.0260 9.4159 -4.4770 34.9665 5.8945
# 6 4.9383 -8.5798 0.2540 8.8531 5.8945 21.9094
#
#
#
# Elastic Compliance Matrix: (Units=1/GPa)
#
#
# Indices 1 2 3 4 5 6 
#
# 1 0.015373 -0.002416 -0.009026 0.001570 -0.001343 -0.004579
# 2 -0.002416 0.019638 -0.004341 0.003691 -0.005060 0.008155
# 3 -0.009026 -0.004341 0.020904 -0.003718 -0.001855 0.002094
# 4 0.001570 0.003691 -0.003718 0.033570 0.005938 -0.014027
# 5 -0.001343 -0.005060 -0.001855 0.005938 0.034169 -0.013249
# 6 -0.004579 0.008155 0.002094 -0.014027 -0.013249 0.059077
#
#
# Mechanical properties :
#
#
# Convention : Reuss Voigt Hill
#
# Bulk Modulus (GPa) = 41.07209 48.79266 44.93237
# Shear Modulus (GPa) = 22.48081 28.23582 25.35831
#
# Velocity S-wave (km/s) = 3.29972 3.69804 3.50454
# Velocity P-wave (km/s) = 5.86600 6.47037 6.17558
#
# Compressibility (1/GPa) = 0.02434744
#
# Stress axis : x y z
#
# Youngs Moduli (GPa) = 65.05030 50.92285 47.83803
#
# Poissons Ratio (x) = 0.12301 0.43181
# Poissons Ratio (y) = 0.15714 0.20768
# Poissons Ratio (z) = 0.58717 0.22107
#
# Static dielectric constant tensor:
#      x y z
#    x 1.774790 -0.022960 0.046070 
#    y -0.022960 1.772970 0.017770 
#    z 0.046070 0.017770 1.799860 
# 
# From -- ./inp_files/398652.got.cif
#   From: 2010.05.17/outbox.cif.g08.bks.cpg/sg2_200_cif.got.tgz:398652.got - 2010.06.03 11:33:40.
