data_PCOD9004750
_publ_section_title
;
Structure prediction by ZEFSAII (Michael W. Deem and Ramdas Pophale) SiO2 
 PCOD9004750
Probable space group: P -1
;
_chemical_formula_sum "Si O2"
_cell_formula_units_Z 14
_cell_length_a 11.245136
_cell_length_b 20.267168
_cell_length_c 17.280383
_cell_angle_alpha 20.860982
_cell_angle_beta 155.153355
_cell_angle_gamma 143.763294
_cell_volume 566.324100
_symmetry_space_group_name_H-M "P -1"
_symmetry_group_IT_number 2
_symmetry_cell_setting 'triclinic'
loop_
_space_group_symop_operation_xyz
x,y,z
-x,-y,-z
loop_
_atom_site_type_symbol
_atom_site_label
_atom_site_fract_x
_atom_site_fract_y
_atom_site_fract_z
Si Si1 0.922011 0.024659 0.017151
Si Si2 0.618131 0.036088 0.156365
Si Si3 0.747347 0.701120 0.484021
Si Si4 0.124452 0.609019 0.593885
Si Si5 0.348473 0.201850 0.152439
Si Si6 0.623802 0.447465 0.955807
Si Si7 0.454328 0.595766 0.213920
O O1 0.096971 0.815990 0.387073
O O2 0.585692 0.045984 0.816064
O O3 0.046471 0.184254 0.955676
O O4 0.000000 0.000000 0.000000
O O5 0.409521 0.178165 0.813874
O O6 0.736985 0.192444 0.102028
O O7 0.789850 0.856583 0.402609
O O8 0.555019 0.568612 0.550030
O O9 0.071162 0.562244 0.811555
O O10 0.784529 0.613715 0.374255
O O11 0.276147 0.394660 0.951172
O O12 0.332939 0.596816 0.654761
O O13 0.548171 0.248081 0.151128
O O14 0.500000 0.000000 0.500000
O O15 0.657663 0.464750 0.866383
#
# Coordination Sequence:
#
# PCOD9004750 Si02
#       7
#     2   2   2   2   2   2   2
#     4  11  22  39  67  94 119 165 210 254 309 366
#     4  10  24  40  64  89 123 167 212 245 304 387
#     4  11  23  43  61  88 131 164 202 254 311 370
#     4   9  23  39  63  93 127 155 215 256 303 376
#     4  10  21  38  58  88 127 161 196 253 317 349
#     4  10  23  40  61  96 126 157 210 263 304 368
#     4  11  21  42  64  88 119 169 207 252 313 364
#
# _framework density 24.720828000000001
#
# number of rings (size 3 to 8) (size 9 to 14) (size 15 to 20)
#    0.857    0.857    0.000    4.714    4.000    2.286 
#    5.143    0.000    0.000    0.000    0.000    0.000 
#    0.000    0.000    0.000    0.000    0.000    0.000 
#
# Total GULP energy -78166.332893 kJ/mol
# GULP energy per Si atom -5583.309492 kJ/mol
# Density = 2.466456 g / cm^3
# Si number density = 24.720828 Si / 1000 Ang^3
#
#
#
# Elastic Constant Matrix: (Units=GPa)
#
#
# Indices 1 2 3 4 5 6 
#
# 1 102.4918 16.0826 20.7001 -16.4132 -3.8953 5.3493
# 2 16.0826 70.5788 9.5590 -19.3825 8.2703 6.6344
# 3 20.7001 9.5590 79.5386 -8.3130 10.6740 -3.7342
# 4 -16.4132 -19.3825 -8.3130 28.8302 -7.8895 12.5232
# 5 -3.8953 8.2703 10.6740 -7.8895 34.1848 -6.9440
# 6 5.3493 6.6344 -3.7342 12.5232 -6.9440 34.8095
#
#
#
# Elastic Compliance Matrix: (Units=1/GPa)
#
#
# Indices 1 2 3 4 5 6 
#
# 1 0.012185 0.000241 -0.002912 0.009319 0.003393 -0.004906
# 2 0.000241 0.020409 -0.000811 0.017590 -0.002812 -0.010903
# 3 -0.002912 -0.000811 0.014072 0.000170 -0.004246 0.001204
# 4 0.009319 0.017590 0.000170 0.065333 0.006346 -0.027005
# 5 0.003393 -0.002812 -0.004246 0.006346 0.033932 0.004045
# 6 -0.004906 -0.010903 0.001204 -0.027005 0.004045 0.042211
#
#
# Mechanical properties :
#
#
# Convention : Reuss Voigt Hill
#
# Bulk Modulus (GPa) = 25.18900 38.36582 31.77741
# Shear Modulus (GPa) = 23.99932 33.31607 28.65769
#
# Velocity S-wave (km/s) = 3.11917 3.67508 3.40847
# Velocity P-wave (km/s) = 4.81495 5.79323 5.32660
#
# Compressibility (1/GPa) = 0.03969987
#
# Stress axis : x y z
#
# Youngs Moduli (GPa) = 82.07106 48.99870 71.06398
#
# Poissons Ratio (x) = -0.01179 0.20692
# Poissons Ratio (y) = -0.01974 0.05766
# Poissons Ratio (z) = 0.23897 0.03976
#
# Static dielectric constant tensor:
#      x y z
#    x 1.976080 -0.019300 -0.015390 
#    y -0.019300 1.938460 0.022510 
#    z -0.015390 0.022510 2.028180 
# 
# From -- ./inp_files/570704.got.cif
#   From: 2010.05.17/outbox.cif.g08.bks.cpg/sg2_286_cif.got.tgz:570704.got - 2010.06.03 11:33:40.
