data_PCOD9004827
_publ_section_title
;
Structure prediction by ZEFSAII (Michael W. Deem and Ramdas Pophale) SiO2 
 PCOD9004827
Probable space group: P -1
;
_chemical_formula_sum "Si O2"
_cell_formula_units_Z 16
_cell_length_a 11.696187
_cell_length_b 12.058821
_cell_length_c 13.984057
_cell_angle_alpha 84.137224
_cell_angle_beta 159.060340
_cell_angle_gamma 100.864203
_cell_volume 676.737379
_symmetry_space_group_name_H-M "P -1"
_symmetry_group_IT_number 2
_symmetry_cell_setting 'triclinic'
loop_
_space_group_symop_operation_xyz
x,y,z
-x,-y,-z
loop_
_atom_site_type_symbol
_atom_site_label
_atom_site_fract_x
_atom_site_fract_y
_atom_site_fract_z
Si Si1 0.746136 0.530809 0.543075
Si Si2 0.293245 0.801804 0.382923
Si Si3 0.696394 0.150709 0.912662
Si Si4 0.054196 0.220106 0.387823
Si Si5 0.810960 0.618889 0.162252
Si Si6 0.238130 0.351476 0.258365
Si Si7 0.275227 0.094062 0.117122
Si Si8 0.757027 0.281620 0.339637
O O1 0.730249 0.646806 0.468043
O O2 0.409115 0.425880 0.293651
O O3 0.804991 0.564139 0.697775
O O4 0.055828 0.491971 0.745987
O O5 0.506551 0.724348 0.505905
O O6 0.544242 0.888147 0.641724
O O7 0.041543 0.712136 0.263056
O O8 0.066106 0.869126 0.146055
O O9 0.834319 0.185175 0.124271
O O10 0.894599 0.255889 0.991133
O O11 0.308935 0.142402 0.604801
O O12 0.768012 0.031849 0.948208
O O13 0.839161 0.221705 0.313674
O O14 0.918849 0.661651 0.349735
O O15 0.441100 0.623009 0.849092
O O16 0.516488 0.185280 0.226479
#
# Coordination Sequence:
#
# PCOD9004827 Si02
#       8
#     2   2   2   2   2   2   2   2
#     4   9  20  39  61  85 116 151 188 235 285 335
#     4   9  19  36  59  86 114 149 190 229 281 341
#     4  11  24  39  58  86 115 150 195 233 279 341
#     4  11  24  39  58  86 115 150 195 233 279 341
#     4   9  19  36  59  86 114 149 190 229 281 341
#     4   9  20  39  61  85 116 151 188 235 285 335
#     4  10  21  38  59  85 117 149 187 236 282 333
#     4  10  21  38  59  85 117 149 187 236 282 333
#
# _framework density 23.642849999999999
#
# number of rings (size 3 to 8) (size 9 to 14) (size 15 to 20)
#    0.000    2.250    0.000    1.500    0.000    7.500 
#    0.000    7.500    0.000    0.000    0.000    0.000 
#    0.000    0.000    0.000    0.000    0.000    0.000 
#
# Total GULP energy -89521.456858 kJ/mol
# GULP energy per Si atom -5595.091054 kJ/mol
# Density = 2.358904 g / cm^3
# Si number density = 23.642850 Si / 1000 Ang^3
#
#
#
# Elastic Constant Matrix: (Units=GPa)
#
#
# Indices 1 2 3 4 5 6 
#
# 1 87.9250 20.4426 19.9556 4.9184 -1.9414 -1.9108
# 2 20.4426 82.8360 -4.1492 -0.3431 3.8013 -11.7647
# 3 19.9556 -4.1492 73.8028 -14.2446 -7.9313 5.8700
# 4 4.9184 -0.3431 -14.2446 22.7549 -3.6106 8.9419
# 5 -1.9414 3.8013 -7.9313 -3.6106 21.4613 3.3556
# 6 -1.9108 -11.7647 5.8700 8.9419 3.3556 24.3244
#
#
#
# Elastic Compliance Matrix: (Units=1/GPa)
#
#
# Indices 1 2 3 4 5 6 
#
# 1 0.014180 -0.002967 -0.006679 -0.009902 -0.003165 0.005367
# 2 -0.002967 0.014229 -0.000281 -0.003493 -0.004836 0.008668
# 3 -0.006679 -0.000281 0.023250 0.025322 0.015059 -0.017657
# 4 -0.009902 -0.003493 0.025322 0.083732 0.029968 -0.043493
# 5 -0.003165 -0.004836 0.015059 0.029968 0.061801 -0.025764
# 6 0.005367 0.008668 -0.017657 -0.043493 -0.025764 0.069529
#
#
# Mechanical properties :
#
#
# Convention : Reuss Voigt Hill
#
# Bulk Modulus (GPa) = 31.44335 35.22908 33.33621
# Shear Modulus (GPa) = 16.82500 27.59577 22.21039
#
# Velocity S-wave (km/s) = 2.67054 3.42013 3.06831
# Velocity P-wave (km/s) = 4.77883 5.52533 5.16558
#
# Compressibility (1/GPa) = 0.03180323
#
# Stress axis : x y z
#
# Youngs Moduli (GPa) = 70.52270 70.28020 43.01103
#
# Poissons Ratio (x) = 0.20855 0.28728
# Poissons Ratio (y) = 0.20927 0.01209
# Poissons Ratio (z) = 0.47103 0.01975
#
# Static dielectric constant tensor:
#      x y z
#    x 1.878420 0.025720 0.014630 
#    y 0.025720 1.891690 0.017150 
#    z 0.014630 0.017150 1.871510 
# 
# From -- ./inp_files/94713.got.cif
#   From: 2010.05.17/outbox.cif.g08.bks.cpg/sg2_48_cif.got.tgz:94713.got - 2010.06.03 11:33:40.
