data_PCOD9004967
_publ_section_title
;
Structure prediction by ZEFSAII (Michael W. Deem and Ramdas Pophale) SiO2 
 PCOD9004967
Probable space group: P -1
;
_chemical_formula_sum "Si O2"
_cell_formula_units_Z 16
_cell_length_a 9.340262
_cell_length_b 17.244121
_cell_length_c 5.192309
_cell_angle_alpha 113.929939
_cell_angle_beta 93.793877
_cell_angle_gamma 74.249572
_cell_volume 734.791550
_symmetry_space_group_name_H-M "P -1"
_symmetry_group_IT_number 2
_symmetry_cell_setting 'triclinic'
loop_
_space_group_symop_operation_xyz
x,y,z
-x,-y,-z
loop_
_atom_site_type_symbol
_atom_site_label
_atom_site_fract_x
_atom_site_fract_y
_atom_site_fract_z
Si Si1 0.863924 0.786612 0.466957
Si Si2 0.598072 0.397983 0.875881
Si Si3 0.661181 0.791874 0.961713
Si Si4 0.071875 0.033002 0.299963
Si Si5 0.032900 0.413563 0.706478
Si Si6 0.569918 0.034299 0.803273
Si Si7 0.743905 0.428827 0.433889
Si Si8 0.359366 0.379257 0.481064
O O1 0.752788 0.805662 0.238609
O O2 0.953249 0.860922 0.570084
O O3 0.957999 0.684484 0.315534
O O4 0.762662 0.797822 0.730251
O O5 0.715727 0.392217 0.655651
O O6 0.483691 0.349110 0.675218
O O7 0.500000 0.500000 0.000000
O O8 0.685824 0.379514 0.128761
O O9 0.501935 0.861647 0.041996
O O10 0.635852 0.695820 0.823096
O O11 0.251947 0.994695 0.244720
O O12 0.000000 0.000000 0.500000
O O13 0.000000 0.000000 0.000000
O O14 0.200806 0.401647 0.625838
O O15 0.916746 0.427376 0.472594
O O16 0.000000 0.500000 0.000000
O O17 0.500000 0.000000 0.500000
O O18 0.500000 0.000000 0.000000
O O19 0.643860 0.529671 0.535858
#
# Coordination Sequence:
#
# PCOD9004967 Si02
#       8
#     2   2   2   2   2   2   2   2
#     4  11  24  43  69 102 139 179 226 286 345 402
#     4  10  21  38  60  84 123 172 213 263 332 387
#     4  11  22  41  70 102 129 170 233 287 328 404
#     4  12  25  45  74 103 143 179 222 286 362 416
#     4  11  23  41  69  99 134 180 233 280 329 400
#     4  12  22  44  76 102 132 176 231 279 346 423
#     4  11  22  39  61  89 129 176 216 267 331 391
#     4  10  22  39  66  95 129 174 230 280 329 395
#
# _framework density 21.774884
#
# number of rings (size 3 to 8) (size 9 to 14) (size 15 to 20)
#    0.000    1.000    2.500    5.625    0.000    7.000 
#    2.250    0.000    5.500    0.000    0.000    0.000 
#    0.000    0.000    0.000    0.000    0.000    0.000 
#
# Total GULP energy -89367.312261 kJ/mol
# GULP energy per Si atom -5585.457016 kJ/mol
# Density = 2.172532 g / cm^3
# Si number density = 21.774884 Si / 1000 Ang^3
#
#
#
# Elastic Constant Matrix: (Units=GPa)
#
#
# Indices 1 2 3 4 5 6 
#
# 1 140.3250 41.8203 49.2212 -5.8992 8.1720 1.3436
# 2 41.8203 97.6004 47.6829 16.3290 -9.3706 3.1709
# 3 49.2212 47.6829 123.8015 -13.4237 14.6461 2.6527
# 4 -5.8992 16.3290 -13.4237 45.8722 5.4726 -4.2246
# 5 8.1720 -9.3706 14.6461 5.4726 40.2299 -0.3660
# 6 1.3436 3.1709 2.6527 -4.2246 -0.3660 30.5393
#
#
#
# Elastic Compliance Matrix: (Units=1/GPa)
#
#
# Indices 1 2 3 4 5 6 
#
# 1 0.009041 -0.003712 -0.001635 0.002333 -0.002419 0.000423
# 2 -0.003712 0.018415 -0.007823 -0.010657 0.009319 -0.002432
# 3 -0.001635 -0.007823 0.013405 0.007438 -0.007376 0.000660
# 4 0.002333 -0.010657 0.007438 0.029621 -0.009654 0.004340
# 5 -0.002419 0.009319 -0.007376 -0.009654 0.031507 -0.001178
# 6 0.000423 -0.002432 0.000660 0.004340 -0.001178 0.033507
#
#
# Mechanical properties :
#
#
# Convention : Reuss Voigt Hill
#
# Bulk Modulus (GPa) = 68.85793 71.01952 69.93873
# Shear Modulus (GPa) = 29.99826 38.19510 34.09668
#
# Velocity S-wave (km/s) = 3.71570 4.19273 3.96140
# Velocity P-wave (km/s) = 7.07813 7.49165 7.28782
#
# Compressibility (1/GPa) = 0.01452266
#
# Stress axis : x y z
#
# Youngs Moduli (GPa) = 110.60976 54.30423 74.59660
#
# Poissons Ratio (x) = 0.20155 0.12195
# Poissons Ratio (y) = 0.41053 0.58356
# Poissons Ratio (z) = 0.18083 0.42481
#
# Static dielectric constant tensor:
#      x y z
#    x 1.856240 0.049470 -0.011540 
#    y 0.049470 1.908140 -0.011270 
#    z -0.011540 -0.011270 1.809460 
# 
# From -- ./inp_files/45819.got.cif
#   From: 2010.05.17/outbox.cif.g08.bks.cpg/sg2_23_cif.got.tgz:45819.got - 2010.06.03 11:33:40.
