data_PCOD9004895
_publ_section_title
;
Structure prediction by ZEFSAII (Michael W. Deem and Ramdas Pophale) SiO2 
 PCOD9004895
Probable space group: P -1
;
_chemical_formula_sum "Si O2"
_cell_formula_units_Z 16
_cell_length_a 11.440116
_cell_length_b 9.822846
_cell_length_c 12.330925
_cell_angle_alpha 123.273090
_cell_angle_beta 135.140073
_cell_angle_gamma 64.766925
_cell_volume 815.545971
_symmetry_space_group_name_H-M "P -1"
_symmetry_group_IT_number 2
_symmetry_cell_setting 'triclinic'
loop_
_space_group_symop_operation_xyz
x,y,z
-x,-y,-z
loop_
_atom_site_type_symbol
_atom_site_label
_atom_site_fract_x
_atom_site_fract_y
_atom_site_fract_z
Si Si1 0.128719 0.791328 0.513572
Si Si2 0.522711 0.689570 0.586958
Si Si3 0.830357 0.586105 0.615938
Si Si4 0.963394 0.245822 0.009479
Si Si5 0.956605 0.820629 0.630667
Si Si6 0.776487 0.065941 0.985776
Si Si7 0.824675 0.172970 0.674230
Si Si8 0.530157 0.058070 0.167663
O O1 0.201302 0.603868 0.493824
O O2 0.070340 0.814041 0.361561
O O3 0.273065 0.917869 0.681195
O O4 0.988013 0.806974 0.518166
O O5 0.500000 0.500000 0.500000
O O6 0.674206 0.695459 0.606742
O O7 0.639707 0.223034 0.536111
O O8 0.543432 0.768490 0.754067
O O9 0.886196 0.666206 0.575959
O O10 0.969453 0.612112 0.810782
O O11 0.822167 0.164421 0.952027
O O12 0.889997 0.285347 0.860787
O O13 0.115595 0.107625 0.032295
O O14 0.132309 0.849742 0.817078
O O15 0.844568 0.987466 0.648628
O O16 0.582505 0.054021 0.879645
O O17 0.500000 0.000000 0.000000
#
# Coordination Sequence:
#
# PCOD9004895 Si02
#       8
#     2   2   2   2   2   2   2   2
#     4  11  22  38  58  90 123 160 200 245 308 358
#     4  11  22  41  59  91 125 155 203 249 306 360
#     4  11  21  38  64  87 121 162 199 249 302 363
#     4   9  19  35  57  87 113 153 196 244 301 350
#     4  10  21  38  59  89 119 158 203 247 298 361
#     4   9  17  33  57  84 116 150 199 244 289 357
#     4  10  22  37  61  86 124 155 198 256 297 354
#     4  11  20  34  60  87 116 162 202 242 292 364
#
# _framework density 19.618758
#
# number of rings (size 3 to 8) (size 9 to 14) (size 15 to 20)
#    0.000    1.750    5.000    1.500    0.000    1.000 
#    2.250    0.000    0.000    0.000    0.000    7.000 
#    0.000    0.000    0.000    0.000    0.000    0.000 
#
# Total GULP energy -89080.482193 kJ/mol
# GULP energy per Si atom -5567.530137 kJ/mol
# Density = 1.957411 g / cm^3
# Si number density = 19.618758 Si / 1000 Ang^3
#
#
#
# Elastic Constant Matrix: (Units=GPa)
#
#
# Indices 1 2 3 4 5 6 
#
# 1 102.3070 15.8236 40.0118 -2.4751 -5.2391 19.9415
# 2 15.8236 54.7056 30.4803 -5.2543 2.0858 6.7847
# 3 40.0118 30.4803 89.4512 -9.7105 -4.9812 13.7323
# 4 -2.4751 -5.2543 -9.7105 19.3201 6.6213 -6.7039
# 5 -5.2391 2.0858 -4.9812 6.6213 26.4729 3.3385
# 6 19.9415 6.7847 13.7323 -6.7039 3.3385 31.2501
#
#
#
# Elastic Compliance Matrix: (Units=1/GPa)
#
#
# Indices 1 2 3 4 5 6 
#
# 1 0.013391 -0.000859 -0.004828 -0.005017 0.004041 -0.007745
# 2 -0.000859 0.023154 -0.007323 0.004037 -0.004391 0.000074
# 3 -0.004828 -0.007323 0.016720 0.004481 0.001889 -0.001917
# 4 -0.005017 0.004037 0.004481 0.066907 -0.019318 0.016773
# 5 0.004041 -0.004391 0.001889 -0.019318 0.045553 -0.011466
# 6 -0.007745 0.000074 -0.001917 0.016773 -0.011466 0.042592
#
#
# Mechanical properties :
#
#
# Convention : Reuss Voigt Hill
#
# Bulk Modulus (GPa) = 36.70336 46.56613 41.63474
# Shear Modulus (GPa) = 20.54076 26.08517 23.31296
#
# Velocity S-wave (km/s) = 3.23924 3.65033 3.45091
# Velocity P-wave (km/s) = 5.72181 6.44621 6.09478
#
# Compressibility (1/GPa) = 0.02724546
#
# Stress axis : x y z
#
# Youngs Moduli (GPa) = 74.67933 43.18835 59.80849
#
# Poissons Ratio (x) = 0.03709 0.28873
# Poissons Ratio (y) = 0.06414 0.43800
# Poissons Ratio (z) = 0.36052 0.31628
#
# Static dielectric constant tensor:
#      x y z
#    x 1.751630 -0.007470 -0.006730 
#    y -0.007470 1.673750 0.020410 
#    z -0.006730 0.020410 1.737220 
# 
# From -- ./inp_files/415725.got.cif
#   From: 2010.05.17/outbox.cif.g08.bks.cpg/sg2_208_cif.got.tgz:415725.got - 2010.06.03 11:33:40.
