data_PCOD9004882
_publ_section_title
;
Structure prediction by ZEFSAII (Michael W. Deem and Ramdas Pophale) SiO2 
 PCOD9004882
Probable space group: P -1
;
_chemical_formula_sum "Si O2"
_cell_formula_units_Z 12
_cell_length_a 13.316042
_cell_length_b 7.229457
_cell_length_c 14.510365
_cell_angle_alpha 53.667862
_cell_angle_beta 155.047219
_cell_angle_gamma 117.326492
_cell_volume 462.034825
_symmetry_space_group_name_H-M "P -1"
_symmetry_group_IT_number 2
_symmetry_cell_setting 'triclinic'
loop_
_space_group_symop_operation_xyz
x,y,z
-x,-y,-z
loop_
_atom_site_type_symbol
_atom_site_label
_atom_site_fract_x
_atom_site_fract_y
_atom_site_fract_z
Si Si1 0.385085 0.807599 0.409548
Si Si2 0.030640 0.012279 0.367336
Si Si3 0.850691 0.814110 0.027788
Si Si4 0.512766 0.756466 0.906613
Si Si5 0.334266 0.572297 0.132969
Si Si6 0.743624 0.808529 0.330374
O O1 0.567745 0.554782 0.652008
O O2 0.500000 0.000000 0.500000
O O3 0.298827 0.926333 0.205034
O O4 0.133703 0.797907 0.254074
O O5 0.067441 0.196139 0.425712
O O6 0.898335 0.827755 0.362632
O O7 0.875165 0.185655 0.112139
O O8 0.308072 0.867377 0.625573
O O9 0.773000 0.759024 0.080902
O O10 0.769362 0.621878 0.951519
O O11 0.427860 0.930810 0.869600
O O12 0.500000 0.500000 0.000000
O O13 0.565876 0.635237 0.253156
#
# Coordination Sequence:
#
# PCOD9004882 Si02
#       6
#     2   2   2   2   2   2
#     4   9  21  39  65  84 111 156 200 236 293 342
#     4   9  20  36  58  82 123 155 194 228 286 352
#     4  10  21  40  62  87 118 147 200 244 283 344
#     4  10  21  38  59  88 122 153 184 248 292 333
#     4  11  19  36  63  85 109 160 197 233 285 350
#     4   9  20  37  56  84 122 160 190 227 292 353
#
# _framework density 25.972068
#
# number of rings (size 3 to 8) (size 9 to 14) (size 15 to 20)
#    1.000    1.333    0.000    2.500    2.333    0.000 
#    6.000    3.333    0.000    0.000    0.000    0.000 
#    0.000    0.000    0.000    0.000    0.000    0.000 
#
# Total GULP energy -67085.923915 kJ/mol
# GULP energy per Si atom -5590.493660 kJ/mol
# Density = 2.591295 g / cm^3
# Si number density = 25.972068 Si / 1000 Ang^3
#
#
#
# Elastic Constant Matrix: (Units=GPa)
#
#
# Indices 1 2 3 4 5 6 
#
# 1 66.0212 38.4726 13.4739 -1.7177 -5.4346 17.7155
# 2 38.4726 163.6298 56.7868 6.4791 5.6242 26.2816
# 3 13.4739 56.7868 125.8741 -17.9883 -36.3930 16.1607
# 4 -1.7177 6.4791 -17.9883 58.2094 18.1914 4.0495
# 5 -5.4346 5.6242 -36.3930 18.1914 39.2183 5.6703
# 6 17.7155 26.2816 16.1607 4.0495 5.6703 42.9705
#
#
#
# Elastic Compliance Matrix: (Units=1/GPa)
#
#
# Indices 1 2 3 4 5 6 
#
# 1 0.019941 -0.004864 0.003184 0.000340 0.007334 -0.007444
# 2 -0.004864 0.009700 -0.005936 -0.000788 -0.007109 -0.000683
# 3 0.003184 -0.005936 0.015958 0.000935 0.016528 -0.005953
# 4 0.000340 -0.000788 0.000935 0.020192 -0.008219 -0.000828
# 5 0.007334 -0.007109 0.016528 -0.008219 0.048198 -0.010478
# 6 -0.007444 -0.000683 -0.005953 -0.000828 -0.010478 0.030458
#
#
# Mechanical properties :
#
#
# Convention : Reuss Voigt Hill
#
# Bulk Modulus (GPa) = 32.92823 63.66575 48.29699
# Shear Modulus (GPa) = 29.44638 44.53242 36.98940
#
# Velocity S-wave (km/s) = 3.37080 4.14530 3.77795
# Velocity P-wave (km/s) = 5.27784 6.89041 6.13732
#
# Compressibility (1/GPa) = 0.03036908
#
# Stress axis : x y z
#
# Youngs Moduli (GPa) = 50.14818 103.09166 62.66475
#
# Poissons Ratio (x) = 0.50139 -0.19955
# Poissons Ratio (y) = 0.24390 0.37196
# Poissons Ratio (z) = -0.15969 0.61193
#
# Static dielectric constant tensor:
#      x y z
#    x 2.036760 -0.083760 -0.106050 
#    y -0.083760 2.035580 0.062570 
#    z -0.106050 0.062570 2.126090 
# 
# From -- ./inp_files/599393.got.cif
#   From: 2010.05.17/outbox.cif.g08.bks.cpg/sg2_300_cif.got.tgz:599393.got - 2010.06.03 11:33:40.
