data_PCOD9004902
_publ_section_title
;
Structure prediction by ZEFSAII (Michael W. Deem and Ramdas Pophale) SiO2 
 PCOD9004902
Probable space group: P -1
;
_chemical_formula_sum "Si O2"
_cell_formula_units_Z 10
_cell_length_a 10.371984
_cell_length_b 6.513719
_cell_length_c 12.407147
_cell_angle_alpha 91.054750
_cell_angle_beta 33.416438
_cell_angle_gamma 104.593981
_cell_volume 416.768607
_symmetry_space_group_name_H-M "P -1"
_symmetry_group_IT_number 2
_symmetry_cell_setting 'triclinic'
loop_
_space_group_symop_operation_xyz
x,y,z
-x,-y,-z
loop_
_atom_site_type_symbol
_atom_site_label
_atom_site_fract_x
_atom_site_fract_y
_atom_site_fract_z
Si Si1 0.611943 0.857623 0.349294
Si Si2 0.231454 0.719342 0.891360
Si Si3 0.271384 0.346355 0.540143
Si Si4 0.550476 0.870018 0.863235
Si Si5 0.969987 0.727691 0.516882
O O1 0.376021 0.618910 0.477767
O O2 0.785348 0.775342 0.304928
O O3 0.500000 0.000000 0.500000
O O4 0.750420 0.038697 0.160452
O O5 0.479029 0.687737 0.673155
O O6 0.286324 0.727780 0.981376
O O7 0.000000 0.500000 0.000000
O O8 0.074897 0.246012 0.578725
O O9 0.726279 0.730078 0.752905
O O10 0.753634 0.069467 0.646138
O O11 0.500000 0.000000 0.000000
O O12 0.000000 0.500000 0.500000
#
# Coordination Sequence:
#
# PCOD9004902 Si02
#       5
#     2   2   2   2   2
#     4   9  18  34  57  84 117 156 203 255 309 371
#     4  10  21  38  59  89 126 161 205 264 320 373
#     4   9  19  36  59  88 118 162 213 256 316 380
#     4  10  23  41  63  95 127 164 216 263 315 384
#     4  10  21  41  65  89 127 169 210 265 321 378
#
# _framework density 23.994126999999999
#
# number of rings (size 3 to 8) (size 9 to 14) (size 15 to 20)
#    0.000    2.400    0.000    1.200    0.000    8.000 
#    0.000    4.000    0.000    0.000    0.000    0.000 
#    0.000    0.000    0.000    0.000    0.000    0.000 
#
# Total GULP energy -55798.274664 kJ/mol
# GULP energy per Si atom -5579.827466 kJ/mol
# Density = 2.393952 g / cm^3
# Si number density = 23.994127 Si / 1000 Ang^3
#
#
#
# Elastic Constant Matrix: (Units=GPa)
#
#
# Indices 1 2 3 4 5 6 
#
# 1 101.2087 44.9437 41.5223 2.0066 -12.1448 22.9837
# 2 44.9437 189.9672 35.8536 7.6544 -2.8055 5.6539
# 3 41.5223 35.8536 88.9155 11.6040 -4.8893 6.3790
# 4 2.0066 7.6544 11.6040 44.4384 7.8920 1.2881
# 5 -12.1448 -2.8055 -4.8893 7.8920 40.6703 1.6996
# 6 22.9837 5.6539 6.3790 1.2881 1.6996 45.8568
#
#
#
# Elastic Compliance Matrix: (Units=1/GPa)
#
#
# Indices 1 2 3 4 5 6 
#
# 1 0.015148 -0.002309 -0.005538 0.000671 0.003848 -0.006698
# 2 -0.002309 0.006065 -0.001361 -0.000540 -0.000356 0.000627
# 3 -0.005538 -0.001361 0.014811 -0.003531 0.000678 0.000957
# 4 0.000671 -0.000540 -0.003531 0.024380 -0.004981 -0.000279
# 5 0.003848 -0.000356 0.000678 -0.004981 0.026879 -0.002835
# 6 -0.006698 0.000627 0.000957 -0.000279 -0.002835 0.025067
#
#
# Mechanical properties :
#
#
# Convention : Reuss Voigt Hill
#
# Bulk Modulus (GPa) = 56.79647 69.41451 63.10549
# Shear Modulus (GPa) = 36.59340 43.37789 39.98565
#
# Velocity S-wave (km/s) = 3.90949 4.25650 4.08668
# Velocity P-wave (km/s) = 6.64087 7.29038 6.97319
#
# Compressibility (1/GPa) = 0.01760673
#
# Stress axis : x y z
#
# Youngs Moduli (GPa) = 66.01639 164.87518 67.51654
#
# Poissons Ratio (x) = 0.38076 0.37390
# Poissons Ratio (y) = 0.15246 0.09192
# Poissons Ratio (z) = 0.36559 0.22446
#
# Static dielectric constant tensor:
#      x y z
#    x 1.988400 -0.013060 0.043230 
#    y -0.013060 1.932820 0.024480 
#    z 0.043230 0.024480 2.013630 
# 
# From -- ./inp_files/302860.got.cif
#   From: 2010.05.17/outbox.cif.g08.bks.cpg/sg2_152_cif.got.tgz:302860.got - 2010.06.03 11:33:40.
