data_PCOD9004694
_publ_section_title
;
Structure prediction by ZEFSAII (Michael W. Deem and Ramdas Pophale) SiO2 
 PCOD9004694
Probable space group: P -1
;
_chemical_formula_sum "Si O2"
_cell_formula_units_Z 14
_cell_length_a 10.921275
_cell_length_b 12.138971
_cell_length_c 5.154910
_cell_angle_alpha 82.398093
_cell_angle_beta 70.460562
_cell_angle_gamma 116.414482
_cell_volume 543.883060
_symmetry_space_group_name_H-M "P -1"
_symmetry_group_IT_number 2
_symmetry_cell_setting 'triclinic'
loop_
_space_group_symop_operation_xyz
x,y,z
-x,-y,-z
loop_
_atom_site_type_symbol
_atom_site_label
_atom_site_fract_x
_atom_site_fract_y
_atom_site_fract_z
Si Si1 0.117066 0.621137 0.700061
Si Si2 0.466427 0.239968 0.904241
Si Si3 0.295796 0.492891 0.473166
Si Si4 0.428246 0.845553 0.638048
Si Si5 0.931501 0.091734 0.072797
Si Si6 0.161158 0.013082 0.331429
Si Si7 0.846585 0.650808 0.860753
O O1 0.202111 0.568031 0.480283
O O2 0.248312 0.745913 0.726345
O O3 0.000000 0.500000 0.000000
O O4 0.997433 0.651680 0.652939
O O5 0.540967 0.196302 0.089874
O O6 0.288726 0.157445 0.120819
O O7 0.537092 0.393044 0.767392
O O8 0.490681 0.192905 0.626175
O O9 0.265874 0.455592 0.810640
O O10 0.240197 0.375949 0.343174
O O11 0.500000 0.000000 0.500000
O O12 0.805071 0.026093 0.405051
O O13 0.858094 0.085669 0.850576
O O14 0.066835 0.224080 0.052179
O O15 0.000000 0.000000 0.000000
O O16 0.000000 0.000000 0.500000
#
# Coordination Sequence:
#
# PCOD9004694 Si02
#       7
#     2   2   2   2   2   2   2
#     4   9  20  36  57  85 128 167 207 248 296 371
#     4  11  22  40  63  83 131 166 198 257 324 363
#     4  10  21  38  57  92 122 166 205 252 306 376
#     4  11  24  38  55  93 133 168 209 251 309 382
#     4  10  22  40  62  91 122 151 207 272 318 361
#     4  10  22  40  65  88 117 159 208 256 324 365
#     4  11  21  36  63  88 120 165 215 251 303 373
#
# _framework density 25.740828
#
# number of rings (size 3 to 8) (size 9 to 14) (size 15 to 20)
#    0.000    1.714    0.000    5.143    4.000    3.429 
#    0.000    0.000    0.000   20.571    0.000    0.000 
#    0.000    0.000    0.000    0.000    0.000    0.000 
#
# Total GULP energy -78166.874248 kJ/mol
# GULP energy per Si atom -5583.348161 kJ/mol
# Density = 2.568224 g / cm^3
# Si number density = 25.740828 Si / 1000 Ang^3
#
#
#
# Elastic Constant Matrix: (Units=GPa)
#
#
# Indices 1 2 3 4 5 6 
#
# 1 43.0128 1.5103 12.1686 -1.0187 -11.4049 15.8659
# 2 1.5103 129.8343 25.8653 5.9133 -18.7801 19.8987
# 3 12.1686 25.8653 154.8305 -8.1913 5.9466 18.7707
# 4 -1.0187 5.9133 -8.1913 62.2501 24.2072 -6.6785
# 5 -11.4049 -18.7801 5.9466 24.2072 30.5833 1.4219
# 6 15.8659 19.8987 18.7707 -6.6785 1.4219 29.6742
#
#
#
# Elastic Compliance Matrix: (Units=1/GPa)
#
#
# Indices 1 2 3 4 5 6 
#
# 1 0.056668 0.017556 -0.005350 -0.029307 0.058385 -0.048080
# 2 0.017556 0.017402 -0.003502 -0.017094 0.032571 -0.024248
# 3 -0.005350 -0.003502 0.007904 0.005394 -0.010041 0.001905
# 4 -0.029307 -0.017094 0.005394 0.045169 -0.059936 0.036758
# 5 0.058385 0.032571 -0.010041 -0.059936 0.126945 -0.066279
# 6 -0.048080 -0.024248 0.001905 0.036758 -0.066279 0.085910
#
#
# Mechanical properties :
#
#
# Convention : Reuss Voigt Hill
#
# Bulk Modulus (GPa) = 10.06245 45.19621 27.62933
# Shear Modulus (GPa) = 14.05602 43.71042 28.88322
#
# Velocity S-wave (km/s) = 2.33933 4.12527 3.35338
# Velocity P-wave (km/s) = 3.34876 6.34718 5.07449
#
# Compressibility (1/GPa) = 0.09937940
#
# Stress axis : x y z
#
# Youngs Moduli (GPa) = 17.64669 57.46520 126.51136
#
# Poissons Ratio (x) = -1.00883 0.67689
# Poissons Ratio (y) = -0.30980 0.44310
# Poissons Ratio (z) = 0.09442 0.20127
#
# Static dielectric constant tensor:
#      x y z
#    x 1.889890 -0.060050 -0.106120 
#    y -0.060050 2.103830 -0.053940 
#    z -0.106120 -0.053940 1.979020 
# 
# From -- ./inp_files/92933.got.cif
#   From: 2010.05.17/outbox.cif.g08.bks.cpg/sg2_47_cif.got.tgz:92933.got - 2010.06.03 11:33:40.
