data_PCOD9004982
_publ_section_title
;
Structure prediction by ZEFSAII (Michael W. Deem and Ramdas Pophale) SiO2 
 PCOD9004982
Probable space group: P -1
;
_chemical_formula_sum "Si O2"
_cell_formula_units_Z 16
_cell_length_a 19.681865
_cell_length_b 6.030632
_cell_length_c 8.698898
_cell_angle_alpha 137.671165
_cell_angle_beta 95.106352
_cell_angle_gamma 84.743990
_cell_volume 692.002706
_symmetry_space_group_name_H-M "P -1"
_symmetry_group_IT_number 2
_symmetry_cell_setting 'triclinic'
loop_
_space_group_symop_operation_xyz
x,y,z
-x,-y,-z
loop_
_atom_site_type_symbol
_atom_site_label
_atom_site_fract_x
_atom_site_fract_y
_atom_site_fract_z
Si Si1 0.468647 0.976323 0.649803
Si Si2 0.099372 0.272746 0.880114
Si Si3 0.407623 0.253124 0.273325
Si Si4 0.777112 0.506266 0.138932
Si Si5 0.342999 0.205129 0.901753
Si Si6 0.973088 0.015733 0.827895
Si Si7 0.719589 0.511214 0.465205
Si Si8 0.844879 0.772434 0.786506
O O1 0.438153 0.615166 0.475746
O O2 0.530885 0.996809 0.793433
O O3 0.500000 0.000000 0.500000
O O4 0.404563 0.218762 0.798741
O O5 0.162485 0.249894 0.765091
O O6 0.040494 0.004537 0.729424
O O7 0.061618 0.624001 0.020386
O O8 0.130305 0.287078 0.065297
O O9 0.343164 0.248435 0.371646
O O10 0.378255 0.219555 0.080926
O O11 0.717743 0.534366 0.014075
O O12 0.742641 0.582242 0.333761
O O13 0.810831 0.141042 0.964338
O O14 0.307182 0.855010 0.710981
O O15 0.910981 0.769423 0.685476
O O16 0.000000 0.000000 0.000000
O O17 0.785622 0.546103 0.602623
#
# Coordination Sequence:
#
# PCOD9004982 Si02
#       8
#     2   2   2   2   2   2   2   2
#     4  10  22  40  63  89 116 149 193 242 293 348
#     4   9  17  34  59  85 116 155 198 243 295 348
#     4  10  22  40  60  86 118 153 194 240 291 351
#     4  11  22  36  58  87 118 156 199 245 293 348
#     4  11  24  40  61  87 120 157 194 240 293 350
#     4   8  16  32  59  88 114 153 198 242 294 348
#     4  11  23  38  57  86 120 155 198 242 291 348
#     4  10  21  38  60  85 119 158 197 243 295 350
#
# _framework density 23.121296999999998
#
# number of rings (size 3 to 8) (size 9 to 14) (size 15 to 20)
#    0.000    2.000    0.000    3.375    0.000    6.500 
#    0.000    0.625    0.000   30.750    0.000    0.000 
#    0.000    0.000    0.000    0.000    0.000    0.000 
#
# Total GULP energy -89445.251540 kJ/mol
# GULP energy per Si atom -5590.328221 kJ/mol
# Density = 2.306867 g / cm^3
# Si number density = 23.121297 Si / 1000 Ang^3
#
#
#
# Elastic Constant Matrix: (Units=GPa)
#
#
# Indices 1 2 3 4 5 6 
#
# 1 110.9978 188.3665 143.0852 -3.6751 117.5696 -40.8330
# 2 188.3665 -59.0126 -113.5352 -33.9780 -157.6684 61.6613
# 3 143.0852 -113.5352 -58.9461 -23.4086 -114.0722 64.6445
# 4 -3.6751 -33.9780 -23.4086 27.2902 -15.9931 6.6154
# 5 117.5696 -157.6684 -114.0722 -15.9931 -118.6179 57.3297
# 6 -40.8330 61.6613 64.6445 6.6154 57.3297 18.4344
#
#
#
# Elastic Compliance Matrix: (Units=1/GPa)
#
#
# Indices 1 2 3 4 5 6 
#
# 1 0.005041 -0.000514 -0.001922 0.002542 0.006484 -0.001451
# 2 -0.000514 0.009153 -0.007132 0.001842 -0.003853 0.004577
# 3 -0.001922 -0.007132 0.028035 0.003012 -0.023314 -0.007288
# 4 0.002542 0.001842 0.003012 0.037262 -0.007860 -0.000022
# 5 0.006484 -0.003853 -0.023314 -0.007860 0.032219 0.011629
# 6 -0.001451 0.004577 -0.007288 -0.000022 0.011629 0.025119
#
#
# Mechanical properties :
#
#
# Convention : Reuss Voigt Hill
#
# Bulk Modulus (GPa) = 43.30314 47.65244 45.47779
# Shear Modulus (GPa) = 30.55058 -29.57050 0.49004
#
# Velocity S-wave (km/s) = 3.63894 -3.58009 0.46087
# Velocity P-wave (km/s) = 6.03533 1.88815 4.47159
#
# Compressibility (1/GPa) = 0.02309301
#
# Stress axis : x y z
#
# Youngs Moduli (GPa) = 198.36166 109.24951 35.67001
#
# Poissons Ratio (x) = 0.05611 0.06857
# Poissons Ratio (y) = 0.10187 0.25441
# Poissons Ratio (z) = 0.38133 0.77919
#
# Static dielectric constant tensor:
#      x y z
#    x 1.908240 0.012930 -0.018570 
#    y 0.012930 1.853870 0.029150 
#    z -0.018570 0.029150 1.866070 
# 
# From -- ./inp_files/11416.got.cif
#   From: 2010.05.17/outbox.cif.g08.bks.cpg/sg2_6_cif.got.tgz:11416.got - 2010.06.03 11:33:40.
