data_PCOD9004521
_publ_section_title
;
Structure prediction by ZEFSAII (Michael W. Deem and Ramdas Pophale) SiO2 
 PCOD9004521
Probable space group: P -1
;
_chemical_formula_sum "Si O2"
_cell_formula_units_Z 13
_cell_length_a 9.186355
_cell_length_b 8.401777
_cell_length_c 11.667323
_cell_angle_alpha 141.798463
_cell_angle_beta 112.693248
_cell_angle_gamma 85.572595
_cell_volume 471.767786
_symmetry_space_group_name_H-M "P -1"
_symmetry_group_IT_number 2
_symmetry_cell_setting 'triclinic'
loop_
_space_group_symop_operation_xyz
x,y,z
-x,-y,-z
loop_
_atom_site_type_symbol
_atom_site_label
_atom_site_fract_x
_atom_site_fract_y
_atom_site_fract_z
Si Si1 0.799500 0.644898 0.957788
Si Si2 0.030798 0.235680 0.322926
Si Si3 0.712950 0.619930 0.681461
Si Si4 0.220261 0.202680 0.568156
Si Si5 0.501154 0.956541 0.837489
Si Si6 0.500000 0.500000 0.000000
Si Si7 0.062637 0.420551 0.821154
O O1 0.673439 0.514352 0.741311
O O2 0.975345 0.615266 0.954378
O O3 0.773229 0.547822 0.026866
O O4 0.859622 0.975382 0.158929
O O5 0.088895 0.269704 0.229530
O O6 0.191374 0.217515 0.433300
O O7 0.000000 0.500000 0.500000
O O8 0.667663 0.892649 0.817329
O O9 0.631384 0.347545 0.422048
O O10 0.135958 0.407522 0.712894
O O11 0.397049 0.294950 0.740901
O O12 0.091442 0.886681 0.383238
O O13 0.500000 0.000000 0.000000
O O14 0.484985 0.214472 0.911856
#
# Coordination Sequence:
#
# PCOD9004521 Si02
#       7
#     2   2   2   2   2   1   2
#     4  10  21  37  68  98 134 181 235 308 359 440
#     4  11  24  40  70 103 141 188 240 308 367 437
#     4  11  25  46  71 105 146 190 252 299 376 439
#     4  10  22  40  64 100 138 189 240 294 363 440
#     4  11  28  50  73 104 151 202 244 310 365 447
#     4  12  26  42  76 104 146 194 248 304 366 444
#     4   9  20  40  63  97 140 179 238 298 370 431
#
# _framework density 27.555928000000002
#
# number of rings (size 3 to 8) (size 9 to 14) (size 15 to 20)
#    0.000    1.538    0.000    3.231    8.615    1.231 
#    0.000    6.923    0.000    0.000    0.000    0.000 
#    0.000    0.000    0.000    0.000    0.000    0.000 
#
# Total GULP energy -72428.020333 kJ/mol
# GULP energy per Si atom -5571.386179 kJ/mol
# Density = 2.749321 g / cm^3
# Si number density = 27.555928 Si / 1000 Ang^3
#
#
#
# Elastic Constant Matrix: (Units=GPa)
#
#
# Indices 1 2 3 4 5 6 
#
# 1 61.5204 29.3336 25.0926 7.3733 -20.3322 -3.2040
# 2 29.3336 139.2779 59.2583 -15.7106 -13.1294 0.9605
# 3 25.0926 59.2583 199.3034 -5.6953 -5.3198 -0.6742
# 4 7.3733 -15.7106 -5.6953 61.8938 -8.5513 -9.8612
# 5 -20.3322 -13.1294 -5.3198 -8.5513 57.0183 -3.5644
# 6 -3.2040 0.9605 -0.6742 -9.8612 -3.5644 49.4210
#
#
#
# Elastic Compliance Matrix: (Units=1/GPa)
#
#
# Indices 1 2 3 4 5 6 
#
# 1 0.020951 -0.003466 -0.001505 -0.002432 0.006253 0.001371
# 2 -0.003466 0.009263 -0.002209 0.002746 0.001115 0.000193
# 3 -0.001505 -0.002209 0.005853 0.000092 -0.000485 0.000009
# 4 -0.002432 0.002746 0.000092 0.018100 0.002713 0.003597
# 5 0.006253 0.001115 -0.000485 0.002713 0.020536 0.002400
# 6 0.001371 0.000193 0.000009 0.003597 0.002400 0.021210
#
#
# Mechanical properties :
#
#
# Convention : Reuss Voigt Hill
#
# Bulk Modulus (GPa) = 46.06831 69.71895 57.89363
# Shear Modulus (GPa) = 42.54924 52.76110 47.65517
#
# Velocity S-wave (km/s) = 3.93377 4.38047 4.16311
# Velocity P-wave (km/s) = 6.11450 7.13726 6.64559
#
# Compressibility (1/GPa) = 0.02170689
#
# Stress axis : x y z
#
# Youngs Moduli (GPa) = 47.73034 107.95322 170.83995
#
# Poissons Ratio (x) = 0.37422 0.25712
# Poissons Ratio (y) = 0.16546 0.37737
# Poissons Ratio (z) = 0.07184 0.23846
#
# Static dielectric constant tensor:
#      x y z
#    x 1.996490 -0.114620 0.071190 
#    y -0.114620 2.189040 -0.051400 
#    z 0.071190 -0.051400 2.125140 
# 
# From -- ./inp_files/415979.got.cif
#   From: 2010.05.17/outbox.cif.g08.bks.cpg/sg2_208_cif.got.tgz:415979.got - 2010.06.03 11:33:40.
