data_PCOD9004220
_publ_section_title
;
Structure prediction by ZEFSAII (Michael W. Deem and Ramdas Pophale) SiO2 
 PCOD9004220
Probable space group: P -1
;
_chemical_formula_sum "Si O2"
_cell_formula_units_Z 14
_cell_length_a 12.475327
_cell_length_b 11.576988
_cell_length_c 4.907509
_cell_angle_alpha 87.760729
_cell_angle_beta 104.717517
_cell_angle_gamma 54.969943
_cell_volume 545.826662
_symmetry_space_group_name_H-M "P -1"
_symmetry_group_IT_number 2
_symmetry_cell_setting 'triclinic'
loop_
_space_group_symop_operation_xyz
x,y,z
-x,-y,-z
loop_
_atom_site_type_symbol
_atom_site_label
_atom_site_fract_x
_atom_site_fract_y
_atom_site_fract_z
Si Si1 0.103506 0.843801 0.712148
Si Si2 0.277889 0.711742 0.319481
Si Si3 0.370522 0.038967 0.233766
Si Si4 0.842439 0.665943 0.192289
Si Si5 0.511167 0.721645 0.232312
Si Si6 0.916870 0.746609 0.741414
Si Si7 0.689521 0.567333 0.843200
O O1 0.233660 0.747214 0.600224
O O2 0.021566 0.775498 0.698968
O O3 0.160676 0.845124 0.042401
O O4 0.000000 0.000000 0.500000
O O5 0.420861 0.681907 0.332458
O O6 0.278303 0.579587 0.231481
O O7 0.417557 0.894063 0.124100
O O8 0.500000 0.000000 0.500000
O O9 0.236514 0.098256 0.332610
O O10 0.307411 0.175665 0.976998
O O11 0.892024 0.657098 0.526786
O O12 0.814544 0.556482 0.072378
O O13 0.943056 0.677371 0.062156
O O14 0.572825 0.638912 0.997151
O O15 0.634455 0.670446 0.532606
#
# Coordination Sequence:
#
# PCOD9004220 Si02
#       7
#     2   2   2   2   2   2   2
#     4  12  26  47  70  94 128 171 228 277 318 376
#     4  12  27  45  68  97 129 179 221 264 326 391
#     4  10  21  37  64  99 131 162 217 259 336 373
#     4  10  22  39  64  95 136 166 209 265 328 381
#     4  12  24  39  68  97 136 175 214 268 326 388
#     4  10  23  40  64  96 131 164 218 275 323 372
#     4  12  24  44  64  98 140 171 211 266 329 401
#
# _framework density 25.649168
#
# number of rings (size 3 to 8) (size 9 to 14) (size 15 to 20)
#    0.857    0.000    1.429    6.429    4.000    1.143 
#    0.000    4.286    0.000    0.000    0.000    0.000 
#    0.000    0.000    0.000    0.000    0.000    0.000 
#
# Total GULP energy -78492.062350 kJ/mol
# GULP energy per Si atom -5606.575882 kJ/mol
# Density = 2.559079 g / cm^3
# Si number density = 25.649168 Si / 1000 Ang^3
#
#
#
# Elastic Constant Matrix: (Units=GPa)
#
#
# Indices 1 2 3 4 5 6 
#
# 1 117.1205 9.3572 1.9331 7.2610 -8.1720 2.0976
# 2 9.3572 94.3568 -7.8568 -0.1487 -7.8005 -1.6806
# 3 1.9331 -7.8568 98.5686 -3.9907 -4.0953 -9.8864
# 4 7.2610 -0.1487 -3.9907 37.2344 -9.0756 -1.8792
# 5 -8.1720 -7.8005 -4.0953 -9.0756 43.6255 7.6483
# 6 2.0976 -1.6806 -9.8864 -1.8792 7.6483 38.5483
#
#
#
# Elastic Compliance Matrix: (Units=1/GPa)
#
#
# Indices 1 2 3 4 5 6 
#
# 1 0.008810 -0.000811 -0.000336 -0.001480 0.001330 -0.000937
# 2 -0.000811 0.010940 0.001048 0.000823 0.001998 0.000433
# 3 -0.000336 0.001048 0.010608 0.001580 0.000981 0.002667
# 4 -0.001480 0.000823 0.001580 0.028788 0.005874 0.000760
# 5 0.001330 0.001998 0.000981 0.005874 0.025638 -0.004534
# 6 -0.000937 0.000433 0.002667 0.000760 -0.004534 0.027632
#
#
# Mechanical properties :
#
#
# Convention : Reuss Voigt Hill
#
# Bulk Modulus (GPa) = 33.15734 35.21255 34.18494
# Shear Modulus (GPa) = 40.76093 44.32248 42.54170
#
# Velocity S-wave (km/s) = 3.99077 4.16147 4.07701
# Velocity P-wave (km/s) = 5.84724 6.07032 5.95982
#
# Compressibility (1/GPa) = 0.03015924
#
# Stress axis : x y z
#
# Youngs Moduli (GPa) = 113.50874 91.40869 94.27236
#
# Poissons Ratio (x) = 0.07411 0.03168
# Poissons Ratio (y) = 0.09202 -0.09877
# Poissons Ratio (z) = 0.03814 -0.09577
#
# Static dielectric constant tensor:
#      x y z
#    x 2.015110 -0.049950 0.026050 
#    y -0.049950 2.066210 -0.060810 
#    z 0.026050 -0.060810 1.952990 
# 
# From -- ./inp_files/67347.got.cif
#   From: 2010.05.17/outbox.cif.g08.bks.cpg/sg2_34_cif.got.tgz:67347.got - 2010.06.03 11:33:40.
