data_PCOD9004538
_publ_section_title
;
Structure prediction by ZEFSAII (Michael W. Deem and Ramdas Pophale) SiO2 
 PCOD9004538
Probable space group: P -1
;
_chemical_formula_sum "Si O2"
_cell_formula_units_Z 14
_cell_length_a 9.321457
_cell_length_b 5.122470
_cell_length_c 16.434456
_cell_angle_alpha 69.701353
_cell_angle_beta 112.683131
_cell_angle_gamma 105.654603
_cell_volume 670.619528
_symmetry_space_group_name_H-M "P -1"
_symmetry_group_IT_number 2
_symmetry_cell_setting 'triclinic'
loop_
_space_group_symop_operation_xyz
x,y,z
-x,-y,-z
loop_
_atom_site_type_symbol
_atom_site_label
_atom_site_fract_x
_atom_site_fract_y
_atom_site_fract_z
Si Si1 0.173545 0.690294 0.093501
Si Si2 0.983238 0.081226 0.111147
Si Si3 0.434855 0.865830 0.254152
Si Si4 0.445470 0.645058 0.578239
Si Si5 0.915931 0.862396 0.299047
Si Si6 0.276875 0.871512 0.386029
Si Si7 0.275724 0.758678 0.681630
O O1 0.118680 0.356325 0.111231
O O2 0.343338 0.766483 0.163437
O O3 0.051368 0.823071 0.111219
O O4 0.151525 0.830897 0.986422
O O5 0.928403 0.015633 0.197767
O O6 0.531560 0.635611 0.339014
O O7 0.305872 0.880718 0.294737
O O8 0.558923 0.151389 0.244093
O O9 0.357953 0.632190 0.474442
O O10 0.333203 0.797728 0.596615
O O11 0.614653 0.842662 0.591027
O O12 0.811915 0.558517 0.296246
O O13 0.093663 0.838193 0.366123
O O14 0.839471 0.040315 0.330196
#
# Coordination Sequence:
#
# PCOD9004538 Si02
#       7
#     2   2   2   2   2   2   2
#     4  10  21  37  69  93 124 154 207 258 316 349
#     4  10  21  39  62 102 120 153 206 267 298 368
#     4  11  21  43  64  92 125 170 201 263 305 375
#     4  10  22  44  60  96 123 167 208 264 298 381
#     4  12  23  43  62  94 126 167 204 260 304 374
#     4  10  23  37  70  92 119 163 221 257 308 353
#     4  11  26  41  62  87 137 167 204 246 320 368
#
# _framework density 20.87622
#
# number of rings (size 3 to 8) (size 9 to 14) (size 15 to 20)
#    0.000    1.429    2.857    2.143    4.000    1.143 
#    0.000    1.429    0.000    0.000    0.000    0.000 
#    0.000    0.000    0.000    0.000    0.000    0.000 
#
# Total GULP energy -78199.023683 kJ/mol
# GULP energy per Si atom -5585.644549 kJ/mol
# Density = 2.082870 g / cm^3
# Si number density = 20.876220 Si / 1000 Ang^3
#
#
#
# Elastic Constant Matrix: (Units=GPa)
#
#
# Indices 1 2 3 4 5 6 
#
# 1 74.1706 25.0870 15.2103 -0.4374 0.8425 7.9424
# 2 25.0870 88.9380 29.9953 -0.4842 0.0031 1.3536
# 3 15.2103 29.9953 106.8792 7.9274 24.4481 22.2551
# 4 -0.4374 -0.4842 7.9274 24.7797 -0.0447 -0.5363
# 5 0.8425 0.0031 24.4481 -0.0447 14.5372 4.3898
# 6 7.9424 1.3536 22.2551 -0.5363 4.3898 36.3672
#
#
#
# Elastic Compliance Matrix: (Units=1/GPa)
#
#
# Indices 1 2 3 4 5 6 
#
# 1 0.015291 -0.004005 -0.000780 0.000381 0.001292 -0.002864
# 2 -0.004005 0.014661 -0.006892 0.002511 0.010839 0.003275
# 3 -0.000780 -0.006892 0.021370 -0.007234 -0.033275 -0.008741
# 4 0.000381 0.002511 -0.007234 0.042822 0.011210 0.003529
# 5 0.001292 0.010839 -0.033275 0.011210 0.123206 0.004971
# 6 -0.002864 0.003275 -0.008741 0.003529 0.004971 0.032802
#
#
# Mechanical properties :
#
#
# Convention : Reuss Voigt Hill
#
# Bulk Modulus (GPa) = 35.75443 45.61926 40.68684
# Shear Modulus (GPa) = 17.67855 28.44985 23.06420
#
# Velocity S-wave (km/s) = 2.91319 3.69560 3.32747
# Velocity P-wave (km/s) = 5.33663 6.33322 5.85616
#
# Compressibility (1/GPa) = 0.02796857
#
# Stress axis : x y z
#
# Youngs Moduli (GPa) = 65.39773 68.20642 46.79500
#
# Poissons Ratio (x) = 0.27314 0.03649
# Poissons Ratio (y) = 0.26189 0.32253
# Poissons Ratio (z) = 0.05100 0.47011
#
# Static dielectric constant tensor:
#      x y z
#    x 1.770060 -0.049570 0.005520 
#    y -0.049570 1.777640 -0.006540 
#    z 0.005520 -0.006540 1.750490 
# 
# From -- ./inp_files/35036.got.cif
#   From: 2010.05.17/outbox.cif.g08.bks.cpg/sg2_18_cif.got.tgz:35036.got - 2010.06.03 11:33:40.
