data_PCOD9004298
_publ_section_title
;
Structure prediction by ZEFSAII (Michael W. Deem and Ramdas Pophale) SiO2 
 PCOD9004298
Probable space group: P -1
;
_chemical_formula_sum "Si O2"
_cell_formula_units_Z 15
_cell_length_a 9.275370
_cell_length_b 11.344367
_cell_length_c 14.094130
_cell_angle_alpha 26.570360
_cell_angle_beta 76.933749
_cell_angle_gamma 77.142424
_cell_volume 645.475545
_symmetry_space_group_name_H-M "P -1"
_symmetry_group_IT_number 2
_symmetry_cell_setting 'triclinic'
loop_
_space_group_symop_operation_xyz
x,y,z
-x,-y,-z
loop_
_atom_site_type_symbol
_atom_site_label
_atom_site_fract_x
_atom_site_fract_y
_atom_site_fract_z
Si Si1 0.936527 0.931472 0.233829
Si Si2 0.657433 0.311838 0.739624
Si Si3 0.934847 0.535273 0.844670
Si Si4 0.672760 0.713013 0.117005
Si Si5 0.500000 0.000000 0.500000
Si Si6 0.760802 0.417776 0.138073
Si Si7 0.752596 0.709349 0.574346
Si Si8 0.167004 0.472920 0.599627
O O1 0.795083 0.904639 0.343503
O O2 0.899316 0.797204 0.235564
O O3 0.056536 0.720696 0.413118
O O4 0.973939 0.234645 0.019680
O O5 0.490950 0.330344 0.788309
O O6 0.757095 0.424690 0.727015
O O7 0.689440 0.485802 0.517440
O O8 0.700002 0.014195 0.920224
O O9 0.869986 0.699768 0.648120
O O10 0.077214 0.650991 0.790462
O O11 0.803178 0.517213 0.955573
O O12 0.692625 0.647430 0.051264
O O13 0.784190 0.536234 0.292954
O O14 0.352977 0.814635 0.673488
O O15 0.589605 0.763706 0.600408
#
# Coordination Sequence:
#
# PCOD9004298 Si02
#       8
#     2   2   2   2   1   2   2   2
#     4  10  21  41  65  99 129 165 225 271 311 407
#     4  10  22  39  62  96 131 166 221 265 318 402
#     4  11  24  45  69  97 129 176 223 267 330 378
#     4  11  21  41  60  94 134 171 210 271 328 382
#     4  12  24  48  64  98 136 170 222 272 320 398
#     4  11  25  45  65  99 133 169 226 271 314 401
#     4  11  23  44  70  94 133 175 213 275 330 379
#     4  10  21  37  65  94 128 172 211 268 335 371
#
# _framework density 23.238681
#
# number of rings (size 3 to 8) (size 9 to 14) (size 15 to 20)
#    0.000    1.333    2.667    2.800    0.000    1.067 
#    7.200    5.333    0.000    0.000    0.000    0.000 
#    0.000    0.000    0.000    0.000    0.000    0.000 
#
# Total GULP energy -83613.576454 kJ/mol
# GULP energy per Si atom -5574.238430 kJ/mol
# Density = 2.318579 g / cm^3
# Si number density = 23.238681 Si / 1000 Ang^3
#
#
#
# Elastic Constant Matrix: (Units=GPa)
#
#
# Indices 1 2 3 4 5 6 
#
# 1 56.9863 8.1314 18.9436 7.0579 -32.5444 -18.8810
# 2 8.1314 104.0941 19.4990 -5.1841 -5.2760 -19.6922
# 3 18.9436 19.4990 44.4500 -9.9128 -22.1473 0.3091
# 4 7.0579 -5.1841 -9.9128 36.9562 -2.0260 -3.1254
# 5 -32.5444 -5.2760 -22.1473 -2.0260 36.5476 3.5434
# 6 -18.8810 -19.6922 0.3091 -3.1254 3.5434 41.3037
#
#
#
# Elastic Compliance Matrix: (Units=1/GPa)
#
#
# Indices 1 2 3 4 5 6 
#
# 1 0.047061 0.002195 -0.003614 -0.005976 0.037871 0.018886
# 2 0.002195 0.011940 -0.006775 -0.000043 -0.001092 0.006837
# 3 -0.003614 -0.006775 0.040196 0.011172 0.021379 -0.006172
# 4 -0.005976 -0.000043 0.011172 0.031306 0.003250 -0.000746
# 5 0.037871 -0.001092 0.021379 0.003250 0.073033 0.010611
# 6 0.018886 0.006837 -0.006172 -0.000746 0.010611 0.035183
#
#
# Mechanical properties :
#
#
# Convention : Reuss Voigt Hill
#
# Bulk Modulus (GPa) = 12.07582 33.18649 22.63116
# Shear Modulus (GPa) = 17.68588 33.55861 25.62225
#
# Velocity S-wave (km/s) = 2.76171 3.80423 3.32410
# Velocity P-wave (km/s) = 3.92137 5.79724 4.94899
#
# Compressibility (1/GPa) = 0.08281010
#
# Stress axis : x y z
#
# Youngs Moduli (GPa) = 21.24884 83.75056 24.87801
#
# Poissons Ratio (x) = -0.18387 0.08992
# Poissons Ratio (y) = -0.04665 0.16854
# Poissons Ratio (z) = 0.07680 0.56739
#
# Static dielectric constant tensor:
#      x y z
#    x 1.897940 -0.035480 -0.034490 
#    y -0.035480 1.864960 0.000410 
#    z -0.034490 0.000410 1.863530 
# 
# From -- ./inp_files/497305.got.cif
#   From: 2010.05.17/outbox.cif.g08.bks.cpg/sg2_249_cif.got.tgz:497305.got - 2010.06.03 11:33:40.
