data_PCOD9004539
_publ_section_title
;
Structure prediction by ZEFSAII (Michael W. Deem and Ramdas Pophale) SiO2 
 PCOD9004539
Probable space group: P -1
;
_chemical_formula_sum "Si O2"
_cell_formula_units_Z 14
_cell_length_a 10.843163
_cell_length_b 5.259776
_cell_length_c 12.084262
_cell_angle_alpha 70.672851
_cell_angle_beta 117.438490
_cell_angle_gamma 124.234273
_cell_volume 503.269643
_symmetry_space_group_name_H-M "P -1"
_symmetry_group_IT_number 2
_symmetry_cell_setting 'triclinic'
loop_
_space_group_symop_operation_xyz
x,y,z
-x,-y,-z
loop_
_atom_site_type_symbol
_atom_site_label
_atom_site_fract_x
_atom_site_fract_y
_atom_site_fract_z
Si Si1 0.835538 0.213783 0.797960
Si Si2 0.237827 0.212802 0.983983
Si Si3 0.830147 0.545300 0.286165
Si Si4 0.981998 0.778023 0.646325
Si Si5 0.492749 0.150634 0.677639
Si Si6 0.703547 0.828158 0.583906
Si Si7 0.565040 0.673159 0.152710
O O1 0.942252 0.579316 0.772515
O O2 0.651154 0.127548 0.751707
O O3 0.867674 0.064867 0.939191
O O4 0.818241 0.051880 0.694645
O O5 0.379402 0.479158 0.076196
O O6 0.152127 0.349557 0.851551
O O7 0.337789 0.141117 0.942398
O O8 0.643851 0.453594 0.241213
O O9 0.921339 0.350173 0.366436
O O10 0.914380 0.859336 0.346160
O O11 0.805036 0.727834 0.559244
O O12 0.568999 0.523732 0.632024
O O13 0.375041 0.012894 0.544816
O O14 0.407724 0.106664 0.765963
#
# Coordination Sequence:
#
# PCOD9004539 Si02
#       7
#     2   2   2   2   2   2   2
#     4  11  21  38  67  95 131 162 215 267 323 374
#     4   9  21  40  64  94 129 166 212 270 318 373
#     4  10  23  42  64  93 133 175 208 258 318 392
#     4  11  23  43  64  92 137 169 218 254 317 390
#     4  10  21  37  69  93 125 163 214 273 323 363
#     4  10  21  41  62  98 124 166 211 273 314 376
#     4   9  20  43  61  96 129 163 219 261 322 381
#
# _framework density 27.818093000000001
#
# number of rings (size 3 to 8) (size 9 to 14) (size 15 to 20)
#    0.857    1.143    2.857    0.429    0.000    4.000 
#    0.000    1.429    0.000    0.000    0.000    0.000 
#    0.000    0.000    0.000    0.000    0.000    0.000 
#
# Total GULP energy -78301.729959 kJ/mol
# GULP energy per Si atom -5592.980711 kJ/mol
# Density = 2.775478 g / cm^3
# Si number density = 27.818093 Si / 1000 Ang^3
#
#
#
# Elastic Constant Matrix: (Units=GPa)
#
#
# Indices 1 2 3 4 5 6 
#
# 1 111.5268 32.6828 19.6091 -5.6784 4.6639 -29.3470
# 2 32.6828 77.3310 10.4148 -2.0247 3.5008 -25.3128
# 3 19.6091 10.4148 115.7007 -18.1633 -2.1447 -15.5136
# 4 -5.6784 -2.0247 -18.1633 35.5540 -3.6664 1.9163
# 5 4.6639 3.5008 -2.1447 -3.6664 46.0941 -8.7180
# 6 -29.3470 -25.3128 -15.5136 1.9163 -8.7180 51.4728
#
#
#
# Elastic Compliance Matrix: (Units=1/GPa)
#
#
# Indices 1 2 3 4 5 6 
#
# 1 0.011294 -0.003124 -0.000869 0.000934 0.000000 0.004606
# 2 -0.003124 0.016299 -0.000083 0.000077 0.000263 0.006251
# 3 -0.000869 -0.000083 0.009938 0.004945 0.001426 0.002517
# 4 0.000934 0.000077 0.004945 0.031026 0.002860 0.001390
# 5 0.000000 0.000263 0.001426 0.002860 0.022784 0.004311
# 6 0.004606 0.006251 0.002517 0.001390 0.004311 0.026565
#
#
# Mechanical properties :
#
#
# Convention : Reuss Voigt Hill
#
# Bulk Modulus (GPa) = 34.03603 47.77464 40.90534
# Shear Modulus (GPa) = 36.80508 42.74766 39.77637
#
# Velocity S-wave (km/s) = 3.64134 3.92431 3.78547
# Velocity P-wave (km/s) = 5.47183 6.14368 5.81746
#
# Compressibility (1/GPa) = 0.02938063
#
# Stress axis : x y z
#
# Youngs Moduli (GPa) = 88.53936 61.35283 100.62587
#
# Poissons Ratio (x) = 0.19167 0.08742
# Poissons Ratio (y) = 0.27661 0.00830
# Poissons Ratio (z) = 0.07692 0.00506
#
# Static dielectric constant tensor:
#      x y z
#    x 2.200190 0.085110 -0.006890 
#    y 0.085110 2.286330 -0.028110 
#    z -0.006890 -0.028110 2.164780 
# 
# From -- ./inp_files/510277.got.cif
#   From: 2010.05.17/outbox.cif.g08.bks.cpg/sg2_256_cif.got.tgz:510277.got - 2010.06.03 11:33:40.
