data_PCOD9004622
_publ_section_title
;
Structure prediction by ZEFSAII (Michael W. Deem and Ramdas Pophale) SiO2 
 PCOD9004622
Probable space group: P -1
;
_chemical_formula_sum "Si O2"
_cell_formula_units_Z 16
_cell_length_a 12.329775
_cell_length_b 5.547878
_cell_length_c 15.842592
_cell_angle_alpha 87.530236
_cell_angle_beta 50.666444
_cell_angle_gamma 103.911519
_cell_volume 785.558323
_symmetry_space_group_name_H-M "P -1"
_symmetry_group_IT_number 2
_symmetry_cell_setting 'triclinic'
loop_
_space_group_symop_operation_xyz
x,y,z
-x,-y,-z
loop_
_atom_site_type_symbol
_atom_site_label
_atom_site_fract_x
_atom_site_fract_y
_atom_site_fract_z
Si Si1 0.111988 0.669388 0.813305
Si Si2 0.729962 0.052811 0.843606
Si Si3 0.068057 0.935726 0.107845
Si Si4 0.680469 0.018901 0.152639
Si Si5 0.632599 0.273231 0.431726
Si Si6 0.565709 0.744169 0.772079
Si Si7 0.480078 0.682889 0.079310
Si Si8 0.514961 0.469172 0.635784
O O1 0.222955 0.751508 0.836963
O O2 0.212682 0.739005 0.678069
O O3 0.026364 0.362814 0.861671
O O4 0.012849 0.853866 0.862489
O O5 0.877000 0.072244 0.821911
O O6 0.684509 0.299192 0.839309
O O7 0.691065 0.888358 0.778241
O O8 0.608688 0.936959 0.980506
O O9 0.202139 0.016017 0.971902
O O10 0.551763 0.107129 0.172541
O O11 0.598205 0.780383 0.258051
O O12 0.632500 0.391305 0.522333
O O13 0.582994 0.440729 0.384274
O O14 0.500000 0.000000 0.500000
O O15 0.495004 0.455625 0.847631
O O16 0.593892 0.691633 0.661799
O O17 0.500000 0.500000 0.000000
#
# Coordination Sequence:
#
# PCOD9004622 Si02
#       8
#     2   2   2   2   2   2   2   2
#     4  12  27  45  66  99 136 193 218 268 342 413
#     4  10  21  38  55  92 129 182 225 264 329 389
#     4  12  28  42  67  96 153 187 217 259 331 441
#     4  12  24  42  63 106 136 175 225 275 345 396
#     4  11  23  44  70  92 129 166 235 289 336 387
#     4  11  21  35  67  95 130 167 228 287 330 384
#     4   9  18  33  59  86 125 172 226 275 316 379
#     4  11  22  39  71  99 128 166 217 308 333 382
#
# _framework density 20.367678999999999
#
# number of rings (size 3 to 8) (size 9 to 14) (size 15 to 20)
#    0.000    1.000    2.500    5.250    8.750    0.000 
#    0.000    0.000    0.000    1.500    0.000    0.000 
#    0.000    0.000    0.000    0.000    0.000    0.000 
#
# Total GULP energy -89193.423024 kJ/mol
# GULP energy per Si atom -5574.588939 kJ/mol
# Density = 2.032132 g / cm^3
# Si number density = 20.367679 Si / 1000 Ang^3
#
#
#
# Elastic Constant Matrix: (Units=GPa)
#
#
# Indices 1 2 3 4 5 6 
#
# 1 66.8070 24.9322 15.6318 -2.4329 21.1179 13.9959
# 2 24.9322 86.7492 38.6591 9.3564 11.8407 -6.9065
# 3 15.6318 38.6591 110.4490 24.6041 12.3951 -2.7727
# 4 -2.4329 9.3564 24.6041 48.8533 3.0265 16.7540
# 5 21.1179 11.8407 12.3951 3.0265 22.7409 10.5260
# 6 13.9959 -6.9065 -2.7727 16.7540 10.5260 45.0215
#
#
#
# Elastic Compliance Matrix: (Units=1/GPa)
#
#
# Indices 1 2 3 4 5 6 
#
# 1 0.024175 -0.005336 -0.001243 0.006227 -0.016660 -0.006833
# 2 -0.005336 0.015992 -0.003504 -0.003404 -0.003811 0.006054
# 3 -0.001243 -0.003504 0.012689 -0.006980 -0.005049 0.004408
# 4 0.006227 -0.003404 -0.006980 0.029785 0.002576 -0.014574
# 5 -0.016660 -0.003811 -0.005049 0.002576 0.069859 -0.013008
# 6 -0.006833 0.006054 0.004408 -0.014574 -0.013008 0.034001
#
#
# Mechanical properties :
#
#
# Convention : Reuss Voigt Hill
#
# Bulk Modulus (GPa) = 30.59094 46.93904 38.76499
# Shear Modulus (GPa) = 22.98184 35.64195 29.31190
#
# Velocity S-wave (km/s) = 3.36273 4.18775 3.79771
# Velocity P-wave (km/s) = 5.48901 6.81754 6.18903
#
# Compressibility (1/GPa) = 0.03268941
#
# Stress axis : x y z
#
# Youngs Moduli (GPa) = 41.36484 62.53152 78.81065
#
# Poissons Ratio (x) = 0.33365 0.09795
# Poissons Ratio (y) = 0.22071 0.27619
# Poissons Ratio (z) = 0.05141 0.21914
#
# Static dielectric constant tensor:
#      x y z
#    x 1.665340 0.090960 0.049760 
#    y 0.090960 1.768160 -0.009170 
#    z 0.049760 -0.009170 1.740370 
# 
# From -- ./inp_files/510883.got.cif
#   From: 2010.05.17/outbox.cif.g08.bks.cpg/sg2_256_cif.got.tgz:510883.got - 2010.06.03 11:33:40.
