data_PCOD9004135
_publ_section_title
;
Structure prediction by ZEFSAII (Michael W. Deem and Ramdas Pophale) SiO2 
 PCOD9004135
Probable space group: P -1
;
_chemical_formula_sum "Si O2"
_cell_formula_units_Z 16
_cell_length_a 6.567113
_cell_length_b 11.220777
_cell_length_c 11.961201
_cell_angle_alpha 69.465430
_cell_angle_beta 116.446142
_cell_angle_gamma 105.946845
_cell_volume 731.598869
_symmetry_space_group_name_H-M "P -1"
_symmetry_group_IT_number 2
_symmetry_cell_setting 'triclinic'
loop_
_space_group_symop_operation_xyz
x,y,z
-x,-y,-z
loop_
_atom_site_type_symbol
_atom_site_label
_atom_site_fract_x
_atom_site_fract_y
_atom_site_fract_z
Si Si1 0.379379 0.790749 0.314417
Si Si2 0.372190 0.687300 0.097683
Si Si3 0.964566 0.002289 0.820230
Si Si4 0.143719 0.643742 0.504188
Si Si5 0.408052 0.560536 0.801187
Si Si6 0.274071 0.161782 0.007990
Si Si7 0.898842 0.899442 0.413630
Si Si8 0.135278 0.401192 0.957695
O O1 0.390295 0.755626 0.198625
O O2 0.209303 0.894299 0.252632
O O3 0.280909 0.676455 0.411400
O O4 0.634256 0.851478 0.391073
O O5 0.529309 0.574931 0.182996
O O6 0.472316 0.782538 0.991069
O O7 0.111776 0.619158 0.039322
O O8 0.069799 0.014445 0.719707
O O9 0.173630 0.043708 0.943562
O O10 0.805107 0.879731 0.872817
O O11 0.317495 0.636308 0.652918
O O12 0.008670 0.766127 0.460477
O O13 0.000000 0.500000 0.500000
O O14 0.210912 0.525656 0.858648
O O15 0.644217 0.611776 0.906494
O O16 0.130317 0.279475 0.913107
O O17 0.000000 0.000000 0.500000
#
# Coordination Sequence:
#
# PCOD9004135 Si02
#       8
#     2   2   2   2   2   2   2   2
#     4  11  23  40  67  95 131 176 224 280 330 399
#     4  11  20  37  65  95 128 169 221 268 336 396
#     4  10  22  41  62  93 130 166 218 274 330 391
#     4  11  25  44  70  98 133 178 229 278 330 395
#     4  10  23  39  61  92 135 169 216 273 336 391
#     4  10  21  37  64  92 127 171 214 270 331 394
#     4  11  26  46  68  98 136 179 226 278 337 396
#     4  10  21  39  61  94 132 172 211 278 337 389
#
# _framework density 21.869910000000001
#
# number of rings (size 3 to 8) (size 9 to 14) (size 15 to 20)
#    0.000    1.500    2.500    1.875    3.500    8.500 
#    0.000    2.500    0.000    0.000    0.000    0.000 
#    0.000    0.000    0.000    0.000    0.000    0.000 
#
# Total GULP energy -89223.896496 kJ/mol
# GULP energy per Si atom -5576.493531 kJ/mol
# Density = 2.182013 g / cm^3
# Si number density = 21.869910 Si / 1000 Ang^3
#
#
#
# Elastic Constant Matrix: (Units=GPa)
#
#
# Indices 1 2 3 4 5 6 
#
# 1 112.7498 32.8889 18.0761 -15.2738 -16.3594 38.9999
# 2 32.8889 90.0510 21.0560 -7.5727 -12.8665 24.6527
# 3 18.0761 21.0560 61.0140 -20.7462 -9.3269 23.4974
# 4 -15.2738 -7.5727 -20.7462 31.9215 9.0949 -12.9380
# 5 -16.3594 -12.8665 -9.3269 9.0949 35.3821 -3.8149
# 6 38.9999 24.6527 23.4974 -12.9380 -3.8149 41.3584
#
#
#
# Elastic Compliance Matrix: (Units=1/GPa)
#
#
# Indices 1 2 3 4 5 6 
#
# 1 0.014379 -0.001377 0.002587 0.001409 0.005033 -0.013303
# 2 -0.001377 0.014212 -0.002323 -0.002437 0.003871 -0.006258
# 3 0.002587 -0.002323 0.025232 0.011637 0.002772 -0.011494
# 4 0.001409 -0.002437 0.011637 0.043827 -0.007731 0.006510
# 5 0.005033 0.003871 0.002772 -0.007731 0.033861 -0.007923
# 6 -0.013303 -0.006258 -0.011494 0.006510 -0.007923 0.048289
#
#
# Mechanical properties :
#
#
# Convention : Reuss Voigt Hill
#
# Bulk Modulus (GPa) = 19.38136 45.31743 32.34939
# Shear Modulus (GPa) = 25.09713 34.51864 29.80789
#
# Velocity S-wave (km/s) = 3.39125 3.97717 3.69584
# Velocity P-wave (km/s) = 4.92092 6.46969 5.74771
#
# Compressibility (1/GPa) = 0.05159598
#
# Stress axis : x y z
#
# Youngs Moduli (GPa) = 69.54806 70.36077 39.63209
#
# Poissons Ratio (x) = 0.09688 -0.10252
# Poissons Ratio (y) = 0.09576 0.09208
# Poissons Ratio (z) = -0.17990 0.16348
#
# Static dielectric constant tensor:
#      x y z
#    x 1.825450 -0.004540 -0.028440 
#    y -0.004540 1.900800 0.020730 
#    z -0.028440 0.020730 1.824090 
# 
# From -- ./inp_files/109822.got.cif
#   From: 2010.05.17/outbox.cif.g08.bks.cpg/sg2_55_cif.got.tgz:109822.got - 2010.06.03 11:33:40.
