data_PCOD9004388
_publ_section_title
;
Structure prediction by ZEFSAII (Michael W. Deem and Ramdas Pophale) SiO2 
 PCOD9004388
Probable space group: P -1
;
_chemical_formula_sum "Si O2"
_cell_formula_units_Z 16
_cell_length_a 17.705932
_cell_length_b 12.220632
_cell_length_c 9.508426
_cell_angle_alpha 139.136502
_cell_angle_beta 124.297001
_cell_angle_gamma 31.798052
_cell_volume 690.276259
_symmetry_space_group_name_H-M "P -1"
_symmetry_group_IT_number 2
_symmetry_cell_setting 'triclinic'
loop_
_space_group_symop_operation_xyz
x,y,z
-x,-y,-z
loop_
_atom_site_type_symbol
_atom_site_label
_atom_site_fract_x
_atom_site_fract_y
_atom_site_fract_z
Si Si1 0.888669 0.557772 0.539289
Si Si2 0.428881 0.858072 0.238737
Si Si3 0.397200 0.559965 0.741039
Si Si4 0.165358 0.648641 0.215735
Si Si5 0.070079 0.423157 0.848064
Si Si6 0.116644 0.751917 0.584518
Si Si7 0.601787 0.113502 0.301973
Si Si8 0.474104 0.155642 0.951135
O O1 0.888627 0.361508 0.394930
O O2 0.000000 0.500000 0.500000
O O3 0.940399 0.557029 0.740663
O O4 0.727807 0.839725 0.594904
O O5 0.524578 0.678846 0.299728
O O6 0.405070 0.723279 0.990247
O O7 0.505646 0.865803 0.213743
O O8 0.229700 0.741499 0.719867
O O9 0.492766 0.401146 0.543270
O O10 0.174545 0.599767 0.345724
O O11 0.324708 0.459050 0.139261
O O12 0.112457 0.554019 0.997089
O O13 0.046515 0.956393 0.346964
O O14 0.227537 0.102489 0.687668
O O15 0.000000 0.500000 0.000000
O O16 0.595584 0.084053 0.099088
O O17 0.542687 0.015263 0.194453
#
# Coordination Sequence:
#
# PCOD9004388 Si02
#       8
#     2   2   2   2   2   2   2   2
#     4  12  26  44  67  99 131 178 221 271 333 397
#     4  11  26  43  65  94 137 171 217 275 327 395
#     4  11  24  45  64  96 132 175 218 269 333 393
#     4  10  22  41  66 101 130 173 215 276 328 388
#     4  11  21  39  65  97 134 171 216 273 325 387
#     4  11  23  42  68  94 134 171 224 271 328 392
#     4  10  21  37  66  93 128 169 217 267 322 391
#     4  10  21  40  65  98 129 165 221 266 329 383
#
# _framework density 23.179126
#
# number of rings (size 3 to 8) (size 9 to 14) (size 15 to 20)
#    0.000    1.250    2.500    3.000    1.750    7.500 
#    0.000    1.875    0.000    0.000    0.000    0.000 
#    0.000    0.000    0.000    0.000    0.000    0.000 
#
# Total GULP energy -89371.837285 kJ/mol
# GULP energy per Si atom -5585.739830 kJ/mol
# Density = 2.312637 g / cm^3
# Si number density = 23.179126 Si / 1000 Ang^3
#
#
#
# Elastic Constant Matrix: (Units=GPa)
#
#
# Indices 1 2 3 4 5 6 
#
# 1 71.7825 11.0761 1.8884 13.2382 -22.3792 7.2409
# 2 11.0761 68.6385 -8.8203 5.7858 -10.0341 1.0780
# 3 1.8884 -8.8203 40.5009 1.8264 -1.6316 -3.5930
# 4 13.2382 5.7858 1.8264 41.3577 -7.9786 -4.2469
# 5 -22.3792 -10.0341 -1.6316 -7.9786 40.1044 -7.4446
# 6 7.2409 1.0780 -3.5930 -4.2469 -7.4446 29.6987
#
#
#
# Elastic Compliance Matrix: (Units=1/GPa)
#
#
# Indices 1 2 3 4 5 6 
#
# 1 0.017781 -0.001390 -0.000875 -0.004187 0.008160 -0.002944
# 2 -0.001390 0.015845 0.003778 -0.001221 0.003260 0.000863
# 3 -0.000875 0.003778 0.025990 -0.000622 0.002068 0.003650
# 4 -0.004187 -0.001221 -0.000622 0.027046 0.003792 0.005808
# 5 0.008160 0.003260 0.002068 0.003792 0.032406 0.006808
# 6 -0.002944 0.000863 0.003650 0.005808 0.006808 0.037337
#
#
# Mechanical properties :
#
#
# Convention : Reuss Voigt Hill
#
# Bulk Modulus (GPa) = 15.96366 21.02338 18.49352
# Shear Modulus (GPa) = 28.69300 34.01734 31.35517
#
# Velocity S-wave (km/s) = 3.52217 3.83506 3.68194
# Velocity P-wave (km/s) = 4.84179 5.35723 5.10602
#
# Compressibility (1/GPa) = 0.06264227
#
# Stress axis : x y z
#
# Youngs Moduli (GPa) = 56.23842 63.11208 38.47684
#
# Poissons Ratio (x) = 0.08772 0.03368
# Poissons Ratio (y) = 0.07816 -0.14538
# Poissons Ratio (z) = 0.04923 -0.23847
#
# Static dielectric constant tensor:
#      x y z
#    x 1.830430 -0.014630 0.081620 
#    y -0.014630 1.836070 0.055200 
#    z 0.081620 0.055200 1.873950 
# 
# From -- ./inp_files/333791.got.cif
#   From: 2010.05.17/outbox.cif.g08.bks.cpg/sg2_167_cif.got.tgz:333791.got - 2010.06.03 11:33:40.
