data_PCOD9004417
_publ_section_title
;
Structure prediction by ZEFSAII (Michael W. Deem and Ramdas Pophale) SiO2 
 PCOD9004417
Probable space group: P -1
;
_chemical_formula_sum "Si O2"
_cell_formula_units_Z 15
_cell_length_a 7.246200
_cell_length_b 10.702538
_cell_length_c 9.198402
_cell_angle_alpha 91.542371
_cell_angle_beta 82.406645
_cell_angle_gamma 67.676768
_cell_volume 651.795291
_symmetry_space_group_name_H-M "P -1"
_symmetry_group_IT_number 2
_symmetry_cell_setting 'triclinic'
loop_
_space_group_symop_operation_xyz
x,y,z
-x,-y,-z
loop_
_atom_site_type_symbol
_atom_site_label
_atom_site_fract_x
_atom_site_fract_y
_atom_site_fract_z
Si Si1 0.000000 0.000000 0.000000
Si Si2 0.280987 0.608643 0.645336
Si Si3 0.028264 0.629488 0.378760
Si Si4 0.686257 0.893341 0.889959
Si Si5 0.573051 0.685384 0.460819
Si Si6 0.924761 0.919399 0.307569
Si Si7 0.934316 0.593276 0.865802
Si Si8 0.311166 0.969144 0.389617
O O1 0.878353 0.985340 0.158762
O O2 0.122968 0.072176 0.084397
O O3 0.427076 0.689550 0.611996
O O4 0.416535 0.448221 0.633009
O O5 0.159752 0.631790 0.505209
O O6 0.118322 0.634483 0.790272
O O7 0.806390 0.653285 0.464076
O O8 0.001644 0.757437 0.284888
O O9 0.098155 0.498886 0.263312
O O10 0.744348 0.734695 0.910548
O O11 0.650702 0.929997 0.723931
O O12 0.500000 0.000000 0.000000
O O13 0.480459 0.819561 0.379751
O O14 0.111562 0.947912 0.355851
O O15 0.743675 0.970140 0.442514
O O16 0.000000 0.500000 0.000000
#
# Coordination Sequence:
#
# PCOD9004417 Si02
#       8
#     1   2   2   2   2   2   2   2
#     4  10  24  44  64  94 136 174 206 274 338 390
#     4  10  22  42  66  95 135 167 224 265 323 390
#     4  11  22  43  68  93 130 169 223 268 323 386
#     4  11  26  46  67  96 137 174 220 275 331 390
#     4  10  21  37  66  97 126 171 211 276 318 384
#     4  10  21  41  67  95 132 172 215 273 328 394
#     4  11  24  42  70  95 132 178 215 268 335 388
#     4  10  22  40  69  97 131 174 220 268 335 386
#
# _framework density 23.013362999999998
#
# number of rings (size 3 to 8) (size 9 to 14) (size 15 to 20)
#    0.000    1.600    1.333    3.200    9.333    0.533 
#    4.800    0.000    0.000   15.200    0.000    0.000 
#    0.000    0.000    0.000    0.000    0.000    0.000 
#
# Total GULP energy -83584.166440 kJ/mol
# GULP energy per Si atom -5572.277763 kJ/mol
# Density = 2.296098 g / cm^3
# Si number density = 23.013363 Si / 1000 Ang^3
#
#
#
# Elastic Constant Matrix: (Units=GPa)
#
#
# Indices 1 2 3 4 5 6 
#
# 1 79.2112 15.9335 31.3280 -0.2183 -4.6035 2.6335
# 2 15.9335 139.8558 60.9789 4.4126 -7.9103 -12.9075
# 3 31.3280 60.9789 148.5464 -10.4684 -13.3364 -8.0926
# 4 -0.2183 4.4126 -10.4684 21.8275 -1.9281 -4.9211
# 5 -4.6035 -7.9103 -13.3364 -1.9281 30.4224 -1.9129
# 6 2.6335 -12.9075 -8.0926 -4.9211 -1.9129 31.4718
#
#
#
# Elastic Compliance Matrix: (Units=1/GPa)
#
#
# Indices 1 2 3 4 5 6 
#
# 1 0.013990 -0.000433 -0.002980 -0.001693 0.000443 -0.002352
# 2 -0.000433 0.009166 -0.003694 -0.003027 0.000658 0.002412
# 3 -0.002980 -0.003694 0.009756 0.006244 0.003413 0.002427
# 4 -0.001693 -0.003027 0.006244 0.051914 0.005548 0.008961
# 5 0.000443 0.000658 0.003413 0.005548 0.035215 0.004119
# 6 -0.002352 0.002412 0.002427 0.008961 0.004119 0.035236
#
#
# Mechanical properties :
#
#
# Convention : Reuss Voigt Hill
#
# Bulk Modulus (GPa) = 53.48739 64.89934 59.19337
# Shear Modulus (GPa) = 28.45395 34.03589 31.24492
#
# Velocity S-wave (km/s) = 3.52008 3.84990 3.68868
# Velocity P-wave (km/s) = 6.30980 6.92995 6.62714
#
# Compressibility (1/GPa) = 0.01869600
#
# Stress axis : x y z
#
# Youngs Moduli (GPa) = 71.48184 109.10453 102.50559
#
# Poissons Ratio (x) = 0.04724 0.30550
# Poissons Ratio (y) = 0.03095 0.37865
# Poissons Ratio (z) = 0.21304 0.40303
#
# Static dielectric constant tensor:
#      x y z
#    x 1.910130 -0.009450 -0.023670 
#    y -0.009450 1.922210 0.007140 
#    z -0.023670 0.007140 1.830360 
# 
# From -- ./inp_files/178924.got.cif
#   From: 2010.05.17/outbox.cif.g08.bks.cpg/sg2_90_cif.got.tgz:178924.got - 2010.06.03 11:33:40.
