data_PCOD9004556
_publ_section_title
;
Structure prediction by ZEFSAII (Michael W. Deem and Ramdas Pophale) SiO2 
 PCOD9004556
Probable space group: P -1
;
_chemical_formula_sum "Si O2"
_cell_formula_units_Z 16
_cell_length_a 12.794526
_cell_length_b 11.919560
_cell_length_c 8.107274
_cell_angle_alpha 50.321683
_cell_angle_beta 60.103614
_cell_angle_gamma 47.807137
_cell_volume 699.744550
_symmetry_space_group_name_H-M "P -1"
_symmetry_group_IT_number 2
_symmetry_cell_setting 'triclinic'
loop_
_space_group_symop_operation_xyz
x,y,z
-x,-y,-z
loop_
_atom_site_type_symbol
_atom_site_label
_atom_site_fract_x
_atom_site_fract_y
_atom_site_fract_z
Si Si1 0.696804 0.563007 0.635937
Si Si2 0.166596 0.835612 0.502180
Si Si3 0.991970 0.339785 0.719584
Si Si4 0.267610 0.063055 0.238088
Si Si5 0.969643 0.353944 0.116694
Si Si6 0.562324 0.795684 0.838653
Si Si7 0.289144 0.124042 0.775825
Si Si8 0.579200 0.384826 0.704752
O O1 0.655615 0.663508 0.747070
O O2 0.705813 0.701876 0.383119
O O3 0.588506 0.511221 0.708306
O O4 0.848046 0.384107 0.704590
O O5 0.159716 0.670712 0.715651
O O6 0.257262 0.766501 0.325941
O O7 0.268090 0.893661 0.453233
O O8 0.000000 0.000000 0.500000
O O9 0.148094 0.172555 0.737862
O O10 0.000000 0.500000 0.500000
O O11 0.975896 0.342997 0.925483
O O12 0.356398 0.128302 0.199589
O O13 0.102485 0.203966 0.251074
O O14 0.293417 0.066911 0.016314
O O15 0.000000 0.500000 0.000000
O O16 0.420455 0.967330 0.727945
O O17 0.507943 0.698002 0.085957
O O18 0.500000 0.500000 0.500000
#
# Coordination Sequence:
#
# PCOD9004556 Si02
#       8
#     2   2   2   2   2   2   2   2
#     4  11  25  44  65  99 141 180 230 279 347 407
#     4  10  24  45  68 102 135 174 233 287 333 396
#     4   9  21  40  64  94 135 174 220 279 331 396
#     4  10  21  41  70  98 136 178 230 280 333 402
#     4  10  21  37  70 101 131 174 227 275 334 400
#     4  12  24  44  69 102 139 185 226 280 344 410
#     4  10  21  42  67  97 134 183 232 275 335 405
#     4  12  28  45  70 100 141 179 225 289 344 411
#
# _framework density 22.865489
#
# number of rings (size 3 to 8) (size 9 to 14) (size 15 to 20)
#    0.000    1.500    1.250    2.625   10.500    0.000 
#    2.250    0.625    0.000    0.000    0.000    0.000 
#    0.000    0.000    0.000    0.000    0.000    0.000 
#
# Total GULP energy -89082.733105 kJ/mol
# GULP energy per Si atom -5567.670819 kJ/mol
# Density = 2.281345 g / cm^3
# Si number density = 22.865489 Si / 1000 Ang^3
#
#
#
# Elastic Constant Matrix: (Units=GPa)
#
#
# Indices 1 2 3 4 5 6 
#
# 1 134.5294 49.3189 66.2421 -16.8946 -28.0513 -0.0451
# 2 49.3189 73.5206 19.9601 -8.0315 -11.4947 -4.5187
# 3 66.2421 19.9601 112.5860 -6.6419 -44.0720 4.1155
# 4 -16.8946 -8.0315 -6.6419 25.1812 0.7302 -8.3929
# 5 -28.0513 -11.4947 -44.0720 0.7302 42.2815 -15.0607
# 6 -0.0451 -4.5187 4.1155 -8.3929 -15.0607 31.0104
#
#
#
# Elastic Compliance Matrix: (Units=1/GPa)
#
#
# Indices 1 2 3 4 5 6 
#
# 1 0.014072 -0.006595 -0.005975 0.006594 0.002158 0.002685
# 2 -0.006595 0.019075 0.002906 0.004430 0.006093 0.006543
# 3 -0.005975 0.002906 0.019967 0.004621 0.020807 0.009121
# 4 0.006594 0.004430 0.004621 0.054014 0.017757 0.023285
# 5 0.002158 0.006093 0.020807 0.017757 0.059451 0.031809
# 6 0.002685 0.006543 0.009121 0.023285 0.031809 0.053745
#
#
# Mechanical properties :
#
#
# Convention : Reuss Voigt Hill
#
# Bulk Modulus (GPa) = 29.59779 65.74200 47.66990
# Shear Modulus (GPa) = 19.92721 32.03564 25.98143
#
# Velocity S-wave (km/s) = 2.95532 3.74712 3.37452
# Velocity P-wave (km/s) = 4.96161 6.89458 6.00636
#
# Compressibility (1/GPa) = 0.03378630
#
# Stress axis : x y z
#
# Youngs Moduli (GPa) = 71.06357 52.42356 50.08385
#
# Poissons Ratio (x) = 0.34572 0.29924
# Poissons Ratio (y) = 0.46865 -0.14554
# Poissons Ratio (z) = 0.42459 -0.15233
#
# Static dielectric constant tensor:
#      x y z
#    x 1.947340 0.011090 -0.117450 
#    y 0.011090 2.017960 -0.080850 
#    z -0.117450 -0.080850 1.960670 
# 
# From -- ./inp_files/261492.got.cif
#   From: 2010.05.17/outbox.cif.g08.bks.cpg/sg2_131_cif.got.tgz:261492.got - 2010.06.03 11:33:40.
