data_PCOD9004767
_publ_section_title
;
Structure prediction by ZEFSAII (Michael W. Deem and Ramdas Pophale) SiO2 
 PCOD9004767
Probable space group: P -1
;
_chemical_formula_sum "Si O2"
_cell_formula_units_Z 16
_cell_length_a 11.267379
_cell_length_b 11.308935
_cell_length_c 14.456633
_cell_angle_alpha 135.364608
_cell_angle_beta 140.663011
_cell_angle_gamma 62.206456
_cell_volume 805.641249
_symmetry_space_group_name_H-M "P -1"
_symmetry_group_IT_number 2
_symmetry_cell_setting 'triclinic'
loop_
_space_group_symop_operation_xyz
x,y,z
-x,-y,-z
loop_
_atom_site_type_symbol
_atom_site_label
_atom_site_fract_x
_atom_site_fract_y
_atom_site_fract_z
Si Si1 0.767437 0.492616 0.059260
Si Si2 0.579408 0.735739 0.721293
Si Si3 0.428530 0.878377 0.017207
Si Si4 0.754303 0.756289 0.034899
Si Si5 0.890217 0.351561 0.418318
Si Si6 0.200924 0.479439 0.367095
Si Si7 0.566934 0.731245 0.196143
Si Si8 0.950628 0.951181 0.552538
O O1 0.769022 0.606595 0.032456
O O2 0.691047 0.594167 0.156051
O O3 0.982404 0.466969 0.194825
O O4 0.589201 0.333916 0.856687
O O5 0.369133 0.628414 0.510699
O O6 0.723917 0.693124 0.707191
O O7 0.673659 0.688680 0.849370
O O8 0.569477 0.931378 0.842061
O O9 0.244469 0.785037 0.801448
O O10 0.605413 0.864779 0.049847
O O11 0.446574 0.766567 0.055184
O O12 0.951934 0.891352 0.237003
O O13 0.788963 0.463400 0.488912
O O14 0.000000 0.500000 0.500000
O O15 0.977734 0.220759 0.465480
O O16 0.724049 0.901032 0.401492
O O17 0.000000 0.000000 0.500000
#
# Coordination Sequence:
#
# PCOD9004767 Si02
#       8
#     2   2   2   2   2   2   2   2
#     4  10  21  38  58  90 125 164 209 259 319 377
#     4  11  24  39  61  98 126 169 204 263 325 379
#     4  11  21  37  62  92 126 158 215 266 310 369
#     4  11  21  36  64  92 124 158 215 274 303 374
#     4  12  24  39  66  97 127 167 215 270 319 378
#     4  11  23  41  63  91 133 165 208 258 326 386
#     4  10  22  35  62  92 125 165 209 268 321 372
#     4  12  21  36  62  97 123 159 211 272 318 367
#
# _framework density 19.859956
#
# number of rings (size 3 to 8) (size 9 to 14) (size 15 to 20)
#    0.000    1.000    6.250    1.875    5.250    0.500 
#    0.000    2.500    0.000    0.750    0.000    0.000 
#    0.000    0.000    0.000    0.000    0.000    0.000 
#
# Total GULP energy -89129.358847 kJ/mol
# GULP energy per Si atom -5570.584928 kJ/mol
# Density = 1.981475 g / cm^3
# Si number density = 19.859956 Si / 1000 Ang^3
#
#
#
# Elastic Constant Matrix: (Units=GPa)
#
#
# Indices 1 2 3 4 5 6 
#
# 1 58.8970 36.0304 14.2128 2.5707 12.0577 -1.8494
# 2 36.0304 56.3991 32.0238 -0.0858 16.6406 2.9094
# 3 14.2128 32.0238 88.9472 -8.0873 21.5450 8.8451
# 4 2.5707 -0.0858 -8.0873 18.6008 -8.5747 6.0883
# 5 12.0577 16.6406 21.5450 -8.5747 33.6579 9.9108
# 6 -1.8494 2.9094 8.8451 6.0883 9.9108 25.1792
#
#
#
# Elastic Compliance Matrix: (Units=1/GPa)
#
#
# Indices 1 2 3 4 5 6 
#
# 1 0.030291 -0.018489 0.001964 -0.010407 -0.008417 0.009501
# 2 -0.018489 0.036912 -0.009153 -0.005459 -0.007734 0.001956
# 3 0.001964 -0.009153 0.016127 0.006679 -0.003405 -0.004738
# 4 -0.010407 -0.005459 0.006679 0.086457 0.035136 -0.037215
# 5 -0.008417 -0.007734 -0.003405 0.035136 0.056271 -0.029173
# 6 0.009501 0.001956 -0.004738 -0.037215 -0.029173 0.062333
#
#
# Mechanical properties :
#
#
# Convention : Reuss Voigt Hill
#
# Bulk Modulus (GPa) = 31.27431 40.97525 36.12478
# Shear Modulus (GPa) = 14.26917 23.61933 18.94425
#
# Velocity S-wave (km/s) = 2.68337 3.45236 3.09186
# Velocity P-wave (km/s) = 5.03808 6.04719 5.56556
#
# Compressibility (1/GPa) = 0.03197513
#
# Stress axis : x y z
#
# Youngs Moduli (GPa) = 33.01257 27.09117 62.00660
#
# Poissons Ratio (x) = 0.50090 -0.12179
# Poissons Ratio (y) = 0.61038 0.56753
# Poissons Ratio (z) = -0.06484 0.24796
#
# Static dielectric constant tensor:
#      x y z
#    x 1.714160 0.018710 0.052750 
#    y 0.018710 1.722740 -0.010770 
#    z 0.052750 -0.010770 1.765480 
# 
# From -- ./inp_files/519932.got.cif
#   From: 2010.05.17/outbox.cif.g08.bks.cpg/sg2_260_cif.got.tgz:519932.got - 2010.06.03 11:33:40.
