data_PCOD9004115
_publ_section_title
;
Structure prediction by ZEFSAII (Michael W. Deem and Ramdas Pophale) SiO2 
 PCOD9004115
Probable space group: P -1
;
_chemical_formula_sum "Si O2"
_cell_formula_units_Z 14
_cell_length_a 11.404601
_cell_length_b 8.358539
_cell_length_c 10.302515
_cell_angle_alpha 136.634750
_cell_angle_beta 117.014728
_cell_angle_gamma 64.357691
_cell_volume 592.273899
_symmetry_space_group_name_H-M "P -1"
_symmetry_group_IT_number 2
_symmetry_cell_setting 'triclinic'
loop_
_space_group_symop_operation_xyz
x,y,z
-x,-y,-z
loop_
_atom_site_type_symbol
_atom_site_label
_atom_site_fract_x
_atom_site_fract_y
_atom_site_fract_z
Si Si1 0.379133 0.672308 0.980722
Si Si2 0.193494 0.419544 0.595892
Si Si3 0.379729 0.092538 0.089947
Si Si4 0.820553 0.082012 0.777813
Si Si5 0.914587 0.703818 0.248059
Si Si6 0.111996 0.924964 0.752192
Si Si7 0.205991 0.543253 0.202859
O O1 0.245903 0.753707 0.044861
O O2 0.500000 0.500000 0.000000
O O3 0.331258 0.515554 0.749207
O O4 0.425076 0.925788 0.135404
O O5 0.207075 0.182964 0.379546
O O6 0.137640 0.337849 0.658809
O O7 0.111413 0.649591 0.618595
O O8 0.245236 0.994482 0.920906
O O9 0.500000 0.000000 0.000000
O O10 0.328716 0.371940 0.229815
O O11 0.980057 0.062759 0.837533
O O12 0.763859 0.208895 0.690401
O O13 0.070007 0.586734 0.242475
O O14 0.896907 0.971679 0.337741
O O15 0.834145 0.584132 0.025247
#
# Coordination Sequence:
#
# PCOD9004115 Si02
#       7
#     2   2   2   2   2   2   2
#     4  11  25  42  66  89 126 167 209 262 310 373
#     4  11  23  39  67  93 129 167 204 257 320 370
#     4  10  21  37  64  91 122 171 209 254 314 370
#     4  11  22  41  64  98 124 160 209 261 314 372
#     4   9  18  36  61  89 129 164 196 262 308 358
#     4   9  22  38  61  99 129 157 215 258 301 386
#     4   9  18  35  59  92 122 159 213 246 306 380
#
# _framework density 23.637712000000001
#
# number of rings (size 3 to 8) (size 9 to 14) (size 15 to 20)
#    0.000    2.000    1.429    2.143    4.000    4.000 
#    2.571    0.000    0.000    2.571    0.000    0.000 
#    0.000    0.000    0.000    0.000    0.000    0.000 
#
# Total GULP energy -78079.105232 kJ/mol
# GULP energy per Si atom -5577.078945 kJ/mol
# Density = 2.358391 g / cm^3
# Si number density = 23.637712 Si / 1000 Ang^3
#
#
#
# Elastic Constant Matrix: (Units=GPa)
#
#
# Indices 1 2 3 4 5 6 
#
# 1 47.8427 22.4759 1.6343 18.9357 -1.7188 9.2662
# 2 22.4759 170.6179 18.6635 50.5410 4.5107 7.3679
# 3 1.6343 18.6635 65.1805 19.5495 2.3092 -3.8928
# 4 18.9357 50.5410 19.5495 46.3673 6.6497 7.2579
# 5 -1.7188 4.5107 2.3092 6.6497 17.6651 2.8189
# 6 9.2662 7.3679 -3.8928 7.2579 2.8189 43.3869
#
#
#
# Elastic Compliance Matrix: (Units=1/GPa)
#
#
# Indices 1 2 3 4 5 6 
#
# 1 0.026796 -0.000206 0.002569 -0.012277 0.007567 -0.003895
# 2 -0.000206 0.008702 0.000412 -0.009795 0.001367 0.000153
# 3 0.002569 0.000412 0.018192 -0.009716 0.001014 0.002573
# 4 -0.012277 -0.009795 -0.009716 0.043751 -0.013409 -0.003034
# 5 0.007567 0.001367 0.001014 -0.013409 0.062481 -0.003574
# 6 -0.003895 0.000153 0.002573 -0.003034 -0.003574 0.024825
#
#
# Mechanical properties :
#
#
# Convention : Reuss Voigt Hill
#
# Bulk Modulus (GPa) = 16.88079 41.02094 28.95087
# Shear Modulus (GPa) = 25.13261 37.54168 31.33715
#
# Velocity S-wave (km/s) = 3.26428 3.98956 3.64500
# Velocity P-wave (km/s) = 4.62215 6.21400 5.47623
#
# Compressibility (1/GPa) = 0.05923893
#
# Stress axis : x y z
#
# Youngs Moduli (GPa) = 37.31849 114.91925 54.97045
#
# Poissons Ratio (x) = 0.02367 -0.14120
# Poissons Ratio (y) = 0.00769 -0.02264
# Poissons Ratio (z) = -0.09586 -0.04734
#
# Static dielectric constant tensor:
#      x y z
#    x 1.975400 0.113650 0.053390 
#    y 0.113650 2.020920 -0.045230 
#    z 0.053390 -0.045230 2.301200 
# 
# From -- ./inp_files/204339.got.cif
#   From: 2010.05.17/outbox.cif.g08.bks.cpg/sg2_103_cif.got.tgz:204339.got - 2010.06.03 11:33:40.
