data_PCOD9004613
_publ_section_title
;
Structure prediction by ZEFSAII (Michael W. Deem and Ramdas Pophale) SiO2 
 PCOD9004613
Probable space group: P -1
;
_chemical_formula_sum "Si O2"
_cell_formula_units_Z 11
_cell_length_a 14.767424
_cell_length_b 6.133938
_cell_length_c 4.682017
_cell_angle_alpha 86.362757
_cell_angle_beta 112.243419
_cell_angle_gamma 98.044998
_cell_volume 388.659557
_symmetry_space_group_name_H-M "P -1"
_symmetry_group_IT_number 2
_symmetry_cell_setting 'triclinic'
loop_
_space_group_symop_operation_xyz
x,y,z
-x,-y,-z
loop_
_atom_site_type_symbol
_atom_site_label
_atom_site_fract_x
_atom_site_fract_y
_atom_site_fract_z
Si Si1 0.446480 0.790756 0.122691
Si Si2 0.812769 0.413683 0.632035
Si Si3 0.920178 0.804354 0.326117
Si Si4 0.000000 0.500000 0.000000
Si Si5 0.263329 0.975436 0.863683
Si Si6 0.373325 0.393468 0.630013
O O1 0.534565 0.697686 0.409319
O O2 0.410236 0.592692 0.875830
O O3 0.500000 0.000000 0.000000
O O4 0.350457 0.872605 0.145600
O O5 0.887805 0.359363 0.965222
O O6 0.720066 0.519702 0.637225
O O7 0.888720 0.610454 0.545915
O O8 0.778466 0.212618 0.398332
O O9 0.822784 0.907520 0.108344
O O10 0.975776 0.694769 0.158530
O O11 0.000000 0.000000 0.500000
O O12 0.322305 0.182514 0.754068
#
# Coordination Sequence:
#
# PCOD9004613 Si02
#       6
#     2   2   2   1   2   2
#     4   8  13  25  51  83 110 148 188 223 289 344
#     4  10  21  38  55  84 118 148 197 239 281 344
#     4  11  23  40  57  82 117 151 196 245 283 338
#     4  12  24  38  60  82 112 162 194 236 294 332
#     4   9  17  33  53  79 117 148 186 240 282 338
#     4   8  15  28  51  82 114 146 188 232 281 345
#
# _framework density 28.302408
#
# number of rings (size 3 to 8) (size 9 to 14) (size 15 to 20)
#    0.000    2.545    1.818    0.545    0.000    0.727 
#    0.000    0.000    0.000    1.091    0.000  114.545 
#    0.000    0.000    0.000    0.000    0.000    0.000 
#
# Total GULP energy -61352.052600 kJ/mol
# GULP energy per Si atom -5577.459327 kJ/mol
# Density = 2.823799 g / cm^3
# Si number density = 28.302408 Si / 1000 Ang^3
#
#
#
# Elastic Constant Matrix: (Units=GPa)
#
#
# Indices 1 2 3 4 5 6 
#
# 1 72.9839 114.6389 56.1004 -25.5551 23.8335 -14.4133
# 2 114.6389 204.4089 60.0126 26.8127 13.0640 -2.1919
# 3 56.1004 60.0126 107.7623 53.4151 25.8095 -10.5339
# 4 -25.5551 26.8127 53.4151 58.8513 -3.6012 15.8048
# 5 23.8335 13.0640 25.8095 -3.6012 45.5512 -6.9930
# 6 -14.4133 -2.1919 -10.5339 15.8048 -6.9930 98.3714
#
#
#
# Elastic Compliance Matrix: (Units=1/GPa)
#
#
# Indices 1 2 3 4 5 6 
#
# 1 -0.010384 0.004575 0.015376 -0.021795 -0.005805 0.003316
# 2 0.004575 0.003866 -0.010800 0.010732 0.003174 -0.001899
# 3 0.015376 -0.010800 0.007847 0.003486 -0.008863 0.001662
# 4 -0.021795 0.010732 0.003486 0.000441 0.006044 -0.002222
# 5 -0.005805 0.003174 -0.008863 0.006044 0.029487 -0.000604
# 6 0.003316 -0.001899 0.001662 -0.002222 -0.000604 0.011101
#
#
# Mechanical properties :
#
#
# Convention : Reuss Voigt Hill
#
# Bulk Modulus (GPa) = 50.94219 94.07322 72.50771
# Shear Modulus (GPa) = 163.40240 50.84833 107.12536
#
# Velocity S-wave (km/s) = 7.60656 4.24324 6.15893
# Velocity P-wave (km/s) = 9.75626 7.57083 8.73219
#
# Compressibility (1/GPa) = 0.01963009
#
# Stress axis : x y z
#
# Youngs Moduli (GPa) = -96.29883 258.65378 127.44293
#
# Poissons Ratio (x) = -1.18337 -1.95951
# Poissons Ratio (y) = 0.44058 1.37637
# Poissons Ratio (z) = 1.48065 2.79344
#
# Static dielectric constant tensor:
#      x y z
#    x 2.233180 0.127090 0.129070 
#    y 0.127090 1.931200 0.332960 
#    z 0.129070 0.332960 1.582990 
# 
# From -- ./inp_files/132459.got.cif
#   From: 2010.05.17/outbox.cif.g08.bks.cpg/sg2_67_cif.got.tgz:132459.got - 2010.06.03 11:33:40.
