data_PCOD9004577
_publ_section_title
;
Structure prediction by ZEFSAII (Michael W. Deem and Ramdas Pophale) SiO2 
 PCOD9004577
Probable space group: P -1
;
_chemical_formula_sum "Si O2"
_cell_formula_units_Z 16
_cell_length_a 22.900572
_cell_length_b 7.590566
_cell_length_c 5.917235
_cell_angle_alpha 69.317731
_cell_angle_beta 74.679719
_cell_angle_gamma 42.300149
_cell_volume 647.630610
_symmetry_space_group_name_H-M "P -1"
_symmetry_group_IT_number 2
_symmetry_cell_setting 'triclinic'
loop_
_space_group_symop_operation_xyz
x,y,z
-x,-y,-z
loop_
_atom_site_type_symbol
_atom_site_label
_atom_site_fract_x
_atom_site_fract_y
_atom_site_fract_z
Si Si1 0.599183 0.249001 0.591188
Si Si2 0.587361 0.889375 0.050273
Si Si3 0.252616 0.616092 0.113143
Si Si4 0.063118 0.175430 0.578673
Si Si5 0.994573 0.741121 0.899370
Si Si6 0.766386 0.052119 0.666290
Si Si7 0.324750 0.188462 0.618106
Si Si8 0.173144 0.474280 0.999545
O O1 0.500000 0.500000 0.500000
O O2 0.663673 0.262927 0.622267
O O3 0.599794 0.065670 0.839418
O O4 0.651956 0.058368 0.407958
O O5 0.665562 0.572291 0.053023
O O6 0.590088 0.921440 0.297657
O O7 0.500000 0.000000 0.000000
O O8 0.223520 0.878233 0.126004
O O9 0.289850 0.420030 0.378552
O O10 0.180490 0.638045 0.078399
O O11 0.045116 0.123366 0.371173
O O12 0.000000 0.500000 0.500000
O O13 0.166928 0.987044 0.548546
O O14 0.039783 0.139444 0.862627
O O15 0.000000 0.500000 0.000000
O O16 0.088823 0.625533 0.870184
O O17 0.806795 0.753859 0.768222
O O18 0.252978 0.316316 0.820270
#
# Coordination Sequence:
#
# PCOD9004577 Si02
#       8
#     2   2   2   2   2   2   2   2
#     4  11  26  41  65 102 129 180 231 278 349 415
#     4  10  23  43  63  92 134 176 224 291 348 407
#     4  10  25  43  63 102 129 183 233 277 356 411
#     4  10  22  40  67 109 133 188 236 290 361 421
#     4  10  21  37  72 101 139 179 240 289 356 422
#     4  12  23  45  70  96 141 176 234 291 342 429
#     4  10  22  43  66  90 138 181 221 284 354 407
#     4  11  22  45  69  96 135 183 227 288 344 423
#
# _framework density 24.705442000000001
#
# number of rings (size 3 to 8) (size 9 to 14) (size 15 to 20)
#    0.000    1.500    6.250    0.000    8.750    2.500 
#    6.750    1.250    0.000    0.000    0.000    0.000 
#    0.000    0.000    0.000    0.000    0.000    0.000 
#
# Total GULP energy -89381.136137 kJ/mol
# GULP energy per Si atom -5586.321009 kJ/mol
# Density = 2.464921 g / cm^3
# Si number density = 24.705442 Si / 1000 Ang^3
#
#
#
# Elastic Constant Matrix: (Units=GPa)
#
#
# Indices 1 2 3 4 5 6 
#
# 1 168.2781 39.8651 36.6015 2.4307 37.1344 -27.8949
# 2 39.8651 82.8260 19.4113 -11.1640 12.3105 -9.4345
# 3 36.6015 19.4113 107.7357 3.9339 25.0926 -9.4238
# 4 2.4307 -11.1640 3.9339 32.8500 -1.8492 7.1430
# 5 37.1344 12.3105 25.0926 -1.8492 36.6749 -1.5921
# 6 -27.8949 -9.4345 -9.4238 7.1430 -1.5921 36.3270
#
#
#
# Elastic Compliance Matrix: (Units=1/GPa)
#
#
# Indices 1 2 3 4 5 6 
#
# 1 0.009874 -0.003153 0.000041 -0.003859 -0.008852 0.007145
# 2 -0.003153 0.014765 -0.001727 0.005467 -0.000312 -0.000123
# 3 0.000041 -0.001727 0.011686 -0.003038 -0.007485 0.002884
# 4 -0.003859 0.005467 -0.003038 0.035220 0.005535 -0.009014
# 5 -0.008852 -0.000312 -0.007485 0.005535 0.041383 -0.008095
# 6 0.007145 -0.000123 0.002884 -0.009014 -0.008095 0.035148
#
#
# Mechanical properties :
#
#
# Convention : Reuss Voigt Hill
#
# Bulk Modulus (GPa) = 37.52688 61.17728 49.35208
# Shear Modulus (GPa) = 30.00557 38.70115 34.35336
#
# Velocity S-wave (km/s) = 3.48880 3.96220 3.73301
# Velocity P-wave (km/s) = 5.60817 6.76376 6.21289
#
# Compressibility (1/GPa) = 0.02664757
#
# Stress axis : x y z
#
# Youngs Moduli (GPa) = 101.27637 67.72803 85.57469
#
# Poissons Ratio (x) = 0.21353 -0.00352
# Poissons Ratio (y) = 0.31929 0.14778
# Poissons Ratio (z) = -0.00416 0.11696
#
# Static dielectric constant tensor:
#      x y z
#    x 1.984250 0.010310 0.032530 
#    y 0.010310 1.975900 -0.004290 
#    z 0.032530 -0.004290 1.999650 
# 
# From -- ./inp_files/122504.got.cif
#   From: 2010.05.17/outbox.cif.g08.bks.cpg/sg2_62_cif.got.tgz:122504.got - 2010.06.03 11:33:40.
