data_PCOD9004751
_publ_section_title
;
Structure prediction by ZEFSAII (Michael W. Deem and Ramdas Pophale) SiO2 
 PCOD9004751
Probable space group: P -1
;
_chemical_formula_sum "Si O2"
_cell_formula_units_Z 14
_cell_length_a 7.572018
_cell_length_b 11.126742
_cell_length_c 11.687758
_cell_angle_alpha 63.222363
_cell_angle_beta 122.025795
_cell_angle_gamma 136.701847
_cell_volume 568.994206
_symmetry_space_group_name_H-M "P -1"
_symmetry_group_IT_number 2
_symmetry_cell_setting 'triclinic'
loop_
_space_group_symop_operation_xyz
x,y,z
-x,-y,-z
loop_
_atom_site_type_symbol
_atom_site_label
_atom_site_fract_x
_atom_site_fract_y
_atom_site_fract_z
Si Si1 0.742817 0.055539 0.976851
Si Si2 0.321605 0.361270 0.151264
Si Si3 0.578777 0.323015 0.040714
Si Si4 0.666034 0.252642 0.684399
Si Si5 0.917570 0.340113 0.321175
Si Si6 0.886852 0.848074 0.431887
Si Si7 0.421472 0.150998 0.397205
O O1 0.737941 0.151470 0.824612
O O2 0.674517 0.874849 0.995638
O O3 0.022140 0.195859 0.078168
O O4 0.500000 0.000000 0.000000
O O5 0.514048 0.380872 0.108421
O O6 0.389734 0.299862 0.310812
O O7 0.354483 0.535251 0.089860
O O8 0.822524 0.324643 0.163928
O O9 0.414048 0.226994 0.669672
O O10 0.557963 0.175360 0.554367
O O11 0.921347 0.458755 0.674900
O O12 0.635389 0.199647 0.352921
O O13 0.100386 0.291054 0.443644
O O14 0.000000 0.000000 0.500000
O O15 0.121424 0.959895 0.368148
#
# Coordination Sequence:
#
# PCOD9004751 Si02
#       7
#     2   2   2   2   2   2   2
#     4  12  25  44  66  98 132 176 223 265 331 399
#     4  10  22  44  66  98 129 169 223 266 332 386
#     4  10  22  43  70  92 132 174 216 278 321 390
#     4  11  23  43  64  98 134 169 218 273 329 393
#     4  11  21  41  68  98 127 172 221 272 329 387
#     4  10  21  38  58  88 129 169 208 261 323 382
#     4  10  22  41  67  97 129 167 218 274 323 394
#
# _framework density 24.60482
#
# number of rings (size 3 to 8) (size 9 to 14) (size 15 to 20)
#    0.000    1.429    1.429    4.286    0.000    2.857 
#   10.286    0.000    0.000    0.000    0.000    0.000 
#    0.000    0.000    0.000    0.000    0.000    0.000 
#
# Total GULP energy -78352.349612 kJ/mol
# GULP energy per Si atom -5596.596401 kJ/mol
# Density = 2.454882 g / cm^3
# Si number density = 24.604820 Si / 1000 Ang^3
#
#
#
# Elastic Constant Matrix: (Units=GPa)
#
#
# Indices 1 2 3 4 5 6 
#
# 1 60.8651 18.4924 15.2795 -5.8255 3.3652 16.8816
# 2 18.4924 150.2449 39.7910 -29.0640 18.2138 -9.3982
# 3 15.2795 39.7910 91.0258 -22.7388 10.8747 -13.6203
# 4 -5.8255 -29.0640 -22.7388 41.3846 5.0964 12.2526
# 5 3.3652 18.2138 10.8747 5.0964 28.6035 1.1416
# 6 16.8816 -9.3982 -13.6203 12.2526 1.1416 31.0144
#
#
#
# Elastic Compliance Matrix: (Units=1/GPa)
#
#
# Indices 1 2 3 4 5 6 
#
# 1 0.023274 -0.001864 -0.004512 0.004517 0.000038 -0.017001
# 2 -0.001864 0.009205 -0.001321 0.005914 -0.006238 0.001117
# 3 -0.004512 -0.001321 0.015432 0.005603 -0.005766 0.006831
# 4 0.004517 0.005914 0.005603 0.037270 -0.012570 -0.012467
# 5 0.000038 -0.006238 -0.005766 -0.012570 0.043403 -0.001074
# 6 -0.017001 0.001117 0.006831 -0.012467 -0.001074 0.049800
#
#
# Mechanical properties :
#
#
# Convention : Reuss Voigt Hill
#
# Bulk Modulus (GPa) = 30.75368 49.91792 40.33580
# Shear Modulus (GPa) = 24.43572 35.43871 29.93721
#
# Velocity S-wave (km/s) = 3.15481 3.79927 3.49194
# Velocity P-wave (km/s) = 5.07904 6.29109 5.71727
#
# Compressibility (1/GPa) = 0.03251643
#
# Stress axis : x y z
#
# Youngs Moduli (GPa) = 42.96581 108.63304 64.80203
#
# Poissons Ratio (x) = 0.20249 0.29239
# Poissons Ratio (y) = 0.08009 0.08563
# Poissons Ratio (z) = 0.19386 0.14355
#
# Static dielectric constant tensor:
#      x y z
#    x 2.072740 0.012510 -0.002180 
#    y 0.012510 1.913500 -0.049110 
#    z -0.002180 -0.049110 1.958460 
# 
# From -- ./inp_files/195285.got.cif
#   From: 2010.05.17/outbox.cif.g08.bks.cpg/sg2_98_cif.got.tgz:195285.got - 2010.06.03 11:33:40.
