data_PCOD9004865
_publ_section_title
;
Structure prediction by ZEFSAII (Michael W. Deem and Ramdas Pophale) SiO2 
 PCOD9004865
Probable space group: P -1
;
_chemical_formula_sum "Si O2"
_cell_formula_units_Z 14
_cell_length_a 26.999759
_cell_length_b 5.363015
_cell_length_c 24.547351
_cell_angle_alpha 100.041851
_cell_angle_beta 9.691869
_cell_angle_gamma 100.319598
_cell_volume 588.659096
_symmetry_space_group_name_H-M "P -1"
_symmetry_group_IT_number 2
_symmetry_cell_setting 'triclinic'
loop_
_space_group_symop_operation_xyz
x,y,z
-x,-y,-z
loop_
_atom_site_type_symbol
_atom_site_label
_atom_site_fract_x
_atom_site_fract_y
_atom_site_fract_z
Si Si1 0.083336 0.562103 0.605546
Si Si2 0.189687 0.930147 0.605848
Si Si3 0.532462 0.236996 0.161693
Si Si4 0.516066 0.931404 0.360785
Si Si5 0.337212 0.473354 0.618300
Si Si6 0.529994 0.555635 0.906221
Si Si7 0.062438 0.858318 0.370872
O O1 0.116039 0.751197 0.627116
O O2 0.245261 0.317968 0.444116
O O3 0.277304 0.633805 0.344792
O O4 0.755921 0.478084 0.939740
O O5 0.361428 0.835649 0.468667
O O6 0.418459 0.134578 0.338813
O O7 0.864659 0.999793 0.979556
O O8 0.720336 0.060424 0.911237
O O9 0.456675 0.702900 0.458905
O O10 0.378439 0.195947 0.537316
O O11 0.500000 0.500000 0.500000
O O12 0.000000 0.500000 0.000000
O O13 0.747873 0.804765 0.682432
O O14 0.500000 0.500000 0.000000
O O15 0.229074 0.611893 0.204078
O O16 0.000000 0.000000 0.500000
#
# Coordination Sequence:
#
# PCOD9004865 Si02
#       7
#     2   2   2   2   2   2   2
#     4  10  23  42  63  91 136 180 233 297 362 425
#     4  12  26  43  70 104 143 192 236 290 354 434
#     4  10  23  42  63  91 136 180 233 297 362 425
#     4  12  28  45  80 116 148 200 239 290 351 428
#     4  12  26  52  80 114 155 190 239 292 347 412
#     4  10  21  38  59  87 119 167 226 296 361 428
#     4  10  21  38  59  87 119 167 226 296 361 428
#
# _framework density 23.782865999999999
#
# number of rings (size 3 to 8) (size 9 to 14) (size 15 to 20)
#    0.000    1.143    0.000    5.143    8.000    0.000 
#    2.571    0.000    0.000    0.000    0.000    0.000 
#    0.000    0.000    0.000    0.000    0.000    0.000 
#
# Total GULP energy -78224.918126 kJ/mol
# GULP energy per Si atom -5587.494152 kJ/mol
# Density = 2.372874 g / cm^3
# Si number density = 23.782866 Si / 1000 Ang^3
#
#
#
# Elastic Constant Matrix: (Units=GPa)
#
#
# Indices 1 2 3 4 5 6 
#
# 1 155.9787 27.7264 43.5006 -8.0648 6.3996 -6.9403
# 2 27.7264 87.4996 24.9337 0.0055 18.8848 6.8404
# 3 43.5006 24.9337 124.7277 2.2558 15.5501 -11.6504
# 4 -8.0648 0.0055 2.2558 29.5347 7.0265 -0.6080
# 5 6.3996 18.8848 15.5501 7.0265 47.9402 -8.8555
# 6 -6.9403 6.8404 -11.6504 -0.6080 -8.8555 38.5833
#
#
#
# Elastic Compliance Matrix: (Units=1/GPa)
#
#
# Indices 1 2 3 4 5 6 
#
# 1 0.007518 -0.001919 -0.002216 0.002159 0.000366 0.001141
# 2 -0.001919 0.014185 -0.001912 0.000882 -0.005715 -0.004735
# 3 -0.002216 -0.001912 0.009605 -0.000938 -0.001469 0.002489
# 4 0.002159 0.000882 -0.000938 0.035868 -0.005737 -0.000803
# 5 0.000366 -0.005715 -0.001469 -0.005737 0.025564 0.006412
# 6 0.001141 -0.004735 0.002489 -0.000803 0.006412 0.029173
#
#
# Mechanical properties :
#
#
# Convention : Reuss Voigt Hill
#
# Bulk Modulus (GPa) = 52.04678 62.28085 57.16382
# Shear Modulus (GPa) = 35.60936 41.34798 38.47867
#
# Velocity S-wave (km/s) = 3.87365 4.17413 4.02670
# Velocity P-wave (km/s) = 6.47600 7.03387 6.76069
#
# Compressibility (1/GPa) = 0.01921348
#
# Stress axis : x y z
#
# Youngs Moduli (GPa) = 133.01857 70.49582 104.10904
#
# Poissons Ratio (x) = 0.13527 0.23074
# Poissons Ratio (y) = 0.25525 0.19907
# Poissons Ratio (z) = 0.29482 0.13480
#
# Static dielectric constant tensor:
#      x y z
#    x 1.876460 -0.007020 0.061270 
#    y -0.007020 1.974320 0.005780 
#    z 0.061270 0.005780 1.886810 
# 
# From -- ./inp_files/125304.got.cif
#   From: 2010.05.17/outbox.cif.g08.bks.cpg/sg2_63_cif.got.tgz:125304.got - 2010.06.03 11:33:40.
