data_PCOD9004643
_publ_section_title
;
Structure prediction by ZEFSAII (Michael W. Deem and Ramdas Pophale) SiO2 
 PCOD9004643
Probable space group: P -1
;
_chemical_formula_sum "Si O2"
_cell_formula_units_Z 14
_cell_length_a 7.370399
_cell_length_b 6.015384
_cell_length_c 14.682864
_cell_angle_alpha 77.458946
_cell_angle_beta 62.611672
_cell_angle_gamma 107.328520
_cell_volume 501.300384
_symmetry_space_group_name_H-M "P -1"
_symmetry_group_IT_number 2
_symmetry_cell_setting 'triclinic'
loop_
_space_group_symop_operation_xyz
x,y,z
-x,-y,-z
loop_
_atom_site_type_symbol
_atom_site_label
_atom_site_fract_x
_atom_site_fract_y
_atom_site_fract_z
Si Si1 0.709819 0.845090 0.974397
Si Si2 0.301644 0.690747 0.760788
Si Si3 0.026644 0.030339 0.621910
Si Si4 0.954192 0.568743 0.326077
Si Si5 0.282096 0.865915 0.453512
Si Si6 0.386431 0.530450 0.242625
Si Si7 0.258270 0.663843 0.988920
O O1 0.542623 0.697731 0.110510
O O2 0.809387 0.640090 0.948250
O O3 0.830024 0.145003 0.956278
O O4 0.530060 0.811101 0.938883
O O5 0.104120 0.580812 0.741284
O O6 0.441800 0.523902 0.729217
O O7 0.236699 0.672038 0.883633
O O8 0.483522 0.978279 0.666996
O O9 0.063897 0.171547 0.696012
O O10 0.934329 0.160156 0.554951
O O11 0.251604 0.027150 0.530628
O O12 0.809374 0.756262 0.707468
O O13 0.773679 0.394856 0.459640
O O14 0.211008 0.642338 0.295031
#
# Coordination Sequence:
#
# PCOD9004643 Si02
#       7
#     2   2   2   2   2   2   2
#     4   9  18  36  65  86 122 155 200 244 306 355
#     4  10  21  38  56  86 117 148 204 241 302 349
#     4   9  19  36  55  80 116 148 205 237 294 354
#     4  11  21  36  57  84 114 157 193 250 292 357
#     4   9  19  36  52  80 114 156 197 243 292 353
#     4   9  21  37  56  85 111 156 191 242 295 357
#     4   9  19  37  59  95 116 155 202 250 292 370
#
# _framework density 27.927365000000002
#
# number of rings (size 3 to 8) (size 9 to 14) (size 15 to 20)
#    0.000    2.571    0.000    1.714    6.000    0.571 
#   12.857    0.714    0.000    0.857    0.000    0.000 
#    0.000    0.000    0.000    0.000    0.000    0.000 
#
# Total GULP energy -78162.047922 kJ/mol
# GULP energy per Si atom -5583.003423 kJ/mol
# Density = 2.786380 g / cm^3
# Si number density = 27.927365 Si / 1000 Ang^3
#
#
#
# Elastic Constant Matrix: (Units=GPa)
#
#
# Indices 1 2 3 4 5 6 
#
# 1 105.7987 38.7099 17.8391 7.3764 7.6171 -5.4481
# 2 38.7099 176.4454 35.4206 27.0399 4.7238 -18.3171
# 3 17.8391 35.4206 70.4482 -20.9360 4.9789 -14.6902
# 4 7.3764 27.0399 -20.9360 47.3499 -4.2935 -1.9100
# 5 7.6171 4.7238 4.9789 -4.2935 34.8479 5.5163
# 6 -5.4481 -18.3171 -14.6902 -1.9100 5.5163 19.6004
#
#
#
# Elastic Compliance Matrix: (Units=1/GPa)
#
#
# Indices 1 2 3 4 5 6 
#
# 1 0.010699 -0.001475 -0.002396 -0.002065 -0.002080 0.000184
# 2 -0.001475 0.008459 -0.005097 -0.006851 -0.001482 0.003425
# 3 -0.002396 -0.005097 0.025290 0.014826 -0.003079 0.015837
# 4 -0.002065 -0.006851 0.014826 0.032377 0.002195 0.006673
# 5 -0.002080 -0.001482 -0.003079 0.002195 0.032136 -0.013101
# 6 0.000184 0.003425 0.015837 0.006673 -0.013101 0.070478
#
#
# Mechanical properties :
#
#
# Convention : Reuss Voigt Hill
#
# Bulk Modulus (GPa) = 37.71763 59.62572 48.67168
# Shear Modulus (GPa) = 24.24692 37.74115 30.99403
#
# Velocity S-wave (km/s) = 2.94974 3.68013 3.33499
# Velocity P-wave (km/s) = 5.01361 6.28128 5.68290
#
# Compressibility (1/GPa) = 0.02651280
#
# Stress axis : x y z
#
# Youngs Moduli (GPa) = 93.46890 118.21235 39.54142
#
# Poissons Ratio (x) = 0.17436 0.09474
# Poissons Ratio (y) = 0.13787 0.20153
# Poissons Ratio (z) = 0.22394 0.60249
#
# Static dielectric constant tensor:
#      x y z
#    x 2.217980 -0.107270 -0.024640 
#    y -0.107270 2.297400 0.068820 
#    z -0.024640 0.068820 2.137680 
# 
# From -- ./inp_files/42511.got.cif
#   From: 2010.05.17/outbox.cif.g08.bks.cpg/sg2_22_cif.got.tgz:42511.got - 2010.06.03 11:33:40.
