data_PCOD9004021
_publ_section_title
;
Structure prediction by ZEFSAII (Michael W. Deem and Ramdas Pophale) SiO2 
 PCOD9004021
Probable space group: P -1
;
_chemical_formula_sum "Si O2"
_cell_formula_units_Z 16
_cell_length_a 11.585015
_cell_length_b 8.406534
_cell_length_c 12.570887
_cell_angle_alpha 123.430849
_cell_angle_beta 133.627967
_cell_angle_gamma 52.637700
_cell_volume 685.491008
_symmetry_space_group_name_H-M "P -1"
_symmetry_group_IT_number 2
_symmetry_cell_setting 'triclinic'
loop_
_space_group_symop_operation_xyz
x,y,z
-x,-y,-z
loop_
_atom_site_type_symbol
_atom_site_label
_atom_site_fract_x
_atom_site_fract_y
_atom_site_fract_z
Si Si1 0.174659 0.838569 0.655612
Si Si2 0.608324 0.303379 0.069530
Si Si3 0.496162 0.937225 0.654895
Si Si4 0.306870 0.195191 0.819057
Si Si5 0.813439 0.172166 0.589432
Si Si6 0.791330 0.082671 0.901862
Si Si7 0.126962 0.554078 0.952217
Si Si8 0.784918 0.596776 0.825533
O O1 0.283494 0.676552 0.753061
O O2 0.197153 0.763295 0.519568
O O3 0.241720 0.026668 0.760918
O O4 0.977539 0.956650 0.611521
O O5 0.500000 0.500000 0.000000
O O6 0.466944 0.217645 0.989007
O O7 0.734960 0.132015 0.007549
O O8 0.353043 0.865670 0.485288
O O9 0.598761 0.745059 0.726173
O O10 0.378556 0.127528 0.722183
O O11 0.652893 0.996563 0.731112
O O12 0.161043 0.421620 0.818281
O O13 0.829809 0.360997 0.733529
O O14 0.760122 0.308313 0.917277
O O15 0.000000 0.000000 0.000000
O O16 0.923956 0.669153 0.882256
O O17 0.183183 0.396605 0.027644
#
# Coordination Sequence:
#
# PCOD9004021 Si02
#       8
#     2   2   2   2   2   2   2   2
#     4  10  22  39  68  91 129 174 212 263 322 382
#     4  11  23  37  64  99 125 159 215 274 320 377
#     4  10  23  38  62  91 124 172 218 258 316 392
#     4  10  21  37  63  95 125 159 216 274 320 369
#     4  10  22  41  62  95 131 176 219 255 314 394
#     4  11  23  39  61  91 133 165 204 270 337 376
#     4  11  23  37  63  97 127 163 208 281 330 367
#     4  11  23  38  64  96 126 161 223 271 317 377
#
# _framework density 23.340933
#
# number of rings (size 3 to 8) (size 9 to 14) (size 15 to 20)
#    0.000    1.500    3.750    0.750    8.750    0.000 
#    0.000    0.625    0.000   21.750    0.000    0.000 
#    0.000    0.000    0.000    0.000    0.000    0.000 
#
# Total GULP energy -89169.549580 kJ/mol
# GULP energy per Si atom -5573.096849 kJ/mol
# Density = 2.328781 g / cm^3
# Si number density = 23.340933 Si / 1000 Ang^3
#
#
#
# Elastic Constant Matrix: (Units=GPa)
#
#
# Indices 1 2 3 4 5 6 
#
# 1 97.9703 20.4343 38.9384 -2.1022 32.2240 -13.1096
# 2 20.4343 36.7587 24.5526 -1.7355 8.3894 5.1734
# 3 38.9384 24.5526 86.8593 5.6145 21.5062 6.0543
# 4 -2.1022 -1.7355 5.6145 38.2519 6.9949 3.0646
# 5 32.2240 8.3894 21.5062 6.9949 52.2624 4.9655
# 6 -13.1096 5.1734 6.0543 3.0646 4.9655 25.3754
#
#
#
# Elastic Compliance Matrix: (Units=1/GPa)
#
#
# Indices 1 2 3 4 5 6 
#
# 1 0.018910 -0.006583 -0.005245 0.002227 -0.010079 0.014066
# 2 -0.006583 0.036947 -0.007421 0.002876 0.001733 -0.009849
# 3 -0.005245 -0.007421 0.016873 -0.002412 -0.001759 -0.004587
# 4 0.002227 0.002876 -0.002412 0.027664 -0.004417 -0.001337
# 5 -0.010079 0.001733 -0.001759 -0.004417 0.027332 -0.009955
# 6 0.014066 -0.009849 -0.004587 -0.001337 -0.009955 0.051887
#
#
# Mechanical properties :
#
#
# Convention : Reuss Voigt Hill
#
# Bulk Modulus (GPa) = 29.21258 43.27098 36.24178
# Shear Modulus (GPa) = 21.78420 32.35547 27.06984
#
# Velocity S-wave (km/s) = 3.05832 3.72723 3.40922
# Velocity P-wave (km/s) = 5.00138 6.09113 5.57296
#
# Compressibility (1/GPa) = 0.03423182
#
# Stress axis : x y z
#
# Youngs Moduli (GPa) = 52.88165 27.06547 59.26499
#
# Poissons Ratio (x) = 0.17817 0.31087
# Poissons Ratio (y) = 0.34812 0.43982
# Poissons Ratio (z) = 0.27738 0.20086
#
# Static dielectric constant tensor:
#      x y z
#    x 1.937060 -0.020580 0.040890 
#    y -0.020580 1.974290 -0.000100 
#    z 0.040890 -0.000100 1.895750 
# 
# From -- ./inp_files/516143.got.cif
#   From: 2010.05.17/outbox.cif.g08.bks.cpg/sg2_259_cif.got.tgz:516143.got - 2010.06.03 11:33:40.
