data_PCOD9004904
_publ_section_title
;
Structure prediction by ZEFSAII (Michael W. Deem and Ramdas Pophale) SiO2 
 PCOD9004904
Probable space group: P -1
;
_chemical_formula_sum "Si O2"
_cell_formula_units_Z 15
_cell_length_a 13.429970
_cell_length_b 12.461998
_cell_length_c 13.276142
_cell_angle_alpha 147.306113
_cell_angle_beta 32.276010
_cell_angle_gamma 143.926777
_cell_volume 603.784105
_symmetry_space_group_name_H-M "P -1"
_symmetry_group_IT_number 2
_symmetry_cell_setting 'triclinic'
loop_
_space_group_symop_operation_xyz
x,y,z
-x,-y,-z
loop_
_atom_site_type_symbol
_atom_site_label
_atom_site_fract_x
_atom_site_fract_y
_atom_site_fract_z
Si Si1 0.253383 0.202388 0.284944
Si Si2 0.266401 0.403492 0.135804
Si Si3 0.543361 0.314367 0.537761
Si Si4 0.858879 0.195171 0.066195
Si Si5 0.678762 0.714945 0.488058
Si Si6 0.787588 0.912548 0.217826
Si Si7 0.032684 0.676163 0.497578
Si Si8 0.000000 0.500000 0.000000
O O1 0.412925 0.434449 0.311627
O O2 0.274314 0.150694 0.343082
O O3 0.041699 0.231326 0.463318
O O4 0.265079 0.020973 0.056694
O O5 0.155864 0.522495 0.252357
O O6 0.168950 0.416874 0.337354
O O7 0.500000 0.500000 0.000000
O O8 0.204906 0.160370 0.960653
O O9 0.739478 0.257976 0.307289
O O10 0.403463 0.202936 0.474554
O O11 0.428356 0.219821 0.661290
O O12 0.902557 0.381222 0.094807
O O13 0.055004 0.161480 0.912635
O O14 0.500000 0.500000 0.500000
O O15 0.868681 0.658332 0.247739
O O16 0.833840 0.148998 0.401202
#
# Coordination Sequence:
#
# PCOD9004904 Si02
#       8
#     2   2   2   2   2   2   2   1
#     4  10  22  42  63  88 126 166 208 255 307 368
#     4  11  24  43  69  95 124 161 202 258 321 373
#     4  11  22  42  59  92 130 164 210 259 302 363
#     4  11  24  40  63  92 125 170 212 255 307 367
#     4  10  21  38  59  89 127 163 207 255 300 360
#     4  11  24  42  67  91 127 167 202 258 315 368
#     4  10  24  44  64  98 124 158 212 256 307 382
#     4  12  20  40  62  88 128 170 208 258 312 350
#
# _framework density 24.843316000000002
#
# number of rings (size 3 to 8) (size 9 to 14) (size 15 to 20)
#    0.000    1.333    4.000    2.000    0.000    5.867 
#    0.000    0.000    0.000    0.000    0.000    0.000 
#    0.000    0.000    0.000    0.000    0.000    0.000 
#
# Total GULP energy -83688.236477 kJ/mol
# GULP energy per Si atom -5579.215765 kJ/mol
# Density = 2.478677 g / cm^3
# Si number density = 24.843316 Si / 1000 Ang^3
#
#
#
# Elastic Constant Matrix: (Units=GPa)
#
#
# Indices 1 2 3 4 5 6 
#
# 1 77.0623 13.5527 12.4549 6.9241 8.1747 7.4542
# 2 13.5527 77.3353 39.0349 -4.1112 5.0692 15.7208
# 3 12.4549 39.0349 119.3898 -9.7650 12.2696 10.3290
# 4 6.9241 -4.1112 -9.7650 41.0677 8.0088 1.5632
# 5 8.1747 5.0692 12.2696 8.0088 35.8069 10.3353
# 6 7.4542 15.7208 10.3290 1.5632 10.3353 29.6253
#
#
#
# Elastic Compliance Matrix: (Units=1/GPa)
#
#
# Indices 1 2 3 4 5 6 
#
# 1 0.013950 -0.001747 -0.000761 -0.002316 -0.001696 -0.001604
# 2 -0.001747 0.017179 -0.004880 0.000822 0.001647 -0.007593
# 3 -0.000761 -0.004880 0.010626 0.002834 -0.003448 0.000129
# 4 -0.002316 0.000822 0.002834 0.026774 -0.006557 0.000033
# 5 -0.001696 0.001647 -0.003448 -0.006557 0.033817 -0.010697
# 6 -0.001604 -0.007593 0.000129 0.000033 -0.010697 0.041873
#
#
# Mechanical properties :
#
#
# Convention : Reuss Voigt Hill
#
# Bulk Modulus (GPa) = 37.06336 44.87472 40.96904
# Shear Modulus (GPa) = 29.76451 35.21631 32.49041
#
# Velocity S-wave (km/s) = 3.46510 3.76910 3.62029
# Velocity P-wave (km/s) = 5.56421 6.08636 5.83113
#
# Compressibility (1/GPa) = 0.02698082
#
# Stress axis : x y z
#
# Youngs Moduli (GPa) = 71.68583 58.21035 94.11266
#
# Poissons Ratio (x) = 0.10167 0.07158
# Poissons Ratio (y) = 0.12521 0.45923
# Poissons Ratio (z) = 0.05452 0.28404
#
# Static dielectric constant tensor:
#      x y z
#    x 2.031820 0.026880 0.051510 
#    y 0.026880 2.017090 0.014080 
#    z 0.051510 0.014080 1.924700 
# 
# From -- ./inp_files/534065.got.cif
#   From: 2010.05.17/outbox.cif.g08.bks.cpg/sg2_268_cif.got.tgz:534065.got - 2010.06.03 11:33:40.
