data_PCOD9004017
_publ_section_title
;
Structure prediction by ZEFSAII (Michael W. Deem and Ramdas Pophale) SiO2 
 PCOD9004017
Probable space group: P -1
;
_chemical_formula_sum "Si O2"
_cell_formula_units_Z 16
_cell_length_a 9.637521
_cell_length_b 11.816999
_cell_length_c 20.524737
_cell_angle_alpha 152.867004
_cell_angle_beta 39.103244
_cell_angle_gamma 126.438631
_cell_volume 633.275767
_symmetry_space_group_name_H-M "P -1"
_symmetry_group_IT_number 2
_symmetry_cell_setting 'triclinic'
loop_
_space_group_symop_operation_xyz
x,y,z
-x,-y,-z
loop_
_atom_site_type_symbol
_atom_site_label
_atom_site_fract_x
_atom_site_fract_y
_atom_site_fract_z
Si Si1 0.770733 0.996065 0.635196
Si Si2 0.161437 0.072785 0.709363
Si Si3 0.633736 0.448650 0.107207
Si Si4 0.113798 0.843487 0.738774
Si Si5 0.303184 0.633311 0.813960
Si Si6 0.805166 0.896195 0.431270
Si Si7 0.148699 0.424348 0.225865
Si Si8 0.352226 0.918317 0.816232
O O1 0.689966 0.044989 0.615153
O O2 0.569296 0.001017 0.758969
O O3 0.961831 0.702388 0.417719
O O4 0.917610 0.177674 0.695850
O O5 0.285119 0.291217 0.792158
O O6 0.239450 0.971676 0.556013
O O7 0.210929 0.858345 0.639011
O O8 0.880756 0.219545 0.883542
O O9 0.572616 0.395165 0.176519
O O10 0.407618 0.438209 0.145704
O O11 0.289769 0.788272 0.707434
O O12 0.951821 0.665124 0.717423
O O13 0.945858 0.142160 0.966433
O O14 0.260323 0.362682 0.679951
O O15 0.405229 0.727956 0.761822
O O16 0.159597 0.190590 0.050958
#
# Coordination Sequence:
#
# PCOD9004017 Si02
#       8
#     2   2   2   2   2   2   2   2
#     4  11  25  41  63  94 123 159 211 252 303 368
#     4   9  19  38  63  89 123 164 205 246 303 369
#     4   9  19  36  62  93 122 162 205 248 304 364
#     4  10  21  37  63  95 122 161 209 248 306 372
#     4   9  19  39  65  90 123 161 204 252 306 366
#     4  10  21  41  59  85 127 159 197 259 300 352
#     4  11  23  41  64  93 127 158 203 259 304 361
#     4  11  23  41  65  90 123 166 202 253 312 357
#
# _framework density 25.265454999999999
#
# number of rings (size 3 to 8) (size 9 to 14) (size 15 to 20)
#    0.000    2.000    0.000    4.500    0.000    9.500 
#    0.000   12.500    0.000    0.000    0.000    0.000 
#    0.000    0.000    0.000    0.000    0.000    0.000 
#
# Total GULP energy -89545.896927 kJ/mol
# GULP energy per Si atom -5596.618558 kJ/mol
# Density = 2.520795 g / cm^3
# Si number density = 25.265455 Si / 1000 Ang^3
#
#
#
# Elastic Constant Matrix: (Units=GPa)
#
#
# Indices 1 2 3 4 5 6 
#
# 1 115.4384 42.7956 29.7521 -4.6272 13.2273 -24.9981
# 2 42.7956 153.4946 29.9821 -27.9463 13.4845 -39.2858
# 3 29.7521 29.9821 59.7919 -11.9524 0.3705 -13.1331
# 4 -4.6272 -27.9463 -11.9524 31.5797 -3.8067 4.7755
# 5 13.2273 13.4845 0.3705 -3.8067 29.8255 -8.1701
# 6 -24.9981 -39.2858 -13.1331 4.7755 -8.1701 52.7517
#
#
#
# Elastic Compliance Matrix: (Units=1/GPa)
#
#
# Indices 1 2 3 4 5 6 
#
# 1 0.011416 -0.001713 -0.004727 -0.002486 -0.003838 0.002588
# 2 -0.001713 0.010119 -0.001591 0.007107 -0.001390 0.005470
# 3 -0.004727 -0.001591 0.021526 0.006216 0.003882 0.001973
# 4 -0.002486 0.007107 0.006216 0.039987 0.003629 0.002605
# 5 -0.003838 -0.001390 0.003882 0.003629 0.037247 0.003552
# 6 0.002588 0.005470 0.001973 0.002605 0.003552 0.025062
#
#
# Mechanical properties :
#
#
# Convention : Reuss Voigt Hill
#
# Bulk Modulus (GPa) = 37.03559 59.30940 48.17249
# Shear Modulus (GPa) = 29.33921 37.91105 33.62513
#
# Velocity S-wave (km/s) = 3.41139 3.87784 3.65207
# Velocity P-wave (km/s) = 5.49611 6.60119 6.07383
#
# Compressibility (1/GPa) = 0.02700106
#
# Stress axis : x y z
#
# Youngs Moduli (GPa) = 87.59320 98.82194 46.45453
#
# Poissons Ratio (x) = 0.16925 0.21957
# Poissons Ratio (y) = 0.15002 0.07392
# Poissons Ratio (z) = 0.41401 0.15725
#
# Static dielectric constant tensor:
#      x y z
#    x 2.029370 -0.027660 -0.028770 
#    y -0.027660 1.974810 -0.007860 
#    z -0.028770 -0.007860 2.011160 
# 
# From -- ./inp_files/589686.got.cif
#   From: 2010.05.17/outbox.cif.g08.bks.cpg/sg2_295_cif.got.tgz:589686.got - 2010.06.03 11:33:40.
