data_PCOD9004103
_publ_section_title
;
Structure prediction by ZEFSAII (Michael W. Deem and Ramdas Pophale) SiO2 
 PCOD9004103
Probable space group: P -1
;
_chemical_formula_sum "Si O2"
_cell_formula_units_Z 16
_cell_length_a 7.501281
_cell_length_b 8.168766
_cell_length_c 11.386665
_cell_angle_alpha 109.897295
_cell_angle_beta 90.853156
_cell_angle_gamma 113.756021
_cell_volume 591.051230
_symmetry_space_group_name_H-M "P -1"
_symmetry_group_IT_number 2
_symmetry_cell_setting 'triclinic'
loop_
_space_group_symop_operation_xyz
x,y,z
-x,-y,-z
loop_
_atom_site_type_symbol
_atom_site_label
_atom_site_fract_x
_atom_site_fract_y
_atom_site_fract_z
Si Si1 0.684982 0.952679 0.023618
Si Si2 0.343749 0.424678 0.175845
Si Si3 0.009846 0.543856 0.238067
Si Si4 0.853783 0.120851 0.831485
Si Si5 0.635647 0.455278 0.370281
Si Si6 0.241335 0.786427 0.519216
Si Si7 0.105526 0.150671 0.431090
Si Si8 0.554737 0.872546 0.246364
O O1 0.638058 0.729792 0.947685
O O2 0.847468 0.066989 0.954301
O O3 0.712719 0.975328 0.169153
O O4 0.500000 0.000000 0.000000
O O5 0.126052 0.415971 0.180889
O O6 0.425273 0.384060 0.289542
O O7 0.492199 0.646333 0.201761
O O8 0.999132 0.662331 0.152432
O O9 0.163631 0.703334 0.369998
O O10 0.796630 0.455519 0.275371
O O11 0.638560 0.107968 0.795079
O O12 0.883160 0.974410 0.707095
O O13 0.651818 0.324447 0.442195
O O14 0.707177 0.672690 0.469465
O O15 0.035860 0.745084 0.572807
O O16 0.372212 0.011982 0.603262
O O17 0.000000 0.000000 0.500000
#
# Coordination Sequence:
#
# PCOD9004103 Si02
#       8
#     2   2   2   2   2   2   2   2
#     4  10  22  43  67  91 123 166 219 270 310 370
#     4  11  24  40  71  91 124 174 211 261 333 371
#     4  10  23  40  62 101 131 165 207 260 325 390
#     4  10  21  37  64  90 124 167 211 259 318 376
#     4  11  23  38  60  97 136 163 206 263 313 390
#     4  11  23  39  61  94 136 165 207 263 318 382
#     4  11  20  37  61  91 134 172 199 256 331 377
#     4  10  23  42  65  90 126 168 221 262 310 379
#
# _framework density 27.070412000000001
#
# number of rings (size 3 to 8) (size 9 to 14) (size 15 to 20)
#    0.000    1.500    2.500    4.125    5.250    1.500 
#    0.000    0.625    5.500    5.250    0.000    0.000 
#    0.000    0.000    0.000    0.000    0.000    0.000 
#
# Total GULP energy -89693.307610 kJ/mol
# GULP energy per Si atom -5605.831726 kJ/mol
# Density = 2.700880 g / cm^3
# Si number density = 27.070412 Si / 1000 Ang^3
#
#
#
# Elastic Constant Matrix: (Units=GPa)
#
#
# Indices 1 2 3 4 5 6 
#
# 1 104.0342 50.3466 35.8630 2.3170 -21.8842 -23.3209
# 2 50.3466 132.0753 54.7280 -4.5311 -13.3844 -20.0275
# 3 35.8630 54.7280 129.0826 0.5167 -23.5653 -5.1451
# 4 2.3170 -4.5311 0.5167 53.7041 5.0155 -5.9881
# 5 -21.8842 -13.3844 -23.5653 5.0155 44.0483 2.0700
# 6 -23.3209 -20.0275 -5.1451 -5.9881 2.0700 39.3740
#
#
#
# Elastic Compliance Matrix: (Units=1/GPa)
#
#
# Indices 1 2 3 4 5 6 
#
# 1 0.014186 -0.003449 -0.001303 -0.000686 0.005094 0.006106
# 2 -0.003449 0.010882 -0.003657 0.001533 -0.000692 0.003284
# 3 -0.001303 -0.003657 0.010318 -0.000901 0.003940 -0.001628
# 4 -0.000686 0.001533 -0.000901 0.019416 -0.002725 0.003352
# 5 0.005094 -0.000692 0.003940 -0.002725 0.027379 0.001326
# 6 0.006106 0.003284 -0.001628 0.003352 0.001326 0.030911
#
#
# Mechanical properties :
#
#
# Convention : Reuss Voigt Hill
#
# Bulk Modulus (GPa) = 53.85827 71.89636 62.87732
# Shear Modulus (GPa) = 36.73778 42.37559 39.55669
#
# Velocity S-wave (km/s) = 3.68791 3.96079 3.82678
# Velocity P-wave (km/s) = 6.17033 6.89447 6.54243
#
# Compressibility (1/GPa) = 0.01856725
#
# Stress axis : x y z
#
# Youngs Moduli (GPa) = 70.49172 91.89450 96.92244
#
# Poissons Ratio (x) = 0.31697 0.12627
# Poissons Ratio (y) = 0.24315 0.35445
# Poissons Ratio (z) = 0.09184 0.33607
#
# Static dielectric constant tensor:
#      x y z
#    x 2.144810 0.054010 -0.053440 
#    y 0.054010 2.167490 -0.013220 
#    z -0.053440 -0.013220 2.105150 
# 
# From -- ./inp_files/218827.got.cif
#   From: 2010.05.17/outbox.cif.g08.bks.cpg/sg2_110_cif.got.tgz:218827.got - 2010.06.03 11:33:40.
