data_PCOD9004785
_publ_section_title
;
Structure prediction by ZEFSAII (Michael W. Deem and Ramdas Pophale) SiO2 
 PCOD9004785
Probable space group: P -1
;
_chemical_formula_sum "Si O2"
_cell_formula_units_Z 16
_cell_length_a 9.578320
_cell_length_b 17.582997
_cell_length_c 5.761408
_cell_angle_alpha 82.729265
_cell_angle_beta 71.820839
_cell_angle_gamma 131.157893
_cell_volume 614.850678
_symmetry_space_group_name_H-M "P -1"
_symmetry_group_IT_number 2
_symmetry_cell_setting 'triclinic'
loop_
_space_group_symop_operation_xyz
x,y,z
-x,-y,-z
loop_
_atom_site_type_symbol
_atom_site_label
_atom_site_fract_x
_atom_site_fract_y
_atom_site_fract_z
Si Si1 0.516362 0.764682 0.704134
Si Si2 0.888542 0.854357 0.139171
Si Si3 0.112448 0.593439 0.709745
Si Si4 0.812196 0.981516 0.718724
Si Si5 0.070138 0.757262 0.111242
Si Si6 0.116973 0.817230 0.549514
Si Si7 0.217223 0.480834 0.450432
Si Si8 0.644324 0.678850 0.951859
O O1 0.710911 0.825530 0.401313
O O2 0.307519 0.709954 0.693638
O O3 0.586150 0.854117 0.821763
O O4 0.495810 0.671071 0.856642
O O5 0.926518 0.779395 0.204554
O O6 0.772967 0.797124 0.975679
O O7 0.115852 0.979528 0.063760
O O8 0.215955 0.569383 0.496058
O O9 0.941837 0.578969 0.667079
O O10 0.000000 0.500000 0.000000
O O11 0.821489 0.069128 0.562500
O O12 0.000000 0.000000 0.500000
O O13 0.199326 0.808740 0.271878
O O14 0.907049 0.621764 0.263006
O O15 0.177932 0.814297 0.780785
O O16 0.848444 0.710251 0.736589
O O17 0.470168 0.562141 0.232041
#
# Coordination Sequence:
#
# PCOD9004785 Si02
#       8
#     2   2   2   2   2   2   2   2
#     4  11  19  37  59  87 120 157 199 252 301 355
#     4   9  19  35  53  90 121 150 189 239 294 380
#     4  11  24  42  60  82 117 153 218 257 297 356
#     4   9  17  35  57  89 125 161 193 237 314 356
#     4  10  22  39  61  88 129 162 202 242 312 364
#     4  10  21  38  58  97 127 160 198 246 298 393
#     4  11  25  39  60  86 114 170 198 260 303 352
#     4  11  19  34  57  88 128 152 200 238 302 367
#
# _framework density 26.022577999999999
#
# number of rings (size 3 to 8) (size 9 to 14) (size 15 to 20)
#    0.000    1.750    6.250    0.000    1.750    3.000 
#    6.750    0.000    0.000    3.750    0.000    0.000 
#    0.000    0.000    0.000    0.000    0.000    0.000 
#
# Total GULP energy -89298.566924 kJ/mol
# GULP energy per Si atom -5581.160433 kJ/mol
# Density = 2.596335 g / cm^3
# Si number density = 26.022578 Si / 1000 Ang^3
#
#
#
# Elastic Constant Matrix: (Units=GPa)
#
#
# Indices 1 2 3 4 5 6 
#
# 1 70.7097 49.5658 21.6618 13.7724 6.1568 -10.9021
# 2 49.5658 133.9276 13.5023 8.1988 15.0573 13.8213
# 3 21.6618 13.5023 86.8006 19.9590 31.7979 -6.8569
# 4 13.7724 8.1988 19.9590 33.5698 -0.7081 13.4533
# 5 6.1568 15.0573 31.7979 -0.7081 38.2346 2.0623
# 6 -10.9021 13.8213 -6.8569 13.4533 2.0623 42.0532
#
#
#
# Elastic Compliance Matrix: (Units=1/GPa)
#
#
# Indices 1 2 3 4 5 6 
#
# 1 0.026665 -0.010389 -0.000135 -0.014337 -0.001162 0.014949
# 2 -0.010389 0.012156 0.000009 0.004429 -0.002610 -0.007976
# 3 -0.000135 0.000009 0.024992 -0.019856 -0.021752 0.011456
# 4 -0.014337 0.004429 -0.019856 0.058002 0.019658 -0.027929
# 5 -0.001162 -0.002610 -0.021752 0.019658 0.046447 -0.011557
# 6 0.014949 -0.007976 0.011456 -0.027929 -0.011557 0.041646
#
#
# Mechanical properties :
#
#
# Convention : Reuss Voigt Hill
#
# Bulk Modulus (GPa) = 23.37390 51.21087 37.29238
# Shear Modulus (GPa) = 20.39163 36.55204 28.47184
#
# Velocity S-wave (km/s) = 2.80235 3.75190 3.31134
# Velocity P-wave (km/s) = 4.41277 6.20412 5.38348
#
# Compressibility (1/GPa) = 0.04278277
#
# Stress axis : x y z
#
# Youngs Moduli (GPa) = 37.50263 82.26274 40.01269
#
# Poissons Ratio (x) = 0.85465 0.00541
# Poissons Ratio (y) = 0.38962 -0.00037
# Poissons Ratio (z) = 0.00507 -0.00076
#
# Static dielectric constant tensor:
#      x y z
#    x 2.048760 0.013500 0.058450 
#    y 0.013500 2.173220 0.067750 
#    z 0.058450 0.067750 2.098910 
# 
# From -- ./inp_files/83194.got.cif
#   From: 2010.05.17/outbox.cif.g08.bks.cpg/sg2_42_cif.got.tgz:83194.got - 2010.06.03 11:33:40.
