data_PCOD9004933
_publ_section_title
;
Structure prediction by ZEFSAII (Michael W. Deem and Ramdas Pophale) SiO2 
 PCOD9004933
Probable space group: P -1
;
_chemical_formula_sum "Si O2"
_cell_formula_units_Z 10
_cell_length_a 7.181822
_cell_length_b 9.003377
_cell_length_c 17.243235
_cell_angle_alpha 142.662986
_cell_angle_beta 134.125497
_cell_angle_gamma 70.417502
_cell_volume 419.909436
_symmetry_space_group_name_H-M "P -1"
_symmetry_group_IT_number 2
_symmetry_cell_setting 'triclinic'
loop_
_space_group_symop_operation_xyz
x,y,z
-x,-y,-z
loop_
_atom_site_type_symbol
_atom_site_label
_atom_site_fract_x
_atom_site_fract_y
_atom_site_fract_z
Si Si1 0.948818 0.667046 0.890750
Si Si2 0.621049 0.294201 0.112272
Si Si3 0.972102 0.275098 0.463479
Si Si4 0.193085 0.318673 0.886009
Si Si5 0.391731 0.264112 0.304750
O O1 0.170196 0.695873 0.894783
O O2 0.982311 0.453054 0.868337
O O3 0.643043 0.600472 0.730072
O O4 0.079453 0.971489 0.095614
O O5 0.824731 0.554690 0.335177
O O6 0.340913 0.317653 0.009968
O O7 0.500000 0.000000 0.000000
O O8 0.623564 0.151486 0.331003
O O9 0.000000 0.500000 0.500000
O O10 0.991472 0.008005 0.329887
O O11 0.500000 0.500000 0.000000
O O12 0.500000 0.500000 0.500000
#
# Coordination Sequence:
#
# PCOD9004933 Si02
#       5
#     2   2   2   2   2
#     4  10  22  38  59  91 124 153 201 253 295 355
#     4  11  20  36  62  87 120 159 197 247 297 351
#     4  12  22  38  65  90 119 160 205 245 303 357
#     4  10  21  38  59  93 121 151 207 252 290 354
#     4  11  21  37  61  89 121 160 199 243 306 360
#
# _framework density 23.81466
#
# number of rings (size 3 to 8) (size 9 to 14) (size 15 to 20)
#    0.000    1.200    8.000    0.000    0.000    4.800 
#    0.000    1.000    0.000   12.000    0.000    0.000 
#    0.000    0.000    0.000    0.000    0.000    0.000 
#
# Total GULP energy -55871.017666 kJ/mol
# GULP energy per Si atom -5587.101767 kJ/mol
# Density = 2.376046 g / cm^3
# Si number density = 23.814660 Si / 1000 Ang^3
#
#
#
# Elastic Constant Matrix: (Units=GPa)
#
#
# Indices 1 2 3 4 5 6 
#
# 1 54.6220 11.5498 11.1016 -1.4377 -3.5518 -5.4526
# 2 11.5498 198.2797 80.9787 -18.5234 -13.4404 -38.2233
# 3 11.1016 80.9787 215.2794 -21.8127 -33.6167 -14.5423
# 4 -1.4377 -18.5234 -21.8127 50.0009 -1.5799 1.5272
# 5 -3.5518 -13.4404 -33.6167 -1.5799 17.3178 9.3601
# 6 -5.4526 -38.2233 -14.5423 1.5272 9.3601 41.9462
#
#
#
# Elastic Compliance Matrix: (Units=1/GPa)
#
#
# Indices 1 2 3 4 5 6 
#
# 1 0.018765 -0.000534 -0.000327 0.000223 0.002081 0.001367
# 2 -0.000534 0.007260 -0.002581 0.001273 -0.002726 0.006214
# 3 -0.000327 -0.002581 0.008232 0.003228 0.015942 -0.003215
# 4 0.000223 0.001273 0.003228 0.022212 0.009683 -0.000662
# 5 0.002081 -0.002726 0.015942 0.009683 0.098117 -0.018934
# 6 0.001367 0.006214 -0.003215 -0.000662 -0.018934 0.032815
#
#
# Mechanical properties :
#
#
# Convention : Reuss Voigt Hill
#
# Bulk Modulus (GPa) = 36.53118 75.04903 55.79010
# Shear Modulus (GPa) = 24.58107 46.15639 35.36873
#
# Velocity S-wave (km/s) = 3.21624 4.40722 3.85797
# Velocity P-wave (km/s) = 5.40050 7.58158 6.58201
#
# Compressibility (1/GPa) = 0.02737388
#
# Stress axis : x y z
#
# Youngs Moduli (GPa) = 53.29165 137.73392 121.47883
#
# Poissons Ratio (x) = 0.07358 0.03970
# Poissons Ratio (y) = 0.02847 0.31348
# Poissons Ratio (z) = 0.01741 0.35543
#
# Static dielectric constant tensor:
#      x y z
#    x 1.904010 0.209330 0.193980 
#    y 0.209330 1.749630 -0.128850 
#    z 0.193980 -0.128850 1.862630 
# 
# From -- ./inp_files/16010.got.cif
#   From: 2010.05.17/outbox.cif.g08.bks.cpg/sg2_9_cif.got.tgz:16010.got - 2010.06.03 11:33:40.
