data_PCOD9004045
_publ_section_title
;
Structure prediction by ZEFSAII (Michael W. Deem and Ramdas Pophale) SiO2 
 PCOD9004045
Probable space group: P -1
;
_chemical_formula_sum "Si O2"
_cell_formula_units_Z 12
_cell_length_a 11.155183
_cell_length_b 14.032866
_cell_length_c 17.666303
_cell_angle_alpha 22.287865
_cell_angle_beta 30.271858
_cell_angle_gamma 30.624285
_cell_volume 500.707026
_symmetry_space_group_name_H-M "P -1"
_symmetry_group_IT_number 2
_symmetry_cell_setting 'triclinic'
loop_
_space_group_symop_operation_xyz
x,y,z
-x,-y,-z
loop_
_atom_site_type_symbol
_atom_site_label
_atom_site_fract_x
_atom_site_fract_y
_atom_site_fract_z
Si Si1 0.994471 0.171094 0.162899
Si Si2 0.270281 0.775957 0.420622
Si Si3 0.083961 0.877582 0.937624
Si Si4 0.834199 0.709945 0.799413
Si Si5 0.306629 0.655086 0.116813
Si Si6 0.460873 0.153662 0.487736
O O1 0.975747 0.127303 0.114701
O O2 0.736896 0.162530 0.350557
O O3 0.995082 0.474194 0.940649
O O4 0.217960 0.940111 0.249801
O O5 0.500000 0.500000 0.500000
O O6 0.021083 0.711116 0.629211
O O7 0.272151 0.003208 0.313848
O O8 0.304018 0.014469 0.725530
O O9 0.185085 0.627308 0.122852
O O10 0.836247 0.062219 0.977404
O O11 0.596900 0.621032 0.972516
O O12 0.291709 0.446598 0.341429
O O13 0.500000 0.000000 0.500000
#
# Coordination Sequence:
#
# PCOD9004045 Si02
#       6
#     2   2   2   2   2   2
#     4  10  22  41  67  94 128 169 211 261 318 377
#     4  11  25  46  67  93 124 168 218 272 320 370
#     4  10  21  37  63  97 128 168 204 253 312 381
#     4  10  24  45  66  95 126 168 214 266 318 378
#     4  10  21  39  61  94 132 163 209 254 312 380
#     4   9  19  36  58  90 124 165 201 249 310 372
#
# _framework density 23.966111000000001
#
# number of rings (size 3 to 8) (size 9 to 14) (size 15 to 20)
#    0.000    2.000    0.000    2.000    2.333    9.333 
#   21.000    0.000    0.000    0.000    0.000    0.000 
#    0.000    0.000    0.000    0.000    0.000    0.000 
#
# Total GULP energy -66975.601517 kJ/mol
# GULP energy per Si atom -5581.300126 kJ/mol
# Density = 2.391156 g / cm^3
# Si number density = 23.966111 Si / 1000 Ang^3
#
#
#
# Elastic Constant Matrix: (Units=GPa)
#
#
# Indices 1 2 3 4 5 6 
#
# 1 74.2446 45.1570 12.9210 -16.1122 34.9385 1.4865
# 2 45.1570 136.3912 35.5935 -14.7433 20.7412 -3.9372
# 3 12.9210 35.5935 70.4200 -15.4815 18.2062 -9.7192
# 4 -16.1122 -14.7433 -15.4815 46.5132 -6.6964 15.3115
# 5 34.9385 20.7412 18.2062 -6.6964 41.7712 -12.1027
# 6 1.4865 -3.9372 -9.7192 15.3115 -12.1027 26.5629
#
#
#
# Elastic Compliance Matrix: (Units=1/GPa)
#
#
# Indices 1 2 3 4 5 6 
#
# 1 0.038068 -0.007750 0.006096 0.016439 -0.035788 -0.026830
# 2 -0.007750 0.010488 -0.004807 -0.001308 0.003969 0.002791
# 3 0.006096 -0.004807 0.019358 0.006309 -0.010880 -0.002565
# 4 0.016439 -0.001308 0.006309 0.035292 -0.018135 -0.027411
# 5 -0.035788 0.003969 -0.010880 -0.018135 0.064937 0.038650
# 6 -0.026830 0.002791 -0.002565 -0.027411 0.038650 0.072033
#
#
# Mechanical properties :
#
#
# Convention : Reuss Voigt Hill
#
# Bulk Modulus (GPa) = 18.18485 52.04430 35.11458
# Shear Modulus (GPa) = 18.42108 35.46173 26.94141
#
# Velocity S-wave (km/s) = 2.77543 3.85081 3.35647
# Velocity P-wave (km/s) = 4.22787 6.44473 5.45020
#
# Compressibility (1/GPa) = 0.05499082
#
# Stress axis : x y z
#
# Youngs Moduli (GPa) = 26.26903 95.34818 51.65845
#
# Poissons Ratio (x) = 0.73890 -0.31489
# Poissons Ratio (y) = 0.20357 0.24834
# Poissons Ratio (z) = -0.16013 0.45838
#
# Static dielectric constant tensor:
#      x y z
#    x 1.987930 -0.044480 0.024080 
#    y -0.044480 1.810650 0.122630 
#    z 0.024080 0.122630 1.651730 
# 
# From -- ./inp_files/456528.got.cif
#   From: 2010.05.17/outbox.cif.g08.bks.cpg/sg2_229_cif.got.tgz:456528.got - 2010.06.03 11:33:40.
