data_PCOD9004348
_publ_section_title
;
Structure prediction by ZEFSAII (Michael W. Deem and Ramdas Pophale) SiO2 
 PCOD9004348
Probable space group: P -1
;
_chemical_formula_sum "Si O2"
_cell_formula_units_Z 16
_cell_length_a 9.389422
_cell_length_b 17.442949
_cell_length_c 13.585027
_cell_angle_alpha 146.790851
_cell_angle_beta 34.114797
_cell_angle_gamma 141.142102
_cell_volume 656.116491
_symmetry_space_group_name_H-M "P -1"
_symmetry_group_IT_number 2
_symmetry_cell_setting 'triclinic'
loop_
_space_group_symop_operation_xyz
x,y,z
-x,-y,-z
loop_
_atom_site_type_symbol
_atom_site_label
_atom_site_fract_x
_atom_site_fract_y
_atom_site_fract_z
Si Si1 0.108020 0.025416 0.797079
Si Si2 0.275601 0.973060 0.284146
Si Si3 0.496175 0.865500 0.485656
Si Si4 0.337349 0.301344 0.082871
Si Si5 0.935766 0.374453 0.737464
Si Si6 0.281629 0.542077 0.239679
Si Si7 0.701187 0.829456 0.697977
Si Si8 0.343432 0.663446 0.872272
O O1 0.254129 0.104834 0.699719
O O2 0.156433 0.143633 0.983083
O O3 0.263113 0.907042 0.605678
O O4 0.813812 0.939371 0.842519
O O5 0.454286 0.031280 0.338247
O O6 0.365203 0.076018 0.249280
O O7 0.000000 0.000000 0.500000
O O8 0.240681 0.803487 0.104650
O O9 0.415635 0.697284 0.379371
O O10 0.630849 0.322272 0.890137
O O11 0.211054 0.417717 0.228549
O O12 0.417672 0.331177 0.182403
O O13 0.927134 0.428334 0.687325
O O14 0.066030 0.243607 0.538944
O O15 0.113624 0.514110 0.843879
O O16 0.500000 0.500000 0.000000
O O17 0.465189 0.697914 0.731015
#
# Coordination Sequence:
#
# PCOD9004348 Si02
#       8
#     2   2   2   2   2   2   2   2
#     4  11  20  41  69  93 131 167 216 277 321 379
#     4  12  26  42  70 100 125 176 224 271 321 385
#     4  11  20  40  66 100 126 158 230 275 313 378
#     4  11  23  42  69 101 123 172 226 272 319 377
#     4  11  23  45  68  94 131 177 220 270 320 389
#     4  10  21  37  66 101 125 161 216 280 324 364
#     4  12  26  45  66  94 138 179 209 268 337 389
#     4  12  28  45  61  99 140 173 214 266 334 399
#
# _framework density 24.385915000000001
#
# number of rings (size 3 to 8) (size 9 to 14) (size 15 to 20)
#    0.000    0.750    6.250    2.625    7.000    0.500 
#    0.000    0.625    0.000    0.000    0.000    0.000 
#    0.000    0.000    0.000    0.000    0.000    0.000 
#
# Total GULP energy -89604.729376 kJ/mol
# GULP energy per Si atom -5600.295586 kJ/mol
# Density = 2.433041 g / cm^3
# Si number density = 24.385915 Si / 1000 Ang^3
#
#
#
# Elastic Constant Matrix: (Units=GPa)
#
#
# Indices 1 2 3 4 5 6 
#
# 1 103.8806 22.2563 17.9202 12.0005 -3.7239 -10.8710
# 2 22.2563 73.4479 18.7729 20.3225 -0.0299 6.5466
# 3 17.9202 18.7729 84.1077 25.1321 -10.8895 1.9198
# 4 12.0005 20.3225 25.1321 44.1940 0.7476 0.5545
# 5 -3.7239 -0.0299 -10.8895 0.7476 30.3044 14.7419
# 6 -10.8710 6.5466 1.9198 0.5545 14.7419 29.6749
#
#
#
# Elastic Compliance Matrix: (Units=1/GPa)
#
#
# Indices 1 2 3 4 5 6 
#
# 1 0.011296 -0.003346 -0.001964 -0.000450 -0.002305 0.006157
# 2 -0.003346 0.017163 -0.000703 -0.006550 0.002468 -0.006070
# 3 -0.001964 -0.000703 0.016230 -0.008447 0.008581 -0.005720
# 4 -0.000450 -0.006550 -0.008447 0.030612 -0.005884 0.004178
# 5 -0.002305 0.002468 0.008581 -0.005884 0.048578 -0.025967
# 6 0.006157 -0.006070 -0.005720 0.004178 -0.025967 0.050485
#
#
# Mechanical properties :
#
#
# Convention : Reuss Voigt Hill
#
# Bulk Modulus (GPa) = 30.61599 42.14835 36.38217
# Shear Modulus (GPa) = 25.34493 34.33376 29.83934
#
# Velocity S-wave (km/s) = 3.22736 3.75632 3.50184
# Velocity P-wave (km/s) = 5.14488 6.01121 5.59484
#
# Compressibility (1/GPa) = 0.03266267
#
# Stress axis : x y z
#
# Youngs Moduli (GPa) = 88.52817 58.26503 61.61295
#
# Poissons Ratio (x) = 0.19496 0.12104
# Poissons Ratio (y) = 0.29622 0.04330
# Poissons Ratio (z) = 0.17391 0.04094
#
# Static dielectric constant tensor:
#      x y z
#    x 1.997620 -0.028350 0.044060 
#    y -0.028350 1.953480 -0.060210 
#    z 0.044060 -0.060210 1.931770 
# 
# From -- ./inp_files/207306.got.cif
#   From: 2010.05.17/outbox.cif.g08.bks.cpg/sg2_104_cif.got.tgz:207306.got - 2010.06.03 11:33:40.
