data_PCOD9004688
_publ_section_title
;
Structure prediction by ZEFSAII (Michael W. Deem and Ramdas Pophale) SiO2 
 PCOD9004688
Probable space group: P -1
;
_chemical_formula_sum "Si O2"
_cell_formula_units_Z 16
_cell_length_a 10.815763
_cell_length_b 16.847336
_cell_length_c 10.082742
_cell_angle_alpha 153.415765
_cell_angle_beta 83.397425
_cell_angle_gamma 102.742128
_cell_volume 787.571904
_symmetry_space_group_name_H-M "P -1"
_symmetry_group_IT_number 2
_symmetry_cell_setting 'triclinic'
loop_
_space_group_symop_operation_xyz
x,y,z
-x,-y,-z
loop_
_atom_site_type_symbol
_atom_site_label
_atom_site_fract_x
_atom_site_fract_y
_atom_site_fract_z
Si Si1 0.139188 0.174819 0.552767
Si Si2 0.853729 0.061231 0.367248
Si Si3 0.366978 0.839786 0.781687
Si Si4 0.760372 0.403578 0.807308
Si Si5 0.223741 0.122921 0.177049
Si Si6 0.680514 0.007971 0.566610
Si Si7 0.432036 0.705239 0.102740
Si Si8 0.498149 0.405472 0.496334
O O1 0.157122 0.189205 0.410538
O O2 0.227762 0.058449 0.439055
O O3 0.989015 0.075754 0.442415
O O4 0.172916 0.384510 0.917311
O O5 0.849232 0.267710 0.632170
O O6 0.739503 0.992702 0.387914
O O7 0.839727 0.938705 0.051434
O O8 0.333699 0.713085 0.466926
O O9 0.393094 0.702436 0.681178
O O10 0.500000 0.000000 0.000000
O O11 0.255602 0.939733 0.957015
O O12 0.669450 0.404587 0.944699
O O13 0.359627 0.268306 0.344014
O O14 0.537735 0.875037 0.406239
O O15 0.650625 0.208493 0.863580
O O16 0.515415 0.571815 0.844273
O O17 0.500000 0.500000 0.500000
#
# Coordination Sequence:
#
# PCOD9004688 Si02
#       8
#     2   2   2   2   2   2   2   2
#     4  12  22  37  65  88 115 156 206 246 276 346
#     4  10  22  43  57  84 121 162 196 238 296 345
#     4   9  21  36  56  85 122 151 183 236 299 361
#     4  10  21  38  62  87 116 149 198 243 292 347
#     4  10  22  38  58  87 117 155 198 239 294 345
#     4  10  23  36  62  85 120 154 195 243 298 348
#     4  10  21  38  57  90 117 150 190 245 297 352
#     4  11  21  34  57  83 122 152 186 233 302 357
#
# _framework density 20.315605000000001
#
# number of rings (size 3 to 8) (size 9 to 14) (size 15 to 20)
#    0.000    1.750    1.250    2.625    5.250    3.000 
#    0.000    0.000    0.000    0.750    0.000    0.000 
#    0.000    0.000    0.000    0.000    0.000    0.000 
#
# Total GULP energy -89103.745226 kJ/mol
# GULP energy per Si atom -5568.984077 kJ/mol
# Density = 2.026937 g / cm^3
# Si number density = 20.315605 Si / 1000 Ang^3
#
#
#
# Elastic Constant Matrix: (Units=GPa)
#
#
# Indices 1 2 3 4 5 6 
#
# 1 64.2686 14.9231 -1.5139 2.9127 9.2218 -16.0958
# 2 14.9231 63.2972 8.4329 3.1123 -3.7610 -17.1332
# 3 -1.5139 8.4329 74.5847 -6.0586 3.8849 -2.7959
# 4 2.9127 3.1123 -6.0586 27.3797 -0.3609 -4.8393
# 5 9.2218 -3.7610 3.8849 -0.3609 18.0579 -1.8466
# 6 -16.0958 -17.1332 -2.7959 -4.8393 -1.8466 31.0862
#
#
#
# Elastic Compliance Matrix: (Units=1/GPa)
#
#
# Indices 1 2 3 4 5 6 
#
# 1 0.019861 -0.003358 0.001613 -0.000107 -0.010379 0.007945
# 2 -0.003358 0.019909 -0.002406 -0.000690 0.007321 0.009345
# 3 0.001613 -0.002406 0.014247 0.003388 -0.004213 0.001067
# 4 -0.000107 -0.000690 0.003388 0.038410 0.000551 0.005881
# 5 -0.010379 0.007321 -0.004213 0.000551 0.063338 0.002131
# 6 0.007945 0.009345 0.001067 0.005881 0.002131 0.042571
#
#
# Mechanical properties :
#
#
# Convention : Reuss Voigt Hill
#
# Bulk Modulus (GPa) = 21.87541 27.31498 24.59519
# Shear Modulus (GPa) = 22.53493 27.32533 24.93013
#
# Velocity S-wave (km/s) = 3.33414 3.67146 3.50686
# Velocity P-wave (km/s) = 5.06095 5.60779 5.34137
#
# Compressibility (1/GPa) = 0.04571343
#
# Stress axis : x y z
#
# Youngs Moduli (GPa) = 50.34926 50.22763 70.19016
#
# Poissons Ratio (x) = 0.16868 -0.11319
# Poissons Ratio (y) = 0.16909 0.16890
# Poissons Ratio (z) = -0.08119 0.12086
#
# Static dielectric constant tensor:
#      x y z
#    x 1.740890 -0.035690 -0.014650 
#    y -0.035690 1.728550 -0.025440 
#    z -0.014650 -0.025440 1.716880 
# 
# From -- ./inp_files/179480.got.cif
#   From: 2010.05.17/outbox.cif.g08.bks.cpg/sg2_90_cif.got.tgz:179480.got - 2010.06.03 11:33:40.
