data_PCOD9004157
_publ_section_title
;
Structure prediction by ZEFSAII (Michael W. Deem and Ramdas Pophale) SiO2 
 PCOD9004157
Probable space group: P -1
;
_chemical_formula_sum "Si O2"
_cell_formula_units_Z 14
_cell_length_a 10.712815
_cell_length_b 13.789003
_cell_length_c 8.308023
_cell_angle_alpha 62.362515
_cell_angle_beta 124.234535
_cell_angle_gamma 74.519754
_cell_volume 623.094474
_symmetry_space_group_name_H-M "P -1"
_symmetry_group_IT_number 2
_symmetry_cell_setting 'triclinic'
loop_
_space_group_symop_operation_xyz
x,y,z
-x,-y,-z
loop_
_atom_site_type_symbol
_atom_site_label
_atom_site_fract_x
_atom_site_fract_y
_atom_site_fract_z
Si Si1 0.001775 0.871855 0.661668
Si Si2 0.604821 0.351774 0.079801
Si Si3 0.662949 0.735150 0.778722
Si Si4 0.741907 0.818889 0.108804
Si Si5 0.690234 0.836067 0.403828
Si Si6 0.173257 0.939789 0.305254
Si Si7 0.158365 0.513003 0.667729
O O1 0.236017 0.703141 0.908475
O O2 0.820687 0.883406 0.452705
O O3 0.000000 0.000000 0.500000
O O4 0.940304 0.913562 0.771916
O O5 0.748895 0.201443 0.417765
O O6 0.500000 0.500000 0.000000
O O7 0.386755 0.402580 0.826852
O O8 0.767488 0.730330 0.698574
O O9 0.405191 0.857977 0.470359
O O10 0.683815 0.797607 0.909202
O O11 0.769246 0.564366 0.042559
O O12 0.714845 0.767868 0.299760
O O13 0.003110 0.699506 0.392251
O O14 0.562170 0.004452 0.867609
O O15 0.000000 0.000000 0.000000
O O16 0.000000 0.500000 0.500000
#
# Coordination Sequence:
#
# PCOD9004157 Si02
#       7
#     2   2   2   2   2   2   2
#     4  10  22  40  62  90 130 163 211 257 316 384
#     4  10  21  41  66  87 124 167 209 258 314 383
#     4  10  21  41  62  93 129 158 212 266 309 377
#     4  10  21  37  64  94 123 160 206 256 323 371
#     4  11  22  37  65  97 120 162 213 266 311 370
#     4  10  22  41  63  90 128 169 206 259 322 367
#     4   9  20  39  63  88 123 167 200 254 325 374
#
# _framework density 22.468503999999999
#
# number of rings (size 3 to 8) (size 9 to 14) (size 15 to 20)
#    0.000    2.000    1.429    1.286    2.000    6.286 
#    2.571    0.714    3.143    0.000    0.000    0.000 
#    0.000    0.000    0.000    0.000    0.000    0.000 
#
# Total GULP energy -77960.963730 kJ/mol
# GULP energy per Si atom -5568.640266 kJ/mol
# Density = 2.241737 g / cm^3
# Si number density = 22.468504 Si / 1000 Ang^3
#
#
#
# Elastic Constant Matrix: (Units=GPa)
#
#
# Indices 1 2 3 4 5 6 
#
# 1 77.9475 9.8088 43.3871 3.4179 9.9421 8.6733
# 2 9.8088 89.4771 33.9140 2.6426 10.2794 1.1525
# 3 43.3871 33.9140 153.3446 -0.0621 35.7652 -11.6046
# 4 3.4179 2.6426 -0.0621 38.3250 -6.1420 7.0623
# 5 9.9421 10.2794 35.7652 -6.1420 23.6926 2.9164
# 6 8.6733 1.1525 -11.6046 7.0623 2.9164 10.9949
#
#
#
# Elastic Compliance Matrix: (Units=1/GPa)
#
#
# Indices 1 2 3 4 5 6 
#
# 1 0.023176 0.001117 -0.015159 0.009679 0.020863 -0.046150
# 2 0.001117 0.012461 -0.003692 0.000313 0.000572 -0.006437
# 3 -0.015159 -0.003692 0.026998 -0.017380 -0.045174 0.063986
# 4 0.009679 0.000313 -0.017380 0.043822 0.041418 -0.065146
# 5 0.020863 0.000572 -0.045174 0.041418 0.127472 -0.124612
# 6 -0.046150 -0.006437 0.063986 -0.065146 -0.124612 0.270463
#
#
# Mechanical properties :
#
#
# Convention : Reuss Voigt Hill
#
# Bulk Modulus (GPa) = 36.81059 54.99877 45.90468
# Shear Modulus (GPa) = 9.10884 30.17980 19.64432
#
# Velocity S-wave (km/s) = 2.01565 3.66895 2.96007
# Velocity P-wave (km/s) = 4.67289 6.51764 5.67078
#
# Compressibility (1/GPa) = 0.02716609
#
# Stress axis : x y z
#
# Youngs Moduli (GPa) = 43.14811 80.25005 37.03943
#
# Poissons Ratio (x) = -0.08962 0.56148
# Poissons Ratio (y) = -0.04818 0.13676
# Poissons Ratio (z) = 0.65408 0.29632
#
# Static dielectric constant tensor:
#      x y z
#    x 1.929830 0.055620 0.009610 
#    y 0.055620 1.937970 -0.026120 
#    z 0.009610 -0.026120 1.877340 
# 
# From -- ./inp_files/272693.got.cif
#   From: 2010.05.17/outbox.cif.g08.bks.cpg/sg2_137_cif.got.tgz:272693.got - 2010.06.03 11:33:40.
