data_PCOD9004669
_publ_section_title
;
Structure prediction by ZEFSAII (Michael W. Deem and Ramdas Pophale) SiO2 
 PCOD9004669
Probable space group: P -1
;
_chemical_formula_sum "Si O2"
_cell_formula_units_Z 14
_cell_length_a 7.485549
_cell_length_b 5.573141
_cell_length_c 14.001788
_cell_angle_alpha 88.977191
_cell_angle_beta 80.529159
_cell_angle_gamma 63.588962
_cell_volume 515.014817
_symmetry_space_group_name_H-M "P -1"
_symmetry_group_IT_number 2
_symmetry_cell_setting 'triclinic'
loop_
_space_group_symop_operation_xyz
x,y,z
-x,-y,-z
loop_
_atom_site_type_symbol
_atom_site_label
_atom_site_fract_x
_atom_site_fract_y
_atom_site_fract_z
Si Si1 0.444110 0.603901 0.709614
Si Si2 0.729031 0.549007 0.032538
Si Si3 0.517381 0.171802 0.109479
Si Si4 0.963946 0.427038 0.196699
Si Si5 0.061957 0.248592 0.628948
Si Si6 0.214148 0.968691 0.311239
Si Si7 0.682343 0.720640 0.550994
O O1 0.460402 0.817123 0.779245
O O2 0.237794 0.592277 0.747131
O O3 0.495486 0.665292 0.598629
O O4 0.628750 0.327450 0.729708
O O5 0.658364 0.312521 0.057237
O O6 0.920041 0.459470 0.087698
O O7 0.589287 0.859993 0.078510
O O8 0.695160 0.617807 0.921898
O O9 0.954080 0.674596 0.258772
O O10 0.149091 0.165002 0.225598
O O11 0.258758 0.239769 0.560810
O O12 0.876484 0.479351 0.585688
O O13 0.998353 0.010706 0.629596
O O14 0.320651 0.035654 0.389150
#
# Coordination Sequence:
#
# PCOD9004669 Si02
#       7
#     2   2   2   2   2   2   2
#     4  10  22  36  61  87 119 154 202 250 303 357
#     4   9  19  36  61  90 121 158 199 245 304 366
#     4   9  19  36  61  90 121 158 199 245 304 366
#     4  10  22  36  61  87 119 154 202 250 303 357
#     4   9  19  36  57  83 118 158 200 246 301 358
#     4  10  21  38  57  84 118 162 199 248 299 358
#     4   9  19  36  57  83 118 158 200 246 301 358
#
# _framework density 27.183682999999998
#
# number of rings (size 3 to 8) (size 9 to 14) (size 15 to 20)
#    0.000    2.571    0.000    0.429    8.000    1.714 
#    0.000    2.143    0.000    7.714    0.000    0.000 
#    0.000    0.000    0.000    0.000    0.000    0.000 
#
# Total GULP energy -78200.117675 kJ/mol
# GULP energy per Si atom -5585.722691 kJ/mol
# Density = 2.712181 g / cm^3
# Si number density = 27.183683 Si / 1000 Ang^3
#
#
#
# Elastic Constant Matrix: (Units=GPa)
#
#
# Indices 1 2 3 4 5 6 
#
# 1 74.8456 28.7437 -13.5497 -18.6429 14.2458 3.7330
# 2 28.7437 93.4867 33.4650 -20.9429 -0.2397 -2.6297
# 3 -13.5497 33.4650 96.4031 -10.4561 -2.9389 6.8416
# 4 -18.6429 -20.9429 -10.4561 26.7962 -3.8744 15.9313
# 5 14.2458 -0.2397 -2.9389 -3.8744 37.1945 -16.3406
# 6 3.7330 -2.6297 6.8416 15.9313 -16.3406 41.4784
#
#
#
# Elastic Compliance Matrix: (Units=1/GPa)
#
#
# Indices 1 2 3 4 5 6 
#
# 1 0.031304 -0.007163 0.011697 0.033073 -0.018783 -0.025304
# 2 -0.007163 0.016157 -0.006224 0.004224 0.003951 0.002630
# 3 0.011697 -0.006224 0.016739 0.016811 -0.007415 -0.013586
# 4 0.033073 0.004224 0.016811 0.098000 -0.024245 -0.052673
# 5 -0.018783 0.003951 -0.007415 -0.024245 0.044109 0.029853
# 6 -0.025304 0.002630 -0.013586 -0.052673 0.029853 0.060786
#
#
# Mechanical properties :
#
#
# Convention : Reuss Voigt Hill
#
# Bulk Modulus (GPa) = 16.44161 40.22815 28.33488
# Shear Modulus (GPa) = 17.19696 35.49891 26.34794
#
# Velocity S-wave (km/s) = 2.51792 3.61763 3.11666
# Velocity P-wave (km/s) = 3.80982 5.68159 4.83710
#
# Compressibility (1/GPa) = 0.06082130
#
# Stress axis : x y z
#
# Youngs Moduli (GPa) = 31.94438 61.89221 59.74086
#
# Poissons Ratio (x) = 0.44332 -0.69877
# Poissons Ratio (y) = 0.22881 0.37180
# Poissons Ratio (z) = -0.37364 0.38519
#
# Static dielectric constant tensor:
#      x y z
#    x 2.235360 0.019860 -0.108830 
#    y 0.019860 2.126870 -0.008500 
#    z -0.108830 -0.008500 2.114970 
# 
# From -- ./inp_files/39438.got.cif
#   From: 2010.05.17/outbox.cif.g08.bks.cpg/sg2_20_cif.got.tgz:39438.got - 2010.06.03 11:33:40.
