data_PCOD9004876
_publ_section_title
;
Structure prediction by ZEFSAII (Michael W. Deem and Ramdas Pophale) SiO2 
 PCOD9004876
Probable space group: P -1
;
_chemical_formula_sum "Si O2"
_cell_formula_units_Z 14
_cell_length_a 13.342467
_cell_length_b 20.968236
_cell_length_c 10.020949
_cell_angle_alpha 143.010791
_cell_angle_beta 148.930739
_cell_angle_gamma 24.751428
_cell_volume 602.925350
_symmetry_space_group_name_H-M "P -1"
_symmetry_group_IT_number 2
_symmetry_cell_setting 'triclinic'
loop_
_space_group_symop_operation_xyz
x,y,z
-x,-y,-z
loop_
_atom_site_type_symbol
_atom_site_label
_atom_site_fract_x
_atom_site_fract_y
_atom_site_fract_z
Si Si1 0.403199 0.615187 0.301246
Si Si2 0.797408 0.173602 0.347318
Si Si3 0.678977 0.622069 0.399184
Si Si4 0.743446 0.076328 0.733749
Si Si5 0.638033 0.784243 0.241323
Si Si6 0.872857 0.350065 0.580320
Si Si7 0.946931 0.439131 0.084883
O O1 0.225085 0.778081 0.445104
O O2 0.534397 0.585493 0.257551
O O3 0.236661 0.570131 0.050253
O O4 0.663520 0.500028 0.504882
O O5 0.722514 0.305152 0.388745
O O6 0.586917 0.165290 0.042729
O O7 0.109226 0.027335 0.403583
O O8 0.442832 0.752819 0.246831
O O9 0.000000 0.500000 0.500000
O O10 0.749741 0.672931 0.688388
O O11 0.516170 0.110910 0.628740
O O12 0.000000 0.000000 0.000000
O O13 0.861112 0.775925 0.418995
O O14 0.808108 0.609664 0.187167
O O15 0.969925 0.377109 0.863570
#
# Coordination Sequence:
#
# PCOD9004876 Si02
#       7
#     2   2   2   2   2   2   2
#     4  11  21  36  63  92 122 157 197 250 301 346
#     4  10  21  38  59  87 126 157 201 237 294 365
#     4  12  24  41  62  91 121 155 203 255 298 350
#     4  10  24  43  61  84 123 165 200 242 304 364
#     4  11  18  36  61  89 119 156 199 245 286 350
#     4  11  19  34  64  95 119 159 199 245 295 352
#     4  11  20  35  61  95 121 147 201 250 293 349
#
# _framework density 23.220120999999999
#
# number of rings (size 3 to 8) (size 9 to 14) (size 15 to 20)
#    0.000    1.143    5.714    2.143    0.000    1.714 
#    0.000    7.143    0.000    0.000    0.000    0.000 
#    0.000    0.000    0.000    0.000    0.000    0.000 
#
# Total GULP energy -78058.070351 kJ/mol
# GULP energy per Si atom -5575.576454 kJ/mol
# Density = 2.316727 g / cm^3
# Si number density = 23.220121 Si / 1000 Ang^3
#
#
#
# Elastic Constant Matrix: (Units=GPa)
#
#
# Indices 1 2 3 4 5 6 
#
# 1 166.2602 41.3523 17.3067 -4.2982 11.3151 -20.7495
# 2 41.3523 75.2819 7.6767 -4.3335 -9.5975 -20.3199
# 3 17.3067 7.6767 70.0571 -10.3438 2.3447 -0.0413
# 4 -4.2982 -4.3335 -10.3438 27.9428 -2.4559 -9.8027
# 5 11.3151 -9.5975 2.3447 -2.4559 22.3704 -7.2475
# 6 -20.7495 -20.3199 -0.0413 -9.8027 -7.2475 40.3917
#
#
#
# Elastic Compliance Matrix: (Units=1/GPa)
#
#
# Indices 1 2 3 4 5 6 
#
# 1 0.007770 -0.004756 -0.001257 -0.000338 -0.005717 0.000490
# 2 -0.004756 0.022633 -0.000537 0.009190 0.017838 0.014373
# 3 -0.001257 -0.000537 0.015477 0.005534 -0.000495 0.000354
# 4 -0.000338 0.009190 0.005534 0.046987 0.014684 0.018493
# 5 -0.005717 0.017838 -0.000495 0.014684 0.063725 0.021034
# 6 0.000490 0.014373 0.000354 0.018493 0.021034 0.040503
#
#
# Mechanical properties :
#
#
# Convention : Reuss Voigt Hill
#
# Bulk Modulus (GPa) = 30.50518 49.36339 39.93428
# Shear Modulus (GPa) = 22.61202 34.49189 28.55195
#
# Velocity S-wave (km/s) = 3.12398 3.85831 3.51040
# Velocity P-wave (km/s) = 5.11647 6.41512 5.80224
#
# Compressibility (1/GPa) = 0.03278132
#
# Stress axis : x y z
#
# Youngs Moduli (GPa) = 128.70253 44.18249 64.61161
#
# Poissons Ratio (x) = 0.21014 0.08119
# Poissons Ratio (y) = 0.61212 0.03469
# Poissons Ratio (z) = 0.16173 0.02372
#
# Static dielectric constant tensor:
#      x y z
#    x 1.963730 -0.042990 -0.020520 
#    y -0.042990 1.983410 0.062960 
#    z -0.020520 0.062960 1.885330 
# 
# From -- ./inp_files/256100.got.cif
#   From: 2010.05.17/outbox.cif.g08.bks.cpg/sg2_129_cif.got.tgz:256100.got - 2010.06.03 11:33:40.
