data_PCOD9004665
_publ_section_title
;
Structure prediction by ZEFSAII (Michael W. Deem and Ramdas Pophale) SiO2 
 PCOD9004665
Probable space group: P -1
;
_chemical_formula_sum "Si O2"
_cell_formula_units_Z 16
_cell_length_a 14.311582
_cell_length_b 8.286774
_cell_length_c 5.349675
_cell_angle_alpha 95.497365
_cell_angle_beta 73.087763
_cell_angle_gamma 97.480612
_cell_volume 600.725860
_symmetry_space_group_name_H-M "P -1"
_symmetry_group_IT_number 2
_symmetry_cell_setting 'triclinic'
loop_
_space_group_symop_operation_xyz
x,y,z
-x,-y,-z
loop_
_atom_site_type_symbol
_atom_site_label
_atom_site_fract_x
_atom_site_fract_y
_atom_site_fract_z
Si Si1 0.889555 0.010837 0.277074
Si Si2 0.788256 0.299481 0.277881
Si Si3 0.590317 0.854844 0.926410
Si Si4 0.894983 0.562741 0.547845
Si Si5 0.337175 0.764251 0.136577
Si Si6 0.889628 0.915607 0.759026
Si Si7 0.296039 0.415181 0.025929
Si Si8 0.444493 0.322954 0.568572
O O1 0.840425 0.008146 0.590005
O O2 0.876647 0.187742 0.205917
O O3 0.844969 0.895730 0.069488
O O4 0.003150 0.996846 0.240828
O O5 0.840291 0.475822 0.341442
O O6 0.712747 0.242643 0.551981
O O7 0.732340 0.260036 0.059325
O O8 0.542465 0.788461 0.695587
O O9 0.611449 0.050130 0.921295
O O10 0.683905 0.746308 0.855628
O O11 0.534788 0.781061 0.211523
O O12 0.910072 0.755088 0.570489
O O13 0.000000 0.500000 0.500000
O O14 0.812163 0.538655 0.825947
O O15 0.369153 0.575902 0.075074
O O16 0.333792 0.367349 0.718336
O O17 0.500000 0.500000 0.500000
#
# Coordination Sequence:
#
# PCOD9004665 Si02
#       8
#     2   2   2   2   2   2   2   2
#     4  10  21  38  57  83 111 159 217 278 333 379
#     4  11  24  40  62  88 129 175 226 288 327 385
#     4  10  23  43  74 101 139 185 219 269 350 404
#     4  11  23  44  61  94 129 180 229 281 340 397
#     4  11  24  43  64  99 137 178 227 274 330 410
#     4  10  22  38  58  80 116 157 216 274 334 396
#     4   9  26  41  70  98 140 181 225 284 338 391
#     4  10  22  45  76 109 140 172 222 278 337 412
#
# _framework density 26.634443999999998
#
# number of rings (size 3 to 8) (size 9 to 14) (size 15 to 20)
#    0.750    1.000    1.250    1.875    7.000    2.000 
#    0.000    4.375    0.000    0.000    0.000    0.000 
#    0.000    0.000    0.000    0.000    0.000    0.000 
#
# Total GULP energy -89176.004919 kJ/mol
# GULP energy per Si atom -5573.500307 kJ/mol
# Density = 2.657382 g / cm^3
# Si number density = 26.634444 Si / 1000 Ang^3
#
#
#
# Elastic Constant Matrix: (Units=GPa)
#
#
# Indices 1 2 3 4 5 6 
#
# 1 66.3710 36.4114 34.3251 -0.6805 -14.9320 1.3625
# 2 36.4114 194.5842 64.8624 15.4996 13.0812 23.5556
# 3 34.3251 64.8624 183.1995 8.4711 18.9611 13.5432
# 4 -0.6805 15.4996 8.4711 45.7761 -0.4713 -3.5291
# 5 -14.9320 13.0812 18.9611 -0.4713 46.8749 4.2700
# 6 1.3625 23.5556 13.5432 -3.5291 4.2700 44.0451
#
#
#
# Elastic Compliance Matrix: (Units=1/GPa)
#
#
# Indices 1 2 3 4 5 6 
#
# 1 0.021152 -0.003714 -0.003851 0.002520 0.009191 0.001827
# 2 -0.003714 0.006972 -0.001173 -0.002472 -0.002386 -0.003220
# 3 -0.003851 -0.001173 0.007114 -0.001105 -0.003681 -0.001172
# 4 0.002520 -0.002472 -0.001105 0.023195 0.001876 0.003260
# 5 0.009191 -0.002386 -0.003681 0.001876 0.026462 -0.000291
# 6 0.001827 -0.003220 -0.001172 0.003260 -0.000291 0.025020
#
#
# Mechanical properties :
#
#
# Convention : Reuss Voigt Hill
#
# Bulk Modulus (GPa) = 56.30128 79.48361 67.89244
# Shear Modulus (GPa) = 37.50576 47.90962 42.70769
#
# Velocity S-wave (km/s) = 3.75663 4.24581 4.00869
# Velocity P-wave (km/s) = 6.32461 7.34459 6.85360
#
# Compressibility (1/GPa) = 0.01776159
#
# Stress axis : x y z
#
# Youngs Moduli (GPa) = 47.27632 143.42285 140.56162
#
# Poissons Ratio (x) = 0.53270 0.54131
# Poissons Ratio (y) = 0.17559 0.16494
# Poissons Ratio (z) = 0.18206 0.16830
#
# Static dielectric constant tensor:
#      x y z
#    x 2.246360 -0.006600 -0.012150 
#    y -0.006600 2.270600 -0.211390 
#    z -0.012150 -0.211390 2.291390 
# 
# From -- ./inp_files/105597.got.cif
#   From: 2010.05.17/outbox.cif.g08.bks.cpg/sg2_53_cif.got.tgz:105597.got - 2010.06.03 11:33:40.
