data_PCOD9004141
_publ_section_title
;
Structure prediction by ZEFSAII (Michael W. Deem and Ramdas Pophale) SiO2 
 PCOD9004141
Probable space group: P -1
;
_chemical_formula_sum "Si O2"
_cell_formula_units_Z 16
_cell_length_a 15.278248
_cell_length_b 7.027640
_cell_length_c 9.944144
_cell_angle_alpha 118.347404
_cell_angle_beta 104.989973
_cell_angle_gamma 114.982837
_cell_volume 696.494982
_symmetry_space_group_name_H-M "P -1"
_symmetry_group_IT_number 2
_symmetry_cell_setting 'triclinic'
loop_
_space_group_symop_operation_xyz
x,y,z
-x,-y,-z
loop_
_atom_site_type_symbol
_atom_site_label
_atom_site_fract_x
_atom_site_fract_y
_atom_site_fract_z
Si Si1 0.449629 0.717246 0.968913
Si Si2 0.917963 0.833000 0.535835
Si Si3 0.672671 0.061582 0.342770
Si Si4 0.910715 0.935549 0.062054
Si Si5 0.438543 0.202474 0.511404
Si Si6 0.653147 0.373594 0.822522
Si Si7 0.679657 0.579526 0.443582
Si Si8 0.872405 0.294234 0.311704
O O1 0.390272 0.504188 0.752158
O O2 0.356008 0.595406 0.011542
O O3 0.500000 0.000000 0.000000
O O4 0.564083 0.812672 0.126018
O O5 0.815610 0.832476 0.548308
O O6 0.847998 0.509766 0.349173
O O7 0.000000 0.000000 0.500000
O O8 0.008322 0.957677 0.737496
O O9 0.676077 0.330435 0.417230
O O10 0.783119 0.110856 0.336281
O O11 0.651370 0.990539 0.465783
O O12 0.869771 0.125946 0.129357
O O13 0.788841 0.611982 0.909865
O O14 0.000000 0.000000 0.000000
O O15 0.566290 0.385565 0.697090
O O16 0.389300 0.346818 0.474245
O O17 0.412738 0.959669 0.324571
O O18 0.000000 0.500000 0.500000
#
# Coordination Sequence:
#
# PCOD9004141 Si02
#       8
#     2   2   2   2   2   2   2   2
#     4   9  19  38  61  93 126 160 212 281 315 383
#     4  10  22  41  64  94 126 169 224 272 325 396
#     4   9  20  37  63  92 128 160 221 269 324 394
#     4  11  25  42  67  95 136 177 220 273 326 402
#     4  10  23  40  67  92 131 174 211 277 333 397
#     4  10  23  41  62  96 134 171 222 264 338 393
#     4  10  21  37  64  93 125 163 217 264 331 385
#     4   9  21  37  61  91 123 174 218 263 329 391
#
# _framework density 22.972169000000001
#
# number of rings (size 3 to 8) (size 9 to 14) (size 15 to 20)
#    0.000    2.250    0.000    0.750   12.250    1.000 
#    0.000   16.250    0.000    0.000    0.000    0.000 
#    0.000    0.000    0.000    0.000    0.000    0.000 
#
# Total GULP energy -89159.793984 kJ/mol
# GULP energy per Si atom -5572.487124 kJ/mol
# Density = 2.291988 g / cm^3
# Si number density = 22.972169 Si / 1000 Ang^3
#
#
#
# Elastic Constant Matrix: (Units=GPa)
#
#
# Indices 1 2 3 4 5 6 
#
# 1 120.1458 27.5785 14.8865 11.6291 1.4672 19.2961
# 2 27.5785 72.7190 18.7312 -4.6766 -9.4184 23.2828
# 3 14.8865 18.7312 55.8237 5.3000 -1.6259 -1.0241
# 4 11.6291 -4.6766 5.3000 30.6842 10.1726 1.6505
# 5 1.4672 -9.4184 -1.6259 10.1726 37.1072 6.8657
# 6 19.2961 23.2828 -1.0241 1.6505 6.8657 49.3843
#
#
#
# Elastic Compliance Matrix: (Units=1/GPa)
#
#
# Indices 1 2 3 4 5 6 
#
# 1 0.009916 -0.002816 -0.001360 -0.003943 0.000376 -0.002496
# 2 -0.002816 0.020608 -0.006548 0.003949 0.005764 -0.009685
# 3 -0.001360 -0.006548 0.020943 -0.004223 -0.000317 0.004238
# 4 -0.003943 0.003949 -0.004223 0.038598 -0.009539 -0.000373
# 5 0.000376 0.005764 -0.000317 -0.009539 0.032301 -0.007043
# 6 -0.002496 -0.009685 0.004238 -0.000373 -0.007043 0.026870
#
#
# Mechanical properties :
#
#
# Convention : Reuss Voigt Hill
#
# Bulk Modulus (GPa) = 33.31385 41.23124 37.27255
# Shear Modulus (GPa) = 27.67158 35.93464 31.80311
#
# Velocity S-wave (km/s) = 3.47446 3.95937 3.72481
# Velocity P-wave (km/s) = 5.53436 6.23614 5.89570
#
# Compressibility (1/GPa) = 0.03001754
#
# Stress axis : x y z
#
# Youngs Moduli (GPa) = 100.84730 48.52564 47.74883
#
# Poissons Ratio (x) = 0.13666 0.06493
# Poissons Ratio (y) = 0.28401 0.31268
# Poissons Ratio (z) = 0.13713 0.31777
#
# Static dielectric constant tensor:
#      x y z
#    x 2.061780 -0.029070 -0.078860 
#    y -0.029070 1.972980 0.068650 
#    z -0.078860 0.068650 1.853580 
# 
# From -- ./inp_files/446418.got.cif
#   From: 2010.05.17/outbox.cif.g08.bks.cpg/sg2_224_cif.got.tgz:446418.got - 2010.06.03 11:33:40.
