data_PCOD9004393
_publ_section_title
;
Structure prediction by ZEFSAII (Michael W. Deem and Ramdas Pophale) SiO2 
 PCOD9004393
Probable space group: P -1
;
_chemical_formula_sum "Si O2"
_cell_formula_units_Z 14
_cell_length_a 9.899807
_cell_length_b 22.966009
_cell_length_c 9.211527
_cell_angle_alpha 128.666712
_cell_angle_beta 125.478860
_cell_angle_gamma 24.837506
_cell_volume 686.300213
_symmetry_space_group_name_H-M "P -1"
_symmetry_group_IT_number 2
_symmetry_cell_setting 'triclinic'
loop_
_space_group_symop_operation_xyz
x,y,z
-x,-y,-z
loop_
_atom_site_type_symbol
_atom_site_label
_atom_site_fract_x
_atom_site_fract_y
_atom_site_fract_z
Si Si1 0.830741 0.790356 0.901510
Si Si2 0.069658 0.089054 0.841094
Si Si3 0.183338 0.364418 0.327441
Si Si4 0.073158 0.394531 0.964231
Si Si5 0.787736 0.068279 0.829477
Si Si6 0.755455 0.380961 0.844112
Si Si7 0.851080 0.178852 0.512626
O O1 0.931376 0.669526 0.728081
O O2 0.453815 0.937695 0.863113
O O3 0.005615 0.798076 0.971989
O O4 0.909001 0.758407 0.072826
O O5 0.898435 0.090156 0.822112
O O6 0.972319 0.120953 0.662265
O O7 0.558103 0.235637 0.385427
O O8 0.000000 0.500000 0.500000
O O9 0.105231 0.398123 0.161422
O O10 0.411763 0.227796 0.868484
O O11 0.802987 0.433433 0.851182
O O12 0.000000 0.500000 0.000000
O O13 0.876259 0.953920 0.636382
O O14 0.000000 0.000000 0.000000
O O15 0.721833 0.314104 0.640335
O O16 0.500000 0.500000 0.000000
#
# Coordination Sequence:
#
# PCOD9004393 Si02
#       7
#     2   2   2   2   2   2   2
#     4   9  19  37  60  94 122 159 218 260 317 365
#     4  10  21  37  66  94 121 165 223 266 309 386
#     4  11  22  40  63  91 128 170 221 265 317 393
#     4  11  26  43  64  97 133 174 209 270 346 379
#     4  12  23  42  64  90 142 168 208 276 336 387
#     4  10  22  43  66  93 131 173 219 266 324 396
#     4  11  22  39  69  96 119 176 231 261 318 389
#
# _framework density 20.399235000000001
#
# number of rings (size 3 to 8) (size 9 to 14) (size 15 to 20)
#    0.000    1.429    2.857    3.000    6.000    0.571 
#    0.000    2.143    0.000    0.000    0.000    0.000 
#    0.000    0.000    0.000    0.000    0.000    0.000 
#
# Total GULP energy -78045.807692 kJ/mol
# GULP energy per Si atom -5574.700549 kJ/mol
# Density = 2.035281 g / cm^3
# Si number density = 20.399235 Si / 1000 Ang^3
#
#
#
# Elastic Constant Matrix: (Units=GPa)
#
#
# Indices 1 2 3 4 5 6 
#
# 1 100.8036 25.2274 51.8830 21.5017 15.4241 16.9742
# 2 25.2274 74.6051 30.5693 13.1721 -4.4725 8.1896
# 3 51.8830 30.5693 133.8506 34.1018 16.6113 9.6738
# 4 21.5017 13.1721 34.1018 48.2861 3.0217 1.0041
# 5 15.4241 -4.4725 16.6113 3.0217 35.3090 8.5175
# 6 16.9742 8.1896 9.6738 1.0041 8.5175 25.0045
#
#
#
# Elastic Compliance Matrix: (Units=1/GPa)
#
#
# Indices 1 2 3 4 5 6 
#
# 1 0.014538 -0.002450 -0.003429 -0.003047 -0.003213 -0.006523
# 2 -0.002450 0.016510 -0.002761 -0.001726 0.005705 -0.004551
# 3 -0.003429 -0.002761 0.011258 -0.005443 -0.003774 0.000381
# 4 -0.003047 -0.001726 -0.005443 0.026272 0.000584 0.003485
# 5 -0.003213 0.005705 -0.003774 0.000584 0.034594 -0.010035
# 6 -0.006523 -0.004551 0.000381 0.003485 -0.010035 0.049043
#
#
# Mechanical properties :
#
#
# Convention : Reuss Voigt Hill
#
# Bulk Modulus (GPa) = 39.95612 58.29099 49.12355
# Shear Modulus (GPa) = 28.11568 35.15856 31.63712
#
# Velocity S-wave (km/s) = 3.71654 4.15604 3.94242
# Velocity P-wave (km/s) = 6.16818 7.18800 6.69753
#
# Compressibility (1/GPa) = 0.02502746
#
# Stress axis : x y z
#
# Youngs Moduli (GPa) = 68.78301 60.57090 88.82316
#
# Poissons Ratio (x) = 0.14837 0.30461
# Poissons Ratio (y) = 0.16848 0.24520
# Poissons Ratio (z) = 0.23589 0.16721
#
# Static dielectric constant tensor:
#      x y z
#    x 1.828460 -0.149080 0.085340 
#    y -0.149080 2.134270 -0.045810 
#    z 0.085340 -0.045810 1.764170 
# 
# From -- ./inp_files/204517.got.cif
#   From: 2010.05.17/outbox.cif.g08.bks.cpg/sg2_103_cif.got.tgz:204517.got - 2010.06.03 11:33:40.
