data_PCOD9004838
_publ_section_title
;
Structure prediction by ZEFSAII (Michael W. Deem and Ramdas Pophale) SiO2 
 PCOD9004838
Probable space group: P -1
;
_chemical_formula_sum "Si O2"
_cell_formula_units_Z 12
_cell_length_a 12.601120
_cell_length_b 13.426125
_cell_length_c 7.754493
_cell_angle_alpha 130.744942
_cell_angle_beta 112.528858
_cell_angle_gamma 31.166971
_cell_volume 460.106788
_symmetry_space_group_name_H-M "P -1"
_symmetry_group_IT_number 2
_symmetry_cell_setting 'triclinic'
loop_
_space_group_symop_operation_xyz
x,y,z
-x,-y,-z
loop_
_atom_site_type_symbol
_atom_site_label
_atom_site_fract_x
_atom_site_fract_y
_atom_site_fract_z
Si Si1 0.124733 0.064010 0.991230
Si Si2 0.246443 0.729120 0.429913
Si Si3 0.554915 0.718899 0.073779
Si Si4 0.885543 0.556171 0.261685
Si Si5 0.691339 0.724379 0.716063
Si Si6 0.385680 0.456569 0.706740
O O1 0.036794 0.270774 0.046856
O O2 0.244078 0.821183 0.702012
O O3 0.301644 0.956547 0.109681
O O4 0.885592 0.247588 0.126161
O O5 0.292095 0.529580 0.229648
O O6 0.446244 0.591914 0.281365
O O7 0.000000 0.000000 0.500000
O O8 0.553225 0.664225 0.205593
O O9 0.689436 0.722995 0.187687
O O10 0.067165 0.492661 0.280179
O O11 0.766258 0.686731 0.523262
O O12 0.589597 0.680607 0.576988
O O13 0.500000 0.000000 0.000000
#
# Coordination Sequence:
#
# PCOD9004838 Si02
#       6
#     2   2   2   2   2   2
#     4  10  21  39  57  86 118 147 187 231 278 339
#     4  12  21  38  61  83 117 150 188 233 280 334
#     4  10  21  38  59  86 115 152 184 230 284 329
#     4   9  19  36  56  83 113 145 187 229 277 331
#     4   9  17  34  60  79 107 151 185 227 281 329
#     4  10  23  39  57  84 115 151 188 233 282 331
#
# _framework density 26.080902999999999
#
# number of rings (size 3 to 8) (size 9 to 14) (size 15 to 20)
#    0.000    2.333    3.333    2.000    0.000    0.667 
#    3.000   13.333    0.000   18.000    0.000    0.000 
#    0.000    0.000    0.000    0.000    0.000    0.000 
#
# Total GULP energy -67172.656858 kJ/mol
# GULP energy per Si atom -5597.721405 kJ/mol
# Density = 2.602154 g / cm^3
# Si number density = 26.080903 Si / 1000 Ang^3
#
#
#
# Elastic Constant Matrix: (Units=GPa)
#
#
# Indices 1 2 3 4 5 6 
#
# 1 57.7233 32.7495 23.6940 -16.6998 0.6419 -21.2776
# 2 32.7495 193.4463 14.4442 -23.6844 -5.0418 -39.2479
# 3 23.6940 14.4442 137.8405 -3.5284 11.4601 -10.3925
# 4 -16.6998 -23.6844 -3.5284 48.1534 -7.8566 7.4134
# 5 0.6419 -5.0418 11.4601 -7.8566 34.7738 -5.5931
# 6 -21.2776 -39.2479 -10.3925 7.4134 -5.5931 51.4244
#
#
#
# Elastic Compliance Matrix: (Units=1/GPa)
#
#
# Indices 1 2 3 4 5 6 
#
# 1 0.024343 -0.001371 -0.003562 0.006865 0.003311 0.007677
# 2 -0.001371 0.006675 -0.000266 0.002499 0.002348 0.004369
# 3 -0.003562 -0.000266 0.008095 -0.001225 -0.002947 -0.000184
# 4 0.006865 0.002499 -0.001225 0.025114 0.006570 0.001594
# 5 0.003311 0.002348 -0.002947 0.006570 0.032318 0.005134
# 6 0.007677 0.004369 -0.000184 0.001594 0.005134 0.026248
#
#
# Mechanical properties :
#
#
# Convention : Reuss Voigt Hill
#
# Bulk Modulus (GPa) = 34.82382 58.97617 46.89999
# Shear Modulus (GPa) = 35.02398 48.07848 41.55123
#
# Velocity S-wave (km/s) = 3.66853 4.29818 3.99578
# Velocity P-wave (km/s) = 5.59691 6.87709 6.26976
#
# Compressibility (1/GPa) = 0.02871598
#
# Stress axis : x y z
#
# Youngs Moduli (GPa) = 41.07993 149.81873 123.53992
#
# Poissons Ratio (x) = 0.20538 0.43999
# Poissons Ratio (y) = 0.05631 0.03282
# Poissons Ratio (z) = 0.14631 0.03980
#
# Static dielectric constant tensor:
#      x y z
#    x 2.094140 0.057650 0.012390 
#    y 0.057650 2.062780 -0.018420 
#    z 0.012390 -0.018420 2.061790 
# 
# From -- ./inp_files/313487.got.cif
#   From: 2010.05.17/outbox.cif.g08.bks.cpg/sg2_157_cif.got.tgz:313487.got - 2010.06.03 11:33:40.
