data_PCOD9004701
_publ_section_title
;
Structure prediction by ZEFSAII (Michael W. Deem and Ramdas Pophale) SiO2 
 PCOD9004701
Probable space group: P -1
;
_chemical_formula_sum "Si O2"
_cell_formula_units_Z 16
_cell_length_a 5.423227
_cell_length_b 18.304261
_cell_length_c 7.180538
_cell_angle_alpha 101.192808
_cell_angle_beta 115.998877
_cell_angle_gamma 90.448946
_cell_volume 624.979539
_symmetry_space_group_name_H-M "P -1"
_symmetry_group_IT_number 2
_symmetry_cell_setting 'triclinic'
loop_
_space_group_symop_operation_xyz
x,y,z
-x,-y,-z
loop_
_atom_site_type_symbol
_atom_site_label
_atom_site_fract_x
_atom_site_fract_y
_atom_site_fract_z
Si Si1 0.005656 0.361868 0.112828
Si Si2 0.210342 0.150633 0.845032
Si Si3 0.738315 0.224825 0.155116
Si Si4 0.262691 0.992356 0.764051
Si Si5 0.124130 0.107586 0.215850
Si Si6 0.335626 0.834576 0.510442
Si Si7 0.233965 0.555693 0.212499
Si Si8 0.373253 0.557826 0.686750
O O1 0.961115 0.282436 0.159628
O O2 0.831588 0.410374 0.220263
O O3 0.329202 0.391176 0.211037
O O4 0.836169 0.367450 0.866291
O O5 0.915148 0.176880 0.718137
O O6 0.257985 0.074253 0.713520
O O7 0.447774 0.219263 0.951032
O O8 0.224099 0.120995 0.046656
O O9 0.707652 0.227280 0.369469
O O10 0.839003 0.143486 0.130932
O O11 0.316605 0.922086 0.616040
O O12 0.968739 0.971777 0.763124
O O13 0.500000 0.000000 0.000000
O O14 0.345200 0.159524 0.437626
O O15 0.231658 0.554413 0.434920
O O16 0.525818 0.521920 0.256040
O O17 0.000000 0.500000 0.000000
#
# Coordination Sequence:
#
# PCOD9004701 Si02
#       8
#     2   2   2   2   2   2   2   2
#     4  11  24  42  68  97 138 182 222 267 327 389
#     4  11  22  38  61  86 111 157 205 256 322 385
#     4  10  24  42  59  82 129 163 206 259 313 379
#     4  11  19  38  59  81 117 147 195 263 327 378
#     4  10  21  38  58  81 115 156 199 262 317 373
#     4  10  23  38  58  85 116 152 205 262 317 388
#     4   9  21  43  70 105 138 173 219 274 327 381
#     4  10  23  41  70 103 137 174 221 272 325 386
#
# _framework density 25.600840999999999
#
# number of rings (size 3 to 8) (size 9 to 14) (size 15 to 20)
#    0.000    1.750    3.750    1.125    3.500   10.000 
#    2.250    0.000    0.000    0.000    0.000    0.000 
#    0.000    0.000    0.000    0.000    0.000    0.000 
#
# Total GULP energy -89293.538790 kJ/mol
# GULP energy per Si atom -5580.846174 kJ/mol
# Density = 2.554257 g / cm^3
# Si number density = 25.600841 Si / 1000 Ang^3
#
#
#
# Elastic Constant Matrix: (Units=GPa)
#
#
# Indices 1 2 3 4 5 6 
#
# 1 84.5278 8.0029 33.9909 5.7676 18.1854 16.9061
# 2 8.0029 79.0036 19.4274 -16.5612 6.1547 24.3784
# 3 33.9909 19.4274 154.8599 -32.9226 26.7122 9.3650
# 4 5.7676 -16.5612 -32.9226 27.9685 1.9519 -1.4325
# 5 18.1854 6.1547 26.7122 1.9519 44.3745 9.4178
# 6 16.9061 24.3784 9.3650 -1.4325 9.4178 43.9725
#
#
#
# Elastic Compliance Matrix: (Units=1/GPa)
#
#
# Indices 1 2 3 4 5 6 
#
# 1 0.015804 -0.000878 -0.004719 -0.009409 -0.002161 -0.004428
# 2 -0.000878 0.017860 0.001293 0.011914 -0.001481 -0.009134
# 3 -0.004719 0.001293 0.011774 0.016048 -0.006130 0.000425
# 4 -0.009409 0.011914 0.016048 0.064212 -0.009812 -0.002212
# 5 -0.002161 -0.001481 -0.006130 -0.009812 0.028483 -0.003463
# 6 -0.004428 -0.009134 0.000425 -0.002212 -0.003463 0.030087
#
#
# Mechanical properties :
#
#
# Convention : Reuss Voigt Hill
#
# Bulk Modulus (GPa) = 27.15167 49.02597 38.08882
# Shear Modulus (GPa) = 26.44050 40.39443 33.41746
#
# Velocity S-wave (km/s) = 3.21720 3.97653 3.61685
# Velocity P-wave (km/s) = 4.94260 6.34629 5.68792
#
# Compressibility (1/GPa) = 0.03683015
#
# Stress axis : x y z
#
# Youngs Moduli (GPa) = 63.27704 55.99065 84.93090
#
# Poissons Ratio (x) = 0.04918 0.40075
# Poissons Ratio (y) = 0.05558 -0.10982
# Poissons Ratio (z) = 0.29857 -0.07240
#
# Static dielectric constant tensor:
#      x y z
#    x 2.116410 -0.001060 -0.027290 
#    y -0.001060 2.162930 0.059870 
#    z -0.027290 0.059870 2.066620 
# 
# From -- ./inp_files/141435.got.cif
#   From: 2010.05.17/outbox.cif.g08.bks.cpg/sg2_71_cif.got.tgz:141435.got - 2010.06.03 11:33:40.
