data_PCOD9004333
_publ_section_title
;
Structure prediction by ZEFSAII (Michael W. Deem and Ramdas Pophale) SiO2 
 PCOD9004333
Probable space group: P -1
;
_chemical_formula_sum "Si O2"
_cell_formula_units_Z 16
_cell_length_a 15.898649
_cell_length_b 9.455296
_cell_length_c 5.005278
_cell_angle_alpha 105.217497
_cell_angle_beta 63.514905
_cell_angle_gamma 90.761841
_cell_volume 645.137936
_symmetry_space_group_name_H-M "P -1"
_symmetry_group_IT_number 2
_symmetry_cell_setting 'triclinic'
loop_
_space_group_symop_operation_xyz
x,y,z
-x,-y,-z
loop_
_atom_site_type_symbol
_atom_site_label
_atom_site_fract_x
_atom_site_fract_y
_atom_site_fract_z
Si Si1 0.165301 0.273910 0.496532
Si Si2 0.544197 0.853139 0.198690
Si Si3 0.147803 0.520156 0.291635
Si Si4 0.657028 0.194753 0.704393
Si Si5 0.984283 0.701898 0.895369
Si Si6 0.911968 0.978755 0.805510
Si Si7 0.331478 0.142367 0.509421
Si Si8 0.234326 0.734800 0.889356
O O1 0.205572 0.404877 0.350022
O O2 0.162102 0.122232 0.269661
O O3 0.232325 0.234925 0.632646
O O4 0.054519 0.313309 0.757880
O O5 0.455207 0.779021 0.176984
O O6 0.613691 0.783606 0.297122
O O7 0.500000 0.000000 0.500000
O O8 0.605824 0.877486 0.861163
O O9 0.077817 0.410247 0.218330
O O10 0.195546 0.598993 0.025579
O O11 0.088372 0.644489 0.620249
O O12 0.694423 0.209875 0.959074
O O13 0.686256 0.025175 0.483614
O O14 0.708658 0.294957 0.479324
O O15 0.954017 0.871285 0.933408
O O16 0.852536 0.138705 0.990419
O O17 0.000000 0.000000 0.500000
#
# Coordination Sequence:
#
# PCOD9004333 Si02
#       8
#     2   2   2   2   2   2   2   2
#     4  11  24  38  66  90 129 174 222 265 316 392
#     4  10  21  37  65  98 134 164 203 268 337 389
#     4  10  24  41  61  89 126 179 222 264 315 381
#     4  11  22  39  64  96 133 160 212 266 329 386
#     4  10  22  43  62  86 127 174 231 262 315 380
#     4  11  23  39  59  94 132 164 211 272 326 367
#     4  11  21  38  66 100 130 167 211 267 327 390
#     4  12  24  40  65  97 133 171 215 268 326 381
#
# _framework density 24.800896000000002
#
# number of rings (size 3 to 8) (size 9 to 14) (size 15 to 20)
#    0.000    1.250    2.500    4.875    5.250    1.500 
#    0.000    0.000    0.000    4.500    0.000    0.000 
#    0.000    0.000    0.000    0.000    0.000    0.000 
#
# Total GULP energy -89522.530124 kJ/mol
# GULP energy per Si atom -5595.158133 kJ/mol
# Density = 2.474445 g / cm^3
# Si number density = 24.800896 Si / 1000 Ang^3
#
#
#
# Elastic Constant Matrix: (Units=GPa)
#
#
# Indices 1 2 3 4 5 6 
#
# 1 104.3142 41.7851 13.4470 -1.7212 2.8835 -0.1714
# 2 41.7851 122.8344 35.8818 -27.7604 1.1398 3.4040
# 3 13.4470 35.8818 138.8825 -25.5035 -5.2055 1.9478
# 4 -1.7212 -27.7604 -25.5035 41.4454 6.2261 7.5290
# 5 2.8835 1.1398 -5.2055 6.2261 39.3152 -3.5537
# 6 -0.1714 3.4040 1.9478 7.5290 -3.5537 29.9924
#
#
#
# Elastic Compliance Matrix: (Units=1/GPa)
#
#
# Indices 1 2 3 4 5 6 
#
# 1 0.011393 -0.004444 -0.000542 -0.003056 -0.000172 0.001351
# 2 -0.004444 0.011916 -0.001204 0.007957 -0.001756 -0.003505
# 3 -0.000542 -0.001204 0.008441 0.004594 0.000327 -0.001529
# 4 -0.003056 0.007957 0.004594 0.034989 -0.005907 -0.010702
# 5 -0.000172 -0.001756 0.000327 -0.005907 0.026916 0.004849
# 6 0.001351 -0.003505 -0.001529 -0.010702 0.004849 0.037108
#
#
# Mechanical properties :
#
#
# Convention : Reuss Voigt Hill
#
# Bulk Modulus (GPa) = 51.62326 60.91764 56.27045
# Shear Modulus (GPa) = 33.42278 40.47843 36.95061
#
# Velocity S-wave (km/s) = 3.67501 4.04435 3.86410
# Velocity P-wave (km/s) = 6.23441 6.81359 6.53043
#
# Compressibility (1/GPa) = 0.01937111
#
# Stress axis : x y z
#
# Youngs Moduli (GPa) = 87.77396 83.92064 118.46737
#
# Poissons Ratio (x) = 0.37294 0.06416
# Poissons Ratio (y) = 0.39006 0.14263
# Poissons Ratio (z) = 0.04754 0.10103
#
# Static dielectric constant tensor:
#      x y z
#    x 2.071430 -0.006090 0.011480 
#    y -0.006090 1.951410 -0.000930 
#    z 0.011480 -0.000930 2.003060 
# 
# From -- ./inp_files/106843.got.cif
#   From: 2010.05.17/outbox.cif.g08.bks.cpg/sg2_54_cif.got.tgz:106843.got - 2010.06.03 11:33:40.
