data_PCOD9004924
_publ_section_title
;
Structure prediction by ZEFSAII (Michael W. Deem and Ramdas Pophale) SiO2 
 PCOD9004924
Probable space group: P -1
;
_chemical_formula_sum "Si O2"
_cell_formula_units_Z 14
_cell_length_a 8.292405
_cell_length_b 8.656906
_cell_length_c 11.735352
_cell_angle_alpha 97.496770
_cell_angle_beta 96.296670
_cell_angle_gamma 128.219581
_cell_volume 636.297322
_symmetry_space_group_name_H-M "P -1"
_symmetry_group_IT_number 2
_symmetry_cell_setting 'triclinic'
loop_
_space_group_symop_operation_xyz
x,y,z
-x,-y,-z
loop_
_atom_site_type_symbol
_atom_site_label
_atom_site_fract_x
_atom_site_fract_y
_atom_site_fract_z
Si Si1 0.178407 0.983016 0.078556
Si Si2 0.934173 0.300354 0.415996
Si Si3 0.435196 0.303541 0.705478
Si Si4 0.553693 0.046538 0.725445
Si Si5 0.213618 0.003206 0.447712
Si Si6 0.203525 0.259454 0.284678
Si Si7 0.280630 0.275075 0.930986
O O1 0.340561 0.978993 0.163194
O O2 0.152382 0.133846 0.155369
O O3 0.272217 0.100832 0.977191
O O4 0.936881 0.771693 0.051776
O O5 0.692307 0.148317 0.337087
O O6 0.000000 0.500000 0.500000
O O7 0.071979 0.326441 0.323201
O O8 0.962257 0.192631 0.510918
O O9 0.344190 0.168745 0.572607
O O10 0.562009 0.532243 0.697402
O O11 0.280754 0.252246 0.792164
O O12 0.572188 0.243765 0.760762
O O13 0.670729 0.059801 0.621561
O O14 0.172159 0.109541 0.363188
O O15 0.500000 0.500000 0.000000
#
# Coordination Sequence:
#
# PCOD9004924 Si02
#       7
#     2   2   2   2   2   2   2
#     4  10  23  44  68  91 125 163 214 268 313 373
#     4  11  21  36  59  92 135 169 203 253 313 378
#     4  11  21  39  65  91 127 167 206 262 321 368
#     4  10  22  41  60  95 129 161 204 261 320 380
#     4  10  21  38  59  91 128 166 210 253 312 382
#     4  11  21  38  61  94 125 167 210 255 313 382
#     4  11  23  45  68  91 121 166 220 264 311 373
#
# _framework density 22.002293000000002
#
# number of rings (size 3 to 8) (size 9 to 14) (size 15 to 20)
#    0.000    1.429    1.429    6.000    0.000    2.857 
#    7.714    0.714    0.000    0.000    0.000    0.000 
#    0.000    0.000    0.000    0.000    0.000    0.000 
#
# Total GULP energy -78067.363803 kJ/mol
# GULP energy per Si atom -5576.240272 kJ/mol
# Density = 2.195221 g / cm^3
# Si number density = 22.002293 Si / 1000 Ang^3
#
#
#
# Elastic Constant Matrix: (Units=GPa)
#
#
# Indices 1 2 3 4 5 6 
#
# 1 54.9276 13.8246 -2.0400 -5.5869 1.3091 1.9694
# 2 13.8246 111.9608 13.3977 3.1895 8.2663 4.9842
# 3 -2.0400 13.3977 45.9856 -12.6034 7.8205 0.9820
# 4 -5.5869 3.1895 -12.6034 25.8502 6.6094 -5.4499
# 5 1.3091 8.2663 7.8205 6.6094 34.7036 -4.3772
# 6 1.9694 4.9842 0.9820 -5.4499 -4.3772 27.0815
#
#
#
# Elastic Compliance Matrix: (Units=1/GPa)
#
#
# Indices 1 2 3 4 5 6 
#
# 1 0.019912 -0.002992 0.004161 0.007315 -0.002364 0.000042
# 2 -0.002992 0.010073 -0.003989 -0.004121 -0.000914 -0.002469
# 3 0.004161 -0.003989 0.029724 0.018584 -0.009243 0.001600
# 4 0.007315 -0.004121 0.018584 0.054922 -0.012867 0.008526
# 5 -0.002364 -0.000914 -0.009243 -0.012867 0.034110 0.003599
# 6 0.000042 -0.002469 0.001600 0.008526 0.003599 0.039616
#
#
# Mechanical properties :
#
#
# Convention : Reuss Voigt Hill
#
# Bulk Modulus (GPa) = 18.49490 29.24873 23.87181
# Shear Modulus (GPa) = 23.58261 30.03982 26.81122
#
# Velocity S-wave (km/s) = 3.27743 3.69901 3.49458
# Velocity P-wave (km/s) = 4.76929 5.61836 5.21115
#
# Compressibility (1/GPa) = 0.05406896
#
# Stress axis : x y z
#
# Youngs Moduli (GPa) = 50.22020 99.27214 33.64314
#
# Poissons Ratio (x) = 0.29706 -0.13999
# Poissons Ratio (y) = 0.15028 0.13420
# Poissons Ratio (z) = -0.20897 0.39598
#
# Static dielectric constant tensor:
#      x y z
#    x 1.893880 0.013310 0.008250 
#    y 0.013310 1.850710 -0.017660 
#    z 0.008250 -0.017660 1.829750 
# 
# From -- ./inp_files/202757.got.cif
#   From: 2010.05.17/outbox.cif.g08.bks.cpg/sg2_102_cif.got.tgz:202757.got - 2010.06.03 11:33:40.
