data_PCOD9004273
_publ_section_title
;
Structure prediction by ZEFSAII (Michael W. Deem and Ramdas Pophale) SiO2 
 PCOD9004273
Probable space group: P -1
;
_chemical_formula_sum "Si O2"
_cell_formula_units_Z 16
_cell_length_a 20.000816
_cell_length_b 9.168381
_cell_length_c 6.142475
_cell_angle_alpha 68.033439
_cell_angle_beta 126.967383
_cell_angle_gamma 128.413682
_cell_volume 705.151574
_symmetry_space_group_name_H-M "P -1"
_symmetry_group_IT_number 2
_symmetry_cell_setting 'triclinic'
loop_
_space_group_symop_operation_xyz
x,y,z
-x,-y,-z
loop_
_atom_site_type_symbol
_atom_site_label
_atom_site_fract_x
_atom_site_fract_y
_atom_site_fract_z
Si Si1 0.441774 0.308668 0.661791
Si Si2 0.249136 0.417263 0.582887
Si Si3 0.395605 0.028601 0.108724
Si Si4 0.565799 0.358252 0.484551
Si Si5 0.270766 0.137965 0.080652
Si Si6 0.097392 0.449767 0.018173
Si Si7 0.872995 0.225284 0.782216
Si Si8 0.247094 0.670011 0.808838
O O1 0.403408 0.143900 0.846537
O O2 0.529362 0.320763 0.684191
O O3 0.476725 0.506989 0.724974
O O4 0.349596 0.263659 0.350690
O O5 0.326941 0.520950 0.481401
O O6 0.256154 0.256403 0.804111
O O7 0.270451 0.565643 0.730401
O O8 0.143321 0.357388 0.307785
O O9 0.320435 0.035362 0.124734
O O10 0.343469 0.815241 0.055689
O O11 0.503654 0.161971 0.348887
O O12 0.170917 0.977193 0.088086
O O13 0.160088 0.523140 0.879063
O O14 0.980500 0.312578 0.837358
O O15 0.115004 0.629767 0.086762
O O16 0.796251 0.221015 0.461144
#
# Coordination Sequence:
#
# PCOD9004273 Si02
#       8
#     2   2   2   2   2   2   2   2
#     4  10  21  37  65  92 123 169 219 257 301 370
#     4  11  26  39  60  99 135 164 202 266 325 361
#     4  11  21  39  65  93 122 172 220 248 302 387
#     4  10  23  37  61  93 130 168 212 257 309 371
#     4  11  22  39  67  96 125 164 213 263 307 378
#     4  10  23  43  66  91 131 166 206 266 317 374
#     4  10  21  43  70  94 117 170 222 251 309 388
#     4  11  23  42  66  94 129 166 210 261 319 371
#
# _framework density 22.690156000000002
#
# number of rings (size 3 to 8) (size 9 to 14) (size 15 to 20)
#    0.000    1.500    3.750    0.750    5.250    1.000 
#    0.000    1.875    0.000    0.000    0.000    0.000 
#    0.000    0.000    0.000    0.000    0.000    0.000 
#
# Total GULP energy -89444.271660 kJ/mol
# GULP energy per Si atom -5590.266979 kJ/mol
# Density = 2.263851 g / cm^3
# Si number density = 22.690156 Si / 1000 Ang^3
#
#
#
# Elastic Constant Matrix: (Units=GPa)
#
#
# Indices 1 2 3 4 5 6 
#
# 1 93.3068 25.4176 8.3437 10.3833 -5.4910 13.7585
# 2 25.4176 87.3928 15.9686 -6.3068 7.5910 23.7104
# 3 8.3437 15.9686 54.6896 -0.9769 3.8285 6.2439
# 4 10.3833 -6.3068 -0.9769 33.0123 4.6713 -5.0089
# 5 -5.4910 7.5910 3.8285 4.6713 37.8762 -2.5267
# 6 13.7585 23.7104 6.2439 -5.0089 -2.5267 36.0638
#
#
#
# Elastic Compliance Matrix: (Units=1/GPa)
#
#
# Indices 1 2 3 4 5 6 
#
# 1 0.013024 -0.003462 -0.000947 -0.005705 0.003174 -0.003099
# 2 -0.003462 0.015881 -0.002774 0.003375 -0.004386 -0.008479
# 3 -0.000947 -0.002774 0.019508 0.000393 -0.001685 -0.001256
# 4 -0.005705 0.003375 0.000393 0.034162 -0.005473 0.004251
# 5 0.003174 -0.004386 -0.001685 -0.005473 0.028801 0.003222
# 6 -0.003099 -0.008479 -0.001256 0.004251 0.003222 0.035519
#
#
# Mechanical properties :
#
#
# Convention : Reuss Voigt Hill
#
# Bulk Modulus (GPa) = 29.36943 37.20544 33.28744
# Shear Modulus (GPa) = 28.96746 33.76775 31.36760
#
# Velocity S-wave (km/s) = 3.57690 3.86192 3.72214
# Velocity P-wave (km/s) = 5.48003 6.02650 5.75975
#
# Compressibility (1/GPa) = 0.03404901
#
# Stress axis : x y z
#
# Youngs Moduli (GPa) = 76.78415 62.96801 51.26180
#
# Poissons Ratio (x) = 0.21797 0.04852
# Poissons Ratio (y) = 0.26579 0.14218
# Poissons Ratio (z) = 0.07268 0.17465
#
# Static dielectric constant tensor:
#      x y z
#    x 1.815580 -0.022280 0.021960 
#    y -0.022280 1.848860 0.003810 
#    z 0.021960 0.003810 1.879020 
# 
# From -- ./inp_files/116852.got.cif
#   From: 2010.05.17/outbox.cif.g08.bks.cpg/sg2_59_cif.got.tgz:116852.got - 2010.06.03 11:33:40.
