data_PCOD9004401
_publ_section_title
;
Structure prediction by ZEFSAII (Michael W. Deem and Ramdas Pophale) SiO2 
 PCOD9004401
Probable space group: P -1
;
_chemical_formula_sum "Si O2"
_cell_formula_units_Z 13
_cell_length_a 11.472718
_cell_length_b 7.049867
_cell_length_c 18.279034
_cell_angle_alpha 66.027774
_cell_angle_beta 30.608824
_cell_angle_gamma 86.781540
_cell_volume 533.661711
_symmetry_space_group_name_H-M "P -1"
_symmetry_group_IT_number 2
_symmetry_cell_setting 'triclinic'
loop_
_space_group_symop_operation_xyz
x,y,z
-x,-y,-z
loop_
_atom_site_type_symbol
_atom_site_label
_atom_site_fract_x
_atom_site_fract_y
_atom_site_fract_z
Si Si1 0.104763 0.037068 0.608493
Si Si2 0.251084 0.783627 0.225541
Si Si3 0.262137 0.054539 0.684506
Si Si4 0.726157 0.994359 0.041227
Si Si5 0.923245 0.451297 0.320100
Si Si6 0.742280 0.408840 0.207529
Si Si7 0.000000 0.000000 0.000000
O O1 0.168671 0.108859 0.650311
O O2 0.994100 0.740200 0.708974
O O3 0.424096 0.234546 0.368972
O O4 0.888262 0.086274 0.688091
O O5 0.005576 0.536403 0.347043
O O6 0.500000 0.000000 0.000000
O O7 0.436655 0.768761 0.188671
O O8 0.264377 0.808204 0.707689
O O9 0.583185 0.294123 0.504555
O O10 0.996637 0.971348 0.897822
O O11 0.870125 0.278363 0.882676
O O12 0.199096 0.336571 0.829232
O O13 0.696150 0.968309 0.147485
O O14 0.000000 0.500000 0.000000
#
# Coordination Sequence:
#
# PCOD9004401 Si02
#       7
#     2   2   2   2   2   2   1
#     4  11  22  39  67  96 127 164 210 265 314 370
#     4  10  22  39  59  97 133 159 206 263 316 375
#     4  11  20  40  66  96 126 157 219 266 304 370
#     4  11  22  39  64  93 127 169 205 261 312 380
#     4  10  21  37  66  95 124 164 206 263 320 358
#     4  11  24  40  62  95 125 163 214 262 305 376
#     4  12  24  42  66  84 128 176 210 254 326 364
#
# _framework density 24.360002999999999
#
# number of rings (size 3 to 8) (size 9 to 14) (size 15 to 20)
#    0.000    1.231    4.615    4.154    2.154    2.462 
#    2.769    0.769    0.000    2.769    0.000    0.000 
#    0.000    0.000    0.000    0.000    0.000    0.000 
#
# Total GULP energy -72461.838430 kJ/mol
# GULP energy per Si atom -5573.987572 kJ/mol
# Density = 2.430456 g / cm^3
# Si number density = 24.360003 Si / 1000 Ang^3
#
#
#
# Elastic Constant Matrix: (Units=GPa)
#
#
# Indices 1 2 3 4 5 6 
#
# 1 139.5951 30.7348 35.5573 -17.3129 -37.5144 -3.1895
# 2 30.7348 142.8952 37.7344 -15.2782 -15.5444 -16.8081
# 3 35.5573 37.7344 93.8508 4.3968 -8.7811 -10.9411
# 4 -17.3129 -15.2782 4.3968 45.2214 0.5364 -2.8117
# 5 -37.5144 -15.5444 -8.7811 0.5364 43.2616 2.5209
# 6 -3.1895 -16.8081 -10.9411 -2.8117 2.5209 15.2162
#
#
#
# Elastic Compliance Matrix: (Units=1/GPa)
#
#
# Indices 1 2 3 4 5 6 
#
# 1 0.010978 -0.000114 -0.003624 0.004346 0.008752 -0.001078
# 2 -0.000114 0.009430 -0.002700 0.003927 0.002178 0.008815
# 3 -0.003624 -0.002700 0.013797 -0.003259 -0.001612 0.005843
# 4 0.004346 0.003927 -0.003259 0.025814 0.003787 0.007048
# 5 0.008752 0.002178 -0.001612 0.003787 0.031194 -0.001386
# 6 -0.001078 0.008815 0.005843 0.007048 -0.001386 0.080964
#
#
# Mechanical properties :
#
#
# Convention : Reuss Voigt Hill
#
# Bulk Modulus (GPa) = 46.88781 64.93268 55.91024
# Shear Modulus (GPa) = 26.01963 38.89416 32.45690
#
# Velocity S-wave (km/s) = 3.27177 4.00013 3.65414
# Velocity P-wave (km/s) = 5.79330 6.93167 6.38789
#
# Compressibility (1/GPa) = 0.02132751
#
# Stress axis : x y z
#
# Youngs Moduli (GPa) = 91.09037 106.04945 72.48025
#
# Poissons Ratio (x) = 0.01213 0.26264
# Poissons Ratio (y) = 0.01042 0.19573
# Poissons Ratio (z) = 0.33008 0.28638
#
# Static dielectric constant tensor:
#      x y z
#    x 2.612290 0.430880 0.268450 
#    y 0.430880 2.221590 0.152210 
#    z 0.268450 0.152210 2.116090 
# 
# From -- ./inp_files/176820.got.cif
#   From: 2010.05.17/outbox.cif.g08.bks.cpg/sg2_89_cif.got.tgz:176820.got - 2010.06.03 11:33:40.
