data_PCOD9004224
_publ_section_title
;
Structure prediction by ZEFSAII (Michael W. Deem and Ramdas Pophale) SiO2 
 PCOD9004224
Probable space group: P -1
;
_chemical_formula_sum "Si O2"
_cell_formula_units_Z 16
_cell_length_a 7.519305
_cell_length_b 12.294486
_cell_length_c 11.730521
_cell_angle_alpha 114.105934
_cell_angle_beta 76.148618
_cell_angle_gamma 138.964417
_cell_volume 645.594548
_symmetry_space_group_name_H-M "P -1"
_symmetry_group_IT_number 2
_symmetry_cell_setting 'triclinic'
loop_
_space_group_symop_operation_xyz
x,y,z
-x,-y,-z
loop_
_atom_site_type_symbol
_atom_site_label
_atom_site_fract_x
_atom_site_fract_y
_atom_site_fract_z
Si Si1 0.016383 0.829336 0.498753
Si Si2 0.950585 0.918657 0.094596
Si Si3 0.189998 0.412007 0.351845
Si Si4 0.736174 0.527776 0.262753
Si Si5 0.900959 0.263758 0.096170
Si Si6 0.552790 0.803972 0.499540
Si Si7 0.522882 0.818363 0.754306
Si Si8 0.372636 0.569397 0.024474
O O1 0.933915 0.707855 0.567037
O O2 0.990623 0.728916 0.349745
O O3 0.781871 0.816129 0.506836
O O4 0.301124 0.038395 0.545245
O O5 0.035223 0.821140 0.024549
O O6 0.629410 0.775744 0.105137
O O7 0.169424 0.072267 0.215854
O O8 0.000000 0.000000 0.000000
O O9 0.471086 0.481207 0.306209
O O10 0.286882 0.597209 0.422911
O O11 0.000075 0.293984 0.222952
O O12 0.682013 0.391351 0.295592
O O13 0.709689 0.472883 0.113220
O O14 0.593483 0.156526 0.115193
O O15 0.106783 0.459492 0.094081
O O16 0.506769 0.855863 0.644853
O O17 0.500000 0.500000 0.000000
#
# Coordination Sequence:
#
# PCOD9004224 Si02
#       8
#     2   2   2   2   2   2   2   2
#     4  10  21  37  65 100 123 167 234 267 316 378
#     4  11  22  42  65  91 122 170 223 263 310 383
#     4  11  19  43  65  90 131 166 232 258 326 383
#     4  11  19  40  65  90 129 175 214 273 316 391
#     4  11  26  41  62  97 133 176 200 276 333 391
#     4  10  22  36  65 100 123 173 214 282 314 388
#     4  12  23  41  63  96 138 165 214 266 348 378
#     4  10  21  39  63  92 120 172 222 255 314 383
#
# _framework density 24.783359000000001
#
# number of rings (size 3 to 8) (size 9 to 14) (size 15 to 20)
#    0.000    1.250    6.250    1.125    3.500    2.000 
#    0.000    0.625    0.000    0.000    0.000    0.000 
#    0.000    0.000    0.000    0.000    0.000    0.000 
#
# Total GULP energy -89388.272044 kJ/mol
# GULP energy per Si atom -5586.767003 kJ/mol
# Density = 2.472695 g / cm^3
# Si number density = 24.783359 Si / 1000 Ang^3
#
#
#
# Elastic Constant Matrix: (Units=GPa)
#
#
# Indices 1 2 3 4 5 6 
#
# 1 39.2536 26.5301 5.9303 -1.2846 2.3542 2.6620
# 2 26.5301 143.5488 30.1292 -5.0547 3.4949 -4.2381
# 3 5.9303 30.1292 69.4673 -3.3296 4.5954 4.4820
# 4 -1.2846 -5.0547 -3.3296 34.4341 -3.1999 -5.6793
# 5 2.3542 3.4949 4.5954 -3.1999 27.9906 -4.9476
# 6 2.6620 -4.2381 4.4820 -5.6793 -4.9476 21.2998
#
#
#
# Elastic Compliance Matrix: (Units=1/GPa)
#
#
# Indices 1 2 3 4 5 6 
#
# 1 0.029842 -0.005752 0.000485 -0.000944 -0.003028 -0.005931
# 2 -0.005752 0.008933 -0.003614 0.001454 0.000805 0.003831
# 3 0.000485 -0.003614 0.016452 -0.000040 -0.003177 -0.004990
# 4 -0.000944 0.001454 -0.000040 0.031352 0.005255 0.009996
# 5 -0.003028 0.000805 -0.003177 0.005255 0.039068 0.011683
# 6 -0.005931 0.003831 -0.004990 0.009996 0.011683 0.054882
#
#
# Mechanical properties :
#
#
# Convention : Reuss Voigt Hill
#
# Bulk Modulus (GPa) = 26.69187 41.93877 34.31532
# Shear Modulus (GPa) = 23.72159 29.39024 26.55591
#
# Velocity S-wave (km/s) = 3.09715 3.44741 3.27696
# Velocity P-wave (km/s) = 4.85626 5.72757 5.30982
#
# Compressibility (1/GPa) = 0.03746459
#
# Stress axis : x y z
#
# Youngs Moduli (GPa) = 33.50935 111.95061 60.78468
#
# Poissons Ratio (x) = 0.64391 -0.02946
# Poissons Ratio (y) = 0.19274 0.21967
# Poissons Ratio (z) = -0.01624 0.40458
#
# Static dielectric constant tensor:
#      x y z
#    x 1.574920 -0.540380 -0.416850 
#    y -0.540380 1.389570 -0.379790 
#    z -0.416850 -0.379790 1.710140 
# 
# From -- ./inp_files/218056.got.cif
#   From: 2010.05.17/outbox.cif.g08.bks.cpg/sg2_110_cif.got.tgz:218056.got - 2010.06.03 11:33:40.
