data_PCOD9004122
_publ_section_title
;
Structure prediction by ZEFSAII (Michael W. Deem and Ramdas Pophale) SiO2 
 PCOD9004122
Probable space group: P -1
;
_chemical_formula_sum "Si O2"
_cell_formula_units_Z 14
_cell_length_a 8.299401
_cell_length_b 12.075613
_cell_length_c 19.550888
_cell_angle_alpha 34.722156
_cell_angle_beta 142.716049
_cell_angle_gamma 143.201795
_cell_volume 611.841632
_symmetry_space_group_name_H-M "P -1"
_symmetry_group_IT_number 2
_symmetry_cell_setting 'triclinic'
loop_
_space_group_symop_operation_xyz
x,y,z
-x,-y,-z
loop_
_atom_site_type_symbol
_atom_site_label
_atom_site_fract_x
_atom_site_fract_y
_atom_site_fract_z
Si Si1 0.009442 0.044041 0.207391
Si Si2 0.112121 0.801429 0.711864
Si Si3 0.789895 0.635667 0.269905
Si Si4 0.416734 0.190250 0.395868
Si Si5 0.135164 0.598550 0.068445
Si Si6 0.964508 0.573872 0.645295
Si Si7 0.368265 0.213224 0.664553
O O1 0.961431 0.411983 0.159273
O O2 0.041583 0.852716 0.274498
O O3 0.755128 0.905221 0.246088
O O4 0.921793 0.189340 0.053344
O O5 0.821365 0.842831 0.608949
O O6 0.154132 0.749226 0.675262
O O7 0.365050 0.023092 0.711242
O O8 0.690154 0.413371 0.391383
O O9 0.483152 0.659928 0.152722
O O10 0.884662 0.564383 0.267703
O O11 0.260519 0.196998 0.266809
O O12 0.500000 0.000000 0.500000
O O13 0.000000 0.500000 0.000000
O O14 0.682205 0.409587 0.674785
O O15 0.842528 0.685584 0.490215
#
# Coordination Sequence:
#
# PCOD9004122 Si02
#       7
#     2   2   2   2   2   2   2
#     4  11  22  41  66  89 117 160 210 252 301 349
#     4  10  21  40  64  84 122 161 195 248 305 356
#     4  11  23  37  62  92 122 156 205 257 295 360
#     4  10  21  37  64  92 117 157 210 255 291 351
#     4  11  20  44  68  86 113 160 213 258 302 346
#     4  11  24  38  56  94 127 160 193 237 311 374
#     4  10  21  39  62  83 125 164 193 238 303 365
#
# _framework density 22.881736
#
# number of rings (size 3 to 8) (size 9 to 14) (size 15 to 20)
#    0.000    1.429    4.286    4.286    0.000    5.714 
#    0.000    3.571    0.000    0.000    0.000    0.000 
#    0.000    0.000    0.000    0.000    0.000    0.000 
#
# Total GULP energy -78145.808389 kJ/mol
# GULP energy per Si atom -5581.843456 kJ/mol
# Density = 2.282966 g / cm^3
# Si number density = 22.881736 Si / 1000 Ang^3
#
#
#
# Elastic Constant Matrix: (Units=GPa)
#
#
# Indices 1 2 3 4 5 6 
#
# 1 28.8397 12.2027 -4.1101 -8.5161 8.2887 -15.5709
# 2 12.2027 97.3718 16.2360 -21.6686 4.2595 -24.3432
# 3 -4.1101 16.2360 114.9738 -25.4722 -3.8225 0.9580
# 4 -8.5161 -21.6686 -25.4722 37.4034 -4.5004 1.3952
# 5 8.2887 4.2595 -3.8225 -4.5004 24.3184 -17.7207
# 6 -15.5709 -24.3432 0.9580 1.3952 -17.7207 41.0568
#
#
#
# Elastic Compliance Matrix: (Units=1/GPa)
#
#
# Indices 1 2 3 4 5 6 
#
# 1 0.049171 0.000851 0.004612 0.014130 -0.000059 0.018540
# 2 0.000851 0.014952 0.000169 0.009450 0.007768 0.012216
# 3 0.004612 0.000169 0.010929 0.008955 0.003959 0.002999
# 4 0.014130 0.009450 0.008955 0.042640 0.014015 0.015353
# 5 -0.000059 0.007768 0.003959 0.014015 0.066992 0.032930
# 6 0.018540 0.012216 0.002999 0.015353 0.032930 0.052252
#
#
# Mechanical properties :
#
#
# Convention : Reuss Voigt Hill
#
# Bulk Modulus (GPa) = 11.58541 32.20472 21.89507
# Shear Modulus (GPa) = 19.65065 35.01284 27.33175
#
# Velocity S-wave (km/s) = 2.93369 3.91598 3.45987
# Velocity P-wave (km/s) = 4.06812 5.87805 5.05475
#
# Compressibility (1/GPa) = 0.08631543
#
# Stress axis : x y z
#
# Youngs Moduli (GPa) = 20.33731 66.87976 91.49725
#
# Poissons Ratio (x) = -0.05691 -0.42195
# Poissons Ratio (y) = -0.01731 -0.01547
# Poissons Ratio (z) = -0.09379 -0.01131
#
# Static dielectric constant tensor:
#      x y z
#    x 1.859380 0.010360 0.000440 
#    y 0.010360 1.898680 -0.003900 
#    z 0.000440 -0.003900 1.933960 
# 
# From -- ./inp_files/607220.got.cif
#   From: 2010.05.17/outbox.cif.g08.bks.cpg/sg2_304_cif.got.tgz:607220.got - 2010.06.03 11:33:40.
