data_PCOD9004787
_publ_section_title
;
Structure prediction by ZEFSAII (Michael W. Deem and Ramdas Pophale) SiO2 
 PCOD9004787
Probable space group: P -1
;
_chemical_formula_sum "Si O2"
_cell_formula_units_Z 16
_cell_length_a 5.152963
_cell_length_b 11.298256
_cell_length_c 12.184338
_cell_angle_alpha 92.128359
_cell_angle_beta 78.439398
_cell_angle_gamma 99.433891
_cell_volume 685.569269
_symmetry_space_group_name_H-M "P -1"
_symmetry_group_IT_number 2
_symmetry_cell_setting 'triclinic'
loop_
_space_group_symop_operation_xyz
x,y,z
-x,-y,-z
loop_
_atom_site_type_symbol
_atom_site_label
_atom_site_fract_x
_atom_site_fract_y
_atom_site_fract_z
Si Si1 0.110178 0.246854 0.547169
Si Si2 0.697777 0.656254 0.689271
Si Si3 0.479585 0.330574 0.069954
Si Si4 0.688730 0.960712 0.148897
Si Si5 0.806514 0.573843 0.082665
Si Si6 0.860522 0.515037 0.316965
Si Si7 0.817423 0.148380 0.962482
Si Si8 0.524468 0.093946 0.600548
O O1 0.183378 0.253146 0.412767
O O2 0.109675 0.384157 0.588956
O O3 0.339040 0.193286 0.591099
O O4 0.826868 0.163463 0.589113
O O5 0.635798 0.725839 0.808167
O O6 0.425418 0.573486 0.665067
O O7 0.915318 0.570105 0.695081
O O8 0.541779 0.469947 0.105314
O O9 0.279382 0.325742 0.985070
O O10 0.734703 0.276345 0.003675
O O11 0.434857 0.907391 0.093584
O O12 0.584102 0.971028 0.280360
O O13 0.920537 0.877438 0.124119
O O14 0.814718 0.080418 0.077160
O O15 0.889732 0.589540 0.202057
O O16 0.000000 0.500000 0.000000
O O17 0.500000 0.000000 0.500000
#
# Coordination Sequence:
#
# PCOD9004787 Si02
#       8
#     2   2   2   2   2   2   2   2
#     4  12  26  45  73 100 130 190 229 277 357 394
#     4  11  23  43  67 104 141 179 231 278 331 412
#     4  10  23  38  64  98 139 181 219 271 341 413
#     4  10  24  47  67 102 132 167 232 288 343 400
#     4  10  21  38  58  99 142 174 221 270 339 404
#     4  11  23  42  68  99 142 180 224 287 328 418
#     4  10  23  43  73  98 131 178 221 283 344 409
#     4  12  28  49  70 101 136 177 233 295 340 408
#
# _framework density 23.338266000000001
#
# number of rings (size 3 to 8) (size 9 to 14) (size 15 to 20)
#    0.000    1.250    1.250    3.375    5.250    1.000 
#    4.500    0.000    0.000    0.000    0.000    0.000 
#    0.000    0.000    0.000    0.000    0.000    0.000 
#
# Total GULP energy -89462.585771 kJ/mol
# GULP energy per Si atom -5591.411611 kJ/mol
# Density = 2.328515 g / cm^3
# Si number density = 23.338266 Si / 1000 Ang^3
#
#
#
# Elastic Constant Matrix: (Units=GPa)
#
#
# Indices 1 2 3 4 5 6 
#
# 1 127.4795 4.2470 11.4687 4.8103 -14.2771 -13.3317
# 2 4.2470 41.4760 3.7878 11.2992 -2.4993 -2.3350
# 3 11.4687 3.7878 144.2043 -19.2928 -17.8262 1.2171
# 4 4.8103 11.2992 -19.2928 24.5867 -2.0844 -2.4699
# 5 -14.2771 -2.4993 -17.8262 -2.0844 29.9417 -3.8114
# 6 -13.3317 -2.3350 1.2171 -2.4699 -3.8114 29.7594
#
#
#
# Elastic Compliance Matrix: (Units=1/GPa)
#
#
# Indices 1 2 3 4 5 6 
#
# 1 0.008895 -0.000041 -0.000339 -0.001154 0.004526 0.004479
# 2 -0.000041 0.028573 -0.002828 -0.015259 -0.000248 0.001041
# 3 -0.000339 -0.002828 0.008917 0.008913 0.005624 0.000721
# 4 -0.001154 -0.015259 0.008913 0.055926 0.007829 0.003566
# 5 0.004526 -0.000248 0.005624 0.007829 0.040396 0.007602
# 6 0.004479 0.001041 0.000721 0.003566 0.007602 0.036931
#
#
# Mechanical properties :
#
#
# Convention : Reuss Voigt Hill
#
# Bulk Modulus (GPa) = 25.01863 39.12966 32.07414
# Shear Modulus (GPa) = 25.07790 36.43466 30.75628
#
# Velocity S-wave (km/s) = 3.28157 3.95543 3.63416
# Velocity P-wave (km/s) = 5.01015 6.13704 5.60200
#
# Compressibility (1/GPa) = 0.03997021
#
# Stress axis : x y z
#
# Youngs Moduli (GPa) = 112.42067 34.99762 112.14103
#
# Poissons Ratio (x) = 0.00142 0.03802
# Poissons Ratio (y) = 0.00456 0.31716
# Poissons Ratio (z) = 0.03812 0.09898
#
# Static dielectric constant tensor:
#      x y z
#    x 1.905340 0.088480 -0.015630 
#    y 0.088480 1.945020 -0.059110 
#    z -0.015630 -0.059110 1.896620 
# 
# From -- ./inp_files/363050.got.cif
#   From: 2010.05.17/outbox.cif.g08.bks.cpg/sg2_182_cif.got.tgz:363050.got - 2010.06.03 11:33:40.
