data_PCOD9004056
_publ_section_title
;
Structure prediction by ZEFSAII (Michael W. Deem and Ramdas Pophale) SiO2 
 PCOD9004056
Probable space group: P -1
;
_chemical_formula_sum "Si O2"
_cell_formula_units_Z 15
_cell_length_a 8.098203
_cell_length_b 12.025883
_cell_length_c 8.194003
_cell_angle_alpha 115.795444
_cell_angle_beta 90.931455
_cell_angle_gamma 58.528265
_cell_volume 589.219220
_symmetry_space_group_name_H-M "P -1"
_symmetry_group_IT_number 2
_symmetry_cell_setting 'triclinic'
loop_
_space_group_symop_operation_xyz
x,y,z
-x,-y,-z
loop_
_atom_site_type_symbol
_atom_site_label
_atom_site_fract_x
_atom_site_fract_y
_atom_site_fract_z
Si Si1 0.950596 0.752711 0.865453
Si Si2 0.603521 0.990164 0.669393
Si Si3 0.336870 0.315533 0.992858
Si Si4 0.547389 0.620989 0.623118
Si Si5 0.000000 0.500000 0.500000
Si Si6 0.304349 0.957781 0.811532
Si Si7 0.037246 0.127072 0.604031
Si Si8 0.736813 0.413514 0.974084
O O1 0.162403 0.678674 0.916764
O O2 0.817375 0.718526 0.959593
O O3 0.825713 0.934144 0.970542
O O4 0.972987 0.656036 0.650026
O O5 0.523559 0.161039 0.822736
O O6 0.515598 0.938340 0.774587
O O7 0.834326 0.885759 0.556266
O O8 0.500000 0.000000 0.500000
O O9 0.402628 0.372739 0.181938
O O10 0.233093 0.451554 0.950546
O O11 0.500000 0.500000 0.500000
O O12 0.750267 0.587831 0.521811
O O13 0.147823 0.706743 0.246635
O O14 0.356914 0.792149 0.695043
O O15 0.173492 0.063477 0.727401
O O16 0.000000 0.000000 0.500000
O O17 0.500000 0.500000 0.000000
#
# Coordination Sequence:
#
# PCOD9004056 Si02
#       8
#     2   2   2   2   1   2   2   2
#     4   9  21  42  66  97 130 173 227 272 341 407
#     4   9  19  38  65  93 127 166 215 269 336 401
#     4  10  22  40  63  97 129 173 222 278 342 398
#     4  11  26  45  68  96 140 182 233 284 340 413
#     4  10  24  42  68 100 132 178 230 276 338 412
#     4   9  21  43  66  91 135 174 218 281 336 403
#     4  10  21  37  63  99 128 169 220 268 336 405
#     4  11  23  37  64  94 138 170 213 284 337 396
#
# _framework density 25.457417
#
# number of rings (size 3 to 8) (size 9 to 14) (size 15 to 20)
#    0.000    2.133    0.000    2.000    3.733    9.067 
#    0.000    0.667    0.000    0.000    0.000    0.000 
#    0.000    0.000    0.000    0.000    0.000    0.000 
#
# Total GULP energy -83587.443937 kJ/mol
# GULP energy per Si atom -5572.496262 kJ/mol
# Density = 2.539947 g / cm^3
# Si number density = 25.457417 Si / 1000 Ang^3
#
#
#
# Elastic Constant Matrix: (Units=GPa)
#
#
# Indices 1 2 3 4 5 6 
#
# 1 86.5346 41.3209 24.3617 16.7794 17.2017 -20.8351
# 2 41.3209 167.5326 58.9093 56.5814 -3.9475 -7.3811
# 3 24.3617 58.9093 116.0434 41.4500 22.7155 -2.9971
# 4 16.7794 56.5814 41.4500 57.1903 2.3750 0.6890
# 5 17.2017 -3.9475 22.7155 2.3750 41.3155 9.2629
# 6 -20.8351 -7.3811 -2.9971 0.6890 9.2629 38.7857
#
#
#
# Elastic Compliance Matrix: (Units=1/GPa)
#
#
# Indices 1 2 3 4 5 6 
#
# 1 0.018827 -0.004198 0.001565 -0.002165 -0.011727 0.012275
# 2 -0.004198 0.010538 -0.002913 -0.007277 0.005127 -0.001570
# 3 0.001565 -0.002913 0.014425 -0.007692 -0.009259 0.003749
# 4 -0.002165 -0.007277 -0.007692 0.030797 0.003690 -0.004571
# 5 -0.011727 0.005127 -0.009259 0.003690 0.037850 -0.015145
# 6 0.012275 -0.001570 0.003749 -0.004571 -0.015145 0.036066
#
#
# Mechanical properties :
#
#
# Convention : Reuss Voigt Hill
#
# Bulk Modulus (GPa) = 30.58411 68.81050 49.69731
# Shear Modulus (GPa) = 29.32664 43.82621 36.57643
#
# Velocity S-wave (km/s) = 3.39778 4.15366 3.79459
# Velocity P-wave (km/s) = 5.23766 7.07758 6.22596
#
# Compressibility (1/GPa) = 0.03269672
#
# Stress axis : x y z
#
# Youngs Moduli (GPa) = 53.11647 94.89518 69.32555
#
# Poissons Ratio (x) = 0.39836 -0.10848
# Poissons Ratio (y) = 0.22298 0.20196
# Poissons Ratio (z) = -0.08312 0.27645
#
# Static dielectric constant tensor:
#      x y z
#    x 2.078210 -0.059090 -0.017860 
#    y -0.059090 2.101000 -0.084670 
#    z -0.017860 -0.084670 2.109550 
# 
# From -- ./inp_files/193336.got.cif
#   From: 2010.05.17/outbox.cif.g08.bks.cpg/sg2_97_cif.got.tgz:193336.got - 2010.06.03 11:33:40.
