data_PCOD9004979
_publ_section_title
;
Structure prediction by ZEFSAII (Michael W. Deem and Ramdas Pophale) SiO2 
 PCOD9004979
Probable space group: P -1
;
_chemical_formula_sum "Si O2"
_cell_formula_units_Z 12
_cell_length_a 5.014915
_cell_length_b 12.203628
_cell_length_c 11.511749
_cell_angle_alpha 52.223482
_cell_angle_beta 107.286353
_cell_angle_gamma 114.566318
_cell_volume 505.566659
_symmetry_space_group_name_H-M "P -1"
_symmetry_group_IT_number 2
_symmetry_cell_setting 'triclinic'
loop_
_space_group_symop_operation_xyz
x,y,z
-x,-y,-z
loop_
_atom_site_type_symbol
_atom_site_label
_atom_site_fract_x
_atom_site_fract_y
_atom_site_fract_z
Si Si1 0.055425 0.230525 0.783730
Si Si2 0.255482 0.027755 0.237134
Si Si3 0.953485 0.140490 0.464093
Si Si4 0.742106 0.350113 0.844831
Si Si5 0.200658 0.397490 0.474118
Si Si6 0.122155 0.784333 0.841978
O O1 0.389613 0.300388 0.823550
O O2 0.007282 0.332088 0.604591
O O3 0.844292 0.233217 0.859979
O O4 0.975773 0.073100 0.816620
O O5 0.569770 0.089030 0.179378
O O6 0.139843 0.157246 0.185642
O O7 0.273180 0.929702 0.416099
O O8 0.881881 0.228398 0.289524
O O9 0.213937 0.255862 0.494708
O O10 0.000000 0.000000 0.500000
O O11 0.886794 0.499907 0.696698
O O12 0.855521 0.348071 0.990931
O O13 0.500000 0.500000 0.500000
#
# Coordination Sequence:
#
# PCOD9004979 Si02
#       6
#     2   2   2   2   2   2
#     4  10  21  38  60  85 118 161 204 245 291 350
#     4  10  21  38  60  85 118 161 204 245 291 350
#     4   9  20  40  64  89 119 158 203 246 293 353
#     4  11  22  36  57  88 122 155 195 246 301 354
#     4   9  20  40  64  89 119 158 203 246 293 353
#     4  11  22  36  57  88 122 155 195 246 301 354
#
# _framework density 23.735744
#
# number of rings (size 3 to 8) (size 9 to 14) (size 15 to 20)
#    0.000    2.000    0.000    3.000    0.000    6.000 
#    0.000   13.333    0.000   10.000    0.000    0.000 
#    0.000    0.000    0.000    0.000    0.000    0.000 
#
# Total GULP energy -66974.866161 kJ/mol
# GULP energy per Si atom -5581.238847 kJ/mol
# Density = 2.368172 g / cm^3
# Si number density = 23.735744 Si / 1000 Ang^3
#
#
#
# Elastic Constant Matrix: (Units=GPa)
#
#
# Indices 1 2 3 4 5 6 
#
# 1 75.3983 7.1819 9.5072 2.8094 -1.4574 -3.7157
# 2 7.1819 102.2699 24.0292 3.2450 3.3313 -0.7606
# 3 9.5072 24.0292 165.1202 35.2864 -2.2649 -4.4137
# 4 2.8094 3.2450 35.2864 14.2731 0.8003 0.9341
# 5 -1.4574 3.3313 -2.2649 0.8003 22.2904 3.3659
# 6 -3.7157 -0.7606 -4.4137 0.9341 3.3659 18.4373
#
#
#
# Elastic Compliance Matrix: (Units=1/GPa)
#
#
# Indices 1 2 3 4 5 6 
#
# 1 0.013594 -0.000873 0.000005 -0.002707 0.000707 0.002713
# 2 -0.000873 0.010312 -0.002204 0.003391 -0.001929 -0.000098
# 3 0.000005 -0.002204 0.013807 -0.034057 0.002272 0.004526
# 4 -0.002707 0.003391 -0.034057 0.155425 -0.007449 -0.015073
# 5 0.000707 -0.001929 0.002272 -0.007449 0.046838 -0.007567
# 6 0.002713 -0.000098 0.004526 -0.015073 -0.007567 0.058009
#
#
# Mechanical properties :
#
#
# Convention : Reuss Voigt Hill
#
# Bulk Modulus (GPa) = 31.67728 47.13611 39.40670
# Shear Modulus (GPa) = 15.89064 31.13816 23.51440
#
# Velocity S-wave (km/s) = 2.59024 3.62590 3.15091
# Velocity P-wave (km/s) = 4.72447 6.11812 5.46589
#
# Compressibility (1/GPa) = 0.03156837
#
# Stress axis : x y z
#
# Youngs Moduli (GPa) = 73.56392 96.97692 72.42765
#
# Poissons Ratio (x) = 0.08464 -0.00036
# Poissons Ratio (y) = 0.06420 0.15964
# Poissons Ratio (z) = -0.00036 0.21375
#
# Static dielectric constant tensor:
#      x y z
#    x 1.840830 0.005080 0.042300 
#    y 0.005080 1.908500 -0.014230 
#    z 0.042300 -0.014230 2.021460 
# 
# From -- ./inp_files/62376.got.cif
#   From: 2010.05.17/outbox.cif.g08.bks.cpg/sg2_32_cif.got.tgz:62376.got - 2010.06.03 11:33:40.
