data_PCOD9004330
_publ_section_title
;
Structure prediction by ZEFSAII (Michael W. Deem and Ramdas Pophale) SiO2 
 PCOD9004330
Probable space group: P -1
;
_chemical_formula_sum "Si O2"
_cell_formula_units_Z 16
_cell_length_a 9.165037
_cell_length_b 4.874184
_cell_length_c 20.239067
_cell_angle_alpha 82.810942
_cell_angle_beta 120.180945
_cell_angle_gamma 71.187314
_cell_volume 692.719941
_symmetry_space_group_name_H-M "P -1"
_symmetry_group_IT_number 2
_symmetry_cell_setting 'triclinic'
loop_
_space_group_symop_operation_xyz
x,y,z
-x,-y,-z
loop_
_atom_site_type_symbol
_atom_site_label
_atom_site_fract_x
_atom_site_fract_y
_atom_site_fract_z
Si Si1 0.518347 0.336036 0.302223
Si Si2 0.648523 0.005302 0.805265
Si Si3 0.176090 0.487355 0.320479
Si Si4 0.704158 0.392062 0.518033
Si Si5 0.984455 0.858518 0.783544
Si Si6 0.811180 0.821837 0.462250
Si Si7 0.698768 0.513586 0.048281
Si Si8 0.191711 0.997709 0.015891
O O1 0.497782 0.669264 0.269187
O O2 0.378225 0.382293 0.332086
O O3 0.430288 0.237028 0.223092
O O4 0.722620 0.065197 0.375224
O O5 0.686179 0.044147 0.888661
O O6 0.843262 0.888480 0.811216
O O7 0.179414 0.567681 0.395164
O O8 0.107178 0.230901 0.296995
O O9 0.034688 0.802339 0.242161
O O10 0.500000 0.500000 0.500000
O O11 0.673858 0.669108 0.452805
O O12 0.798750 0.059701 0.512071
O O13 0.193534 0.598930 0.854445
O O14 0.000000 0.500000 0.500000
O O15 0.500000 0.500000 0.000000
O O16 0.745788 0.777624 0.019963
O O17 0.795970 0.240400 0.028870
O O18 0.000000 0.000000 0.000000
#
# Coordination Sequence:
#
# PCOD9004330 Si02
#       8
#     2   2   2   2   2   2   2   2
#     4  10  21  38  63  97 133 171 219 282 353 402
#     4  10  21  37  65  98 128 167 228 290 333 401
#     4  10  21  37  65  98 129 168 229 291 331 401
#     4  12  24  42  69 102 131 175 240 284 333 414
#     4  10  21  38  63  97 132 172 219 283 353 403
#     4  12  26  44  66  98 142 181 219 282 362 419
#     4  12  26  44  66  98 143 183 225 285 364 421
#     4  12  24  42  69 102 132 179 241 289 337 416
#
# _framework density 23.097359000000001
#
# number of rings (size 3 to 8) (size 9 to 14) (size 15 to 20)
#    0.000    1.000    2.500    4.500    7.000    0.000 
#    0.000    5.000    0.000    0.000    0.000    0.000 
#    0.000    0.000    0.000    0.000    0.000    0.000 
#
# Total GULP energy -89105.860771 kJ/mol
# GULP energy per Si atom -5569.116298 kJ/mol
# Density = 2.304479 g / cm^3
# Si number density = 23.097359 Si / 1000 Ang^3
#
#
#
# Elastic Constant Matrix: (Units=GPa)
#
#
# Indices 1 2 3 4 5 6 
#
# 1 66.5534 11.9947 -1.9543 -21.8349 8.4740 18.0367
# 2 11.9947 106.0654 20.9747 7.8444 8.1412 23.5940
# 3 -1.9543 20.9747 99.9036 2.3166 12.2475 -3.1343
# 4 -21.8349 7.8444 2.3166 47.6954 4.2791 -1.9955
# 5 8.4740 8.1412 12.2475 4.2791 18.0402 -6.2206
# 6 18.0367 23.5940 -3.1343 -1.9955 -6.2206 40.6657
#
#
#
# Elastic Compliance Matrix: (Units=1/GPa)
#
#
# Indices 1 2 3 4 5 6 
#
# 1 0.026017 0.000527 0.002356 0.013092 -0.022132 -0.014407
# 2 0.000527 0.012346 -0.001943 -0.001416 -0.007168 -0.008713
# 3 0.002356 -0.001943 0.011458 0.001591 -0.008473 -0.000252
# 4 0.013092 -0.001416 0.001591 0.028245 -0.015296 -0.005816
# 5 -0.022132 -0.007168 -0.008473 -0.015296 0.087387 0.025939
# 6 -0.014407 -0.008713 -0.000252 -0.005816 0.025939 0.039699
#
#
# Mechanical properties :
#
#
# Convention : Reuss Voigt Hill
#
# Bulk Modulus (GPa) = 19.34238 37.17252 28.25745
# Shear Modulus (GPa) = 22.67521 37.38075 30.02798
#
# Velocity S-wave (km/s) = 3.13664 4.02730 3.60955
# Velocity P-wave (km/s) = 4.63794 6.14445 5.44356
#
# Compressibility (1/GPa) = 0.05169995
#
# Stress axis : x y z
#
# Youngs Moduli (GPa) = 38.43577 80.99866 87.27807
#
# Poissons Ratio (x) = -0.04269 -0.20562
# Poissons Ratio (y) = -0.02026 0.16962
# Poissons Ratio (z) = -0.09055 0.15742
#
# Static dielectric constant tensor:
#      x y z
#    x 1.902830 0.061880 0.123640 
#    y 0.061880 1.887790 0.049500 
#    z 0.123640 0.049500 1.994060 
# 
# From -- ./inp_files/552603.got.cif
#   From: 2010.05.17/outbox.cif.g08.bks.cpg/sg2_277_cif.got.tgz:552603.got - 2010.06.03 11:33:40.
