data_PCOD9004680
_publ_section_title
;
Structure prediction by ZEFSAII (Michael W. Deem and Ramdas Pophale) SiO2 
 PCOD9004680
Probable space group: P -1
;
_chemical_formula_sum "Si O2"
_cell_formula_units_Z 14
_cell_length_a 13.664690
_cell_length_b 9.265943
_cell_length_c 21.398881
_cell_angle_alpha 29.595031
_cell_angle_beta 154.447647
_cell_angle_gamma 138.462487
_cell_volume 568.885368
_symmetry_space_group_name_H-M "P -1"
_symmetry_group_IT_number 2
_symmetry_cell_setting 'triclinic'
loop_
_space_group_symop_operation_xyz
x,y,z
-x,-y,-z
loop_
_atom_site_type_symbol
_atom_site_label
_atom_site_fract_x
_atom_site_fract_y
_atom_site_fract_z
Si Si1 0.055658 0.710164 0.551726
Si Si2 0.805883 0.827585 0.887114
Si Si3 0.322489 0.013805 0.673888
Si Si4 0.876735 0.857294 0.265791
Si Si5 0.297189 0.677581 0.183600
Si Si6 0.173218 0.527334 0.294604
Si Si7 0.553429 0.429138 0.823775
O O1 0.843419 0.900735 0.394737
O O2 0.049436 0.852131 0.425286
O O3 0.031806 0.371408 0.650540
O O4 0.272219 0.728517 0.714601
O O5 0.590730 0.715129 0.775788
O O6 0.773109 0.161862 0.765269
O O7 0.022913 0.781318 0.981330
O O8 0.910405 0.615695 0.085152
O O9 0.575627 0.047180 0.828798
O O10 0.232418 0.273672 0.474154
O O11 0.663950 0.714122 0.226151
O O12 0.774719 0.179114 0.061878
O O13 0.313800 0.471620 0.331948
O O14 0.425660 0.527460 0.254164
#
# Coordination Sequence:
#
# PCOD9004680 Si02
#       7
#     2   2   2   2   2   2   2
#     4  10  23  40  60  83 113 154 191 239 274 333
#     4   9  21  37  59  85 116 146 188 233 287 335
#     4  11  21  40  60  84 117 149 190 233 287 331
#     4  10  23  40  60  83 113 154 191 239 274 333
#     4  10  21  38  57  88 114 148 186 242 268 359
#     4   9  21  37  59  85 116 146 188 233 287 335
#     4  11  21  40  60  84 117 149 190 233 287 331
#
# _framework density 24.609528000000001
#
# number of rings (size 3 to 8) (size 9 to 14) (size 15 to 20)
#    0.857    1.143    1.429    1.714    4.000    0.000 
#    0.000    1.429    0.000    0.000    0.000    0.000 
#    0.000    0.000    0.000    0.000    0.000    0.000 
#
# Total GULP energy -78209.545618 kJ/mol
# GULP energy per Si atom -5586.396116 kJ/mol
# Density = 2.455352 g / cm^3
# Si number density = 24.609528 Si / 1000 Ang^3
#
#
#
# Elastic Constant Matrix: (Units=GPa)
#
#
# Indices 1 2 3 4 5 6 
#
# 1 95.9511 40.7414 8.4633 -5.4020 9.2360 -14.1936
# 2 40.7414 132.2308 3.4286 15.7220 1.0836 -22.5059
# 3 8.4633 3.4286 42.3794 -1.2505 3.3240 -0.3332
# 4 -5.4020 15.7220 -1.2505 32.7968 7.6697 6.4861
# 5 9.2360 1.0836 3.3240 7.6697 20.0715 1.7523
# 6 -14.1936 -22.5059 -0.3332 6.4861 1.7523 35.6898
#
#
#
# Elastic Compliance Matrix: (Units=1/GPa)
#
#
# Indices 1 2 3 4 5 6 
#
# 1 0.013930 -0.004559 -0.001565 0.005986 -0.008364 0.001973
# 2 -0.004559 0.011031 -0.000506 -0.008315 0.004201 0.006443
# 3 -0.001565 -0.000506 0.024314 0.002016 -0.003972 -0.000886
# 4 0.005986 -0.008315 0.002016 0.041560 -0.017689 -0.009529
# 5 -0.008364 0.004201 -0.003972 -0.017689 0.060904 -0.000490
# 6 0.001973 0.006443 -0.000886 -0.009529 -0.000490 0.034615
#
#
# Mechanical properties :
#
#
# Convention : Reuss Voigt Hill
#
# Bulk Modulus (GPa) = 27.76596 41.75867 34.76232
# Shear Modulus (GPa) = 23.62752 32.24013 27.93383
#
# Velocity S-wave (km/s) = 3.10190 3.62341 3.37275
# Velocity P-wave (km/s) = 4.91286 5.87459 5.41512
#
# Compressibility (1/GPa) = 0.03601532
#
# Stress axis : x y z
#
# Youngs Moduli (GPa) = 71.78972 90.65336 41.12874
#
# Poissons Ratio (x) = 0.41324 0.06436
# Poissons Ratio (y) = 0.32725 0.02082
# Poissons Ratio (z) = 0.11234 0.04589
#
# Static dielectric constant tensor:
#      x y z
#    x 1.953550 0.015040 0.046090 
#    y 0.015040 1.989720 0.049020 
#    z 0.046090 0.049020 1.971730 
# 
# From -- ./inp_files/272365.got.cif
#   From: 2010.05.17/outbox.cif.g08.bks.cpg/sg2_137_cif.got.tgz:272365.got - 2010.06.03 11:33:40.
