data_PCOD9004896
_publ_section_title
;
Structure prediction by ZEFSAII (Michael W. Deem and Ramdas Pophale) SiO2 
 PCOD9004896
Probable space group: P -1
;
_chemical_formula_sum "Si O2"
_cell_formula_units_Z 14
_cell_length_a 5.381961
_cell_length_b 21.290502
_cell_length_c 4.842640
_cell_angle_alpha 95.123528
_cell_angle_beta 84.179965
_cell_angle_gamma 80.603344
_cell_volume 541.447584
_symmetry_space_group_name_H-M "P -1"
_symmetry_group_IT_number 2
_symmetry_cell_setting 'triclinic'
loop_
_space_group_symop_operation_xyz
x,y,z
-x,-y,-z
loop_
_atom_site_type_symbol
_atom_site_label
_atom_site_fract_x
_atom_site_fract_y
_atom_site_fract_z
Si Si1 0.860347 0.066601 0.926115
Si Si2 0.033398 0.603856 0.651724
Si Si3 0.450727 0.929283 0.547095
Si Si4 0.484980 0.207183 0.679014
Si Si5 0.982179 0.691292 0.194404
Si Si6 0.179712 0.800268 0.867807
Si Si7 0.244920 0.491920 0.183329
O O1 0.804409 0.070768 0.610464
O O2 0.596007 0.071988 0.123511
O O3 0.970746 0.128073 0.040151
O O4 0.000000 0.000000 0.000000
O O5 0.199867 0.543195 0.457701
O O6 0.062925 0.662418 0.471581
O O7 0.764533 0.577584 0.703674
O O8 0.063119 0.630143 0.963552
O O9 0.607216 0.858975 0.426753
O O10 0.500000 0.000000 0.500000
O O11 0.306023 0.275042 0.697382
O O12 0.732280 0.209093 0.459741
O O13 0.562769 0.200651 0.985601
O O14 0.062735 0.747462 0.022350
O O15 0.500000 0.500000 0.000000
O O16 0.000000 0.500000 0.000000
#
# Coordination Sequence:
#
# PCOD9004896 Si02
#       7
#     2   2   2   2   2   2   2
#     4  10  21  38  59  89 122 168 228 289 359 418
#     4  11  26  46  72 116 138 194 242 288 360 438
#     4  10  21  38  59  89 122 168 228 289 359 418
#     4  10  23  42  62  93 135 177 229 295 353 427
#     4  12  24  45  68 104 138 188 234 282 366 422
#     4  10  23  42  62  93 135 177 229 295 353 427
#     4  11  26  54  81 115 159 194 248 302 359 435
#
# _framework density 25.85661
#
# number of rings (size 3 to 8) (size 9 to 14) (size 15 to 20)
#    0.000    1.429    1.429    2.571    2.000    5.714 
#    7.714    0.000    0.000    0.000    0.000    0.000 
#    0.000    0.000    0.000    0.000    0.000    0.000 
#
# Total GULP energy -78053.962567 kJ/mol
# GULP energy per Si atom -5575.283040 kJ/mol
# Density = 2.579776 g / cm^3
# Si number density = 25.856610 Si / 1000 Ang^3
#
#
#
# Elastic Constant Matrix: (Units=GPa)
#
#
# Indices 1 2 3 4 5 6 
#
# 1 46.0604 14.8595 25.3370 5.9490 -14.8607 6.0264
# 2 14.8595 124.4819 24.0289 -18.9139 -9.9733 22.1766
# 3 25.3370 24.0289 134.9221 -1.2844 -6.6702 7.0066
# 4 5.9490 -18.9139 -1.2844 54.4549 9.8144 -11.7528
# 5 -14.8607 -9.9733 -6.6702 9.8144 41.6080 -13.7917
# 6 6.0264 22.1766 7.0066 -11.7528 -13.7917 34.3344
#
#
#
# Elastic Compliance Matrix: (Units=1/GPa)
#
#
# Indices 1 2 3 4 5 6 
#
# 1 0.029284 -0.002646 -0.004549 -0.006197 0.010411 -0.000442
# 2 -0.002646 0.009792 -0.001008 0.002754 -0.001120 -0.005162
# 3 -0.004549 -0.001008 0.008435 0.000386 -0.000752 -0.000441
# 4 -0.006197 0.002754 0.000386 0.021940 -0.005113 0.004686
# 5 0.010411 -0.001120 -0.000752 -0.005113 0.031925 0.010123
# 6 -0.000442 -0.005162 -0.000441 0.004686 0.010123 0.038297
#
#
# Mechanical properties :
#
#
# Convention : Reuss Voigt Hill
#
# Bulk Modulus (GPa) = 32.15060 48.21280 40.18170
# Shear Modulus (GPa) = 30.03942 42.16204 36.10073
#
# Velocity S-wave (km/s) = 3.41217 4.04246 3.74062
# Velocity P-wave (km/s) = 5.29009 6.36202 5.85066
#
# Compressibility (1/GPa) = 0.03110362
#
# Stress axis : x y z
#
# Youngs Moduli (GPa) = 34.14839 102.12336 118.55402
#
# Poissons Ratio (x) = 0.27025 0.53934
# Poissons Ratio (y) = 0.09037 0.11951
# Poissons Ratio (z) = 0.15535 0.10295
#
# Static dielectric constant tensor:
#      x y z
#    x 2.117320 0.016600 -0.036500 
#    y 0.016600 2.129070 0.008440 
#    z -0.036500 0.008440 1.941610 
# 
# From -- ./inp_files/9599.got.cif
#   From: 2010.05.17/outbox.cif.g08.bks.cpg/sg2_5_cif.got.tgz:9599.got - 2010.06.03 11:33:40.
