data_PCOD9004754
_publ_section_title
;
Structure prediction by ZEFSAII (Michael W. Deem and Ramdas Pophale) SiO2 
 PCOD9004754
Probable space group: P -1
;
_chemical_formula_sum "Si O2"
_cell_formula_units_Z 16
_cell_length_a 15.749064
_cell_length_b 9.224320
_cell_length_c 11.945032
_cell_angle_alpha 71.179970
_cell_angle_beta 69.951118
_cell_angle_gamma 131.479899
_cell_volume 762.713011
_symmetry_space_group_name_H-M "P -1"
_symmetry_group_IT_number 2
_symmetry_cell_setting 'triclinic'
loop_
_space_group_symop_operation_xyz
x,y,z
-x,-y,-z
loop_
_atom_site_type_symbol
_atom_site_label
_atom_site_fract_x
_atom_site_fract_y
_atom_site_fract_z
Si Si1 0.843781 0.322592 0.201821
Si Si2 0.461811 0.864180 0.389002
Si Si3 0.927090 0.760280 0.168484
Si Si4 0.346319 0.034205 0.399307
Si Si5 0.738197 0.467861 0.663070
Si Si6 0.380717 0.415872 0.201602
Si Si7 0.893193 0.079025 0.740564
Si Si8 0.278847 0.882066 0.204228
O O1 0.914388 0.588930 0.145810
O O2 0.648068 0.059467 0.294669
O O3 0.793336 0.162056 0.382783
O O4 0.000000 0.500000 0.000000
O O5 0.277430 0.526432 0.615462
O O6 0.419694 0.775373 0.299199
O O7 0.464311 0.052497 0.366997
O O8 0.077570 0.960804 0.146917
O O9 0.000000 0.000000 0.000000
O O10 0.419955 0.316096 0.275696
O O11 0.282940 0.897085 0.334924
O O12 0.747286 0.652165 0.659012
O O13 0.713980 0.282185 0.798298
O O14 0.930843 0.709113 0.461262
O O15 0.280563 0.223552 0.179291
O O16 0.550641 0.774758 0.008240
O O17 0.887483 0.253113 0.720648
#
# Coordination Sequence:
#
# PCOD9004754 Si02
#       8
#     2   2   2   2   2   2   2   2
#     4  11  24  42  64  92 119 161 213 262 311 358
#     4   9  21  42  63  84 122 168 204 248 312 375
#     4  10  22  40  64  92 122 164 211 252 304 373
#     4   9  19  39  61  83 119 161 201 247 302 371
#     4  10  21  38  58  89 124 156 198 255 308 355
#     4  11  22  37  61  94 122 156 204 255 306 359
#     4  10  21  38  59  86 122 167 202 237 303 376
#     4  10  21  38  60  88 121 165 205 242 305 377
#
# _framework density 20.977744999999999
#
# number of rings (size 3 to 8) (size 9 to 14) (size 15 to 20)
#    0.000    2.000    0.000    4.875    0.000   10.000 
#    0.000    7.500    0.000    0.000    0.000    0.000 
#    0.000    0.000    0.000    0.000    0.000    0.000 
#
# Total GULP energy -89136.126144 kJ/mol
# GULP energy per Si atom -5571.007884 kJ/mol
# Density = 2.093000 g / cm^3
# Si number density = 20.977745 Si / 1000 Ang^3
#
#
#
# Elastic Constant Matrix: (Units=GPa)
#
#
# Indices 1 2 3 4 5 6 
#
# 1 109.9200 17.4269 54.8220 -4.8881 19.1620 2.1554
# 2 17.4269 39.3699 8.1024 -6.4187 10.8267 -2.7816
# 3 54.8220 8.1024 91.1465 4.4530 15.0020 8.9197
# 4 -4.8881 -6.4187 4.4530 22.5145 -7.8117 3.1483
# 5 19.1620 10.8267 15.0020 -7.8117 42.1106 -2.7061
# 6 2.1554 -2.7816 8.9197 3.1483 -2.7061 31.8358
#
#
#
# Elastic Compliance Matrix: (Units=1/GPa)
#
#
# Indices 1 2 3 4 5 6 
#
# 1 0.014151 -0.003528 -0.008043 0.002854 -0.002104 0.000526
# 2 -0.003528 0.029360 -0.000182 0.005749 -0.004691 0.001888
# 3 -0.008043 -0.000182 0.017123 -0.005926 -0.003750 -0.004002
# 4 0.002854 0.005749 -0.005926 0.051187 0.008679 -0.002355
# 5 -0.002104 -0.004691 -0.003750 0.008679 0.029010 0.002391
# 6 0.000526 0.001888 -0.004002 -0.002355 0.002391 0.033098
#
#
# Mechanical properties :
#
#
# Convention : Reuss Voigt Hill
#
# Bulk Modulus (GPa) = 26.93220 44.57101 35.75161
# Shear Modulus (GPa) = 23.83109 29.96453 26.89781
#
# Velocity S-wave (km/s) = 3.37414 3.78351 3.58468
# Velocity P-wave (km/s) = 5.29586 6.35449 5.84917
#
# Compressibility (1/GPa) = 0.03713027
#
# Stress axis : x y z
#
# Youngs Moduli (GPa) = 70.66412 34.06041 58.39992
#
# Poissons Ratio (x) = 0.12016 0.46969
# Poissons Ratio (y) = 0.24929 0.01060
# Poissons Ratio (z) = 0.56833 0.00618
#
# Static dielectric constant tensor:
#      x y z
#    x 1.709360 -0.015580 -0.026500 
#    y -0.015580 1.768330 0.004090 
#    z -0.026500 0.004090 1.822880 
# 
# From -- ./inp_files/338667.got.cif
#   From: 2010.05.17/outbox.cif.g08.bks.cpg/sg2_170_cif.got.tgz:338667.got - 2010.06.03 11:33:40.
