data_PCOD9004978
_publ_section_title
;
Structure prediction by ZEFSAII (Michael W. Deem and Ramdas Pophale) SiO2 
 PCOD9004978
Probable space group: P -1
;
_chemical_formula_sum "Si O2"
_cell_formula_units_Z 14
_cell_length_a 13.569602
_cell_length_b 8.005065
_cell_length_c 15.964007
_cell_angle_alpha 55.707940
_cell_angle_beta 155.289529
_cell_angle_gamma 126.304521
_cell_volume 582.509644
_symmetry_space_group_name_H-M "P -1"
_symmetry_group_IT_number 2
_symmetry_cell_setting 'triclinic'
loop_
_space_group_symop_operation_xyz
x,y,z
-x,-y,-z
loop_
_atom_site_type_symbol
_atom_site_label
_atom_site_fract_x
_atom_site_fract_y
_atom_site_fract_z
Si Si1 0.593630 0.980234 0.484009
Si Si2 0.516163 0.166240 0.891879
Si Si3 0.827922 0.565263 0.116742
Si Si4 0.148464 0.656173 0.188919
Si Si5 0.060073 0.323024 0.501465
Si Si6 0.040960 0.810452 0.884995
Si Si7 0.381787 0.708300 0.732143
O O1 0.428992 0.763323 0.384951
O O2 0.872823 0.970184 0.697033
O O3 0.500000 0.000000 0.500000
O O4 0.555534 0.160389 0.341493
O O5 0.248847 0.191352 0.654529
O O6 0.665294 0.382473 0.986287
O O7 0.689443 0.124795 0.962933
O O8 0.500000 0.000000 0.000000
O O9 0.011043 0.699460 0.154189
O O10 0.978553 0.462101 0.327192
O O11 0.632396 0.678999 0.973084
O O12 0.088259 0.409777 0.195752
O O13 0.052326 0.759291 0.005825
O O14 0.220898 0.480841 0.647603
O O15 0.806524 0.205436 0.380592
#
# Coordination Sequence:
#
# PCOD9004978 Si02
#       7
#     2   2   2   2   2   2   2
#     4  12  24  38  63  94 123 158 203 252 302 358
#     4  10  22  39  60  87 116 152 204 251 291 354
#     4  10  21  38  60  85 118 158 197 244 302 356
#     4  10  23  41  62  87 123 163 203 246 300 361
#     4  10  21  39  60  83 119 159 195 245 303 355
#     4  10  23  42  62  88 124 163 201 248 304 359
#     4  10  22  37  57  89 121 154 198 245 299 359
#
# _framework density 24.033937999999999
#
# number of rings (size 3 to 8) (size 9 to 14) (size 15 to 20)
#    0.000    1.714    0.000    3.429    0.000   12.000 
#    0.000    0.000    0.000    0.000    0.000    0.000 
#    0.000    0.000    0.000    0.000    0.000    0.000 
#
# Total GULP energy -78344.670127 kJ/mol
# GULP energy per Si atom -5596.047866 kJ/mol
# Density = 2.397924 g / cm^3
# Si number density = 24.033938 Si / 1000 Ang^3
#
#
#
# Elastic Constant Matrix: (Units=GPa)
#
#
# Indices 1 2 3 4 5 6 
#
# 1 77.7045 21.8562 46.6731 -2.8201 17.3438 21.1864
# 2 21.8562 59.7311 22.4244 4.5611 12.7949 2.1029
# 3 46.6731 22.4244 188.7107 -16.5947 37.0935 4.6960
# 4 -2.8201 4.5611 -16.5947 39.7429 3.3427 -2.5700
# 5 17.3438 12.7949 37.0935 3.3427 34.3598 5.8204
# 6 21.1864 2.1029 4.6960 -2.5700 5.8204 41.3218
#
#
#
# Elastic Compliance Matrix: (Units=1/GPa)
#
#
# Indices 1 2 3 4 5 6 
#
# 1 0.019349 -0.004904 -0.003426 0.000162 -0.002753 -0.008884
# 2 -0.004904 0.019791 -0.000519 -0.002329 -0.004455 0.002049
# 3 -0.003426 -0.000519 0.007954 0.003901 -0.007410 0.002166
# 4 0.000162 -0.002329 0.003901 0.027761 -0.006505 0.002235
# 5 -0.002753 -0.004455 -0.007410 -0.006505 0.041421 -0.003759
# 6 -0.008884 0.002049 0.002166 0.002235 -0.003759 0.029073
#
#
# Mechanical properties :
#
#
# Convention : Reuss Voigt Hill
#
# Bulk Modulus (GPa) = 34.01883 56.45042 45.23463
# Shear Modulus (GPa) = 28.92738 38.76440 33.84589
#
# Velocity S-wave (km/s) = 3.47307 4.02045 3.75674
# Velocity P-wave (km/s) = 5.50165 6.71497 6.13836
#
# Compressibility (1/GPa) = 0.02939548
#
# Stress axis : x y z
#
# Youngs Moduli (GPa) = 51.68191 50.52860 125.72300
#
# Poissons Ratio (x) = 0.24777 0.43078
# Poissons Ratio (y) = 0.25343 0.06526
# Poissons Ratio (z) = 0.17709 0.02623
#
# Static dielectric constant tensor:
#      x y z
#    x 1.917560 -0.050480 0.028480 
#    y -0.050480 1.927750 0.033210 
#    z 0.028480 0.033210 1.916600 
# 
# From -- ./inp_files/27847.got.cif
#   From: 2010.05.17/outbox.cif.g08.bks.cpg/sg2_14_cif.got.tgz:27847.got - 2010.06.03 11:33:40.
