data_PCOD9004255
_publ_section_title
;
Structure prediction by ZEFSAII (Michael W. Deem and Ramdas Pophale) SiO2 
 PCOD9004255
Probable space group: P -1
;
_chemical_formula_sum "Si O2"
_cell_formula_units_Z 16
_cell_length_a 12.808827
_cell_length_b 11.377696
_cell_length_c 7.860816
_cell_angle_alpha 127.028350
_cell_angle_beta 50.236052
_cell_angle_gamma 102.236413
_cell_volume 674.423018
_symmetry_space_group_name_H-M "P -1"
_symmetry_group_IT_number 2
_symmetry_cell_setting 'triclinic'
loop_
_space_group_symop_operation_xyz
x,y,z
-x,-y,-z
loop_
_atom_site_type_symbol
_atom_site_label
_atom_site_fract_x
_atom_site_fract_y
_atom_site_fract_z
Si Si1 0.890337 0.154473 0.826221
Si Si2 0.235616 0.486007 0.066781
Si Si3 0.634734 0.264884 0.930686
Si Si4 0.108969 0.042879 0.046303
Si Si5 0.466754 0.017534 0.285890
Si Si6 0.329608 0.183259 0.879074
Si Si7 0.048339 0.328768 0.620301
Si Si8 0.349444 0.314778 0.449330
O O1 0.975249 0.280894 0.824147
O O2 0.842795 0.105518 0.013194
O O3 0.748918 0.215858 0.918640
O O4 0.000000 0.000000 0.500000
O O5 0.299144 0.627988 0.161584
O O6 0.269396 0.363625 0.077004
O O7 0.313921 0.410403 0.745158
O O8 0.070238 0.536579 0.231517
O O9 0.477272 0.348135 0.237918
O O10 0.623566 0.104901 0.727202
O O11 0.062131 0.188145 0.350480
O O12 0.214358 0.101332 0.869433
O O13 0.000000 0.000000 0.000000
O O14 0.619232 0.897143 0.064143
O O15 0.450311 0.128530 0.564059
O O16 0.417549 0.136718 0.286990
O O17 0.199790 0.344844 0.533177
#
# Coordination Sequence:
#
# PCOD9004255 Si02
#       8
#     2   2   2   2   2   2   2   2
#     4   9  20  37  61  94 123 156 213 263 312 362
#     4  10  24  40  63  89 135 171 208 258 325 384
#     4  11  21  38  67  93 122 166 220 261 315 372
#     4  11  23  36  64  94 127 161 215 265 306 379
#     4  10  21  37  65  89 123 169 204 269 313 375
#     4  10  23  40  58  91 133 163 211 252 326 378
#     4  10  22  41  66  92 129 170 209 262 327 373
#     4  11  21  39  68  94 124 159 225 268 312 369
#
# _framework density 23.723984999999999
#
# number of rings (size 3 to 8) (size 9 to 14) (size 15 to 20)
#    0.000    1.750    0.000    4.125    8.750    1.000 
#    0.000    0.000    2.750    0.000    0.000    0.000 
#    0.000    0.000    0.000    0.000    0.000    0.000 
#
# Total GULP energy -89207.797432 kJ/mol
# GULP energy per Si atom -5575.487339 kJ/mol
# Density = 2.366999 g / cm^3
# Si number density = 23.723985 Si / 1000 Ang^3
#
#
#
# Elastic Constant Matrix: (Units=GPa)
#
#
# Indices 1 2 3 4 5 6 
#
# 1 96.4441 57.0918 7.6711 6.6676 -26.6131 6.5295
# 2 57.0918 102.7931 1.0006 10.7190 -23.5118 -9.6695
# 3 7.6711 1.0006 57.4123 1.9952 -12.5417 -2.9085
# 4 6.6676 10.7190 1.9952 14.9020 -3.2334 -9.6644
# 5 -26.6131 -23.5118 -12.5417 -3.2334 41.6829 0.3777
# 6 6.5295 -9.6695 -2.9085 -9.6644 0.3777 42.3000
#
#
#
# Elastic Compliance Matrix: (Units=1/GPa)
#
#
# Indices 1 2 3 4 5 6 
#
# 1 0.017927 -0.008708 -0.001099 -0.004098 0.005938 -0.005823
# 2 -0.008708 0.016296 0.002093 -0.004588 0.003869 0.004131
# 3 -0.001099 0.002093 0.018981 -0.001178 0.006084 0.001630
# 4 -0.004098 -0.004588 -0.001178 0.084821 0.000850 0.018875
# 5 0.005938 0.003869 0.006084 0.000850 0.031858 0.000296
# 6 -0.005823 0.004131 0.001630 0.018875 0.000296 0.029906
#
#
# Mechanical properties :
#
#
# Convention : Reuss Voigt Hill
#
# Bulk Modulus (GPa) = 26.47147 43.13071 34.80109
# Shear Modulus (GPa) = 21.94815 32.50273 27.22544
#
# Velocity S-wave (km/s) = 3.04492 3.70542 3.39129
# Velocity P-wave (km/s) = 4.85226 6.04372 5.48046
#
# Compressibility (1/GPa) = 0.03777652
#
# Stress axis : x y z
#
# Youngs Moduli (GPa) = 55.78078 61.36309 52.68494
#
# Poissons Ratio (x) = 0.53437 0.05790
# Poissons Ratio (y) = 0.48576 -0.11029
# Poissons Ratio (z) = 0.06130 -0.12846
#
# Static dielectric constant tensor:
#      x y z
#    x 1.970760 0.004220 0.011620 
#    y 0.004220 1.960720 -0.043930 
#    z 0.011620 -0.043930 2.045630 
# 
# From -- ./inp_files/244391.got.cif
#   From: 2010.05.17/outbox.cif.g08.bks.cpg/sg2_123_cif.got.tgz:244391.got - 2010.06.03 11:33:40.
