data_PCOD9004907
_publ_section_title
;
Structure prediction by ZEFSAII (Michael W. Deem and Ramdas Pophale) SiO2 
 PCOD9004907
Probable space group: P -1
;
_chemical_formula_sum "Si O2"
_cell_formula_units_Z 16
_cell_length_a 11.004006
_cell_length_b 23.361791
_cell_length_c 9.392662
_cell_angle_alpha 142.068629
_cell_angle_beta 74.870286
_cell_angle_gamma 133.964709
_cell_volume 814.014982
_symmetry_space_group_name_H-M "P -1"
_symmetry_group_IT_number 2
_symmetry_cell_setting 'triclinic'
loop_
_space_group_symop_operation_xyz
x,y,z
-x,-y,-z
loop_
_atom_site_type_symbol
_atom_site_label
_atom_site_fract_x
_atom_site_fract_y
_atom_site_fract_z
Si Si1 0.864994 0.896243 0.693888
Si Si2 0.702874 0.975540 0.709048
Si Si3 0.027495 0.692384 0.587252
Si Si4 0.562309 0.429149 0.364381
Si Si5 0.244528 0.445254 0.869007
Si Si6 0.169407 0.050793 0.651815
Si Si7 0.229379 0.650586 0.308761
Si Si8 0.456523 0.534035 0.242340
O O1 0.786628 0.940939 0.718119
O O2 0.655550 0.710122 0.447899
O O3 0.032175 0.946747 0.632573
O O4 0.000000 0.000000 0.000000
O O5 0.746330 0.979066 0.536870
O O6 0.440251 0.827120 0.518923
O O7 0.835184 0.145285 0.056569
O O8 0.159118 0.674992 0.507421
O O9 0.787967 0.538781 0.432267
O O10 0.964645 0.684613 0.427829
O O11 0.500000 0.500000 0.500000
O O12 0.593085 0.444908 0.555651
O O13 0.366526 0.241762 0.007149
O O14 0.440478 0.506877 0.850460
O O15 0.297946 0.584540 0.162652
O O16 0.248925 0.404729 0.945975
O O17 0.000000 0.000000 0.500000
O O18 0.000000 0.500000 0.000000
#
# Coordination Sequence:
#
# PCOD9004907 Si02
#       8
#     2   2   2   2   2   2   2   2
#     4  11  20  36  57  93 128 161 200 248 322 370
#     4  11  22  39  61  90 127 161 210 254 306 366
#     4  11  23  39  63  90 123 165 211 256 303 371
#     4  12  22  38  59  91 126 158 210 255 318 366
#     4  10  21  38  59  90 115 160 205 251 310 361
#     4  10  22  33  57  87 124 161 197 256 305 366
#     4  10  21  40  64  89 121 164 215 257 301 368
#     4  11  22  35  62  88 127 160 196 262 315 368
#
# _framework density 19.655659
#
# number of rings (size 3 to 8) (size 9 to 14) (size 15 to 20)
#    0.000    1.250    3.750    4.125    1.750    2.000 
#    0.000    0.625    0.000    0.000    0.000    7.875 
#    0.000    0.000    0.000    0.000    0.000    0.000 
#
# Total GULP energy -89149.786137 kJ/mol
# GULP energy per Si atom -5571.861634 kJ/mol
# Density = 1.961092 g / cm^3
# Si number density = 19.655659 Si / 1000 Ang^3
#
#
#
# Elastic Constant Matrix: (Units=GPa)
#
#
# Indices 1 2 3 4 5 6 
#
# 1 48.1711 31.8243 36.6195 -4.5372 -7.9600 17.2730
# 2 31.8243 138.7820 65.5311 -11.1619 -0.0528 20.5360
# 3 36.6195 65.5311 149.4436 -13.5334 -1.7569 6.9317
# 4 -4.5372 -11.1619 -13.5334 43.6068 1.6036 2.7487
# 5 -7.9600 -0.0528 -1.7569 1.6036 37.8981 -5.5936
# 6 17.2730 20.5360 6.9317 2.7487 -5.5936 30.6182
#
#
#
# Elastic Compliance Matrix: (Units=1/GPa)
#
#
# Indices 1 2 3 4 5 6 
#
# 1 0.033388 -0.002309 -0.006253 0.001740 0.004399 -0.015224
# 2 -0.002309 0.010341 -0.003591 0.001677 -0.001482 -0.005241
# 3 -0.006253 -0.003591 0.009742 0.001245 -0.000396 0.003547
# 4 0.001740 0.001677 0.001245 0.024280 -0.001311 -0.004807
# 5 0.004399 -0.001482 -0.000396 -0.001311 0.027909 0.003818
# 6 -0.015224 -0.005241 0.003547 -0.004807 0.003818 0.045090
#
#
# Mechanical properties :
#
#
# Convention : Reuss Voigt Hill
#
# Bulk Modulus (GPa) = 34.28913 67.14962 50.71938
# Shear Modulus (GPa) = 27.05938 35.91939 31.48939
#
# Velocity S-wave (km/s) = 3.71438 4.27949 4.00691
# Velocity P-wave (km/s) = 5.98985 7.65871 6.87510
#
# Compressibility (1/GPa) = 0.02916376
#
# Stress axis : x y z
#
# Youngs Moduli (GPa) = 29.95044 96.70690 102.64836
#
# Poissons Ratio (x) = 0.22332 0.64191
# Poissons Ratio (y) = 0.06916 0.36860
# Poissons Ratio (z) = 0.18729 0.34727
#
# Static dielectric constant tensor:
#      x y z
#    x 1.807810 -0.011590 -0.054540 
#    y -0.011590 1.715070 -0.017540 
#    z -0.054540 -0.017540 1.748820 
# 
# From -- ./inp_files/285201.got.cif
#   From: 2010.05.17/outbox.cif.g08.bks.cpg/sg2_143_cif.got.tgz:285201.got - 2010.06.03 11:33:40.
