data_PCOD9004531
_publ_section_title
;
Structure prediction by ZEFSAII (Michael W. Deem and Ramdas Pophale) SiO2 
 PCOD9004531
Probable space group: P -1
;
_chemical_formula_sum "Si O2"
_cell_formula_units_Z 16
_cell_length_a 28.944197
_cell_length_b 10.564800
_cell_length_c 8.582430
_cell_angle_alpha 66.848080
_cell_angle_beta 39.408914
_cell_angle_gamma 35.402419
_cell_volume 738.943102
_symmetry_space_group_name_H-M "P -1"
_symmetry_group_IT_number 2
_symmetry_cell_setting 'triclinic'
loop_
_space_group_symop_operation_xyz
x,y,z
-x,-y,-z
loop_
_atom_site_type_symbol
_atom_site_label
_atom_site_fract_x
_atom_site_fract_y
_atom_site_fract_z
Si Si1 0.679153 0.902732 0.419211
Si Si2 0.335932 0.798208 0.857784
Si Si3 0.892935 0.562975 0.317897
Si Si4 0.888872 0.309295 0.611471
Si Si5 0.322176 0.525407 0.110924
Si Si6 0.678123 0.103568 0.789761
Si Si7 0.343876 0.562659 0.383812
Si Si8 0.667778 0.695125 0.280532
O O1 0.775687 0.718999 0.410919
O O2 0.690046 0.760828 0.336003
O O3 0.730990 0.961880 0.177213
O O4 0.501955 0.213388 0.770824
O O5 0.500000 0.500000 0.500000
O O6 0.266003 0.761422 0.063596
O O7 0.347304 0.822969 0.997612
O O8 0.967276 0.304970 0.320784
O O9 0.802109 0.785499 0.586826
O O10 0.000000 0.500000 0.000000
O O11 0.758555 0.467400 0.761457
O O12 0.799482 0.501090 0.906506
O O13 0.000000 0.000000 0.500000
O O14 0.290288 0.591124 0.345104
O O15 0.722387 0.173556 0.554903
O O16 0.521726 0.303868 0.033909
O O17 0.323043 0.480213 0.606261
O O18 0.500000 0.000000 0.500000
#
# Coordination Sequence:
#
# PCOD9004531 Si02
#       8
#     2   2   2   2   2   2   2   2
#     4  11  22  41  71 102 135 174 239 289 337 407
#     4   9  20  36  65 105 136 168 214 284 354 403
#     4  12  28  47  70  96 142 193 232 282 348 418
#     4  12  29  48  68 100 146 183 229 286 358 422
#     4  10  21  41  70 101 135 175 224 293 345 402
#     4  10  21  40  66 102 139 172 230 280 348 410
#     4  10  21  37  69 102 133 169 222 298 343 398
#     4  12  24  41  72 102 136 179 235 293 348 410
#
# _framework density 21.652546000000001
#
# number of rings (size 3 to 8) (size 9 to 14) (size 15 to 20)
#    0.000    1.250    2.500    3.000    7.000    1.000 
#    4.500    2.500    0.000    0.000    0.000    0.000 
#    0.000    0.000    0.000    0.000    0.000    0.000 
#
# Total GULP energy -89428.577262 kJ/mol
# GULP energy per Si atom -5589.286079 kJ/mol
# Density = 2.160326 g / cm^3
# Si number density = 21.652546 Si / 1000 Ang^3
#
#
#
# Elastic Constant Matrix: (Units=GPa)
#
#
# Indices 1 2 3 4 5 6 
#
# 1 88.4721 26.1257 26.8834 -2.0358 10.8070 13.0093
# 2 26.1257 164.6932 38.4108 -30.4053 6.6977 -4.0866
# 3 26.8834 38.4108 55.6411 -11.8998 6.8361 -2.6306
# 4 -2.0358 -30.4053 -11.8998 38.7550 3.0179 0.9757
# 5 10.8070 6.6977 6.8361 3.0179 20.7638 1.0295
# 6 13.0093 -4.0866 -2.6306 0.9757 1.0295 24.8315
#
#
#
# Elastic Compliance Matrix: (Units=1/GPa)
#
#
# Indices 1 2 3 4 5 6 
#
# 1 0.015595 -0.001194 -0.006891 -0.001638 -0.004787 -0.008834
# 2 -0.001194 0.008208 -0.003674 0.005342 -0.001665 0.001446
# 3 -0.006891 -0.003674 0.025728 0.004877 -0.004692 0.005734
# 4 -0.001638 0.005342 0.004877 0.031932 -0.007181 0.001297
# 5 -0.004787 -0.001665 -0.004692 -0.007181 0.053788 -0.000211
# 6 -0.008834 0.001446 0.005734 0.001297 -0.000211 0.045703
#
#
# Mechanical properties :
#
#
# Convention : Reuss Voigt Hill
#
# Bulk Modulus (GPa) = 38.43981 54.62735 46.53358
# Shear Modulus (GPa) = 23.45834 31.36249 27.41042
#
# Velocity S-wave (km/s) = 3.29507 3.80997 3.56184
# Velocity P-wave (km/s) = 5.68051 6.68119 6.20107
#
# Compressibility (1/GPa) = 0.02601470
#
# Stress axis : x y z
#
# Youngs Moduli (GPa) = 64.12124 121.83293 38.86743
#
# Poissons Ratio (x) = 0.14544 0.26783
# Poissons Ratio (y) = 0.07654 0.14280
# Poissons Ratio (z) = 0.44185 0.44762
#
# Static dielectric constant tensor:
#      x y z
#    x 1.768060 -0.000120 -0.001630 
#    y -0.000120 1.812240 -0.023160 
#    z -0.001630 -0.023160 1.780730 
# 
# From -- ./inp_files/263022.got.cif
#   From: 2010.05.17/outbox.cif.g08.bks.cpg/sg2_132_cif.got.tgz:263022.got - 2010.06.03 11:33:40.
