data_PCOD9004113
_publ_section_title
;
Structure prediction by ZEFSAII (Michael W. Deem and Ramdas Pophale) SiO2 
 PCOD9004113
Probable space group: P -1
;
_chemical_formula_sum "Si O2"
_cell_formula_units_Z 16
_cell_length_a 8.547496
_cell_length_b 18.846148
_cell_length_c 12.358654
_cell_angle_alpha 150.037705
_cell_angle_beta 103.899269
_cell_angle_gamma 64.353447
_cell_volume 855.230092
_symmetry_space_group_name_H-M "P -1"
_symmetry_group_IT_number 2
_symmetry_cell_setting 'triclinic'
loop_
_space_group_symop_operation_xyz
x,y,z
-x,-y,-z
loop_
_atom_site_type_symbol
_atom_site_label
_atom_site_fract_x
_atom_site_fract_y
_atom_site_fract_z
Si Si1 0.427430 0.318305 0.720759
Si Si2 0.731643 0.039440 0.264256
Si Si3 0.087077 0.931509 0.308782
Si Si4 0.355983 0.055249 0.450066
Si Si5 0.196804 0.855794 0.813922
Si Si6 0.368787 0.502615 0.384922
Si Si7 0.582357 0.422047 0.085446
Si Si8 0.465920 0.165836 0.016225
O O1 0.610762 0.171863 0.508580
O O2 0.315897 0.227341 0.622652
O O3 0.361974 0.448376 0.785402
O O4 0.463541 0.397093 0.937649
O O5 0.749634 0.124407 0.272389
O O6 0.639307 0.925676 0.072840
O O7 0.930851 0.941019 0.216366
O O8 0.176972 0.042462 0.433595
O O9 0.245332 0.750373 0.100128
O O10 0.000000 0.000000 0.500000
O O11 0.500000 0.000000 0.500000
O O12 0.454208 0.924557 0.201656
O O13 0.204496 0.681717 0.595015
O O14 0.360041 0.853160 0.911038
O O15 0.000000 0.000000 0.000000
O O16 0.500000 0.500000 0.500000
O O17 0.473245 0.473051 0.247781
O O18 0.337396 0.351281 0.209681
#
# Coordination Sequence:
#
# PCOD9004113 Si02
#       8
#     2   2   2   2   2   2   2   2
#     4  10  21  37  64  91 118 166 200 248 312 367
#     4  11  22  39  61  90 124 162 204 253 307 366
#     4  12  22  36  60  93 124 159 203 252 304 364
#     4  11  19  37  62  92 121 157 204 250 305 367
#     4  11  23  40  62  91 119 159 208 261 305 362
#     4  10  21  38  64  87 118 164 205 246 308 366
#     4  11  20  39  61  89 126 162 203 247 309 371
#     4  10  21  40  61  88 120 165 205 247 310 364
#
# _framework density 18.708417000000001
#
# number of rings (size 3 to 8) (size 9 to 14) (size 15 to 20)
#    0.000    1.250    5.000    1.875    1.750    0.000 
#    0.000    5.000    0.000    0.000    0.000    0.000 
#    0.000    0.000    0.000    0.000    0.000    0.000 
#
# Total GULP energy -89249.300646 kJ/mol
# GULP energy per Si atom -5578.081290 kJ/mol
# Density = 1.866584 g / cm^3
# Si number density = 18.708417 Si / 1000 Ang^3
#
#
#
# Elastic Constant Matrix: (Units=GPa)
#
#
# Indices 1 2 3 4 5 6 
#
# 1 70.5181 13.8016 17.6318 18.3055 7.0054 4.5262
# 2 13.8016 79.6035 27.2598 6.9638 -1.2048 2.2199
# 3 17.6318 27.2598 83.4185 17.2591 -1.1602 3.6738
# 4 18.3055 6.9638 17.2591 41.7262 7.1831 7.4435
# 5 7.0054 -1.2048 -1.1602 7.1831 31.2891 2.8449
# 6 4.5262 2.2199 3.6738 7.4435 2.8449 27.5339
#
#
#
# Elastic Compliance Matrix: (Units=1/GPa)
#
#
# Indices 1 2 3 4 5 6 
#
# 1 0.016766 -0.001820 -0.001761 -0.005793 -0.002509 -0.000549
# 2 -0.001820 0.014365 -0.004304 0.000113 0.000811 -0.000399
# 3 -0.001761 -0.004304 0.014824 -0.004936 0.001930 -0.000206
# 4 -0.005793 0.000113 -0.004936 0.030537 -0.005337 -0.006102
# 5 -0.002509 0.000811 0.001930 -0.005337 0.034030 -0.001984
# 6 -0.000549 -0.000399 -0.000206 -0.006102 -0.001984 0.038323
#
#
# Mechanical properties :
#
#
# Convention : Reuss Voigt Hill
#
# Bulk Modulus (GPa) = 33.12946 38.99185 36.06066
# Shear Modulus (GPa) = 28.62426 31.76631 30.19528
#
# Velocity S-wave (km/s) = 3.91579 4.12511 4.02181
# Velocity P-wave (km/s) = 6.17991 6.60120 6.39403
#
# Compressibility (1/GPa) = 0.03018461
#
# Stress axis : x y z
#
# Youngs Moduli (GPa) = 59.64610 69.61250 67.45941
#
# Poissons Ratio (x) = 0.12666 0.11881
# Poissons Ratio (y) = 0.10853 0.29036
# Poissons Ratio (z) = 0.10505 0.29962
#
# Static dielectric constant tensor:
#      x y z
#    x 1.601770 0.037970 0.016820 
#    y 0.037970 1.658100 0.021720 
#    z 0.016820 0.021720 1.664120 
# 
# From -- ./inp_files/181665.got.cif
#   From: 2010.05.17/outbox.cif.g08.bks.cpg/sg2_91_cif.got.tgz:181665.got - 2010.06.03 11:33:40.
