data_PCOD9004708
_publ_section_title
;
Structure prediction by ZEFSAII (Michael W. Deem and Ramdas Pophale) SiO2 
 PCOD9004708
Probable space group: P -1
;
_chemical_formula_sum "Si O2"
_cell_formula_units_Z 16
_cell_length_a 13.602008
_cell_length_b 25.490272
_cell_length_c 6.672331
_cell_angle_alpha 130.326309
_cell_angle_beta 58.944711
_cell_angle_gamma 158.855831
_cell_volume 602.966242
_symmetry_space_group_name_H-M "P -1"
_symmetry_group_IT_number 2
_symmetry_cell_setting 'triclinic'
loop_
_space_group_symop_operation_xyz
x,y,z
-x,-y,-z
loop_
_atom_site_type_symbol
_atom_site_label
_atom_site_fract_x
_atom_site_fract_y
_atom_site_fract_z
Si Si1 0.957573 0.772854 0.798609
Si Si2 0.743308 0.193832 0.320911
Si Si3 0.697888 0.414533 0.209204
Si Si4 0.571292 0.872763 0.293489
Si Si5 0.601585 0.619609 0.457734
Si Si6 0.133054 0.164247 0.643843
Si Si7 0.241296 0.729886 0.896112
Si Si8 0.636489 0.345637 0.575126
O O1 0.879060 0.739401 0.566149
O O2 0.672567 0.579402 0.712644
O O3 0.206969 0.855298 0.775599
O O4 0.989043 0.861418 0.102363
O O5 0.467911 0.082188 0.414582
O O6 0.780355 0.217997 0.101939
O O7 0.997726 0.380188 0.612610
O O8 0.468938 0.349933 0.264477
O O9 0.663415 0.375374 0.381993
O O10 0.630365 0.306042 0.901566
O O11 0.475943 0.849851 0.119512
O O12 0.885447 0.016067 0.371718
O O13 0.650102 0.667822 0.297817
O O14 0.327431 0.206507 0.610125
O O15 0.316282 0.709589 0.610492
O O16 0.918715 0.537967 0.843457
#
# Coordination Sequence:
#
# PCOD9004708 Si02
#       8
#     2   2   2   2   2   2   2   2
#     4  10  22  39  60  85 113 157 207 235 273 342
#     4  10  21  38  58  82 116 156 201 242 272 336
#     4   8  17  36  60  86 114 148 195 243 287 342
#     4  11  23  36  59  91 119 152 187 235 305 352
#     4   9  20  39  62  84 112 153 197 243 285 335
#     4  11  23  38  59  90 123 149 185 244 298 341
#     4   9  19  37  59  83 113 151 191 233 286 343
#     4   8  17  35  59  85 113 148 191 237 285 343
#
# _framework density 26.535485000000001
#
# number of rings (size 3 to 8) (size 9 to 14) (size 15 to 20)
#    0.000    2.500    0.000    2.250    0.000   11.000 
#    0.000    2.500    0.000    0.000    0.000    0.000 
#    0.000    0.000    0.000    0.000    0.000    0.000 
#
# Total GULP energy -89491.322331 kJ/mol
# GULP energy per Si atom -5593.207646 kJ/mol
# Density = 2.647509 g / cm^3
# Si number density = 26.535485 Si / 1000 Ang^3
#
#
#
# Elastic Constant Matrix: (Units=GPa)
#
#
# Indices 1 2 3 4 5 6 
#
# 1 134.8074 18.0798 12.8873 -0.5860 8.1978 32.8448
# 2 18.0798 66.4037 24.6302 9.3960 2.9608 34.2197
# 3 12.8873 24.6302 89.1600 0.0533 3.4678 16.1479
# 4 -0.5860 9.3960 0.0533 36.6541 6.4128 3.1311
# 5 8.1978 2.9608 3.4678 6.4128 39.5244 -3.9099
# 6 32.8448 34.2197 16.1479 3.1311 -3.9099 47.5547
#
#
#
# Elastic Compliance Matrix: (Units=1/GPa)
#
#
# Indices 1 2 3 4 5 6 
#
# 1 0.009309 0.001566 -0.000257 0.000927 -0.002945 -0.007773
# 2 0.001566 0.026625 -0.004052 -0.004650 -0.003070 -0.018811
# 3 -0.000257 -0.004052 0.012666 0.001328 -0.001107 -0.001386
# 4 0.000927 -0.004650 0.001328 0.029319 -0.004724 -0.000064
# 5 -0.002945 -0.003070 -0.001107 -0.004724 0.027718 0.007209
# 6 -0.007773 -0.018811 -0.001386 -0.000064 0.007209 0.041000
#
#
# Mechanical properties :
#
#
# Convention : Reuss Voigt Hill
#
# Bulk Modulus (GPa) = 23.19423 44.61841 33.90632
# Shear Modulus (GPa) = 30.03112 40.39821 35.21467
#
# Velocity S-wave (km/s) = 3.36778 3.90606 3.64686
# Velocity P-wave (km/s) = 4.88696 6.09870 5.52614
#
# Compressibility (1/GPa) = 0.04311417
#
# Stress axis : x y z
#
# Youngs Moduli (GPa) = 107.41868 37.55930 78.95387
#
# Poissons Ratio (x) = -0.05882 0.02025
# Poissons Ratio (y) = -0.16823 0.31995
# Poissons Ratio (z) = 0.02755 0.15220
#
# Static dielectric constant tensor:
#      x y z
#    x 2.090410 -0.022420 -0.006080 
#    y -0.022420 2.117080 0.029080 
#    z -0.006080 0.029080 2.057690 
# 
# From -- ./inp_files/321076.got.cif
#   From: 2010.05.17/outbox.cif.g08.bks.cpg/sg2_161_cif.got.tgz:321076.got - 2010.06.03 11:33:40.
