data_PCOD9004822
_publ_section_title
;
Structure prediction by ZEFSAII (Michael W. Deem and Ramdas Pophale) SiO2 
 PCOD9004822
Probable space group: P -1
;
_chemical_formula_sum "Si O2"
_cell_formula_units_Z 16
_cell_length_a 9.090740
_cell_length_b 12.039903
_cell_length_c 12.968596
_cell_angle_alpha 139.813790
_cell_angle_beta 95.643585
_cell_angle_gamma 112.230870
_cell_volume 645.366155
_symmetry_space_group_name_H-M "P -1"
_symmetry_group_IT_number 2
_symmetry_cell_setting 'triclinic'
loop_
_space_group_symop_operation_xyz
x,y,z
-x,-y,-z
loop_
_atom_site_type_symbol
_atom_site_label
_atom_site_fract_x
_atom_site_fract_y
_atom_site_fract_z
Si Si1 0.191350 0.985884 0.231591
Si Si2 0.921597 0.616801 0.620148
Si Si3 0.763232 0.268886 0.784676
Si Si4 0.609347 0.621719 0.337712
Si Si5 0.517598 0.128712 0.197645
Si Si6 0.806976 0.503308 0.766846
Si Si7 0.307587 0.069539 0.861277
Si Si8 0.610858 0.765629 0.229597
O O1 0.236892 0.211360 0.439459
O O2 0.313622 0.040822 0.173645
O O3 0.276573 0.929604 0.288428
O O4 0.954049 0.740590 0.018677
O O5 0.687744 0.421248 0.418559
O O6 0.904633 0.581263 0.716287
O O7 0.000000 0.500000 0.500000
O O8 0.104272 0.899063 0.799996
O O9 0.777912 0.298720 0.681581
O O10 0.578896 0.253966 0.783977
O O11 0.000000 0.500000 0.000000
O O12 0.406042 0.569644 0.310087
O O13 0.711024 0.789377 0.360774
O O14 0.499995 0.347890 0.112267
O O15 0.600894 0.047710 0.221366
O O16 0.500000 0.000000 0.000000
O O17 0.249261 0.069693 0.740805
O O18 0.500000 0.500000 0.000000
#
# Coordination Sequence:
#
# PCOD9004822 Si02
#       8
#     2   2   2   2   2   2   2   2
#     4  11  20  37  63  92 122 157 209 254 305 363
#     4  10  21  38  59  84 120 159 206 250 304 364
#     4   9  19  34  61  92 120 160 206 258 309 359
#     4  10  22  39  63  92 127 161 202 256 307 369
#     4  11  22  40  60  89 120 158 207 257 299 368
#     4  10  21  39  59  92 126 155 207 258 302 361
#     4  10  21  40  63  86 125 168 200 247 317 367
#     4   9  18  36  63  90 125 164 204 252 315 372
#
# _framework density 24.792128000000002
#
# number of rings (size 3 to 8) (size 9 to 14) (size 15 to 20)
#    0.000    2.000    2.500    1.500    0.000    4.500 
#    2.250    2.500    0.000   14.250    0.000    0.000 
#    0.000    0.000    0.000    0.000    0.000    0.000 
#
# Total GULP energy -89257.280765 kJ/mol
# GULP energy per Si atom -5578.580048 kJ/mol
# Density = 2.473570 g / cm^3
# Si number density = 24.792128 Si / 1000 Ang^3
#
#
#
# Elastic Constant Matrix: (Units=GPa)
#
#
# Indices 1 2 3 4 5 6 
#
# 1 27.1686 24.1796 18.6641 9.9987 5.0141 1.4786
# 2 24.1796 177.8624 39.0455 -4.7896 -17.1675 13.9989
# 3 18.6641 39.0455 147.8792 -0.4682 -3.5537 3.8840
# 4 9.9987 -4.7896 -0.4682 36.5252 8.7985 -6.6888
# 5 5.0141 -17.1675 -3.5537 8.7985 27.3236 5.3868
# 6 1.4786 13.9989 3.8840 -6.6888 5.3868 35.2619
#
#
#
# Elastic Compliance Matrix: (Units=1/GPa)
#
#
# Indices 1 2 3 4 5 6 
#
# 1 0.054048 -0.007722 -0.005113 -0.013020 -0.011367 0.000629
# 2 -0.007722 0.007794 -0.000829 0.000887 0.006615 -0.003521
# 3 -0.005113 -0.000829 0.007664 0.001069 0.001123 -0.000269
# 4 -0.013020 0.000887 0.001069 0.034929 -0.009777 0.008195
# 5 -0.011367 0.006615 0.001123 -0.009777 0.048406 -0.011522
# 6 0.000629 -0.003521 -0.000269 0.008195 -0.011522 0.033075
#
#
# Mechanical properties :
#
#
# Convention : Reuss Voigt Hill
#
# Bulk Modulus (GPa) = 23.70998 57.40985 40.55992
# Shear Modulus (GPa) = 21.99697 37.89020 29.94359
#
# Velocity S-wave (km/s) = 2.98192 3.91361 3.47909
# Velocity P-wave (km/s) = 4.63034 6.60519 5.70388
#
# Compressibility (1/GPa) = 0.04217633
#
# Stress axis : x y z
#
# Youngs Moduli (GPa) = 18.50201 128.31088 130.48083
#
# Poissons Ratio (x) = 0.99086 0.66721
# Poissons Ratio (y) = 0.14288 0.10815
# Poissons Ratio (z) = 0.09461 0.10636
#
# Static dielectric constant tensor:
#      x y z
#    x 1.939100 -0.018460 -0.006880 
#    y -0.018460 2.093350 0.025910 
#    z -0.006880 0.025910 2.152180 
# 
# From -- ./inp_files/428948.got.cif
#   From: 2010.05.17/outbox.cif.g08.bks.cpg/sg2_215_cif.got.tgz:428948.got - 2010.06.03 11:33:40.
