data_PCOD9004660
_publ_section_title
;
Structure prediction by ZEFSAII (Michael W. Deem and Ramdas Pophale) SiO2 
 PCOD9004660
Probable space group: P -1
;
_chemical_formula_sum "Si O2"
_cell_formula_units_Z 16
_cell_length_a 5.364630
_cell_length_b 9.406358
_cell_length_c 17.240239
_cell_angle_alpha 124.614244
_cell_angle_beta 97.761515
_cell_angle_gamma 77.864918
_cell_volume 699.850564
_symmetry_space_group_name_H-M "P -1"
_symmetry_group_IT_number 2
_symmetry_cell_setting 'triclinic'
loop_
_space_group_symop_operation_xyz
x,y,z
-x,-y,-z
loop_
_atom_site_type_symbol
_atom_site_label
_atom_site_fract_x
_atom_site_fract_y
_atom_site_fract_z
Si Si1 0.379790 0.396639 0.351952
Si Si2 0.864996 0.337250 0.467931
Si Si3 0.980702 0.872835 0.889335
Si Si4 0.819215 0.929468 0.691769
Si Si5 0.589763 0.672728 0.986731
Si Si6 0.280670 0.148925 0.791887
Si Si7 0.096201 0.526683 0.884361
Si Si8 0.494812 0.798710 0.846931
O O1 0.629041 0.336155 0.397764
O O2 0.259788 0.591583 0.433558
O O3 0.194793 0.252992 0.317913
O O4 0.453816 0.372485 0.257454
O O5 0.000000 0.500000 0.500000
O O6 0.072779 0.162655 0.413988
O O7 0.027595 0.672130 0.859035
O O8 0.209646 0.886025 0.847438
O O9 0.694888 0.917299 0.863986
O O10 0.000000 0.000000 0.000000
O O11 0.536162 0.040816 0.728913
O O12 0.036458 0.048658 0.754038
O O13 0.332817 0.590057 0.958733
O O14 0.533142 0.778640 0.934800
O O15 0.844236 0.541456 0.930848
O O16 0.655347 0.775576 0.097094
O O17 0.188102 0.331654 0.799091
#
# Coordination Sequence:
#
# PCOD9004660 Si02
#       8
#     2   2   2   2   2   2   2   2
#     4  10  21  39  61  86 121 152 192 244 311 357
#     4   9  20  40  61  84 120 147 191 251 306 362
#     4  10  22  39  55  84 123 158 198 236 280 345
#     4  11  23  37  56  91 118 151 199 246 300 347
#     4  10  21  39  54  83 120 158 208 237 280 346
#     4  12  22  36  59  83 119 162 198 248 286 343
#     4  10  21  38  57  79 115 166 206 240 287 329
#     4  10  23  36  56  85 115 158 192 238 292 355
#
# _framework density 22.862022
#
# number of rings (size 3 to 8) (size 9 to 14) (size 15 to 20)
#    0.000    1.750    1.250    2.625    3.500    6.000 
#    0.000    0.000    0.000    0.000    0.000   21.000 
#    0.000    0.000    0.000    0.000    0.000    0.000 
#
# Total GULP energy -89175.901762 kJ/mol
# GULP energy per Si atom -5573.493860 kJ/mol
# Density = 2.280999 g / cm^3
# Si number density = 22.862022 Si / 1000 Ang^3
#
#
#
# Elastic Constant Matrix: (Units=GPa)
#
#
# Indices 1 2 3 4 5 6 
#
# 1 210.7568 10.3089 57.4183 21.4600 -2.1813 -4.0091
# 2 10.3089 72.5383 13.5416 26.1105 -3.6530 -10.4838
# 3 57.4183 13.5416 128.0023 23.9949 -19.2873 -5.5302
# 4 21.4600 26.1105 23.9949 28.3023 -3.4098 -5.8269
# 5 -2.1813 -3.6530 -19.2873 -3.4098 56.5033 20.2822
# 6 -4.0091 -10.4838 -5.5302 -5.8269 20.2822 25.1056
#
#
#
# Elastic Compliance Matrix: (Units=1/GPa)
#
#
# Indices 1 2 3 4 5 6 
#
# 1 0.005608 0.000795 -0.002116 -0.003143 -0.000923 0.000778
# 2 0.000795 0.021618 0.001241 -0.020572 -0.001493 0.005859
# 3 -0.002116 0.001241 0.010778 -0.008762 0.004172 -0.002849
# 4 -0.003143 -0.020572 -0.008762 0.065093 -0.002789 0.006338
# 5 -0.000923 -0.001493 0.004172 -0.002789 0.026761 -0.022119
# 6 0.000778 0.005859 -0.002849 0.006338 -0.022119 0.061116
#
#
# Mechanical properties :
#
#
# Convention : Reuss Voigt Hill
#
# Bulk Modulus (GPa) = 26.42410 63.75945 45.09177
# Shear Modulus (GPa) = 24.54016 43.98415 34.26216
#
# Velocity S-wave (km/s) = 3.27984 4.39098 3.87544
# Velocity P-wave (km/s) = 5.09179 7.32509 6.30806
#
# Compressibility (1/GPa) = 0.03784425
#
# Stress axis : x y z
#
# Youngs Moduli (GPa) = 178.32880 46.25806 92.77917
#
# Poissons Ratio (x) = -0.03679 0.19631
# Poissons Ratio (y) = -0.14182 -0.11513
# Poissons Ratio (z) = 0.37733 -0.05740
#
# Static dielectric constant tensor:
#      x y z
#    x 2.015410 0.024480 -0.032540 
#    y 0.024480 1.943750 -0.009470 
#    z -0.032540 -0.009470 1.920930 
# 
# From -- ./inp_files/583101.got.cif
#   From: 2010.05.17/outbox.cif.g08.bks.cpg/sg2_292_cif.got.tgz:583101.got - 2010.06.03 11:33:40.
