data_PCOD9004975
_publ_section_title
;
Structure prediction by ZEFSAII (Michael W. Deem and Ramdas Pophale) SiO2 
 PCOD9004975
Probable space group: P -1
;
_chemical_formula_sum "Si O2"
_cell_formula_units_Z 14
_cell_length_a 14.590230
_cell_length_b 9.435147
_cell_length_c 7.727818
_cell_angle_alpha 44.304285
_cell_angle_beta 121.352103
_cell_angle_gamma 127.232436
_cell_volume 584.267922
_symmetry_space_group_name_H-M "P -1"
_symmetry_group_IT_number 2
_symmetry_cell_setting 'triclinic'
loop_
_space_group_symop_operation_xyz
x,y,z
-x,-y,-z
loop_
_atom_site_type_symbol
_atom_site_label
_atom_site_fract_x
_atom_site_fract_y
_atom_site_fract_z
Si Si1 0.901971 0.003672 0.270104
Si Si2 0.562784 0.692937 0.027411
Si Si3 0.100743 0.574063 0.281854
Si Si4 0.292473 0.409607 0.460696
Si Si5 0.794439 0.814127 0.982505
Si Si6 0.134304 0.790138 0.508541
Si Si7 0.326073 0.643567 0.924326
O O1 0.784145 0.852128 0.385166
O O2 0.885392 0.882563 0.170242
O O3 0.000000 0.000000 0.500000
O O4 0.914168 0.246364 0.017945
O O5 0.600129 0.578478 0.324815
O O6 0.461981 0.778185 0.897576
O O7 0.500000 0.500000 0.000000
O O8 0.682710 0.854493 0.915232
O O9 0.207078 0.513310 0.374989
O O10 0.124142 0.682431 0.400774
O O11 0.978728 0.365409 0.362601
O O12 0.323724 0.523547 0.208018
O O13 0.740910 0.560134 0.095609
O O14 0.849217 0.963425 0.740915
O O15 0.248156 0.785165 0.717225
#
# Coordination Sequence:
#
# PCOD9004975 Si02
#       7
#     2   2   2   2   2   2   2
#     4  10  21  38  60  85 117 157 197 242 290 344
#     4   9  19  40  65  85 113 156 200 246 293 342
#     4  10  22  39  59  86 120 158 197 241 294 351
#     4  11  23  39  60  89 124 155 193 244 296 355
#     4   9  21  40  61  87 118 155 200 244 294 351
#     4  10  21  38  61  87 117 157 201 241 290 352
#     4  11  22  38  62  89 119 156 196 244 298 351
#
# _framework density 23.96161
#
# number of rings (size 3 to 8) (size 9 to 14) (size 15 to 20)
#    0.000    2.000    0.000    3.857    0.000    6.286 
#    0.000   12.857    0.000   12.857    0.000    0.000 
#    0.000    0.000    0.000    0.000    0.000    0.000 
#
# Total GULP energy -78287.385851 kJ/mol
# GULP energy per Si atom -5591.956132 kJ/mol
# Density = 2.390707 g / cm^3
# Si number density = 23.961610 Si / 1000 Ang^3
#
#
#
# Elastic Constant Matrix: (Units=GPa)
#
#
# Indices 1 2 3 4 5 6 
#
# 1 74.0094 33.5541 17.7687 11.6517 6.4219 4.7999
# 2 33.5541 70.3385 57.2240 22.5637 0.9363 8.2292
# 3 17.7687 57.2240 155.1722 25.1649 2.1644 11.1893
# 4 11.6517 22.5637 25.1649 50.4937 3.6344 -0.1886
# 5 6.4219 0.9363 2.1644 3.6344 44.7781 6.9973
# 6 4.7999 8.2292 11.1893 -0.1886 6.9973 36.0673
#
#
#
# Elastic Compliance Matrix: (Units=1/GPa)
#
#
# Indices 1 2 3 4 5 6 
#
# 1 0.017761 -0.009592 0.001626 -0.000454 -0.002353 -0.000225
# 2 -0.009592 0.027531 -0.007836 -0.006351 0.002167 -0.003028
# 3 0.001626 -0.007836 0.009508 -0.001604 -0.000188 -0.001350
# 4 -0.000454 -0.006351 -0.001604 0.023703 -0.002043 0.002527
# 5 -0.002353 0.002167 -0.000188 -0.002043 0.023534 -0.004700
# 6 -0.000225 -0.003028 -0.001350 0.002527 -0.004700 0.029791
#
#
# Mechanical properties :
#
#
# Convention : Reuss Voigt Hill
#
# Bulk Modulus (GPa) = 43.11279 57.40152 50.25715
# Shear Modulus (GPa) = 29.21199 38.99936 34.10568
#
# Velocity S-wave (km/s) = 3.49537 4.03870 3.77682
# Velocity P-wave (km/s) = 5.85847 6.76430 6.32762
#
# Compressibility (1/GPa) = 0.02319497
#
# Stress axis : x y z
#
# Youngs Moduli (GPa) = 56.30470 36.32311 105.17323
#
# Poissons Ratio (x) = 0.34842 -0.17105
# Poissons Ratio (y) = 0.54009 0.82417
# Poissons Ratio (z) = -0.09157 0.28464
#
# Static dielectric constant tensor:
#      x y z
#    x 2.002430 -0.050130 0.017970 
#    y -0.050130 1.937100 0.004890 
#    z 0.017970 0.004890 1.896740 
# 
# From -- ./inp_files/274206.got.cif
#   From: 2010.05.17/outbox.cif.g08.bks.cpg/sg2_138_cif.got.tgz:274206.got - 2010.06.03 11:33:40.
