data_PCOD9004034
_publ_section_title
;
Structure prediction by ZEFSAII (Michael W. Deem and Ramdas Pophale) SiO2 
 PCOD9004034
Probable space group: P -1
;
_chemical_formula_sum "Si O2"
_cell_formula_units_Z 14
_cell_length_a 24.324077
_cell_length_b 9.270736
_cell_length_c 8.303480
_cell_angle_alpha 49.218885
_cell_angle_beta 131.166055
_cell_angle_gamma 151.306601
_cell_volume 661.742841
_symmetry_space_group_name_H-M "P -1"
_symmetry_group_IT_number 2
_symmetry_cell_setting 'triclinic'
loop_
_space_group_symop_operation_xyz
x,y,z
-x,-y,-z
loop_
_atom_site_type_symbol
_atom_site_label
_atom_site_fract_x
_atom_site_fract_y
_atom_site_fract_z
Si Si1 0.640434 0.290315 0.033601
Si Si2 0.324296 0.231410 0.105708
Si Si3 0.852506 0.355793 0.990919
Si Si4 0.320838 0.050935 0.551398
Si Si5 0.924977 0.234242 0.682664
Si Si6 0.338158 0.260614 0.755848
Si Si7 0.237248 0.414523 0.288175
O O1 0.688201 0.192422 0.269944
O O2 0.687205 0.574361 0.004809
O O3 0.679674 0.380860 0.856468
O O4 0.500000 0.000000 0.000000
O O5 0.376592 0.226694 0.361627
O O6 0.389670 0.354931 0.967487
O O7 0.198690 0.874769 0.084351
O O8 0.988296 0.622967 0.103887
O O9 0.780218 0.108073 0.178121
O O10 0.804187 0.471206 0.801430
O O11 0.193197 0.890290 0.418516
O O12 0.385218 0.267107 0.676689
O O13 0.000000 0.500000 0.500000
O O14 0.876579 0.935064 0.738758
O O15 0.304111 0.408616 0.542683
#
# Coordination Sequence:
#
# PCOD9004034 Si02
#       7
#     2   2   2   2   2   2   2
#     4  12  25  44  68  94 123 172 218 268 329 369
#     4  10  23  42  63  98 129 164 218 266 304 388
#     4  10  21  37  63  96 133 166 207 253 312 384
#     4  11  22  43  65  89 138 162 211 264 316 372
#     4  11  18  38  66  95 128 177 205 247 320 386
#     4   9  20  40  64  89 134 159 217 248 314 368
#     4  11  20  41  66  91 133 172 209 263 310 379
#
# _framework density 21.156255999999999
#
# number of rings (size 3 to 8) (size 9 to 14) (size 15 to 20)
#    0.857    0.571    7.143    0.429    2.000    1.143 
#    0.000    4.286    0.000    0.000    0.000    0.000 
#    0.000    0.000    0.000    0.000    0.000    0.000 
#
# Total GULP energy -78045.912648 kJ/mol
# GULP energy per Si atom -5574.708046 kJ/mol
# Density = 2.110810 g / cm^3
# Si number density = 21.156256 Si / 1000 Ang^3
#
#
#
# Elastic Constant Matrix: (Units=GPa)
#
#
# Indices 1 2 3 4 5 6 
#
# 1 339.2513 -26.7920 229.7801 87.0169 111.8303 -35.8465
# 2 -26.7920 115.8088 -13.4983 -31.0334 -24.8086 -5.9125
# 3 229.7801 -13.4983 270.2410 44.9742 60.8260 -37.3231
# 4 87.0169 -31.0334 44.9742 68.2824 22.2912 -7.6534
# 5 111.8303 -24.8086 60.8260 22.2912 95.2998 -18.3325
# 6 -35.8465 -5.9125 -37.3231 -7.6534 -18.3325 41.0283
#
#
#
# Elastic Compliance Matrix: (Units=1/GPa)
#
#
# Indices 1 2 3 4 5 6 
#
# 1 0.014562 -0.002895 -0.008710 -0.011081 -0.010114 -0.002204
# 2 -0.002895 0.011086 0.001371 0.006752 0.004520 0.003594
# 3 -0.008710 0.001371 0.010197 0.004217 0.003931 0.004407
# 4 -0.011081 0.006752 0.004217 0.027356 0.006253 0.003024
# 5 -0.010114 0.004520 0.003931 0.006253 0.020683 0.005798
# 6 -0.002204 0.003594 0.004407 0.003024 0.005798 0.030129
#
#
# Mechanical properties :
#
#
# Convention : Reuss Voigt Hill
#
# Bulk Modulus (GPa) = 65.03661 122.69789 93.86725
# Shear Modulus (GPa) = 35.81488 76.64287 56.22888
#
# Velocity S-wave (km/s) = 4.11892 6.02542 5.16097
# Velocity P-wave (km/s) = 7.30948 10.32131 8.94310
#
# Compressibility (1/GPa) = 0.01537596
#
# Stress axis : x y z
#
# Youngs Moduli (GPa) = 68.67211 90.20220 98.06949
#
# Poissons Ratio (x) = 0.26114 0.85419
# Poissons Ratio (y) = 0.19881 -0.13441
# Poissons Ratio (z) = 0.59814 -0.12363
#
# Static dielectric constant tensor:
#      x y z
#    x 1.785090 -0.000740 -0.043010 
#    y -0.000740 1.760960 0.020210 
#    z -0.043010 0.020210 1.780960 
# 
# From -- ./inp_files/351629.got.cif
#   From: 2010.05.17/outbox.cif.g08.bks.cpg/sg2_176_cif.got.tgz:351629.got - 2010.06.03 11:33:40.
