data_PCOD9004724
_publ_section_title
;
Structure prediction by ZEFSAII (Michael W. Deem and Ramdas Pophale) SiO2 
 PCOD9004724
Probable space group: P -1
;
_chemical_formula_sum "Si O2"
_cell_formula_units_Z 16
_cell_length_a 23.422605
_cell_length_b 5.105301
_cell_length_c 5.835832
_cell_angle_alpha 95.163277
_cell_angle_beta 91.068719
_cell_angle_gamma 55.856054
_cell_volume 574.784579
_symmetry_space_group_name_H-M "P -1"
_symmetry_group_IT_number 2
_symmetry_cell_setting 'triclinic'
loop_
_space_group_symop_operation_xyz
x,y,z
-x,-y,-z
loop_
_atom_site_type_symbol
_atom_site_label
_atom_site_fract_x
_atom_site_fract_y
_atom_site_fract_z
Si Si1 0.644995 0.642935 0.608263
Si Si2 0.229287 0.974129 0.309554
Si Si3 0.389924 0.859139 0.992099
Si Si4 0.105045 0.152220 0.552613
Si Si5 0.983291 0.319777 0.797413
Si Si6 0.266081 0.308571 0.717970
Si Si7 0.858316 0.505991 0.039327
Si Si8 0.514926 0.678095 0.711922
O O1 0.696746 0.345820 0.751859
O O2 0.689583 0.571895 0.378639
O O3 0.568232 0.730363 0.589082
O O4 0.633744 0.942711 0.760618
O O5 0.176845 0.897433 0.415525
O O6 0.242763 0.171029 0.507282
O O7 0.188910 0.209435 0.118503
O O8 0.440635 0.909377 0.843080
O O9 0.321376 0.004808 0.850942
O O10 0.439466 0.508084 0.070542
O O11 0.060650 0.415342 0.377272
O O12 0.121443 0.333193 0.754970
O O13 0.055924 0.061099 0.660192
O O14 0.930374 0.245624 0.897995
O O15 0.000000 0.500000 0.000000
O O16 0.196012 0.563242 0.868533
O O17 0.500000 0.500000 0.500000
#
# Coordination Sequence:
#
# PCOD9004724 Si02
#       8
#     2   2   2   2   2   2   2   2
#     4  12  24  39  61  88 118 152 192 237 289 350
#     4  10  21  38  58  84 121 157 195 243 293 346
#     4  11  25  42  63  88 115 150 192 236 291 350
#     4   8  15  27  50  83 114 153 200 243 288 342
#     4   8  13  25  48  81 116 152 199 244 288 341
#     4  11  23  39  59  87 119 154 196 238 291 349
#     4   9  17  32  54  82 117 155 196 244 291 340
#     4  11  25  46  66  87 117 150 189 239 291 347
#
# _framework density 27.836516
#
# number of rings (size 3 to 8) (size 9 to 14) (size 15 to 20)
#    0.000    2.000    0.000    4.125    0.000    7.000 
#    0.000    0.000    0.000    0.750    0.000   86.625 
#    0.000    0.000    0.000    0.000    0.000    0.375 
#
# Total GULP energy -89565.529728 kJ/mol
# GULP energy per Si atom -5597.845608 kJ/mol
# Density = 2.777316 g / cm^3
# Si number density = 27.836516 Si / 1000 Ang^3
#
#
#
# Elastic Constant Matrix: (Units=GPa)
#
#
# Indices 1 2 3 4 5 6 
#
# 1 219.7936 37.2587 79.6274 0.7383 -48.2276 -42.2900
# 2 37.2587 57.6129 7.4879 -1.1824 5.8584 -20.5004
# 3 79.6274 7.4879 123.0677 -23.3920 4.5911 -10.4728
# 4 0.7383 -1.1824 -23.3920 35.6843 -19.3346 -3.8819
# 5 -48.2276 5.8584 4.5911 -19.3346 89.7859 2.3903
# 6 -42.2900 -20.5004 -10.4728 -3.8819 2.3903 49.0897
#
#
#
# Elastic Compliance Matrix: (Units=1/GPa)
#
#
# Indices 1 2 3 4 5 6 
#
# 1 0.009484 -0.004213 -0.005798 -0.000689 0.005388 0.004856
# 2 -0.004213 0.022516 0.002230 0.000934 -0.003818 0.006509
# 3 -0.005798 0.002230 0.013218 0.007557 -0.002294 -0.000535
# 4 -0.000689 0.000934 0.007557 0.037312 0.007110 0.004013
# 5 0.005388 -0.003818 -0.002294 0.007110 0.015867 0.002347
# 6 0.004856 0.006509 -0.000535 0.004013 0.002347 0.027362
#
#
# Mechanical properties :
#
#
# Convention : Reuss Voigt Hill
#
# Bulk Modulus (GPa) = 33.72235 72.13580 52.92907
# Shear Modulus (GPa) = 33.06752 53.31866 43.19309
#
# Velocity S-wave (km/s) = 3.45036 4.38130 3.94340
# Velocity P-wave (km/s) = 5.29283 7.18086 6.30788
#
# Compressibility (1/GPa) = 0.02965393
#
# Stress axis : x y z
#
# Youngs Moduli (GPa) = 105.44589 44.41366 75.65323
#
# Poissons Ratio (x) = 0.18713 0.43867
# Poissons Ratio (y) = 0.44428 -0.16871
# Poissons Ratio (z) = 0.61142 -0.09905
#
# Static dielectric constant tensor:
#      x y z
#    x 2.234000 0.018080 -0.120220 
#    y 0.018080 2.132580 -0.068620 
#    z -0.120220 -0.068620 2.203580 
# 
# From -- ./inp_files/12763.got.cif
#   From: 2010.05.17/outbox.cif.g08.bks.cpg/sg2_7_cif.got.tgz:12763.got - 2010.06.03 11:33:40.
