data_PCOD9004057
_publ_section_title
;
Structure prediction by ZEFSAII (Michael W. Deem and Ramdas Pophale) SiO2 
 PCOD9004057
Probable space group: P -1
;
_chemical_formula_sum "Si O2"
_cell_formula_units_Z 12
_cell_length_a 19.146982
_cell_length_b 13.731744
_cell_length_c 7.321050
_cell_angle_alpha 50.121153
_cell_angle_beta 45.699689
_cell_angle_gamma 19.470903
_cell_volume 457.982857
_symmetry_space_group_name_H-M "P -1"
_symmetry_group_IT_number 2
_symmetry_cell_setting 'triclinic'
loop_
_space_group_symop_operation_xyz
x,y,z
-x,-y,-z
loop_
_atom_site_type_symbol
_atom_site_label
_atom_site_fract_x
_atom_site_fract_y
_atom_site_fract_z
Si Si1 0.146148 0.870180 0.116920
Si Si2 0.760508 0.153991 0.427592
Si Si3 0.415691 0.786818 0.821402
Si Si4 0.338707 0.222009 0.240631
Si Si5 0.215130 0.279798 0.756044
Si Si6 0.402728 0.902081 0.304625
O O1 0.347336 0.531635 0.145127
O O2 0.135432 0.946629 0.844053
O O3 0.244603 0.869782 0.058288
O O4 0.922130 0.059046 0.357515
O O5 0.500000 0.500000 0.500000
O O6 0.737894 0.029415 0.646434
O O7 0.455659 0.765563 0.558303
O O8 0.311064 0.035919 0.793376
O O9 0.190684 0.397736 0.480962
O O10 0.587993 0.899338 0.256349
O O11 0.279809 0.174744 0.271719
O O12 0.378869 0.302320 0.956755
O O13 0.000000 0.500000 0.000000
#
# Coordination Sequence:
#
# PCOD9004057 Si02
#       6
#     2   2   2   2   2   2
#     4   9  20  41  63  96 130 172 217 268 330 389
#     4  10  21  37  63  99 129 166 217 271 336 388
#     4   9  19  40  69  94 134 171 220 271 324 397
#     4   9  20  41  61  87 130 171 214 267 322 392
#     4  10  21  39  65  98 124 168 221 270 330 381
#     4   9  19  40  63  89 130 171 211 270 324 389
#
# _framework density 26.201854999999998
#
# number of rings (size 3 to 8) (size 9 to 14) (size 15 to 20)
#    0.000    2.667    0.000    0.000    2.333    1.333 
#    9.000   16.667    0.000    0.000    0.000    0.000 
#    0.000    0.000    0.000    0.000    0.000    0.000 
#
# Total GULP energy -67150.680946 kJ/mol
# GULP energy per Si atom -5595.890079 kJ/mol
# Density = 2.614222 g / cm^3
# Si number density = 26.201855 Si / 1000 Ang^3
#
#
#
# Elastic Constant Matrix: (Units=GPa)
#
#
# Indices 1 2 3 4 5 6 
#
# 1 105.8880 33.2728 68.7766 11.6225 -36.4669 4.2399
# 2 33.2728 63.3273 46.3311 11.1427 -24.6561 3.8709
# 3 68.7766 46.3311 221.8604 6.2933 -20.0886 -6.5869
# 4 11.6225 11.1427 6.2933 43.3752 -14.3464 -8.0764
# 5 -36.4669 -24.6561 -20.0886 -14.3464 67.0867 -2.6359
# 6 4.2399 3.8709 -6.5869 -8.0764 -2.6359 27.1432
#
#
#
# Elastic Compliance Matrix: (Units=1/GPa)
#
#
# Indices 1 2 3 4 5 6 
#
# 1 0.014762 -0.002539 -0.003578 -0.001431 0.005608 -0.002693
# 2 -0.002539 0.022505 -0.003493 -0.003788 0.004866 -0.004315
# 3 -0.003578 -0.003493 0.006308 0.001143 -0.000984 0.002832
# 4 -0.001431 -0.003788 0.001143 0.027510 0.004435 0.009657
# 5 0.005608 0.004866 -0.000984 0.004435 0.020455 0.001497
# 6 -0.002693 -0.004315 0.002832 0.009657 0.001497 0.041584
#
#
# Mechanical properties :
#
#
# Convention : Reuss Voigt Hill
#
# Bulk Modulus (GPa) = 41.05624 76.42630 58.74127
# Shear Modulus (GPa) = 31.16009 43.70068 37.43039
#
# Velocity S-wave (km/s) = 3.45227 4.08836 3.78370
# Velocity P-wave (km/s) = 5.62086 7.17759 6.44639
#
# Compressibility (1/GPa) = 0.02435684
#
# Stress axis : x y z
#
# Youngs Moduli (GPa) = 67.74343 44.43461 158.51953
#
# Poissons Ratio (x) = 0.11281 0.56710
# Poissons Ratio (y) = 0.17198 0.55368
# Poissons Ratio (z) = 0.24235 0.15520
#
# Static dielectric constant tensor:
#      x y z
#    x 2.111950 -0.027340 0.000180 
#    y -0.027340 2.040110 -0.034260 
#    z 0.000180 -0.034260 2.079230 
# 
# From -- ./inp_files/347156.got.cif
#   From: 2010.05.17/outbox.cif.g08.bks.cpg/sg2_174_cif.got.tgz:347156.got - 2010.06.03 11:33:40.
