data_PCOD9004149
_publ_section_title
;
Structure prediction by ZEFSAII (Michael W. Deem and Ramdas Pophale) SiO2 
 PCOD9004149
Probable space group: P -1
;
_chemical_formula_sum "Si O2"
_cell_formula_units_Z 14
_cell_length_a 9.710379
_cell_length_b 9.444423
_cell_length_c 19.520618
_cell_angle_alpha 134.327904
_cell_angle_beta 123.658811
_cell_angle_gamma 30.196642
_cell_volume 637.945713
_symmetry_space_group_name_H-M "P -1"
_symmetry_group_IT_number 2
_symmetry_cell_setting 'triclinic'
loop_
_space_group_symop_operation_xyz
x,y,z
-x,-y,-z
loop_
_atom_site_type_symbol
_atom_site_label
_atom_site_fract_x
_atom_site_fract_y
_atom_site_fract_z
Si Si1 0.297168 0.465033 0.592975
Si Si2 0.299283 0.666825 0.436010
Si Si3 0.524931 0.845686 0.225542
Si Si4 0.876370 0.554527 0.770989
Si Si5 0.204572 0.246078 0.032973
Si Si6 0.295185 0.739014 0.959957
Si Si7 0.283641 0.063296 0.372831
O O1 0.525503 0.369021 0.581869
O O2 0.274717 0.277339 0.484188
O O3 0.976416 0.823285 0.638767
O O4 0.431586 0.306701 0.650341
O O5 0.500000 0.500000 0.500000
O O6 0.241261 0.520345 0.328518
O O7 0.000000 0.000000 0.500000
O O8 0.621772 0.528115 0.153436
O O9 0.807975 0.701242 0.250911
O O10 0.340213 0.065658 0.181929
O O11 0.314936 0.091706 0.312496
O O12 0.869871 0.555562 0.852170
O O13 0.000000 0.500000 0.000000
O O14 0.500000 0.000000 0.000000
O O15 0.247108 0.981146 0.983266
O O16 0.500000 0.500000 0.000000
O O17 0.000000 0.000000 0.000000
#
# Coordination Sequence:
#
# PCOD9004149 Si02
#       7
#     2   2   2   2   2   2   2
#     4  10  21  39  59  92 137 174 225 288 351 414
#     4  12  25  43  68 100 142 190 239 293 364 438
#     4  12  23  43  72 103 135 183 253 292 365 429
#     4  12  25  44  71 103 143 191 243 306 357 451
#     4  12  26  46  73 108 149 190 236 306 383 434
#     4  12  23  46  73 103 141 187 242 304 362 440
#     4  10  21  37  64  93 129 178 227 291 347 419
#
# _framework density 21.945440999999999
#
# number of rings (size 3 to 8) (size 9 to 14) (size 15 to 20)
#    0.000    0.571    2.857    6.000    0.000    3.429 
#    0.000    2.857    0.000    0.000    0.000    0.000 
#    0.000    0.000    0.000    0.000    0.000    0.000 
#
# Total GULP energy -77979.643409 kJ/mol
# GULP energy per Si atom -5569.974529 kJ/mol
# Density = 2.189549 g / cm^3
# Si number density = 21.945441 Si / 1000 Ang^3
#
#
#
# Elastic Constant Matrix: (Units=GPa)
#
#
# Indices 1 2 3 4 5 6 
#
# 1 169.2246 69.0866 41.2970 -7.0405 -8.7222 -13.9519
# 2 69.0866 185.0372 54.1708 -12.8374 -6.4512 -10.0459
# 3 41.2970 54.1708 103.1075 -16.5756 -11.2421 4.0867
# 4 -7.0405 -12.8374 -16.5756 31.8781 4.6372 -13.3289
# 5 -8.7222 -6.4512 -11.2421 4.6372 30.7913 2.4561
# 6 -13.9519 -10.0459 4.0867 -13.3289 2.4561 48.0432
#
#
#
# Elastic Compliance Matrix: (Units=1/GPa)
#
#
# Indices 1 2 3 4 5 6 
#
# 1 0.007419 -0.002071 -0.001782 0.000603 0.000767 0.002001
# 2 -0.002071 0.007186 -0.002784 0.001750 -0.000492 0.001649
# 3 -0.001782 -0.002784 0.012946 0.004278 0.003088 -0.001172
# 4 0.000603 0.001750 0.004278 0.039946 -0.004835 0.011507
# 5 0.000767 -0.000492 0.003088 -0.004835 0.034706 -0.003259
# 6 0.002001 0.001649 -0.001172 0.011507 -0.003259 0.025199
#
#
# Mechanical properties :
#
#
# Convention : Reuss Voigt Hill
#
# Bulk Modulus (GPa) = 70.04192 87.38644 78.71418
# Shear Modulus (GPa) = 34.37930 41.66353 38.02142
#
# Velocity S-wave (km/s) = 3.96230 4.36191 4.16690
# Velocity P-wave (km/s) = 7.27453 8.07927 7.68744
#
# Compressibility (1/GPa) = 0.01427717
#
# Stress axis : x y z
#
# Youngs Moduli (GPa) = 134.78173 139.15319 77.24543
#
# Poissons Ratio (x) = 0.28821 0.13767
# Poissons Ratio (y) = 0.27915 0.21503
# Poissons Ratio (z) = 0.24022 0.38736
#
# Static dielectric constant tensor:
#      x y z
#    x 1.770310 0.044910 0.004410 
#    y 0.044910 1.814880 -0.033300 
#    z 0.004410 -0.033300 1.904130 
# 
# From -- ./inp_files/224157.got.cif
#   From: 2010.05.17/outbox.cif.g08.bks.cpg/sg2_113_cif.got.tgz:224157.got - 2010.06.03 11:33:40.
