data_PCOD9004290
_publ_section_title
;
Structure prediction by ZEFSAII (Michael W. Deem and Ramdas Pophale) SiO2 
 PCOD9004290
Probable space group: P -1
;
_chemical_formula_sum "Si O2"
_cell_formula_units_Z 16
_cell_length_a 16.022117
_cell_length_b 7.776347
_cell_length_c 8.511831
_cell_angle_alpha 118.586264
_cell_angle_beta 136.213281
_cell_angle_gamma 49.103526
_cell_volume 554.680777
_symmetry_space_group_name_H-M "P -1"
_symmetry_group_IT_number 2
_symmetry_cell_setting 'triclinic'
loop_
_space_group_symop_operation_xyz
x,y,z
-x,-y,-z
loop_
_atom_site_type_symbol
_atom_site_label
_atom_site_fract_x
_atom_site_fract_y
_atom_site_fract_z
Si Si1 0.394909 0.396232 0.228643
Si Si2 0.945470 0.140895 0.824895
Si Si3 0.176935 0.215985 0.216239
Si Si4 0.421995 0.272851 0.547235
Si Si5 0.675072 0.244101 0.977555
Si Si6 0.844801 0.677224 0.206953
Si Si7 0.908856 0.293159 0.389281
Si Si8 0.294030 0.924401 0.566832
O O1 0.445980 0.378381 0.468326
O O2 0.329858 0.612607 0.121250
O O3 0.538875 0.206881 0.260096
O O4 0.272860 0.335345 0.057058
O O5 0.782914 0.221557 0.621435
O O6 0.010764 0.954144 0.692765
O O7 0.012358 0.300511 0.007959
O O8 0.000000 0.000000 0.000000
O O9 0.260776 0.350377 0.388505
O O10 0.231412 0.090506 0.403876
O O11 0.242512 0.016423 0.084863
O O12 0.517315 0.301135 0.820469
O O13 0.500000 0.000000 0.500000
O O14 0.764551 0.304250 0.244571
O O15 0.883549 0.477226 0.300100
O O16 0.762458 0.916551 0.289623
O O17 0.986897 0.669607 0.341179
#
# Coordination Sequence:
#
# PCOD9004290 Si02
#       8
#     2   2   2   2   2   2   2   2
#     4  11  19  29  48  78  99 126 159 200 248 284
#     4   8  15  27  48  74  92 122 161 200 236 277
#     4   9  17  31  50  75  93 128 163 198 248 284
#     4  10  18  30  48  73 100 126 159 200 246 295
#     4   9  17  29  50  74  94 122 163 205 240 280
#     4   9  18  29  46  74  96 129 162 201 234 278
#     4   8  15  30  47  68  96 122 162 198 236 277
#     4  10  17  28  47  73 101 125 157 203 235 293
#
# _framework density 28.845417999999999
#
# number of rings (size 3 to 8) (size 9 to 14) (size 15 to 20)
#    0.000    2.750    2.500    0.750    0.000    0.000 
#    0.000    0.000    0.000   15.750    3.250    0.000 
#    0.000    0.000    0.000    0.000    0.000    0.000 
#
# Total GULP energy -89448.963497 kJ/mol
# GULP energy per Si atom -5590.560219 kJ/mol
# Density = 2.877976 g / cm^3
# Si number density = 28.845418 Si / 1000 Ang^3
#
#
#
# Elastic Constant Matrix: (Units=GPa)
#
#
# Indices 1 2 3 4 5 6 
#
# 1 64.9529 33.3756 45.6715 0.8298 27.4242 11.1297
# 2 33.3756 84.2473 22.5577 10.6824 6.2085 24.4825
# 3 45.6715 22.5577 238.7332 42.6192 63.7082 0.5965
# 4 0.8298 10.6824 42.6192 53.2323 8.6741 7.1317
# 5 27.4242 6.2085 63.7082 8.6741 70.2812 -0.3898
# 6 11.1297 24.4825 0.5965 7.1317 -0.3898 48.7544
#
#
#
# Elastic Compliance Matrix: (Units=1/GPa)
#
#
# Indices 1 2 3 4 5 6 
#
# 1 0.025290 -0.008709 -0.003091 0.005255 -0.006957 -0.002186
# 2 -0.008709 0.017357 -0.000046 -0.002829 0.002221 -0.006296
# 3 -0.003091 -0.000046 0.006812 -0.004864 -0.004357 0.001322
# 4 0.005255 -0.002829 -0.004864 0.023645 -0.000328 -0.003181
# 5 -0.006957 0.002221 -0.004357 -0.000328 0.020742 0.000740
# 6 -0.002186 -0.006296 0.001322 -0.003181 0.000740 0.024626
#
#
# Mechanical properties :
#
#
# Convention : Reuss Voigt Hill
#
# Bulk Modulus (GPa) = 38.81057 65.68256 52.24656
# Shear Modulus (GPa) = 33.16675 53.54214 43.35445
#
# Velocity S-wave (km/s) = 3.39456 4.31301 3.88105
# Velocity P-wave (km/s) = 5.37103 6.90092 6.18347
#
# Compressibility (1/GPa) = 0.02576618
#
# Stress axis : x y z
#
# Youngs Moduli (GPa) = 39.54190 57.61349 146.79476
#
# Poissons Ratio (x) = 0.50178 0.45377
# Poissons Ratio (y) = 0.34439 0.00671
# Poissons Ratio (z) = 0.12223 0.00263
#
# Static dielectric constant tensor:
#      x y z
#    x 2.217150 0.023550 0.069260 
#    y 0.023550 2.229440 -0.025000 
#    z 0.069260 -0.025000 2.252010 
# 
# From -- ./inp_files/260144.got.cif
#   From: 2010.05.17/outbox.cif.g08.bks.cpg/sg2_131_cif.got.tgz:260144.got - 2010.06.03 11:33:40.
