data_PCOD9004158
_publ_section_title
;
Structure prediction by ZEFSAII (Michael W. Deem and Ramdas Pophale) SiO2 
 PCOD9004158
Probable space group: P -1
;
_chemical_formula_sum "Si O2"
_cell_formula_units_Z 14
_cell_length_a 13.310779
_cell_length_b 14.119509
_cell_length_c 10.910115
_cell_angle_alpha 117.802506
_cell_angle_beta 33.416804
_cell_angle_gamma 141.854656
_cell_volume 578.525312
_symmetry_space_group_name_H-M "P -1"
_symmetry_group_IT_number 2
_symmetry_cell_setting 'triclinic'
loop_
_space_group_symop_operation_xyz
x,y,z
-x,-y,-z
loop_
_atom_site_type_symbol
_atom_site_label
_atom_site_fract_x
_atom_site_fract_y
_atom_site_fract_z
Si Si1 0.386210 0.580873 0.769242
Si Si2 0.070324 0.878775 0.331882
Si Si3 0.286852 0.303340 0.753100
Si Si4 0.363811 0.335741 0.964787
Si Si5 0.671577 0.905756 0.040719
Si Si6 0.373300 0.967180 0.474358
Si Si7 0.629248 0.189231 0.123043
O O1 0.192547 0.383802 0.886168
O O2 0.503267 0.619580 0.533385
O O3 0.262996 0.642773 0.930951
O O4 0.700272 0.719814 0.616275
O O5 0.280026 0.998851 0.309155
O O6 0.151547 0.799932 0.147235
O O7 0.202096 0.022619 0.181809
O O8 0.461253 0.372406 0.745452
O O9 0.974438 0.082429 0.922641
O O10 0.986694 0.169585 0.239423
O O11 0.500000 0.500000 0.000000
O O12 0.444148 0.265296 0.909573
O O13 0.416553 0.876541 0.302037
O O14 0.500000 0.000000 0.500000
O O15 0.570481 0.148046 0.303065
#
# Coordination Sequence:
#
# PCOD9004158 Si02
#       7
#     2   2   2   2   2   2   2
#     4  10  21  38  64  89 130 165 209 266 312 370
#     4   9  20  38  62  95 127 160 215 261 314 379
#     4  10  22  41  62  96 126 166 216 252 315 391
#     4  12  27  42  67  97 128 167 216 269 320 374
#     4  10  22  44  68  90 130 169 212 262 317 383
#     4  11  23  41  68  94 127 172 216 251 322 389
#     4  10  21  37  64  94 124 169 210 261 320 368
#
# _framework density 24.199458
#
# number of rings (size 3 to 8) (size 9 to 14) (size 15 to 20)
#    0.000    1.714    1.429    2.571    6.000    0.571 
#    0.000   14.286    0.000    0.000    0.000    0.000 
#    0.000    0.000    0.000    0.000    0.000    0.000 
#
# Total GULP energy -78387.504283 kJ/mol
# GULP energy per Si atom -5599.107449 kJ/mol
# Density = 2.414438 g / cm^3
# Si number density = 24.199458 Si / 1000 Ang^3
#
#
#
# Elastic Constant Matrix: (Units=GPa)
#
#
# Indices 1 2 3 4 5 6 
#
# 1 97.2977 33.0606 -1.9978 -0.0110 -0.9650 -4.0768
# 2 33.0606 121.7844 -1.3052 15.5639 -0.8791 -33.3894
# 3 -1.9978 -1.3052 22.4679 3.4039 -12.2039 1.9775
# 4 -0.0110 15.5639 3.4039 16.7933 -2.6160 -7.2917
# 5 -0.9650 -0.8791 -12.2039 -2.6160 33.3517 4.1624
# 6 -4.0768 -33.3894 1.9775 -7.2917 4.1624 58.2042
#
#
#
# Elastic Compliance Matrix: (Units=1/GPa)
#
#
# Indices 1 2 3 4 5 6 
#
# 1 0.011554 -0.003805 0.000969 0.003011 0.000962 -0.001098
# 2 -0.003805 0.011888 0.000727 -0.008933 -0.000915 0.005475
# 3 0.000969 0.000727 0.058098 -0.011081 0.020983 -0.004378
# 4 0.003011 -0.008933 -0.011081 0.072141 0.000902 0.004436
# 5 0.000962 -0.000915 0.020983 0.000902 0.038209 -0.003790
# 6 -0.001098 0.005475 -0.004378 0.004436 -0.003790 0.021220
#
#
# Mechanical properties :
#
#
# Convention : Reuss Voigt Hill
#
# Bulk Modulus (GPa) = 12.93280 33.45169 23.19225
# Shear Modulus (GPa) = 20.56740 35.78932 28.17836
#
# Velocity S-wave (km/s) = 2.91849 3.84986 3.41606
# Velocity P-wave (km/s) = 4.08811 5.79786 5.01636
#
# Compressibility (1/GPa) = 0.07732277
#
# Stress axis : x y z
#
# Youngs Moduli (GPa) = 86.54666 84.11823 17.21225
#
# Poissons Ratio (x) = 0.32008 -0.01668
# Poissons Ratio (y) = 0.32933 -0.01251
# Poissons Ratio (z) = -0.08389 -0.06114
#
# Static dielectric constant tensor:
#      x y z
#    x 1.948710 0.025980 0.001550 
#    y 0.025980 1.943260 -0.002290 
#    z 0.001550 -0.002290 1.943690 
# 
# From -- ./inp_files/455774.got.cif
#   From: 2010.05.17/outbox.cif.g08.bks.cpg/sg2_228_cif.got.tgz:455774.got - 2010.06.03 11:33:40.
