data_PCOD9004073
_publ_section_title
;
Structure prediction by ZEFSAII (Michael W. Deem and Ramdas Pophale) SiO2 
 PCOD9004073
Probable space group: P -1
;
_chemical_formula_sum "Si O2"
_cell_formula_units_Z 14
_cell_length_a 5.219321
_cell_length_b 26.744875
_cell_length_c 11.283059
_cell_angle_alpha 22.429373
_cell_angle_beta 115.325633
_cell_angle_gamma 112.902564
_cell_volume 543.089698
_symmetry_space_group_name_H-M "P -1"
_symmetry_group_IT_number 2
_symmetry_cell_setting 'triclinic'
loop_
_space_group_symop_operation_xyz
x,y,z
-x,-y,-z
loop_
_atom_site_type_symbol
_atom_site_label
_atom_site_fract_x
_atom_site_fract_y
_atom_site_fract_z
Si Si1 0.122630 0.647015 0.020195
Si Si2 0.851689 0.299611 0.458623
Si Si3 0.846679 0.818221 0.008109
Si Si4 0.732503 0.295444 0.828936
Si Si5 0.496131 0.466176 0.866350
Si Si6 0.899485 0.048266 0.680963
Si Si7 0.304108 0.131281 0.773270
O O1 0.202169 0.614376 0.243004
O O2 0.324345 0.577038 0.118831
O O3 0.793226 0.615578 0.002347
O O4 0.174422 0.802062 0.684494
O O5 0.584356 0.208004 0.632406
O O6 0.038115 0.288353 0.638208
O O7 0.054283 0.233435 0.543615
O O8 0.706699 0.433030 0.089621
O O9 0.512344 0.804574 0.969486
O O10 0.989798 0.778925 0.999889
O O11 0.932745 0.958020 0.770489
O O12 0.610679 0.386837 0.499030
O O13 0.182251 0.057009 0.798048
O O14 0.679527 0.971349 0.889972
#
# Coordination Sequence:
#
# PCOD9004073 Si02
#       7
#     2   2   2   2   2   2   2
#     4  12  25  44  70  98 123 170 223 273 313 369
#     4  11  21  41  67  99 129 159 219 265 330 372
#     4  11  26  42  64  96 134 179 201 257 330 400
#     4  12  27  46  63  91 139 177 216 252 315 394
#     4  12  24  44  71  97 122 169 224 278 312 360
#     4  10  22  40  68  98 131 165 210 267 329 379
#     4  10  21  37  64 103 130 158 205 279 323 373
#
# _framework density 25.778427000000001
#
# number of rings (size 3 to 8) (size 9 to 14) (size 15 to 20)
#    0.000    0.857    2.857    4.286    0.000   12.000 
#    0.000    0.000    0.000    0.000    0.000    0.000 
#    0.000    0.000    0.000    0.000    0.000    0.000 
#
# Total GULP energy -78497.743072 kJ/mol
# GULP energy per Si atom -5606.981648 kJ/mol
# Density = 2.571975 g / cm^3
# Si number density = 25.778427 Si / 1000 Ang^3
#
#
#
# Elastic Constant Matrix: (Units=GPa)
#
#
# Indices 1 2 3 4 5 6 
#
# 1 88.9710 29.2483 31.3863 -9.8200 -24.4077 -13.2235
# 2 29.2483 59.7879 -2.9514 0.2106 -2.1342 -2.2185
# 3 31.3863 -2.9514 79.5101 -8.2163 4.3924 0.6747
# 4 -9.8200 0.2106 -8.2163 31.8158 0.6153 12.3432
# 5 -24.4077 -2.1342 4.3924 0.6153 26.8924 -8.4819
# 6 -13.2235 -2.2185 0.6747 12.3432 -8.4819 41.6086
#
#
#
# Elastic Compliance Matrix: (Units=1/GPa)
#
#
# Indices 1 2 3 4 5 6 
#
# 1 0.037856 -0.017134 -0.018283 -0.001737 0.042521 0.020597
# 2 -0.017134 0.024619 0.008734 0.000212 -0.017523 -0.007909
# 3 -0.018283 0.008734 0.022039 0.005091 -0.023396 -0.011982
# 4 -0.001737 0.000212 0.005091 0.037497 -0.007432 -0.013262
# 5 0.042521 -0.017523 -0.023396 -0.007432 0.088875 0.033280
# 6 0.020597 -0.007909 -0.011982 -0.013262 0.033280 0.041070
#
#
# Mechanical properties :
#
#
# Convention : Reuss Voigt Hill
#
# Bulk Modulus (GPa) = 32.10332 38.18169 35.14251
# Shear Modulus (GPa) = 15.83762 31.43575 23.63668
#
# Velocity S-wave (km/s) = 2.48135 3.49586 3.03135
# Velocity P-wave (km/s) = 4.54863 5.58018 5.09060
#
# Compressibility (1/GPa) = 0.03114943
#
# Stress axis : x y z
#
# Youngs Moduli (GPa) = 26.41564 40.61899 45.37488
#
# Poissons Ratio (x) = 0.69595 0.82959
# Poissons Ratio (y) = 0.45260 -0.39632
# Poissons Ratio (z) = 0.48296 -0.35478
#
# Static dielectric constant tensor:
#      x y z
#    x 1.992710 -0.017280 -0.007390 
#    y -0.017280 2.024090 0.077760 
#    z -0.007390 0.077760 2.066500 
# 
# From -- ./inp_files/371383.got.cif
#   From: 2010.05.17/outbox.cif.g08.bks.cpg/sg2_186_cif.got.tgz:371383.got - 2010.06.03 11:33:40.
