data_PCOD9004623
_publ_section_title
;
Structure prediction by ZEFSAII (Michael W. Deem and Ramdas Pophale) SiO2 
 PCOD9004623
Probable space group: P -1
;
_chemical_formula_sum "Si O2"
_cell_formula_units_Z 14
_cell_length_a 8.885381
_cell_length_b 8.213266
_cell_length_c 7.301612
_cell_angle_alpha 105.198545
_cell_angle_beta 84.164017
_cell_angle_gamma 98.901201
_cell_volume 506.981556
_symmetry_space_group_name_H-M "P -1"
_symmetry_group_IT_number 2
_symmetry_cell_setting 'triclinic'
loop_
_space_group_symop_operation_xyz
x,y,z
-x,-y,-z
loop_
_atom_site_type_symbol
_atom_site_label
_atom_site_fract_x
_atom_site_fract_y
_atom_site_fract_z
Si Si1 0.308931 0.290787 0.400025
Si Si2 0.868557 0.839754 0.982845
Si Si3 0.608802 0.395732 0.199855
Si Si4 0.158668 0.593676 0.439928
Si Si5 0.563856 0.764608 0.191613
Si Si6 0.867141 0.299244 0.926562
Si Si7 0.284319 0.932952 0.406384
O O1 0.195403 0.239998 0.225281
O O2 0.484515 0.297186 0.322042
O O3 0.280087 0.486787 0.485883
O O4 0.271758 0.130283 0.491920
O O5 0.957863 0.710324 0.052510
O O6 0.715876 0.867560 0.118439
O O7 0.000000 0.000000 0.000000
O O8 0.596914 0.597502 0.249925
O O9 0.533432 0.319930 0.993214
O O10 0.778795 0.350244 0.131044
O O11 0.160733 0.588982 0.216185
O O12 0.195885 0.797673 0.518925
O O13 0.000000 0.500000 0.500000
O O14 0.451220 0.877487 0.339045
O O15 0.795100 0.117410 0.796237
#
# Coordination Sequence:
#
# PCOD9004623 Si02
#       7
#     2   2   2   2   2   2   2
#     4  11  20  33  59  82 110 141 172 220 279 323
#     4  11  20  30  49  87 121 142 162 214 285 336
#     4   9  16  31  51  78 105 140 176 217 267 321
#     4  10  21  38  56  78 105 139 191 233 256 301
#     4   9  17  29  49  71 114 140 169 214 253 329
#     4   9  19  34  48  81 112 136 175 210 270 325
#     4   9  19  35  51  81 105 139 188 213 260 320
#
# _framework density 27.614419999999999
#
# number of rings (size 3 to 8) (size 9 to 14) (size 15 to 20)
#    0.857    1.429    2.857    1.714    2.000    4.571 
#    0.000    0.000    0.000    0.857    0.000    2.000 
#    0.000    0.000    0.000    0.000    0.000    0.000 
#
# Total GULP energy -78343.637453 kJ/mol
# GULP energy per Si atom -5595.974104 kJ/mol
# Density = 2.755157 g / cm^3
# Si number density = 27.614420 Si / 1000 Ang^3
#
#
#
# Elastic Constant Matrix: (Units=GPa)
#
#
# Indices 1 2 3 4 5 6 
#
# 1 131.6902 26.3833 -4.6124 -15.5835 -9.3127 9.6763
# 2 26.3833 205.8770 43.0877 -5.1912 -8.3108 6.1000
# 3 -4.6124 43.0877 65.0942 -2.6342 -16.2184 8.5304
# 4 -15.5835 -5.1912 -2.6342 57.9727 12.0106 5.7781
# 5 -9.3127 -8.3108 -16.2184 12.0106 35.2051 -18.4040
# 6 9.6763 6.1000 8.5304 5.7781 -18.4040 52.2471
#
#
#
# Elastic Compliance Matrix: (Units=1/GPa)
#
#
# Indices 1 2 3 4 5 6 
#
# 1 0.008397 -0.001368 0.002126 0.002092 0.001388 -0.001485
# 2 -0.001368 0.005884 -0.004230 0.000201 -0.001063 -0.000140
# 3 0.002126 -0.004230 0.020607 -0.000837 0.009419 0.000146
# 4 0.002092 0.000201 -0.000837 0.020446 -0.009910 -0.006026
# 5 0.001388 -0.001063 0.009419 -0.009910 0.044053 0.014943
# 6 -0.001485 -0.000140 0.000146 -0.006026 0.014943 0.025337
#
#
# Mechanical properties :
#
#
# Convention : Reuss Voigt Hill
#
# Bulk Modulus (GPa) = 35.78838 59.15318 47.47078
# Shear Modulus (GPa) = 35.46515 51.60517 43.53516
#
# Velocity S-wave (km/s) = 3.58760 4.32762 3.97487
# Velocity P-wave (km/s) = 5.49084 6.81460 6.18822
#
# Compressibility (1/GPa) = 0.02794203
#
# Stress axis : x y z
#
# Youngs Moduli (GPa) = 119.09167 169.94489 48.52749
#
# Poissons Ratio (x) = 0.23251 -0.10315
# Poissons Ratio (y) = 0.16294 0.20529
# Poissons Ratio (z) = -0.25314 0.71893
#
# Static dielectric constant tensor:
#      x y z
#    x 2.175730 0.017120 0.156570 
#    y 0.017120 2.240010 0.124620 
#    z 0.156570 0.124620 2.232810 
# 
# From -- ./inp_files/415381.got.cif
#   From: 2010.05.17/outbox.cif.g08.bks.cpg/sg2_208_cif.got.tgz:415381.got - 2010.06.03 11:33:40.
