data_PCOD9004581
_publ_section_title
;
Structure prediction by ZEFSAII (Michael W. Deem and Ramdas Pophale) SiO2 
 PCOD9004581
Probable space group: P -1
;
_chemical_formula_sum "Si O2"
_cell_formula_units_Z 16
_cell_length_a 8.228884
_cell_length_b 15.174993
_cell_length_c 8.176577
_cell_angle_alpha 102.620899
_cell_angle_beta 51.379098
_cell_angle_gamma 73.034026
_cell_volume 644.090776
_symmetry_space_group_name_H-M "P -1"
_symmetry_group_IT_number 2
_symmetry_cell_setting 'triclinic'
loop_
_space_group_symop_operation_xyz
x,y,z
-x,-y,-z
loop_
_atom_site_type_symbol
_atom_site_label
_atom_site_fract_x
_atom_site_fract_y
_atom_site_fract_z
Si Si1 0.427254 0.240242 0.929256
Si Si2 0.856072 0.454002 0.980105
Si Si3 0.141838 0.011490 0.763145
Si Si4 0.212770 0.995513 0.237298
Si Si5 0.974062 0.250511 0.036360
Si Si6 0.567832 0.903913 0.680852
Si Si7 0.329374 0.670816 0.417852
Si Si8 0.125550 0.326673 0.454279
O O1 0.218476 0.230027 0.967234
O O2 0.277636 0.328856 0.205091
O O3 0.617038 0.127939 0.857075
O O4 0.563214 0.271041 0.727208
O O5 0.560177 0.544794 0.213903
O O6 0.904597 0.344838 0.988292
O O7 0.974062 0.425804 0.713708
O O8 0.000000 0.500000 0.000000
O O9 0.052401 0.976024 0.649292
O O10 0.432440 0.936239 0.604380
O O11 0.040644 0.138171 0.871295
O O12 0.000000 0.000000 0.000000
O O13 0.221611 0.074994 0.391572
O O14 0.351438 0.989731 0.978446
O O15 0.757419 0.289488 0.325432
O O16 0.675827 0.780350 0.608083
O O17 0.083438 0.690352 0.493836
#
# Coordination Sequence:
#
# PCOD9004581 Si02
#       8
#     2   2   2   2   2   2   2   2
#     4  10  21  45  71 102 143 188 233 291 359 427
#     4  12  26  49  70 103 139 184 241 302 361 413
#     4  10  21  37  72 107 142 191 234 284 360 431
#     4   9  18  34  68 100 141 188 228 288 351 425
#     4  11  24  47  71 103 149 183 236 301 349 426
#     4   9  18  40  65 102 147 182 233 296 351 426
#     4  11  25  46  73 100 136 193 240 290 363 425
#     4  10  25  45  73 100 140 186 236 300 353 428
#
# _framework density 24.84122
#
# number of rings (size 3 to 8) (size 9 to 14) (size 15 to 20)
#    0.000    1.750    2.500    0.750    7.000    3.500 
#    2.250    2.500    0.000    0.000    0.000    0.000 
#    0.000    0.000    0.000    0.000    0.000    0.000 
#
# Total GULP energy -89595.749829 kJ/mol
# GULP energy per Si atom -5599.734364 kJ/mol
# Density = 2.478468 g / cm^3
# Si number density = 24.841220 Si / 1000 Ang^3
#
#
#
# Elastic Constant Matrix: (Units=GPa)
#
#
# Indices 1 2 3 4 5 6 
#
# 1 71.3423 30.7097 -10.9954 24.6729 8.8572 -12.8786
# 2 30.7097 137.7071 26.6957 0.9803 -2.2820 -6.4030
# 3 -10.9954 26.6957 137.2900 -8.8302 30.0546 2.4181
# 4 24.6729 0.9803 -8.8302 46.8678 2.3991 -14.1864
# 5 8.8572 -2.2820 30.0546 2.3991 21.0466 9.4807
# 6 -12.8786 -6.4030 2.4181 -14.1864 9.4807 33.0027
#
#
#
# Elastic Compliance Matrix: (Units=1/GPa)
#
#
# Indices 1 2 3 4 5 6 
#
# 1 0.028732 -0.008315 0.010957 -0.006152 -0.035274 0.016285
# 2 -0.008315 0.010258 -0.005783 0.000877 0.014903 -0.004735
# 3 0.010957 -0.005783 0.017319 0.003747 -0.036723 0.014045
# 4 -0.006152 0.000877 0.003747 0.030142 -0.012417 0.014018
# 5 -0.035274 0.014903 -0.036723 -0.012417 0.142341 -0.054411
# 6 0.016285 -0.004735 0.014045 0.014018 -0.054411 0.056364
#
#
# Mechanical properties :
#
#
# Convention : Reuss Voigt Hill
#
# Bulk Modulus (GPa) = 19.98938 48.79548 34.39243
# Shear Modulus (GPa) = 16.22787 40.17871 28.20329
#
# Velocity S-wave (km/s) = 2.55868 4.02608 3.37314
# Velocity P-wave (km/s) = 4.09798 6.42635 5.38941
#
# Compressibility (1/GPa) = 0.05002656
#
# Stress axis : x y z
#
# Youngs Moduli (GPa) = 34.80481 97.48680 57.74077
#
# Poissons Ratio (x) = 0.81062 -0.63269
# Poissons Ratio (y) = 0.28941 0.33392
# Poissons Ratio (z) = -0.38137 0.56378
#
# Static dielectric constant tensor:
#      x y z
#    x 1.999200 -0.012200 -0.025170 
#    y -0.012200 1.973610 -0.043540 
#    z -0.025170 -0.043540 1.991310 
# 
# From -- ./inp_files/207517.got.cif
#   From: 2010.05.17/outbox.cif.g08.bks.cpg/sg2_104_cif.got.tgz:207517.got - 2010.06.03 11:33:40.
