data_PCOD9004430
_publ_section_title
;
Structure prediction by ZEFSAII (Michael W. Deem and Ramdas Pophale) SiO2 
 PCOD9004430
Probable space group: P -1
;
_chemical_formula_sum "Si O2"
_cell_formula_units_Z 12
_cell_length_a 9.302021
_cell_length_b 5.704211
_cell_length_c 16.151194
_cell_angle_alpha 67.650594
_cell_angle_beta 43.043444
_cell_angle_gamma 90.451849
_cell_volume 482.389037
_symmetry_space_group_name_H-M "P -1"
_symmetry_group_IT_number 2
_symmetry_cell_setting 'triclinic'
loop_
_space_group_symop_operation_xyz
x,y,z
-x,-y,-z
loop_
_atom_site_type_symbol
_atom_site_label
_atom_site_fract_x
_atom_site_fract_y
_atom_site_fract_z
Si Si1 0.514543 0.274433 0.908779
Si Si2 0.885940 0.223549 0.653819
Si Si3 0.263577 0.816273 0.440856
Si Si4 0.852499 0.680099 0.065020
Si Si5 0.943600 0.755607 0.744206
Si Si6 0.350040 0.813033 0.668959
O O1 0.684306 0.301690 0.756479
O O2 0.290045 0.286759 0.959391
O O3 0.683341 0.527124 0.863587
O O4 0.500000 0.000000 0.000000
O O5 0.787073 0.039394 0.637010
O O6 0.139427 0.493479 0.504860
O O7 0.928358 0.042092 0.731170
O O8 0.107481 0.813685 0.585492
O O9 0.530484 0.954541 0.340115
O O10 0.664884 0.469383 0.241644
O O11 0.000000 0.500000 0.000000
O O12 0.000000 0.000000 0.000000
O O13 0.085060 0.697374 0.764002
O O14 0.500000 0.000000 0.500000
#
# Coordination Sequence:
#
# PCOD9004430 Si02
#       6
#     2   2   2   2   2   2
#     4  11  26  45  73 100 145 201 259 309 380 468
#     4  10  21  37  67 100 136 185 238 317 367 453
#     4   9  20  39  62 104 139 184 238 305 381 444
#     4  12  30  53  78 114 160 207 260 324 399 471
#     4  10  21  40  66 100 140 183 250 301 386 437
#     4  10  23  46  74 109 151 202 256 321 384 466
#
# _framework density 24.876189
#
# number of rings (size 3 to 8) (size 9 to 14) (size 15 to 20)
#    0.000    1.667    0.000    2.500    7.000    8.000 
#    0.000    0.000    0.000    0.000    0.000    0.000 
#    0.000    0.000    0.000    0.000    0.000    0.000 
#
# Total GULP energy -66810.492199 kJ/mol
# GULP energy per Si atom -5567.541017 kJ/mol
# Density = 2.481957 g / cm^3
# Si number density = 24.876189 Si / 1000 Ang^3
#
#
#
# Elastic Constant Matrix: (Units=GPa)
#
#
# Indices 1 2 3 4 5 6 
#
# 1 240.2378 53.6410 45.4346 -24.8494 -11.4772 11.1965
# 2 53.6410 72.6351 47.0220 -7.7107 -13.8705 -0.7415
# 3 45.4346 47.0220 122.2250 -10.4933 16.0756 3.0942
# 4 -24.8494 -7.7107 -10.4933 50.4615 2.3343 -4.2175
# 5 -11.4772 -13.8705 16.0756 2.3343 38.1161 -15.1135
# 6 11.1965 -0.7415 3.0942 -4.2175 -15.1135 35.7251
#
#
#
# Elastic Compliance Matrix: (Units=1/GPa)
#
#
# Indices 1 2 3 4 5 6 
#
# 1 0.005273 -0.003536 -0.000361 0.001861 -0.000295 -0.001600
# 2 -0.003536 0.027761 -0.012029 0.000029 0.018253 0.010452
# 3 -0.000361 -0.012029 0.015025 0.001149 -0.013709 -0.007102
# 4 0.001861 0.000029 0.001149 0.021135 -0.000588 0.001564
# 5 -0.000295 0.018253 -0.013709 -0.000588 0.047146 0.021534
# 6 -0.001600 0.010452 -0.007102 0.001564 0.021534 0.038620
#
#
# Mechanical properties :
#
#
# Convention : Reuss Voigt Hill
#
# Bulk Modulus (GPa) = 61.69533 80.81034 71.25284
# Shear Modulus (GPa) = 26.01283 44.12723 35.07003
#
# Velocity S-wave (km/s) = 3.23722 4.21631 3.75878
# Velocity P-wave (km/s) = 6.23118 7.50057 6.89515
#
# Compressibility (1/GPa) = 0.01620868
#
# Stress axis : x y z
#
# Youngs Moduli (GPa) = 189.63567 36.02182 66.55610
#
# Poissons Ratio (x) = 0.12736 0.02402
# Poissons Ratio (y) = 0.67051 0.80058
# Poissons Ratio (z) = 0.06843 0.43329
#
# Static dielectric constant tensor:
#      x y z
#    x 2.149940 -0.114700 0.252510 
#    y -0.114700 2.081930 -0.069440 
#    z 0.252510 -0.069440 2.363400 
# 
# From -- ./inp_files/30919.got.cif
#   From: 2010.05.17/outbox.cif.g08.bks.cpg/sg2_16_cif.got.tgz:30919.got - 2010.06.03 11:33:40.
