data_PCOD9004648
_publ_section_title
;
Structure prediction by ZEFSAII (Michael W. Deem and Ramdas Pophale) SiO2 
 PCOD9004648
Probable space group: P -1
;
_chemical_formula_sum "Si O2"
_cell_formula_units_Z 16
_cell_length_a 17.876901
_cell_length_b 5.029104
_cell_length_c 7.683837
_cell_angle_alpha 114.124586
_cell_angle_beta 102.566735
_cell_angle_gamma 84.637910
_cell_volume 615.365217
_symmetry_space_group_name_H-M "P -1"
_symmetry_group_IT_number 2
_symmetry_cell_setting 'triclinic'
loop_
_space_group_symop_operation_xyz
x,y,z
-x,-y,-z
loop_
_atom_site_type_symbol
_atom_site_label
_atom_site_fract_x
_atom_site_fract_y
_atom_site_fract_z
Si Si1 0.953571 0.448123 0.699992
Si Si2 0.580631 0.342877 0.455191
Si Si3 0.804577 0.307711 0.173722
Si Si4 0.841993 0.680568 0.976640
Si Si5 0.528523 0.073086 0.841474
Si Si6 0.639363 0.489483 0.139400
Si Si7 0.905005 0.812657 0.457338
Si Si8 0.326692 0.323292 0.160663
O O1 0.916813 0.606048 0.886931
O O2 0.949907 0.699115 0.620396
O O3 0.038586 0.312047 0.698834
O O4 0.901870 0.160116 0.559044
O O5 0.500000 0.500000 0.500000
O O6 0.546945 0.013353 0.327862
O O7 0.611997 0.471020 0.322383
O O8 0.642724 0.381230 0.648948
O O9 0.714021 0.282157 0.135070
O O10 0.831196 0.602705 0.364620
O O11 0.825655 0.401281 0.013780
O O12 0.843824 0.999508 0.154061
O O13 0.761499 0.715114 0.837861
O O14 0.605440 0.886055 0.792402
O O15 0.500000 0.000000 0.000000
O O16 0.566863 0.384035 0.960728
O O17 0.672135 0.699261 0.057517
#
# Coordination Sequence:
#
# PCOD9004648 Si02
#       8
#     2   2   2   2   2   2   2   2
#     4  10  22  41  64  94 132 170 210 268 316 376
#     4   9  20  36  58  86 113 164 216 260 324 396
#     4  11  23  40  65  95 127 172 215 260 331 389
#     4  11  23  40  65  94 130 169 213 270 324 381
#     4   9  18  36  58  78 117 158 202 264 321 380
#     4  10  21  38  58  85 123 164 205 272 327 379
#     4  10  22  41  64  94 131 171 214 258 322 386
#     4  10  21  38  56  87 123 159 212 268 324 387
#
# _framework density 26.000820999999998
#
# number of rings (size 3 to 8) (size 9 to 14) (size 15 to 20)
#    0.000    2.000    1.250    1.500    1.750    6.000 
#    0.000    3.750    0.000    0.000    0.000    0.000 
#    0.000    0.000    0.000    0.000    0.000    0.000 
#
# Total GULP energy -89109.354352 kJ/mol
# GULP energy per Si atom -5569.334647 kJ/mol
# Density = 2.594164 g / cm^3
# Si number density = 26.000821 Si / 1000 Ang^3
#
#
#
# Elastic Constant Matrix: (Units=GPa)
#
#
# Indices 1 2 3 4 5 6 
#
# 1 48.7212 39.3773 15.8940 -3.5017 -10.7670 0.2785
# 2 39.3773 112.0172 21.5117 3.8937 -11.4283 10.4445
# 3 15.8940 21.5117 84.5193 -14.7917 -9.4697 9.0683
# 4 -3.5017 3.8937 -14.7917 29.8519 16.0220 1.4771
# 5 -10.7670 -11.4283 -9.4697 16.0220 53.9282 2.3515
# 6 0.2785 10.4445 9.0683 1.4771 2.3515 35.5754
#
#
#
# Elastic Compliance Matrix: (Units=1/GPa)
#
#
# Indices 1 2 3 4 5 6 
#
# 1 0.030449 -0.010252 -0.002829 0.001895 0.002706 0.003235
# 2 -0.010252 0.013567 -0.001768 -0.004803 0.002093 -0.003391
# 3 -0.002829 -0.001768 0.014435 0.007476 -0.000477 -0.003417
# 4 0.001895 -0.004803 0.007476 0.044889 -0.012596 -0.001542
# 5 0.002706 0.002093 -0.000477 -0.012596 0.023252 -0.001528
# 6 0.003235 -0.003391 -0.003417 -0.001542 -0.001528 0.030116
#
#
# Mechanical properties :
#
#
# Convention : Reuss Voigt Hill
#
# Bulk Modulus (GPa) = 34.77698 44.31374 39.54536
# Shear Modulus (GPa) = 25.51146 35.10276 30.30711
#
# Velocity S-wave (km/s) = 3.13578 3.67831 3.41782
# Velocity P-wave (km/s) = 5.14929 5.92622 5.55136
#
# Compressibility (1/GPa) = 0.02875465
#
# Stress axis : x y z
#
# Youngs Moduli (GPa) = 32.84139 73.70721 69.27537
#
# Poissons Ratio (x) = 0.75565 0.19598
# Poissons Ratio (y) = 0.33669 0.12244
# Poissons Ratio (z) = 0.09291 0.13028
#
# Static dielectric constant tensor:
#      x y z
#    x 2.079080 0.010800 0.021650 
#    y 0.010800 2.108450 0.130630 
#    z 0.021650 0.130630 2.322730 
# 
# From -- ./inp_files/323023.got.cif
#   From: 2010.05.17/outbox.cif.g08.bks.cpg/sg2_162_cif.got.tgz:323023.got - 2010.06.03 11:33:40.
