data_PCOD9004732
_publ_section_title
;
Structure prediction by ZEFSAII (Michael W. Deem and Ramdas Pophale) SiO2 
 PCOD9004732
Probable space group: P -1
;
_chemical_formula_sum "Si O2"
_cell_formula_units_Z 12
_cell_length_a 8.526618
_cell_length_b 5.138801
_cell_length_c 13.827352
_cell_angle_alpha 72.539864
_cell_angle_beta 76.828200
_cell_angle_gamma 115.378653
_cell_volume 475.420674
_symmetry_space_group_name_H-M "P -1"
_symmetry_group_IT_number 2
_symmetry_cell_setting 'triclinic'
loop_
_space_group_symop_operation_xyz
x,y,z
-x,-y,-z
loop_
_atom_site_type_symbol
_atom_site_label
_atom_site_fract_x
_atom_site_fract_y
_atom_site_fract_z
Si Si1 0.785199 0.199649 0.042520
Si Si2 0.750609 0.008139 0.589588
Si Si3 0.369906 0.565508 0.787420
Si Si4 0.947933 0.148707 0.845336
Si Si5 0.049259 0.391308 0.358589
Si Si6 0.625079 0.493988 0.898485
O O1 0.677661 0.236879 0.149234
O O2 0.854053 0.018659 0.978417
O O3 0.682880 0.262496 0.960763
O O4 0.000000 0.500000 0.000000
O O5 0.839774 0.309593 0.616522
O O6 0.835951 0.155554 0.455933
O O7 0.524231 0.804303 0.660925
O O8 0.841969 0.796859 0.626864
O O9 0.484873 0.410850 0.836627
O O10 0.171597 0.273867 0.805160
O O11 0.951924 0.451547 0.760466
O O12 0.815318 0.847617 0.828603
O O13 0.500000 0.500000 0.000000
#
# Coordination Sequence:
#
# PCOD9004732 Si02
#       6
#     2   2   2   2   2   2
#     4   9  21  38  57  89 125 167 211 264 317 388
#     4  10  21  44  65 103 124 177 217 272 334 388
#     4  10  21  39  60  94 128 166 225 262 326 394
#     4  11  22  39  62  92 127 176 210 277 321 391
#     4  10  22  41  73  90 138 167 221 274 329 395
#     4  10  21  38  58  85 124 168 214 267 318 388
#
# _framework density 25.240805000000002
#
# number of rings (size 3 to 8) (size 9 to 14) (size 15 to 20)
#    0.000    2.000    1.667    1.000    0.000    9.333 
#   12.000    0.000    0.000    6.000    0.000    0.000 
#    0.000    0.000    0.000    0.000    0.000    0.000 
#
# Total GULP energy -66851.801143 kJ/mol
# GULP energy per Si atom -5570.983429 kJ/mol
# Density = 2.518336 g / cm^3
# Si number density = 25.240805 Si / 1000 Ang^3
#
#
#
# Elastic Constant Matrix: (Units=GPa)
#
#
# Indices 1 2 3 4 5 6 
#
# 1 128.7393 47.4586 37.9974 -11.9886 -22.3980 15.9234
# 2 47.4586 64.2847 3.5579 -1.7361 -8.5074 -0.0565
# 3 37.9974 3.5579 143.3895 -9.9204 -45.7421 6.9925
# 4 -11.9886 -1.7361 -9.9204 27.9232 4.0226 -10.8044
# 5 -22.3980 -8.5074 -45.7421 4.0226 55.1070 -9.6616
# 6 15.9234 -0.0565 6.9925 -10.8044 -9.6616 55.6535
#
#
#
# Elastic Compliance Matrix: (Units=1/GPa)
#
#
# Indices 1 2 3 4 5 6 
#
# 1 0.012533 -0.008907 -0.002452 0.002817 0.001029 -0.002561
# 2 -0.008907 0.022278 0.002343 -0.000973 0.002270 0.002482
# 3 -0.002452 0.002343 0.010153 0.002027 0.007853 0.001185
# 4 0.002817 -0.000973 0.002027 0.040219 0.000953 0.006912
# 5 0.001029 0.002270 0.007853 0.000953 0.025962 0.003414
# 6 -0.002561 0.002482 0.001185 0.006912 0.003414 0.020489
#
#
# Mechanical properties :
#
#
# Convention : Reuss Voigt Hill
#
# Bulk Modulus (GPa) = 37.12929 57.16013 47.14471
# Shear Modulus (GPa) = 31.51731 44.23004 37.87367
#
# Velocity S-wave (km/s) = 3.53748 4.19062 3.87782
# Velocity P-wave (km/s) = 5.60598 6.79044 6.22644
#
# Compressibility (1/GPa) = 0.02693291
#
# Stress axis : x y z
#
# Youngs Moduli (GPa) = 79.78996 44.88739 98.49122
#
# Poissons Ratio (x) = 0.39980 0.24152
# Poissons Ratio (y) = 0.71067 -0.23081
# Poissons Ratio (z) = 0.19566 -0.10519
#
# Static dielectric constant tensor:
#      x y z
#    x 2.562300 -0.296620 0.117210 
#    y -0.296620 2.532110 -0.485440 
#    z 0.117210 -0.485440 2.433260 
# 
# From -- ./inp_files/33509.got.cif
#   From: 2010.05.17/outbox.cif.g08.bks.cpg/sg2_17_cif.got.tgz:33509.got - 2010.06.03 11:33:40.
