data_PCOD9004765
_publ_section_title
;
Structure prediction by ZEFSAII (Michael W. Deem and Ramdas Pophale) SiO2 
 PCOD9004765
Probable space group: P -1
;
_chemical_formula_sum "Si O2"
_cell_formula_units_Z 16
_cell_length_a 14.365792
_cell_length_b 11.070315
_cell_length_c 8.175082
_cell_angle_alpha 111.761693
_cell_angle_beta 43.919750
_cell_angle_gamma 79.761957
_cell_volume 605.880161
_symmetry_space_group_name_H-M "P -1"
_symmetry_group_IT_number 2
_symmetry_cell_setting 'triclinic'
loop_
_space_group_symop_operation_xyz
x,y,z
-x,-y,-z
loop_
_atom_site_type_symbol
_atom_site_label
_atom_site_fract_x
_atom_site_fract_y
_atom_site_fract_z
Si Si1 0.153124 0.284003 0.660541
Si Si2 0.635009 0.809973 0.326903
Si Si3 0.157033 0.922094 0.038265
Si Si4 0.323171 0.471262 0.000599
Si Si5 0.267736 0.800380 0.205066
Si Si6 0.937298 0.747119 0.751061
Si Si7 0.138494 0.678004 0.802692
Si Si8 0.394555 0.293484 0.169946
O O1 0.301963 0.185305 0.571498
O O2 0.274180 0.244354 0.329701
O O3 0.000000 0.500000 0.000000
O O4 0.018533 0.249154 0.825341
O O5 0.500000 0.000000 0.500000
O O6 0.593947 0.683221 0.314997
O O7 0.821441 0.700167 0.924770
O O8 0.226089 0.835399 0.084165
O O9 0.198541 0.044049 0.016230
O O10 0.216300 0.770613 0.763163
O O11 0.931813 0.069056 0.390688
O O12 0.366590 0.595173 0.010555
O O13 0.377592 0.364515 0.047291
O O14 0.097697 0.624307 0.353738
O O15 0.391130 0.840472 0.122498
O O16 0.038697 0.722173 0.778289
O O17 0.297148 0.463740 0.499114
#
# Coordination Sequence:
#
# PCOD9004765 Si02
#       8
#     2   2   2   2   2   2   2   2
#     4   9  21  40  61  90 126 159 202 247 304 368
#     4  11  24  39  62  95 125 154 205 261 299 353
#     4  10  21  38  58  90 123 158 200 250 300 355
#     4  10  22  42  62  84 120 167 199 243 309 367
#     4  10  23  38  59  88 123 159 201 250 300 361
#     4   9  20  39  61  86 121 163 201 238 306 371
#     4   9  19  37  61  87 118 161 199 248 298 359
#     4  10  21  39  62  89 116 158 209 244 298 364
#
# _framework density 26.407862999999999
#
# number of rings (size 3 to 8) (size 9 to 14) (size 15 to 20)
#    0.000    2.250    0.000    1.875    5.250    3.500 
#    4.500    1.250    0.000    0.000    0.000    0.000 
#    0.000    0.000    0.000    0.000    0.000    0.000 
#
# Total GULP energy -89499.429034 kJ/mol
# GULP energy per Si atom -5593.714315 kJ/mol
# Density = 2.634776 g / cm^3
# Si number density = 26.407863 Si / 1000 Ang^3
#
#
#
# Elastic Constant Matrix: (Units=GPa)
#
#
# Indices 1 2 3 4 5 6 
#
# 1 61.5931 17.9468 6.2889 4.5987 -6.5786 9.4141
# 2 17.9468 99.1359 13.0960 -4.3085 -8.6336 7.9940
# 3 6.2889 13.0960 65.6888 -0.1906 -4.8398 -1.1162
# 4 4.5987 -4.3085 -0.1906 37.2311 13.3632 -3.4557
# 5 -6.5786 -8.6336 -4.8398 13.3632 21.2741 13.8558
# 6 9.4141 7.9940 -1.1162 -3.4557 13.8558 50.9712
#
#
#
# Elastic Compliance Matrix: (Units=1/GPa)
#
#
# Indices 1 2 3 4 5 6 
#
# 1 0.020871 -0.001864 -0.000498 -0.010033 0.017809 -0.009095
# 2 -0.001864 0.011440 -0.001678 -0.001124 0.006572 -0.003349
# 3 -0.000498 -0.001678 0.015895 -0.001574 0.004109 -0.000520
# 4 -0.010033 -0.001124 -0.001574 0.044979 -0.043083 0.016756
# 5 0.017809 0.006572 0.004109 -0.043083 0.106731 -0.036164
# 6 -0.009095 -0.003349 -0.000520 0.016756 -0.036164 0.032779
#
#
# Mechanical properties :
#
#
# Convention : Reuss Voigt Hill
#
# Bulk Modulus (GPa) = 24.92218 33.45346 29.18782
# Shear Modulus (GPa) = 19.67337 34.50103 27.08720
#
# Velocity S-wave (km/s) = 2.73240 3.61843 3.20617
# Velocity P-wave (km/s) = 4.40597 5.49116 4.97822
#
# Compressibility (1/GPa) = 0.04012490
#
# Stress axis : x y z
#
# Youngs Moduli (GPa) = 47.91360 87.41347 62.91336
#
# Poissons Ratio (x) = 0.16296 0.03133
# Poissons Ratio (y) = 0.08932 0.10558
# Poissons Ratio (z) = 0.02386 0.14670
#
# Static dielectric constant tensor:
#      x y z
#    x 2.027920 0.023140 -0.005590 
#    y 0.023140 2.044600 -0.002150 
#    z -0.005590 -0.002150 2.126140 
# 
# From -- ./inp_files/242684.got.cif
#   From: 2010.05.17/outbox.cif.g08.bks.cpg/sg2_122_cif.got.tgz:242684.got - 2010.06.03 11:33:40.
