data_PCOD9004598
_publ_section_title
;
Structure prediction by ZEFSAII (Michael W. Deem and Ramdas Pophale) SiO2 
 PCOD9004598
Probable space group: P -1
;
_chemical_formula_sum "Si O2"
_cell_formula_units_Z 14
_cell_length_a 12.522034
_cell_length_b 15.677787
_cell_length_c 4.989458
_cell_angle_alpha 117.182274
_cell_angle_beta 101.524108
_cell_angle_gamma 47.371440
_cell_volume 632.043534
_symmetry_space_group_name_H-M "P -1"
_symmetry_group_IT_number 2
_symmetry_cell_setting 'triclinic'
loop_
_space_group_symop_operation_xyz
x,y,z
-x,-y,-z
loop_
_atom_site_type_symbol
_atom_site_label
_atom_site_fract_x
_atom_site_fract_y
_atom_site_fract_z
Si Si1 0.904567 0.961934 0.844551
Si Si2 0.270882 0.990324 0.649669
Si Si3 0.630841 0.547836 0.141666
Si Si4 0.180853 0.717137 0.373215
Si Si5 0.342400 0.143650 0.672046
Si Si6 0.386021 0.236729 0.341780
Si Si7 0.653909 0.335755 0.112463
O O1 0.775561 0.046899 0.680949
O O2 0.021254 0.820606 0.564558
O O3 0.832988 0.969646 0.094298
O O4 0.000000 0.000000 0.000000
O O5 0.252012 0.110575 0.708462
O O6 0.439318 0.875419 0.663508
O O7 0.661948 0.627753 0.418810
O O8 0.604045 0.476585 0.237182
O O9 0.760499 0.425245 0.850424
O O10 0.484458 0.642947 0.024055
O O11 0.289386 0.706309 0.620780
O O12 0.208831 0.750848 0.150106
O O13 0.303319 0.211822 0.464836
O O14 0.500000 0.000000 0.500000
O O15 0.360053 0.218234 0.001115
#
# Coordination Sequence:
#
# PCOD9004598 Si02
#       7
#     2   2   2   2   2   2   2
#     4  12  26  38  62  87 121 167 200 227 278 371
#     4  11  23  42  59  86 123 156 192 247 302 342
#     4   9  22  33  61  87 116 151 196 246 308 329
#     4  10  21  38  54  80 124 153 197 232 285 354
#     4  10  21  41  60  90 119 152 194 255 309 345
#     4  11  22  35  69  92 116 146 205 253 301 357
#     4   9  20  35  56  82 121 155 188 239 304 346
#
# _framework density 22.150372000000001
#
# number of rings (size 3 to 8) (size 9 to 14) (size 15 to 20)
#    0.857    0.857    0.000    6.000    6.000    0.000 
#    0.000    0.000    0.000    5.143    0.000    0.000 
#    0.000    0.000    0.000    0.000    0.000    0.000 
#
# Total GULP energy -78231.089167 kJ/mol
# GULP energy per Si atom -5587.934941 kJ/mol
# Density = 2.209996 g / cm^3
# Si number density = 22.150372 Si / 1000 Ang^3
#
#
#
# Elastic Constant Matrix: (Units=GPa)
#
#
# Indices 1 2 3 4 5 6 
#
# 1 99.1760 12.3183 40.4693 12.4682 -16.2429 5.6177
# 2 12.3183 35.8570 14.2027 8.4024 -5.4323 -4.9579
# 3 40.4693 14.2027 128.5931 1.7589 -6.9285 6.7303
# 4 12.4682 8.4024 1.7589 28.4297 3.9685 8.7254
# 5 -16.2429 -5.4323 -6.9285 3.9685 42.1914 -3.1466
# 6 5.6177 -4.9579 6.7303 8.7254 -3.1466 23.9705
#
#
#
# Elastic Compliance Matrix: (Units=1/GPa)
#
#
# Indices 1 2 3 4 5 6 
#
# 1 0.013298 -0.000713 -0.003787 -0.006328 0.005058 0.000767
# 2 -0.000713 0.036588 -0.004065 -0.015906 0.006422 0.015509
# 3 -0.003787 -0.004065 0.009524 0.003683 -0.001070 -0.004109
# 4 -0.006328 -0.015906 0.003683 0.050837 -0.010354 -0.022705
# 5 0.005058 0.006422 -0.001070 -0.010354 0.027861 0.007870
# 6 0.000767 0.015509 -0.004109 -0.022705 0.007870 0.055197
#
#
# Mechanical properties :
#
#
# Convention : Reuss Voigt Hill
#
# Bulk Modulus (GPa) = 23.65190 44.17854 33.91522
# Shear Modulus (GPa) = 22.26899 32.02738 27.14818
#
# Velocity S-wave (km/s) = 3.17417 3.80663 3.50470
# Velocity P-wave (km/s) = 4.91273 6.26967 5.63221
#
# Compressibility (1/GPa) = 0.04227990
#
# Stress axis : x y z
#
# Youngs Moduli (GPa) = 75.20192 27.33143 104.99497
#
# Poissons Ratio (x) = 0.01949 0.39763
# Poissons Ratio (y) = 0.05361 0.42678
# Poissons Ratio (z) = 0.28480 0.11110
#
# Static dielectric constant tensor:
#      x y z
#    x 1.825790 0.008400 0.007510 
#    y 0.008400 1.874160 0.027450 
#    z 0.007510 0.027450 1.823810 
# 
# From -- ./inp_files/80941.got.cif
#   From: 2010.05.17/outbox.cif.g08.bks.cpg/sg2_41_cif.got.tgz:80941.got - 2010.06.03 11:33:40.
