data_PCOD9004689
_publ_section_title
;
Structure prediction by ZEFSAII (Michael W. Deem and Ramdas Pophale) SiO2 
 PCOD9004689
Probable space group: P -1
;
_chemical_formula_sum "Si O2"
_cell_formula_units_Z 16
_cell_length_a 14.107940
_cell_length_b 9.613861
_cell_length_c 10.931615
_cell_angle_alpha 92.722844
_cell_angle_beta 127.051224
_cell_angle_gamma 48.470256
_cell_volume 715.805139
_symmetry_space_group_name_H-M "P -1"
_symmetry_group_IT_number 2
_symmetry_cell_setting 'triclinic'
loop_
_space_group_symop_operation_xyz
x,y,z
-x,-y,-z
loop_
_atom_site_type_symbol
_atom_site_label
_atom_site_fract_x
_atom_site_fract_y
_atom_site_fract_z
Si Si1 0.278527 0.434934 0.016197
Si Si2 0.149113 0.446192 0.696402
Si Si3 0.042620 0.804842 0.477139
Si Si4 0.225243 0.747766 0.141327
Si Si5 0.365934 0.967366 0.896257
Si Si6 0.712608 0.021457 0.889065
Si Si7 0.770088 0.699323 0.795330
Si Si8 0.826384 0.390348 0.688942
O O1 0.105349 0.521637 0.807813
O O2 0.228771 0.635005 0.028659
O O3 0.461090 0.259759 0.059056
O O4 0.318877 0.307706 0.162500
O O5 0.000000 0.500000 0.500000
O O6 0.153479 0.595526 0.646425
O O7 0.318668 0.171083 0.829186
O O8 0.163883 0.682006 0.440519
O O9 0.831820 0.932450 0.288829
O O10 0.000000 0.000000 0.500000
O O11 0.283467 0.608890 0.302138
O O12 0.341328 0.777102 0.195516
O O13 0.000000 0.000000 0.000000
O O14 0.386697 0.928693 0.057721
O O15 0.945178 0.812833 0.096467
O O16 0.687671 0.930270 0.759571
O O17 0.752861 0.617906 0.659496
O O18 0.000000 0.500000 0.000000
#
# Coordination Sequence:
#
# PCOD9004689 Si02
#       8
#     2   2   2   2   2   2   2   2
#     4  11  21  36  62  90 119 151 195 258 304 331
#     4  10  22  37  57  87 120 160 192 233 298 365
#     4  10  22  40  60  85 121 163 196 240 296 363
#     4   9  19  33  54  87 116 149 198 252 291 349
#     4  10  21  38  57  90 124 148 198 252 297 351
#     4   9  16  30  50  85 117 137 188 247 298 331
#     4   9  17  31  55  82 110 150 194 250 281 334
#     4   8  17  33  52  78 111 148 199 239 280 345
#
# _framework density 22.352452
#
# number of rings (size 3 to 8) (size 9 to 14) (size 15 to 20)
#    0.000    2.500    1.250    1.125    7.000    0.500 
#    0.000    0.000    0.000    6.000    0.000    0.000 
#    0.000    0.000    0.000    0.000    0.000    0.000 
#
# Total GULP energy -89190.858476 kJ/mol
# GULP energy per Si atom -5574.428655 kJ/mol
# Density = 2.230158 g / cm^3
# Si number density = 22.352452 Si / 1000 Ang^3
#
#
#
# Elastic Constant Matrix: (Units=GPa)
#
#
# Indices 1 2 3 4 5 6 
#
# 1 111.9095 75.0519 12.1289 2.9444 -13.0601 8.7297
# 2 75.0519 224.6666 48.9228 32.5470 -10.4804 22.5083
# 3 12.1289 48.9228 53.4524 -1.2967 -7.6515 3.6306
# 4 2.9444 32.5470 -1.2967 28.0201 -8.3263 0.8470
# 5 -13.0601 -10.4804 -7.6515 -8.3263 18.7782 -1.5574
# 6 8.7297 22.5083 3.6306 0.8470 -1.5574 44.4778
#
#
#
# Elastic Compliance Matrix: (Units=1/GPa)
#
#
# Indices 1 2 3 4 5 6 
#
# 1 0.014101 -0.006765 0.005032 0.010375 0.012723 0.000493
# 2 -0.006765 0.011026 -0.010091 -0.015360 -0.009762 -0.003478
# 3 0.005032 -0.010091 0.029685 0.017870 0.018052 0.001988
# 4 0.010375 -0.015360 0.017870 0.063350 0.034369 0.004275
# 5 0.012723 -0.009762 0.018052 0.034369 0.079505 0.003099
# 6 0.000493 -0.003478 0.001988 0.004275 0.003099 0.024011
#
#
# Mechanical properties :
#
#
# Convention : Reuss Voigt Hill
#
# Bulk Modulus (GPa) = 32.08889 73.58174 52.83531
# Shear Modulus (GPa) = 19.55300 35.18353 27.36827
#
# Velocity S-wave (km/s) = 2.96084 3.97171 3.50293
# Velocity P-wave (km/s) = 5.10645 7.35004 6.32846
#
# Compressibility (1/GPa) = 0.03116344
#
# Stress axis : x y z
#
# Youngs Moduli (GPa) = 70.91820 90.69067 33.68737
#
# Poissons Ratio (x) = 0.61353 -0.16950
# Poissons Ratio (y) = 0.47976 0.33993
# Poissons Ratio (z) = -0.35683 0.91514
#
# Static dielectric constant tensor:
#      x y z
#    x 1.885380 0.002530 0.049340 
#    y 0.002530 1.787570 -0.005920 
#    z 0.049340 -0.005920 1.948170 
# 
# From -- ./inp_files/446107.got.cif
#   From: 2010.05.17/outbox.cif.g08.bks.cpg/sg2_224_cif.got.tgz:446107.got - 2010.06.03 11:33:40.
