data_PCOD9004864
_publ_section_title
;
Structure prediction by ZEFSAII (Michael W. Deem and Ramdas Pophale) SiO2 
 PCOD9004864
Probable space group: P -1
;
_chemical_formula_sum "Si O2"
_cell_formula_units_Z 16
_cell_length_a 16.385577
_cell_length_b 8.082414
_cell_length_c 8.702041
_cell_angle_alpha 120.895748
_cell_angle_beta 50.712741
_cell_angle_gamma 93.152199
_cell_volume 699.229141
_symmetry_space_group_name_H-M "P -1"
_symmetry_group_IT_number 2
_symmetry_cell_setting 'triclinic'
loop_
_space_group_symop_operation_xyz
x,y,z
-x,-y,-z
loop_
_atom_site_type_symbol
_atom_site_label
_atom_site_fract_x
_atom_site_fract_y
_atom_site_fract_z
Si Si1 0.002484 0.239166 0.467986
Si Si2 0.322026 0.036503 0.210555
Si Si3 0.556233 0.710728 0.642226
Si Si4 0.339735 0.421752 0.855250
Si Si5 0.886247 0.269021 0.905732
Si Si6 0.763386 0.246760 0.644826
Si Si7 0.232179 0.163692 0.049443
Si Si8 0.261849 0.720866 0.667174
O O1 0.973042 0.324304 0.719350
O O2 0.880624 0.277966 0.553507
O O3 0.068021 0.983105 0.282770
O O4 0.093414 0.289445 0.281997
O O5 0.236772 0.955042 0.360552
O O6 0.371964 0.153330 0.326800
O O7 0.429611 0.835007 0.918501
O O8 0.269899 0.172211 0.184881
O O9 0.561714 0.682220 0.437740
O O10 0.624113 0.485138 0.531607
O O11 0.293715 0.256133 0.899516
O O12 0.237458 0.600804 0.964980
O O13 0.344817 0.552038 0.061410
O O14 0.849256 0.315595 0.149533
O O15 0.751373 0.229090 0.471374
O O16 0.263315 0.923227 0.849705
#
# Coordination Sequence:
#
# PCOD9004864 Si02
#       8
#     2   2   2   2   2   2   2   2
#     4   9  18  36  58  85 122 157 194 240 286 345
#     4  11  23  40  64  88 113 156 195 245 301 350
#     4  10  23  43  62  85 118 149 199 250 296 348
#     4  10  21  38  59  87 119 155 195 241 288 349
#     4   8  16  32  54  77 113 153 188 231 281 328
#     4  11  22  37  62  89 121 158 196 238 293 348
#     4  11  22  37  62  89 121 158 196 238 293 348
#     4  10  21  38  59  87 119 155 195 241 288 349
#
# _framework density 22.882341
#
# number of rings (size 3 to 8) (size 9 to 14) (size 15 to 20)
#    0.000    2.000    0.000    6.000    0.000    7.000 
#    0.000    2.500    0.000   16.500    0.000    0.000 
#    0.000    0.000    0.000    0.000    0.000    0.000 
#
# Total GULP energy -89291.750806 kJ/mol
# GULP energy per Si atom -5580.734425 kJ/mol
# Density = 2.283026 g / cm^3
# Si number density = 22.882341 Si / 1000 Ang^3
#
#
#
# Elastic Constant Matrix: (Units=GPa)
#
#
# Indices 1 2 3 4 5 6 
#
# 1 57.1860 18.9472 28.7407 -18.6440 2.2292 -0.6190
# 2 18.9472 72.9337 10.3543 -21.4125 1.4054 -2.2784
# 3 28.7407 10.3543 89.5434 -8.4999 10.3350 -8.2059
# 4 -18.6440 -21.4125 -8.4999 37.3375 -8.8212 5.1417
# 5 2.2292 1.4054 10.3350 -8.8212 26.7404 -9.6325
# 6 -0.6190 -2.2784 -8.2059 5.1417 -9.6325 23.2613
#
#
#
# Elastic Compliance Matrix: (Units=1/GPa)
#
#
# Indices 1 2 3 4 5 6 
#
# 1 0.025464 -0.002550 -0.007535 0.010765 0.003308 -0.003240
# 2 -0.002550 0.017040 -0.000564 0.008928 0.002673 0.000536
# 3 -0.007535 -0.000564 0.014252 -0.002354 -0.004373 0.003481
# 4 0.010765 0.008928 -0.002354 0.039948 0.011353 -0.003798
# 5 0.003308 0.002673 -0.004373 0.011353 0.048284 0.016292
# 6 -0.003240 0.000536 0.003481 -0.003798 0.016292 0.051771
#
#
# Mechanical properties :
#
#
# Convention : Reuss Voigt Hill
#
# Bulk Modulus (GPa) = 28.20223 37.30528 32.75376
# Shear Modulus (GPa) = 21.75078 28.24257 24.99668
#
# Velocity S-wave (km/s) = 3.08644 3.51700 3.30873
# Velocity P-wave (km/s) = 5.00531 5.72983 5.37978
#
# Compressibility (1/GPa) = 0.03545819
#
# Stress axis : x y z
#
# Youngs Moduli (GPa) = 39.27041 58.68520 70.16634
#
# Poissons Ratio (x) = 0.14965 0.52872
# Poissons Ratio (y) = 0.10014 0.03956
# Poissons Ratio (z) = 0.29591 0.03309
#
# Static dielectric constant tensor:
#      x y z
#    x 1.848320 0.029010 -0.009650 
#    y 0.029010 1.902460 -0.019320 
#    z -0.009650 -0.019320 1.900580 
# 
# From -- ./inp_files/327778.got.cif
#   From: 2010.05.17/outbox.cif.g08.bks.cpg/sg2_164_cif.got.tgz:327778.got - 2010.06.03 11:33:40.
