data_PCOD9004770
_publ_section_title
;
Structure prediction by ZEFSAII (Michael W. Deem and Ramdas Pophale) SiO2 
 PCOD9004770
Probable space group: P -1
;
_chemical_formula_sum "Si O2"
_cell_formula_units_Z 16
_cell_length_a 11.270785
_cell_length_b 11.765712
_cell_length_c 12.292583
_cell_angle_alpha 40.429261
_cell_angle_beta 62.604103
_cell_angle_gamma 91.916863
_cell_volume 699.783195
_symmetry_space_group_name_H-M "P -1"
_symmetry_group_IT_number 2
_symmetry_cell_setting 'triclinic'
loop_
_space_group_symop_operation_xyz
x,y,z
-x,-y,-z
loop_
_atom_site_type_symbol
_atom_site_label
_atom_site_fract_x
_atom_site_fract_y
_atom_site_fract_z
Si Si1 0.531869 0.584538 0.089943
Si Si2 0.401897 0.157033 0.793505
Si Si3 0.697936 0.593349 0.474066
Si Si4 0.878195 0.544768 0.969800
Si Si5 0.650995 0.217255 0.476244
Si Si6 0.567162 0.268348 0.160684
Si Si7 0.032400 0.727526 0.354959
Si Si8 0.882076 0.124549 0.548534
O O1 0.427621 0.460513 0.333965
O O2 0.528847 0.405261 0.151160
O O3 0.428303 0.648158 0.022401
O O4 0.731039 0.841605 0.828534
O O5 0.583470 0.336846 0.655450
O O6 0.316724 0.266893 0.710527
O O7 0.472873 0.119610 0.684606
O O8 0.242223 0.935260 0.089393
O O9 0.893046 0.716565 0.347378
O O10 0.998766 0.789764 0.674786
O O11 0.748554 0.458535 0.192529
O O12 0.753867 0.363511 0.057489
O O13 0.000000 0.500000 0.000000
O O14 0.781492 0.223235 0.496766
O O15 0.585447 0.010955 0.569574
O O16 0.012522 0.763675 0.464047
O O17 0.000000 0.500000 0.500000
#
# Coordination Sequence:
#
# PCOD9004770 Si02
#       8
#     2   2   2   2   2   2   2   2
#     4  10  21  41  66  91 131 175 218 276 333 387
#     4  11  25  45  70  98 138 179 221 277 336 398
#     4  11  24  45  70  99 136 178 222 277 337 400
#     4  10  21  38  58  90 130 166 213 273 327 385
#     4  10  22  41  67  93 133 175 220 274 331 395
#     4  10  21  38  64  92 125 175 225 265 329 396
#     4  12  26  42  71 105 132 176 226 278 335 400
#     4  10  22  40  64  96 134 169 225 277 326 394
#
# _framework density 22.864224
#
# number of rings (size 3 to 8) (size 9 to 14) (size 15 to 20)
#    0.000    1.500    1.250    3.000    5.250    1.500 
#    0.000    3.750    0.000    0.000    0.000    0.000 
#    0.000    0.000    0.000    0.000    0.000    0.000 
#
# Total GULP energy -89281.782172 kJ/mol
# GULP energy per Si atom -5580.111386 kJ/mol
# Density = 2.281218 g / cm^3
# Si number density = 22.864224 Si / 1000 Ang^3
#
#
#
# Elastic Constant Matrix: (Units=GPa)
#
#
# Indices 1 2 3 4 5 6 
#
# 1 108.8760 10.7170 -5.8090 -8.3494 -11.8474 21.3990
# 2 10.7170 72.2825 25.2169 -6.5266 -1.4858 6.3021
# 3 -5.8090 25.2169 92.8318 4.9555 -2.5168 -8.8414
# 4 -8.3494 -6.5266 4.9555 30.4268 3.0415 -6.7225
# 5 -11.8474 -1.4858 -2.5168 3.0415 17.9093 2.6299
# 6 21.3990 6.3021 -8.8414 -6.7225 2.6299 35.4369
#
#
#
# Elastic Compliance Matrix: (Units=1/GPa)
#
#
# Indices 1 2 3 4 5 6 
#
# 1 0.011748 -0.001075 0.000544 0.000406 0.008768 -0.007341
# 2 -0.001075 0.016266 -0.004941 0.003399 -0.000220 -0.002815
# 3 0.000544 -0.004941 0.012621 -0.002447 0.001682 0.003110
# 4 0.000406 0.003399 -0.002447 0.036084 -0.006786 0.005889
# 5 0.008768 -0.000220 0.001682 -0.006786 0.064611 -0.010918
# 6 -0.007341 -0.002815 0.003110 0.005889 -0.010918 0.035856
#
#
# Mechanical properties :
#
#
# Convention : Reuss Voigt Hill
#
# Bulk Modulus (GPa) = 33.68106 37.13777 35.40941
# Shear Modulus (GPa) = 25.24926 33.01229 29.13077
#
# Velocity S-wave (km/s) = 3.32673 3.80391 3.57329
# Velocity P-wave (km/s) = 5.43314 5.96414 5.70482
#
# Compressibility (1/GPa) = 0.02969028
#
# Stress axis : x y z
#
# Youngs Moduli (GPa) = 85.12430 61.47952 79.23374
#
# Poissons Ratio (x) = 0.06606 -0.04309
# Poissons Ratio (y) = 0.09147 0.39151
# Poissons Ratio (z) = -0.04630 0.30378
#
# Static dielectric constant tensor:
#      x y z
#    x 1.913760 -0.000580 -0.003470 
#    y -0.000580 1.858840 0.039060 
#    z -0.003470 0.039060 1.926770 
# 
# From -- ./inp_files/280187.got.cif
#   From: 2010.05.17/outbox.cif.g08.bks.cpg/sg2_141_cif.got.tgz:280187.got - 2010.06.03 11:33:40.
