data_PCOD9004029
_publ_section_title
;
Structure prediction by ZEFSAII (Michael W. Deem and Ramdas Pophale) SiO2 
 PCOD9004029
Probable space group: P -1
;
_chemical_formula_sum "Si O2"
_cell_formula_units_Z 16
_cell_length_a 22.867714
_cell_length_b 13.810740
_cell_length_c 10.210964
_cell_angle_alpha 44.403961
_cell_angle_beta 135.710185
_cell_angle_gamma 159.988665
_cell_volume 758.703819
_symmetry_space_group_name_H-M "P -1"
_symmetry_group_IT_number 2
_symmetry_cell_setting 'triclinic'
loop_
_space_group_symop_operation_xyz
x,y,z
-x,-y,-z
loop_
_atom_site_type_symbol
_atom_site_label
_atom_site_fract_x
_atom_site_fract_y
_atom_site_fract_z
Si Si1 0.220156 0.866876 0.879559
Si Si2 0.692219 0.343444 0.460652
Si Si3 0.332037 0.165802 0.510656
Si Si4 0.651572 0.803721 0.781294
Si Si5 0.953391 0.656425 0.810608
Si Si6 0.001032 0.137430 0.047867
Si Si7 0.051665 0.257188 0.732577
Si Si8 0.517710 0.718544 0.896154
O O1 0.124931 0.861312 0.802440
O O2 0.289035 0.998958 0.718977
O O3 0.091075 0.551219 0.985274
O O4 0.384481 0.063767 0.041445
O O5 0.808245 0.487134 0.635505
O O6 0.810978 0.468348 0.407283
O O7 0.650046 0.443611 0.265941
O O8 0.500000 0.000000 0.500000
O O9 0.500000 0.500000 0.500000
O O10 0.375427 0.174273 0.426585
O O11 0.146093 0.974414 0.379099
O O12 0.638845 0.888472 0.799172
O O13 0.516639 0.484287 0.906180
O O14 0.831715 0.985834 0.903939
O O15 0.952978 0.768834 0.817496
O O16 0.111964 0.345803 0.895971
O O17 0.964645 0.925200 0.163859
#
# Coordination Sequence:
#
# PCOD9004029 Si02
#       8
#     2   2   2   2   2   2   2   2
#     4  11  22  41  64  90 131 167 214 260 313 383
#     4  12  24  42  64  93 131 172 210 262 320 380
#     4  11  22  39  66  97 128 163 211 268 320 376
#     4  10  21  37  63  96 122 163 213 262 317 375
#     4  11  24  42  63  92 126 175 217 259 313 383
#     4  10  21  42  66  90 127 167 212 266 325 373
#     4  10  23  42  65  93 130 168 210 268 323 374
#     4  11  21  39  64  90 129 166 212 258 314 379
#
# _framework density 21.088598000000001
#
# number of rings (size 3 to 8) (size 9 to 14) (size 15 to 20)
#    0.000    1.250    6.250    0.000    0.000    1.500 
#    2.250    1.875    0.000    0.000    0.000    0.000 
#    0.000    0.000    0.000    0.000    0.000    0.000 
#
# Total GULP energy -89156.210358 kJ/mol
# GULP energy per Si atom -5572.263147 kJ/mol
# Density = 2.104060 g / cm^3
# Si number density = 21.088598 Si / 1000 Ang^3
#
#
#
# Elastic Constant Matrix: (Units=GPa)
#
#
# Indices 1 2 3 4 5 6 
#
# 1 65.2304 4.2723 39.8449 -1.1610 -25.3455 8.7465
# 2 4.2723 64.0090 36.6250 -2.9480 -19.7877 18.8270
# 3 39.8449 36.6250 132.6189 2.1924 -40.4345 7.8013
# 4 -1.1610 -2.9480 2.1924 36.1486 7.5960 -3.9021
# 5 -25.3455 -19.7877 -40.4345 7.5960 44.3205 0.3542
# 6 8.7465 18.8270 7.8013 -3.9021 0.3542 18.5690
#
#
#
# Elastic Compliance Matrix: (Units=1/GPa)
#
#
# Indices 1 2 3 4 5 6 
#
# 1 0.028718 0.015060 -0.005118 -0.004659 0.019499 -0.027997
# 2 0.015060 0.037062 -0.005587 -0.005372 0.021334 -0.043860
# 3 -0.005118 -0.005587 0.012474 -0.002478 0.006366 0.002192
# 4 -0.004659 -0.005372 -0.002478 0.031610 -0.012865 0.015570
# 5 0.019499 0.021334 0.006366 -0.012865 0.051549 -0.037177
# 6 -0.027997 -0.043860 0.002192 0.015570 -0.037177 0.114570
#
#
# Mechanical properties :
#
#
# Convention : Reuss Voigt Hill
#
# Bulk Modulus (GPa) = 11.49895 47.03807 29.26851
# Shear Modulus (GPa) = 16.87698 31.88202 24.37950
#
# Velocity S-wave (km/s) = 2.83201 3.89242 3.40376
# Velocity P-wave (km/s) = 4.01973 6.52339 5.41816
#
# Compressibility (1/GPa) = 0.08696448
#
# Stress axis : x y z
#
# Youngs Moduli (GPa) = 34.82162 26.98148 80.16697
#
# Poissons Ratio (x) = -0.40634 0.41030
# Poissons Ratio (y) = -0.52441 0.44786
# Poissons Ratio (z) = 0.17822 0.15074
#
# Static dielectric constant tensor:
#      x y z
#    x 1.835180 -0.021260 0.005180 
#    y -0.021260 1.829170 -0.031220 
#    z 0.005180 -0.031220 1.807120 
# 
# From -- ./inp_files/257133.got.cif
#   From: 2010.05.17/outbox.cif.g08.bks.cpg/sg2_129_cif.got.tgz:257133.got - 2010.06.03 11:33:40.
