data_PCOD9004604
_publ_section_title
;
Structure prediction by ZEFSAII (Michael W. Deem and Ramdas Pophale) SiO2 
 PCOD9004604
Probable space group: P -1
;
_chemical_formula_sum "Si O2"
_cell_formula_units_Z 16
_cell_length_a 21.553176
_cell_length_b 19.046061
_cell_length_c 13.985223
_cell_angle_alpha 142.488692
_cell_angle_beta 153.154391
_cell_angle_gamma 19.475206
_cell_volume 819.356792
_symmetry_space_group_name_H-M "P -1"
_symmetry_group_IT_number 2
_symmetry_cell_setting 'triclinic'
loop_
_space_group_symop_operation_xyz
x,y,z
-x,-y,-z
loop_
_atom_site_type_symbol
_atom_site_label
_atom_site_fract_x
_atom_site_fract_y
_atom_site_fract_z
Si Si1 0.323125 0.624283 0.293947
Si Si2 0.935646 0.710693 0.425004
Si Si3 0.384569 0.025927 0.080594
Si Si4 0.173749 0.328670 0.966813
Si Si5 0.712043 0.157807 0.292968
Si Si6 0.300109 0.897564 0.560871
Si Si7 0.191795 0.157700 0.152653
Si Si8 0.204072 0.351554 0.530438
O O1 0.500000 0.500000 0.500000
O O2 0.494147 0.409415 0.238371
O O3 0.304108 0.766413 0.379194
O O4 0.038025 0.772948 0.084012
O O5 0.677830 0.866786 0.304705
O O6 0.172481 0.493433 0.581065
O O7 0.902235 0.866055 0.510233
O O8 0.923739 0.638373 0.235870
O O9 0.274051 0.137267 0.945008
O O10 0.212220 0.197347 0.116958
O O11 0.366840 0.902289 0.933319
O O12 0.417260 0.241997 0.204227
O O13 0.000000 0.500000 0.000000
O O14 0.731316 0.110356 0.379812
O O15 0.000000 0.000000 0.500000
O O16 0.131514 0.297975 0.300681
O O17 0.488256 0.894503 0.289432
O O18 0.000000 0.500000 0.500000
#
# Coordination Sequence:
#
# PCOD9004604 Si02
#       8
#     2   2   2   2   2   2   2   2
#     4  10  23  38  61  92 136 167 206 269 328 397
#     4  11  20  40  61  89 130 171 213 271 319 385
#     4  11  19  35  60  92 128 159 207 269 325 389
#     4  11  22  32  60  91 132 166 203 269 336 389
#     4  11  21  34  59  90 132 173 205 250 334 394
#     4  10  21  38  54  92 131 167 213 257 327 403
#     4  11  24  42  66 100 129 169 227 269 327 387
#     4  11  24  43  70  94 127 176 230 277 315 372
#
# _framework density 19.527512999999999
#
# number of rings (size 3 to 8) (size 9 to 14) (size 15 to 20)
#    0.000    1.250    3.750    3.750    7.000    0.000 
#    0.000    0.625    0.000    0.750    0.000    0.000 
#    0.000    0.000    0.000    0.000    0.000    0.000 
#
# Total GULP energy -89161.811251 kJ/mol
# GULP energy per Si atom -5572.613203 kJ/mol
# Density = 1.948307 g / cm^3
# Si number density = 19.527513 Si / 1000 Ang^3
#
#
#
# Elastic Constant Matrix: (Units=GPa)
#
#
# Indices 1 2 3 4 5 6 
#
# 1 116.4014 62.1297 35.8194 3.3648 8.8261 -0.0084
# 2 62.1297 119.8982 41.1720 10.8673 20.2216 9.8302
# 3 35.8194 41.1720 65.3315 10.0315 12.0361 5.5364
# 4 3.3648 10.8673 10.0315 32.1435 5.5029 -0.2757
# 5 8.8261 20.2216 12.0361 5.5029 26.3301 -2.3687
# 6 -0.0084 9.8302 5.5364 -0.2757 -2.3687 42.3209
#
#
#
# Elastic Compliance Matrix: (Units=1/GPa)
#
#
# Indices 1 2 3 4 5 6 
#
# 1 0.012782 -0.005855 -0.004091 0.001605 0.001928 0.002016
# 2 -0.005855 0.014380 -0.003979 -0.001806 -0.007176 -0.003234
# 3 -0.004091 -0.003979 0.021786 -0.004214 -0.004852 -0.002226
# 4 0.001605 -0.001806 -0.004214 0.033588 -0.004158 0.000957
# 5 0.001928 -0.007176 -0.004852 -0.004158 0.046369 0.004870
# 6 0.002016 -0.003234 -0.002226 0.000957 0.004870 0.024951
#
#
# Mechanical properties :
#
#
# Convention : Reuss Voigt Hill
#
# Bulk Modulus (GPa) = 47.39425 64.43036 55.91230
# Shear Modulus (GPa) = 26.49165 30.99290 28.74227
#
# Velocity S-wave (km/s) = 3.68724 3.98821 3.84068
# Velocity P-wave (km/s) = 6.51543 7.36710 6.95431
#
# Compressibility (1/GPa) = 0.02109961
#
# Stress axis : x y z
#
# Youngs Moduli (GPa) = 78.23229 69.54286 45.90014
#
# Poissons Ratio (x) = 0.40716 0.18778
# Poissons Ratio (y) = 0.45803 0.18262
# Poissons Ratio (z) = 0.32005 0.27669
#
# Static dielectric constant tensor:
#      x y z
#    x 1.694600 -0.002990 -0.057990 
#    y -0.002990 1.915600 0.077750 
#    z -0.057990 0.077750 1.706770 
# 
# From -- ./inp_files/541541.got.cif
#   From: 2010.05.17/outbox.cif.g08.bks.cpg/sg2_271_cif.got.tgz:541541.got - 2010.06.03 11:33:40.
