data_PCOD9004203
_publ_section_title
;
Structure prediction by ZEFSAII (Michael W. Deem and Ramdas Pophale) SiO2 
 PCOD9004203
Probable space group: P -1
;
_chemical_formula_sum "Si O2"
_cell_formula_units_Z 10
_cell_length_a 7.287572
_cell_length_b 7.104713
_cell_length_c 9.380461
_cell_angle_alpha 85.452494
_cell_angle_beta 98.272977
_cell_angle_gamma 59.215011
_cell_volume 406.170482
_symmetry_space_group_name_H-M "P -1"
_symmetry_group_IT_number 2
_symmetry_cell_setting 'triclinic'
loop_
_space_group_symop_operation_xyz
x,y,z
-x,-y,-z
loop_
_atom_site_type_symbol
_atom_site_label
_atom_site_fract_x
_atom_site_fract_y
_atom_site_fract_z
Si Si1 0.237122 0.797964 0.997196
Si Si2 0.475859 0.351842 0.215583
Si Si3 0.677661 0.186460 0.540434
Si Si4 0.068527 0.261670 0.586149
Si Si5 0.517986 0.905699 0.205225
O O1 0.297271 0.732370 0.842468
O O2 0.415263 0.857889 0.062372
O O3 0.299913 0.579549 0.107667
O O4 0.000000 0.000000 0.000000
O O5 0.529634 0.348943 0.387045
O O6 0.414858 0.166266 0.202492
O O7 0.547857 0.189268 0.662882
O O8 0.867504 0.231718 0.595117
O O9 0.785904 0.939195 0.496994
O O10 0.221483 0.211562 0.744490
O O11 0.000000 0.500000 0.500000
#
# Coordination Sequence:
#
# PCOD9004203 Si02
#       5
#     2   2   2   2   2
#     4  11  26  43  70  97 131 187 226 268 336 403
#     4  10  23  48  65  96 143 169 224 287 323 401
#     4  10  23  42  67 100 134 166 219 282 336 392
#     4  10  21  37  64  97 132 170 209 268 336 394
#     4  11  24  44  67 100 133 172 223 278 338 396
#
# _framework density 24.620206
#
# number of rings (size 3 to 8) (size 9 to 14) (size 15 to 20)
#    0.000    1.600    0.000    4.200    8.400    5.600 
#    0.000    0.000    0.000    0.000    0.000    0.000 
#    0.000    0.000    0.000    0.000    0.000    0.000 
#
# Total GULP energy -56057.423872 kJ/mol
# GULP energy per Si atom -5605.742387 kJ/mol
# Density = 2.456417 g / cm^3
# Si number density = 24.620206 Si / 1000 Ang^3
#
#
#
# Elastic Constant Matrix: (Units=GPa)
#
#
# Indices 1 2 3 4 5 6 
#
# 1 82.3509 29.0380 30.2049 -9.6977 10.0295 20.2785
# 2 29.0380 100.2925 36.2627 -37.5293 -1.5452 -5.8558
# 3 30.2049 36.2627 123.5135 -5.4474 -11.5084 -3.5581
# 4 -9.6977 -37.5293 -5.4474 67.2335 2.3985 -9.2480
# 5 10.0295 -1.5452 -11.5084 2.3985 36.6705 1.0539
# 6 20.2785 -5.8558 -3.5581 -9.2480 1.0539 53.6372
#
#
#
# Elastic Compliance Matrix: (Units=1/GPa)
#
#
# Indices 1 2 3 4 5 6 
#
# 1 0.017608 -0.004738 -0.003735 -0.001232 -0.005891 -0.007519
# 2 -0.004738 0.015926 -0.002967 0.008616 0.000334 0.004812
# 3 -0.003735 -0.002967 0.010252 -0.001312 0.004158 0.001460
# 4 -0.001232 0.008616 -0.001312 0.020102 -0.001165 0.004808
# 5 -0.005891 0.000334 0.004158 -0.001165 0.030226 0.001745
# 6 -0.007519 0.004812 0.001460 0.004808 0.001745 0.022903
#
#
# Mechanical properties :
#
#
# Convention : Reuss Voigt Hill
#
# Bulk Modulus (GPa) = 47.83454 55.24091 51.53772
# Shear Modulus (GPa) = 34.04481 45.55164 39.79823
#
# Velocity S-wave (km/s) = 3.72264 4.30603 4.02492
# Velocity P-wave (km/s) = 6.16024 6.87084 6.52522
#
# Compressibility (1/GPa) = 0.02090539
#
# Stress axis : x y z
#
# Youngs Moduli (GPa) = 56.79390 62.79139 97.53915
#
# Poissons Ratio (x) = 0.29753 0.36426
# Poissons Ratio (y) = 0.26911 0.28942
# Poissons Ratio (z) = 0.21210 0.18631
#
# Static dielectric constant tensor:
#      x y z
#    x 1.919700 0.007140 0.012370 
#    y 0.007140 2.006450 0.002680 
#    z 0.012370 0.002680 1.966530 
# 
# From -- ./inp_files/373379.got.cif
#   From: 2010.05.17/outbox.cif.g08.bks.cpg/sg2_187_cif.got.tgz:373379.got - 2010.06.03 11:33:40.
