data_PCOD9004810
_publ_section_title
;
Structure prediction by ZEFSAII (Michael W. Deem and Ramdas Pophale) SiO2 
 PCOD9004810
Probable space group: P -1
;
_chemical_formula_sum "Si O2"
_cell_formula_units_Z 16
_cell_length_a 8.245980
_cell_length_b 19.184275
_cell_length_c 6.734914
_cell_angle_alpha 91.414587
_cell_angle_beta 125.712106
_cell_angle_gamma 119.366302
_cell_volume 677.234498
_symmetry_space_group_name_H-M "P -1"
_symmetry_group_IT_number 2
_symmetry_cell_setting 'triclinic'
loop_
_space_group_symop_operation_xyz
x,y,z
-x,-y,-z
loop_
_atom_site_type_symbol
_atom_site_label
_atom_site_fract_x
_atom_site_fract_y
_atom_site_fract_z
Si Si1 0.412160 0.840017 0.697664
Si Si2 0.963646 0.686051 0.889575
Si Si3 0.530506 0.936063 0.393750
Si Si4 0.042400 0.992561 0.795948
Si Si5 0.228609 0.455784 0.548130
Si Si6 0.670076 0.639438 0.055429
Si Si7 0.922593 0.158878 0.249389
Si Si8 0.329151 0.689224 0.880130
O O1 0.461549 0.862424 0.502715
O O2 0.372111 0.752973 0.737605
O O3 0.176091 0.834816 0.609530
O O4 0.663960 0.921892 0.001007
O O5 0.778747 0.583705 0.674108
O O6 0.907216 0.690235 0.076904
O O7 0.236770 0.715646 0.005978
O O8 0.911506 0.745039 0.730738
O O9 0.327578 0.895892 0.073551
O O10 0.820709 0.989365 0.534428
O O11 0.500000 0.000000 0.500000
O O12 0.984276 0.899584 0.698913
O O13 0.000000 0.000000 0.000000
O O14 0.432839 0.558623 0.748802
O O15 0.070005 0.589625 0.645500
O O16 0.279537 0.404616 0.738155
O O17 0.570896 0.691720 0.071118
#
# Coordination Sequence:
#
# PCOD9004810 Si02
#       8
#     2   2   2   2   2   2   2   2
#     4  10  22  42  57  86 124 146 199 255 279 352
#     4   9  23  39  60  93 124 153 204 247 289 366
#     4  11  23  38  61  84 113 160 201 238 293 353
#     4  10  21  38  59  84 114 153 203 234 290 357
#     4   9  22  43  58  99 117 153 210 236 296 376
#     4  11  20  41  70  81 128 162 185 254 307 342
#     4  11  22  42  57  85 122 155 192 249 297 338
#     4   9  22  41  58  94 122 152 203 246 292 362
#
# _framework density 23.625492999999999
#
# number of rings (size 3 to 8) (size 9 to 14) (size 15 to 20)
#    0.750    1.250    2.500    1.125    5.250    0.500 
#    6.750    1.250    0.000    0.000    0.000    0.000 
#    0.000    0.000    0.000    0.000    0.000    0.000 
#
# Total GULP energy -89335.351772 kJ/mol
# GULP energy per Si atom -5583.459486 kJ/mol
# Density = 2.357172 g / cm^3
# Si number density = 23.625493 Si / 1000 Ang^3
#
#
#
# Elastic Constant Matrix: (Units=GPa)
#
#
# Indices 1 2 3 4 5 6 
#
# 1 128.9776 34.0387 16.0855 -23.2758 4.0565 -12.5040
# 2 34.0387 57.1218 -9.9832 4.2889 6.2576 -6.5242
# 3 16.0855 -9.9832 59.4392 1.4749 -1.4783 -10.1692
# 4 -23.2758 4.2889 1.4749 32.4280 -4.9305 -0.1250
# 5 4.0565 6.2576 -1.4783 -4.9305 37.3890 -3.2234
# 6 -12.5040 -6.5242 -10.1692 -0.1250 -3.2234 30.7664
#
#
#
# Elastic Compliance Matrix: (Units=1/GPa)
#
#
# Indices 1 2 3 4 5 6 
#
# 1 0.012979 -0.009403 -0.005012 0.011035 0.001581 0.001835
# 2 -0.009403 0.026205 0.007772 -0.011193 -0.004205 0.003819
# 3 -0.005012 0.007772 0.020720 -0.005561 -0.000117 0.006425
# 4 0.011035 -0.011193 -0.005561 0.041409 0.006009 0.001071
# 5 0.001581 -0.004205 -0.000117 0.006009 0.028299 0.002701
# 6 0.001835 0.003819 0.006425 0.001071 0.002701 0.036469
#
#
# Mechanical properties :
#
#
# Convention : Reuss Voigt Hill
#
# Bulk Modulus (GPa) = 21.45041 36.20229 28.82635
# Shear Modulus (GPa) = 25.65329 33.80987 29.73158
#
# Velocity S-wave (km/s) = 3.29877 3.78706 3.55132
# Velocity P-wave (km/s) = 4.85883 5.87189 5.38922
#
# Compressibility (1/GPa) = 0.04661916
#
# Stress axis : x y z
#
# Youngs Moduli (GPa) = 77.04483 38.16074 48.26252
#
# Poissons Ratio (x) = 0.35881 0.24191
# Poissons Ratio (y) = 0.72442 -0.37511
# Poissons Ratio (z) = 0.38617 -0.29659
#
# Static dielectric constant tensor:
#      x y z
#    x 1.952170 0.014550 -0.000170 
#    y 0.014550 1.881570 0.038080 
#    z -0.000170 0.038080 1.929110 
# 
# From -- ./inp_files/215219.got.cif
#   From: 2010.05.17/outbox.cif.g08.bks.cpg/sg2_108_cif.got.tgz:215219.got - 2010.06.03 11:33:40.
