data_PCOD9004377
_publ_section_title
;
Structure prediction by ZEFSAII (Michael W. Deem and Ramdas Pophale) SiO2 
 PCOD9004377
Probable space group: P -1
;
_chemical_formula_sum "Si O2"
_cell_formula_units_Z 14
_cell_length_a 5.529138
_cell_length_b 14.059859
_cell_length_c 19.659485
_cell_angle_alpha 157.119382
_cell_angle_beta 98.076921
_cell_angle_gamma 78.665824
_cell_volume 579.327946
_symmetry_space_group_name_H-M "P -1"
_symmetry_group_IT_number 2
_symmetry_cell_setting 'triclinic'
loop_
_space_group_symop_operation_xyz
x,y,z
-x,-y,-z
loop_
_atom_site_type_symbol
_atom_site_label
_atom_site_fract_x
_atom_site_fract_y
_atom_site_fract_z
Si Si1 0.433897 0.236805 0.604526
Si Si2 0.781186 0.844381 0.906751
Si Si3 0.686300 0.745592 0.618208
Si Si4 0.190932 0.614016 0.495856
Si Si5 0.948694 0.565622 0.963077
Si Si6 0.093875 0.616878 0.304687
Si Si7 0.608254 0.264147 0.980637
O O1 0.676300 0.251032 0.579670
O O2 0.152439 0.251067 0.579691
O O3 0.500000 0.000000 0.500000
O O4 0.405013 0.508494 0.818466
O O5 0.792195 0.622996 0.707374
O O6 0.845294 0.677925 0.868508
O O7 0.500000 0.000000 0.000000
O O8 0.000000 0.000000 0.000000
O O9 0.417728 0.751864 0.579612
O O10 0.751913 0.488322 0.492152
O O11 0.910056 0.751896 0.579640
O O12 0.670321 0.982591 0.823335
O O13 0.665027 0.703051 0.039923
O O14 0.171717 0.703105 0.039935
O O15 0.950930 0.366890 0.768757
O O16 0.000000 0.500000 0.000000
#
# Coordination Sequence:
#
# PCOD9004377 Si02
#       7
#     2   2   2   2   2   2   2
#     4  10  21  41  65  95 129 175 221 278 340 397
#     4  12  26  42  69 103 137 180 231 274 338 417
#     4  10  21  41  64  92 129 178 213 277 320 393
#     4  10  23  40  61  95 136 166 226 267 326 379
#     4  10  21  38  60  92 126 159 225 271 327 387
#     4  10  23  41  63  94 133 176 216 272 346 394
#     4  10  21  37  66  91 126 164 222 263 342 387
#
# _framework density 24.165929999999999
#
# number of rings (size 3 to 8) (size 9 to 14) (size 15 to 20)
#    0.000    1.714    0.000    3.429    8.000    0.000 
#    0.000   17.143    0.000    0.000    0.000    0.000 
#    0.000    0.000    0.000    0.000    0.000    0.000 
#
# Total GULP energy -78080.762332 kJ/mol
# GULP energy per Si atom -5577.197309 kJ/mol
# Density = 2.411093 g / cm^3
# Si number density = 24.165930 Si / 1000 Ang^3
#
#
#
# Elastic Constant Matrix: (Units=GPa)
#
#
# Indices 1 2 3 4 5 6 
#
# 1 281.5170 19.9665 32.7542 10.3325 -0.4140 -8.7849
# 2 19.9665 86.9493 -0.3485 -6.8739 3.3735 0.7091
# 3 32.7542 -0.3485 89.8068 -2.0204 13.0836 10.8130
# 4 10.3325 -6.8739 -2.0204 33.0967 7.0971 1.7358
# 5 -0.4140 3.3735 13.0836 7.0971 112.8605 66.5635
# 6 -8.7849 0.7091 10.8130 1.7358 66.5635 41.5667
#
#
#
# Elastic Compliance Matrix: (Units=1/GPa)
#
#
# Indices 1 2 3 4 5 6 
#
# 1 0.004466 -0.000801 -0.002338 -0.000383 -0.010758 0.018809
# 2 -0.000801 0.012084 0.000263 0.003427 -0.004752 0.007022
# 3 -0.002338 0.000263 0.013112 -0.000019 0.013865 -0.026112
# 4 -0.000383 0.003427 -0.000019 0.034257 -0.023998 0.036864
# 5 -0.010758 -0.004752 0.013865 -0.023998 0.210564 -0.341987
# 6 0.018809 0.007022 -0.026112 0.036864 -0.341987 0.580813
#
#
# Mechanical properties :
#
#
# Convention : Reuss Voigt Hill
#
# Bulk Modulus (GPa) = 41.82365 62.55750 52.19057
# Shear Modulus (GPa) = 5.75361 64.56485 35.15923
#
# Velocity S-wave (km/s) = 1.54468 5.17449 3.81847
# Velocity P-wave (km/s) = 4.53054 7.85132 6.40972
#
# Compressibility (1/GPa) = 0.02390992
#
# Stress axis : x y z
#
# Youngs Moduli (GPa) = 223.90307 82.75415 76.26412
#
# Poissons Ratio (x) = 0.06631 0.17831
# Poissons Ratio (y) = 0.17941 -0.02006
# Poissons Ratio (z) = 0.52349 -0.02176
#
# Static dielectric constant tensor:
#      x y z
#    x 2.025870 -0.000020 0.009730 
#    y -0.000020 1.971710 0.009540 
#    z 0.009730 0.009540 1.895990 
# 
# From -- ./inp_files/410825.got.cif
#   From: 2010.05.17/outbox.cif.g08.bks.cpg/sg2_206_cif.got.tgz:410825.got - 2010.06.03 11:33:40.
