data_PCOD9004325
_publ_section_title
;
Structure prediction by ZEFSAII (Michael W. Deem and Ramdas Pophale) SiO2 
 PCOD9004325
Probable space group: P -1
;
_chemical_formula_sum "Si O2"
_cell_formula_units_Z 16
_cell_length_a 12.169650
_cell_length_b 12.954059
_cell_length_c 7.386700
_cell_angle_alpha 134.319844
_cell_angle_beta 127.379059
_cell_angle_gamma 52.215716
_cell_volume 624.571598
_symmetry_space_group_name_H-M "P -1"
_symmetry_group_IT_number 2
_symmetry_cell_setting 'triclinic'
loop_
_space_group_symop_operation_xyz
x,y,z
-x,-y,-z
loop_
_atom_site_type_symbol
_atom_site_label
_atom_site_fract_x
_atom_site_fract_y
_atom_site_fract_z
Si Si1 0.034931 0.820119 0.280765
Si Si2 0.075221 0.163698 0.423916
Si Si3 0.347842 0.529588 0.654880
Si Si4 0.219082 0.286175 0.213620
Si Si5 0.308624 0.288802 0.896941
Si Si6 0.411772 0.981711 0.210341
Si Si7 0.655765 0.396322 0.685467
Si Si8 0.212557 0.844023 0.053028
O O1 0.010440 0.767194 0.394232
O O2 0.199488 0.737832 0.280238
O O3 0.925143 0.763527 0.979080
O O4 0.000000 0.000000 0.500000
O O5 0.194740 0.244268 0.599244
O O6 0.175422 0.985094 0.330021
O O7 0.945437 0.170023 0.166230
O O8 0.233580 0.444325 0.493465
O O9 0.504943 0.396559 0.623443
O O10 0.339797 0.597388 0.523344
O O11 0.325414 0.671253 0.941961
O O12 0.349944 0.139186 0.235042
O O13 0.236145 0.312227 0.049364
O O14 0.462678 0.157157 0.925027
O O15 0.333379 0.441211 0.044219
O O16 0.276003 0.925297 0.055302
O O17 0.500000 0.000000 0.500000
#
# Coordination Sequence:
#
# PCOD9004325 Si02
#       8
#     2   2   2   2   2   2   2   2
#     4  11  23  41  64  96 132 165 217 267 320 374
#     4  10  22  36  63  93 125 169 211 257 309 387
#     4  10  21  39  64  98 133 168 211 266 320 378
#     4  10  25  38  65  98 129 165 214 275 317 376
#     4  10  21  40  65  99 125 166 217 269 317 375
#     4  12  23  43  65  91 131 172 217 258 328 390
#     4  10  21  37  65  97 131 169 210 267 325 375
#     4  11  21  39  64  92 131 171 211 251 321 386
#
# _framework density 25.617559
#
# number of rings (size 3 to 8) (size 9 to 14) (size 15 to 20)
#    0.000    1.500    3.750    1.125    1.750    3.500 
#    0.000    1.875    0.000    3.000    0.000    0.000 
#    0.000    0.000    0.000    0.000    0.000    0.000 
#
# Total GULP energy -89375.594752 kJ/mol
# GULP energy per Si atom -5585.974672 kJ/mol
# Density = 2.555925 g / cm^3
# Si number density = 25.617559 Si / 1000 Ang^3
#
#
#
# Elastic Constant Matrix: (Units=GPa)
#
#
# Indices 1 2 3 4 5 6 
#
# 1 87.0290 9.4794 21.0661 5.8264 13.7712 -19.9228
# 2 9.4794 86.9034 17.1327 15.4952 11.7235 -17.7730
# 3 21.0661 17.1327 92.7308 12.7861 19.4747 3.8107
# 4 5.8264 15.4952 12.7861 35.5792 -6.3732 0.9807
# 5 13.7712 11.7235 19.4747 -6.3732 36.9582 8.6415
# 6 -19.9228 -17.7730 3.8107 0.9807 8.6415 46.9667
#
#
#
# Elastic Compliance Matrix: (Units=1/GPa)
#
#
# Indices 1 2 3 4 5 6 
#
# 1 0.015514 0.002635 -0.001923 -0.004804 -0.008635 0.009423
# 2 0.002635 0.016157 -0.000711 -0.009163 -0.009470 0.009224
# 3 -0.001923 -0.000711 0.013611 -0.005498 -0.006995 -0.000787
# 4 -0.004804 -0.009163 -0.005498 0.038008 0.016214 -0.008836
# 5 -0.008635 -0.009470 -0.006995 0.016214 0.043263 -0.014978
# 6 0.009423 0.009224 -0.000787 -0.008836 -0.014978 0.031783
#
#
# Mechanical properties :
#
#
# Convention : Reuss Voigt Hill
#
# Bulk Modulus (GPa) = 22.08134 40.22442 31.15288
# Shear Modulus (GPa) = 28.83034 38.49980 33.66507
#
# Velocity S-wave (km/s) = 3.35836 3.88089 3.62904
# Velocity P-wave (km/s) = 4.86584 5.98479 5.45409
#
# Compressibility (1/GPa) = 0.04528710
#
# Stress axis : x y z
#
# Youngs Moduli (GPa) = 64.45789 61.89141 73.46759
#
# Poissons Ratio (x) = -0.16311 0.14125
# Poissons Ratio (y) = -0.16988 0.05221
# Poissons Ratio (z) = 0.12393 0.04399
#
# Static dielectric constant tensor:
#      x y z
#    x 2.084760 0.001370 -0.031390 
#    y 0.001370 2.026940 -0.033510 
#    z -0.031390 -0.033510 2.122900 
# 
# From -- ./inp_files/316142.got.cif
#   From: 2010.05.17/outbox.cif.g08.bks.cpg/sg2_159_cif.got.tgz:316142.got - 2010.06.03 11:33:40.
