data_PCOD9004728
_publ_section_title
;
Structure prediction by ZEFSAII (Michael W. Deem and Ramdas Pophale) SiO2 
 PCOD9004728
Probable space group: P -1
;
_chemical_formula_sum "Si O2"
_cell_formula_units_Z 14
_cell_length_a 13.373543
_cell_length_b 7.222816
_cell_length_c 14.567118
_cell_angle_alpha 89.231326
_cell_angle_beta 29.447847
_cell_angle_gamma 73.055686
_cell_volume 568.777174
_symmetry_space_group_name_H-M "P -1"
_symmetry_group_IT_number 2
_symmetry_cell_setting 'triclinic'
loop_
_space_group_symop_operation_xyz
x,y,z
-x,-y,-z
loop_
_atom_site_type_symbol
_atom_site_label
_atom_site_fract_x
_atom_site_fract_y
_atom_site_fract_z
Si Si1 0.635987 0.309152 0.239877
Si Si2 0.774079 0.632773 0.776238
Si Si3 0.791956 0.616321 0.306637
Si Si4 0.099117 0.200295 0.610352
Si Si5 0.864643 0.787322 0.073145
Si Si6 0.571273 0.025479 0.808986
Si Si7 0.585374 0.300646 0.076292
O O1 0.404794 0.422608 0.492507
O O2 0.727849 0.048294 0.163131
O O3 0.564506 0.398410 0.193029
O O4 0.871664 0.295965 0.089801
O O5 0.033986 0.421442 0.603366
O O6 0.761461 0.838944 0.734543
O O7 0.646433 0.557246 0.807490
O O8 0.595901 0.741977 0.006241
O O9 0.721301 0.742238 0.264393
O O10 0.818935 0.768820 0.356654
O O11 0.049760 0.376887 0.081365
O O12 0.842729 0.228283 0.827126
O O13 0.293248 0.993137 0.393060
O O14 0.410555 0.925388 0.917568
#
# Coordination Sequence:
#
# PCOD9004728 Si02
#       7
#     2   2   2   2   2   2   2
#     4  11  21  42  60  82 115 151 184 237 283 328
#     4   9  21  40  56  86 116 148 190 231 273 339
#     4  11  22  38  60  88 112 146 191 234 278 342
#     4  12  21  36  62  83 117 153 181 231 290 322
#     4  10  24  39  61  83 113 148 190 235 284 332
#     4   9  21  39  56  81 117 148 188 234 268 334
#     4  10  21  38  58  85 118 145 194 229 271 346
#
# _framework density 24.61421
#
# number of rings (size 3 to 8) (size 9 to 14) (size 15 to 20)
#    0.857    0.857    2.857    1.714    2.000    0.571 
#    0.000    1.429    0.000    0.000    0.000    0.000 
#    0.000    0.000    0.000    0.000    0.000    0.000 
#
# Total GULP energy -78246.519879 kJ/mol
# GULP energy per Si atom -5589.037134 kJ/mol
# Density = 2.455819 g / cm^3
# Si number density = 24.614210 Si / 1000 Ang^3
#
#
#
# Elastic Constant Matrix: (Units=GPa)
#
#
# Indices 1 2 3 4 5 6 
#
# 1 84.7420 1.3175 35.7228 3.9859 24.6290 -6.7195
# 2 1.3175 45.3161 15.3939 3.6285 5.2170 -3.7777
# 3 35.7228 15.3939 157.2126 -6.9246 43.6560 0.6277
# 4 3.9859 3.6285 -6.9246 40.5870 2.3359 -3.8142
# 5 24.6290 5.2170 43.6560 2.3359 36.9770 -5.5812
# 6 -6.7195 -3.7777 0.6277 -3.8142 -5.5812 11.1896
#
#
#
# Elastic Compliance Matrix: (Units=1/GPa)
#
#
# Indices 1 2 3 4 5 6 
#
# 1 0.015109 0.001494 -0.001547 -0.000922 -0.007547 0.005586
# 2 0.001494 0.023849 -0.002957 -0.001997 0.000573 0.008720
# 3 -0.001547 -0.002957 0.010561 0.002183 -0.012358 -0.007939
# 4 -0.000922 -0.001997 0.002183 0.026012 -0.002369 0.006335
# 5 -0.007547 0.000573 -0.012358 -0.002369 0.049807 0.020390
# 6 0.005586 0.008720 -0.007939 0.006335 0.020390 0.108443
#
#
# Mechanical properties :
#
#
# Convention : Reuss Voigt Hill
#
# Bulk Modulus (GPa) = 22.98776 43.57102 33.27939
# Shear Modulus (GPa) = 19.66192 33.40646 26.53419
#
# Velocity S-wave (km/s) = 2.82938 3.68802 3.28686
# Velocity P-wave (km/s) = 4.47586 5.98960 5.28719
#
# Compressibility (1/GPa) = 0.04350141
#
# Stress axis : x y z
#
# Youngs Moduli (GPa) = 66.18572 41.93053 94.68584
#
# Poissons Ratio (x) = -0.06266 0.14645
# Poissons Ratio (y) = -0.09891 0.27995
# Poissons Ratio (z) = 0.10237 0.12397
#
# Static dielectric constant tensor:
#      x y z
#    x 1.977530 -0.041950 0.021950 
#    y -0.041950 1.955550 -0.026320 
#    z 0.021950 -0.026320 1.949580 
# 
# From -- ./inp_files/212078.got.cif
#   From: 2010.05.17/outbox.cif.g08.bks.cpg/sg2_107_cif.got.tgz:212078.got - 2010.06.03 11:33:40.
