data_PCOD9004678
_publ_section_title
;
Structure prediction by ZEFSAII (Michael W. Deem and Ramdas Pophale) SiO2 
 PCOD9004678
Probable space group: P -1
;
_chemical_formula_sum "Si O2"
_cell_formula_units_Z 15
_cell_length_a 4.873309
_cell_length_b 20.311980
_cell_length_c 8.958555
_cell_angle_alpha 126.374066
_cell_angle_beta 116.800244
_cell_angle_gamma 76.013409
_cell_volume 636.896330
_symmetry_space_group_name_H-M "P -1"
_symmetry_group_IT_number 2
_symmetry_cell_setting 'triclinic'
loop_
_space_group_symop_operation_xyz
x,y,z
-x,-y,-z
loop_
_atom_site_type_symbol
_atom_site_label
_atom_site_fract_x
_atom_site_fract_y
_atom_site_fract_z
Si Si1 0.612022 0.908552 0.275849
Si Si2 0.336021 0.331909 0.714414
Si Si3 0.674470 0.756229 0.878924
Si Si4 0.942711 0.623185 0.591438
Si Si5 0.586804 0.607043 0.867071
Si Si6 0.685940 0.087706 0.485090
Si Si7 0.500000 0.500000 0.500000
Si Si8 0.238829 0.764331 0.504290
O O1 0.393623 0.881791 0.325067
O O2 0.948908 0.922081 0.447262
O O3 0.522549 0.997853 0.313977
O O4 0.659782 0.844450 0.069219
O O5 0.124554 0.371525 0.591341
O O6 0.639900 0.304860 0.669517
O O7 0.126390 0.251217 0.599863
O O8 0.421801 0.384601 0.949885
O O9 0.942301 0.714751 0.789119
O O10 0.668553 0.694785 0.935496
O O11 0.395704 0.753139 0.687941
O O12 0.659267 0.573618 0.527447
O O13 0.265945 0.582435 0.660102
O O14 0.760130 0.532427 0.741769
O O15 0.634274 0.151751 0.427004
#
# Coordination Sequence:
#
# PCOD9004678 Si02
#       8
#     2   2   2   2   2   2   1   2
#     4  10  22  37  59  90 121 170 210 261 313 374
#     4  11  25  40  68  94 128 166 215 253 318 366
#     4  10  22  37  63  88 126 162 216 259 317 365
#     4  10  23  44  61  96 127 162 208 266 304 386
#     4  11  22  42  66  90 126 170 199 266 310 380
#     4  10  21  38  57  87 130 161 216 260 311 371
#     4  10  24  42  66  96 126 162 214 248 322 376
#     4  11  22  40  60  95 126 164 214 269 298 381
#
# _framework density 23.551715000000002
#
# number of rings (size 3 to 8) (size 9 to 14) (size 15 to 20)
#    0.000    1.600    1.333    2.800    7.467    1.067 
#    0.000    1.333    0.000    7.200    0.000    0.000 
#    0.000    0.000    0.000    0.000    0.000    0.000 
#
# Total GULP energy -83527.913629 kJ/mol
# GULP energy per Si atom -5568.527575 kJ/mol
# Density = 2.349811 g / cm^3
# Si number density = 23.551715 Si / 1000 Ang^3
#
#
#
# Elastic Constant Matrix: (Units=GPa)
#
#
# Indices 1 2 3 4 5 6 
#
# 1 92.4810 28.9755 16.4518 -9.3826 -9.0811 11.1273
# 2 28.9755 84.6428 39.3762 -3.2883 -21.0921 5.5687
# 3 16.4518 39.3762 131.9839 -0.3313 -47.4768 -0.6990
# 4 -9.3826 -3.2883 -0.3313 27.3557 -3.5333 -7.9218
# 5 -9.0811 -21.0921 -47.4768 -3.5333 34.9387 2.6279
# 6 11.1273 5.5687 -0.6990 -7.9218 2.6279 34.7409
#
#
#
# Elastic Compliance Matrix: (Units=1/GPa)
#
#
# Indices 1 2 3 4 5 6 
#
# 1 0.012808 -0.003670 0.000181 0.003365 0.001917 -0.002888
# 2 -0.003670 0.015649 -0.002126 0.000880 0.005815 -0.001615
# 3 0.000181 -0.002126 0.015350 0.002461 0.019898 -0.000353
# 4 0.003365 0.000880 0.002461 0.041116 0.008338 0.007575
# 5 0.001917 0.005815 0.019898 0.008338 0.060801 -0.003844
# 6 -0.002888 -0.001615 -0.000353 0.007575 -0.003844 0.031979
#
#
# Mechanical properties :
#
#
# Convention : Reuss Voigt Hill
#
# Bulk Modulus (GPa) = 30.69615 53.19053 41.94334
# Shear Modulus (GPa) = 25.02591 34.36066 29.69328
#
# Velocity S-wave (km/s) = 3.26328 3.82376 3.55458
# Velocity P-wave (km/s) = 5.22116 6.49064 5.89020
#
# Compressibility (1/GPa) = 0.03257737
#
# Stress axis : x y z
#
# Youngs Moduli (GPa) = 78.07682 63.90084 65.14545
#
# Poissons Ratio (x) = 0.23454 -0.01181
# Poissons Ratio (y) = 0.28657 0.13849
# Poissons Ratio (z) = -0.01415 0.13585
#
# Static dielectric constant tensor:
#      x y z
#    x 2.097920 -0.058990 -0.097090 
#    y -0.058990 2.016900 0.098160 
#    z -0.097090 0.098160 1.954060 
# 
# From -- ./inp_files/38513.got.cif
#   From: 2010.05.17/outbox.cif.g08.bks.cpg/sg2_20_cif.got.tgz:38513.got - 2010.06.03 11:33:40.
