data_PCOD9004303
_publ_section_title
;
Structure prediction by ZEFSAII (Michael W. Deem and Ramdas Pophale) SiO2 
 PCOD9004303
Probable space group: P -1
;
_chemical_formula_sum "Si O2"
_cell_formula_units_Z 15
_cell_length_a 10.015311
_cell_length_b 12.266916
_cell_length_c 11.524808
_cell_angle_alpha 115.197993
_cell_angle_beta 87.146475
_cell_angle_gamma 36.948746
_cell_volume 536.747681
_symmetry_space_group_name_H-M "P -1"
_symmetry_group_IT_number 2
_symmetry_cell_setting 'triclinic'
loop_
_space_group_symop_operation_xyz
x,y,z
-x,-y,-z
loop_
_atom_site_type_symbol
_atom_site_label
_atom_site_fract_x
_atom_site_fract_y
_atom_site_fract_z
Si Si1 0.060597 0.676519 0.004654
Si Si2 0.203632 0.076883 0.619550
Si Si3 0.184465 0.224060 0.357498
Si Si4 0.251740 0.301285 0.725521
Si Si5 0.500000 0.000000 0.000000
Si Si6 0.321152 0.866960 0.914568
Si Si7 0.304733 0.784483 0.136724
Si Si8 0.825514 0.301329 0.527034
O O1 0.879242 0.860498 0.213311
O O2 0.018000 0.818487 0.981640
O O3 0.972916 0.616610 0.926712
O O4 0.432647 0.350224 0.866131
O O5 0.105776 0.294666 0.689642
O O6 0.000058 0.160739 0.581190
O O7 0.564525 0.779771 0.422021
O O8 0.297110 0.122543 0.175787
O O9 0.957981 0.300822 0.440998
O O10 0.000000 0.500000 0.500000
O O11 0.493294 0.955345 0.306970
O O12 0.504253 0.146229 0.114613
O O13 0.475671 0.632620 0.725867
O O14 0.301506 0.839564 0.033687
O O15 0.965742 0.072311 0.347053
O O16 0.500000 0.500000 0.000000
#
# Coordination Sequence:
#
# PCOD9004303 Si02
#       8
#     2   2   2   2   1   2   2   2
#     4  12  24  43  70 103 137 186 239 291 348 425
#     4  10  21  37  65  94 144 181 224 275 344 421
#     4  11  21  34  60  95 147 189 229 267 343 420
#     4  10  22  37  60 100 145 194 225 273 344 434
#     4  12  22  36  64 106 150 184 212 280 342 436
#     4  12  27  42  74 109 144 184 235 284 361 432
#     4  12  28  54  75  95 137 189 249 310 354 407
#     4  11  23  46  65 101 141 183 239 283 358 415
#
# _framework density 27.946090000000002
#
# number of rings (size 3 to 8) (size 9 to 14) (size 15 to 20)
#    0.000    0.800    6.667    1.200    1.867    3.200 
#    0.000    0.667    0.000    0.000    0.000    0.000 
#    0.000    0.000    0.000    0.000    0.000    0.000 
#
# Total GULP energy -83808.370408 kJ/mol
# GULP energy per Si atom -5587.224694 kJ/mol
# Density = 2.788248 g / cm^3
# Si number density = 27.946090 Si / 1000 Ang^3
#
#
#
# Elastic Constant Matrix: (Units=GPa)
#
#
# Indices 1 2 3 4 5 6 
#
# 1 65.1577 14.9326 15.5777 7.3223 18.4942 22.4043
# 2 14.9326 176.7034 88.8374 0.3145 2.4624 20.7134
# 3 15.5777 88.8374 224.4686 1.3213 34.9736 16.4502
# 4 7.3223 0.3145 1.3213 54.6817 8.4048 -2.8821
# 5 18.4942 2.4624 34.9736 8.4048 37.2804 7.7097
# 6 22.4043 20.7134 16.4502 -2.8821 7.7097 30.1868
#
#
#
# Elastic Compliance Matrix: (Units=1/GPa)
#
#
# Indices 1 2 3 4 5 6 
#
# 1 0.023351 -0.000599 0.001144 -0.002615 -0.008814 -0.015542
# 2 -0.000599 0.007839 -0.003368 -0.000713 0.003964 -0.004179
# 3 0.001144 -0.003368 0.006795 0.000723 -0.006792 -0.000437
# 4 -0.002615 -0.000713 0.000723 0.019637 -0.004824 0.005143
# 5 -0.008814 0.003964 -0.006792 -0.004824 0.038993 -0.002896
# 6 -0.015542 -0.004179 -0.000437 0.005143 -0.002896 0.048999
#
#
# Mechanical properties :
#
#
# Convention : Reuss Voigt Hill
#
# Bulk Modulus (GPa) = 30.92294 78.33614 54.62954
# Shear Modulus (GPa) = 30.85686 47.56192 39.20939
#
# Velocity S-wave (km/s) = 3.32649 4.12990 3.74978
# Velocity P-wave (km/s) = 5.08363 7.12976 6.19180
#
# Compressibility (1/GPa) = 0.03233845
#
# Stress axis : x y z
#
# Youngs Moduli (GPa) = 42.82499 127.56660 147.17767
#
# Poissons Ratio (x) = 0.07646 -0.16843
# Poissons Ratio (y) = 0.02567 0.49570
# Poissons Ratio (z) = -0.04901 0.42965
#
# Static dielectric constant tensor:
#      x y z
#    x 2.573000 -0.205200 0.132950 
#    y -0.205200 2.151360 0.034370 
#    z 0.132950 0.034370 2.181950 
# 
# From -- ./inp_files/428552.got.cif
#   From: 2010.05.17/outbox.cif.g08.bks.cpg/sg2_215_cif.got.tgz:428552.got - 2010.06.03 11:33:40.
