data_PCOD9004685
_publ_section_title
;
Structure prediction by ZEFSAII (Michael W. Deem and Ramdas Pophale) SiO2 
 PCOD9004685
Probable space group: P -1
;
_chemical_formula_sum "Si O2"
_cell_formula_units_Z 16
_cell_length_a 4.844703
_cell_length_b 6.219383
_cell_length_c 19.173268
_cell_angle_alpha 92.707767
_cell_angle_beta 98.025998
_cell_angle_gamma 88.419412
_cell_volume 571.284819
_symmetry_space_group_name_H-M "P -1"
_symmetry_group_IT_number 2
_symmetry_cell_setting 'triclinic'
loop_
_space_group_symop_operation_xyz
x,y,z
-x,-y,-z
loop_
_atom_site_type_symbol
_atom_site_label
_atom_site_fract_x
_atom_site_fract_y
_atom_site_fract_z
Si Si1 0.102139 0.695968 0.670197
Si Si2 0.761786 0.070072 0.595237
Si Si3 0.591375 0.965049 0.169095
Si Si4 0.810363 0.639902 0.794491
Si Si5 0.618678 0.693359 0.300677
Si Si6 0.628322 0.288058 0.469140
Si Si7 0.745221 0.416111 0.922076
Si Si8 0.327464 0.810654 0.954786
O O1 0.097522 0.429714 0.667339
O O2 0.298596 0.693102 0.608897
O O3 0.955393 0.924648 0.649075
O O4 0.054034 0.706574 0.752161
O O5 0.618994 0.875520 0.546547
O O6 0.537116 0.190963 0.638981
O O7 0.852931 0.211374 0.534002
O O8 0.686305 0.851359 0.241956
O O9 0.435603 0.771327 0.121642
O O10 0.370713 0.151569 0.186613
O O11 0.783082 0.071549 0.117246
O O12 0.590092 0.490334 0.740830
O O13 0.917641 0.506599 0.863878
O O14 0.500000 0.500000 0.500000
O O15 0.538769 0.615045 0.938434
O O16 0.865661 0.297384 0.994202
O O17 0.500000 0.000000 0.000000
#
# Coordination Sequence:
#
# PCOD9004685 Si02
#       8
#     2   2   2   2   2   2   2   2
#     4  12  24  41  67  89 120 167 196 248 316 360
#     4  11  25  46  64  90 122 156 201 254 303 367
#     4   9  17  33  54  83 125 159 202 256 297 356
#     4  10  21  38  57  89 125 157 206 254 301 366
#     4  11  23  41  61  90 126 156 204 255 299 368
#     4  11  25  47  65  91 123 154 204 255 300 370
#     4   8  15  28  51  85 122 159 208 250 295 362
#     4   8  13  25  51  84 118 166 207 242 305 354
#
# _framework density 28.007048000000001
#
# number of rings (size 3 to 8) (size 9 to 14) (size 15 to 20)
#    0.000    2.000    2.500    1.125    0.000    1.500 
#    0.000    0.000    0.000    0.750    0.000   78.750 
#    0.000    0.000    0.000    0.000    0.000    0.000 
#
# Total GULP energy -89231.891894 kJ/mol
# GULP energy per Si atom -5576.993243 kJ/mol
# Density = 2.794330 g / cm^3
# Si number density = 28.007048 Si / 1000 Ang^3
#
#
#
# Elastic Constant Matrix: (Units=GPa)
#
#
# Indices 1 2 3 4 5 6 
#
# 1 69.0525 37.7684 57.3117 -4.8768 -3.6420 4.2264
# 2 37.7684 186.0110 66.3252 0.3080 -10.9721 -7.9236
# 3 57.3117 66.3252 184.3305 -32.8113 -15.4067 14.2745
# 4 -4.8768 0.3080 -32.8113 100.7296 15.5203 -7.9617
# 5 -3.6420 -10.9721 -15.4067 15.5203 45.0556 5.5519
# 6 4.2264 -7.9236 14.2745 -7.9617 5.5519 25.1563
#
#
#
# Elastic Compliance Matrix: (Units=1/GPa)
#
#
# Indices 1 2 3 4 5 6 
#
# 1 0.020346 -0.002187 -0.005641 -0.000874 -0.000381 -0.001099
# 2 -0.002187 0.006733 -0.002065 -0.000621 0.000559 0.003340
# 3 -0.005641 -0.002065 0.008776 0.001940 0.001928 -0.004494
# 4 -0.000874 -0.000621 0.001940 0.011379 -0.003886 0.003310
# 5 -0.000381 0.000559 0.001928 -0.003886 0.025241 -0.007655
# 6 -0.001099 0.003340 -0.004494 0.003310 -0.007655 0.046275
#
#
# Mechanical properties :
#
#
# Convention : Reuss Voigt Hill
#
# Bulk Modulus (GPa) = 62.23601 84.68939 73.46270
# Shear Modulus (GPa) = 34.74806 52.72089 43.73448
#
# Velocity S-wave (km/s) = 3.52616 4.34339 3.95594
# Velocity P-wave (km/s) = 6.23284 7.44699 6.86680
#
# Compressibility (1/GPa) = 0.01606787
#
# Stress axis : x y z
#
# Youngs Moduli (GPa) = 49.15090 148.52810 113.94260
#
# Poissons Ratio (x) = 0.32490 0.64275
# Poissons Ratio (y) = 0.10752 0.23528
# Poissons Ratio (z) = 0.27726 0.30670
#
# Static dielectric constant tensor:
#      x y z
#    x 2.499480 0.077360 0.309500 
#    y 0.077360 2.231560 -0.079110 
#    z 0.309500 -0.079110 2.533200 
# 
# From -- ./inp_files/121672.got.cif
#   From: 2010.05.17/outbox.cif.g08.bks.cpg/sg2_61_cif.got.tgz:121672.got - 2010.06.03 11:33:40.
