data_PCOD9004756
_publ_section_title
;
Structure prediction by ZEFSAII (Michael W. Deem and Ramdas Pophale) SiO2 
 PCOD9004756
Probable space group: P -1
;
_chemical_formula_sum "Si O2"
_cell_formula_units_Z 16
_cell_length_a 13.515877
_cell_length_b 8.206390
_cell_length_c 6.522678
_cell_angle_alpha 115.905855
_cell_angle_beta 92.590047
_cell_angle_gamma 90.894213
_cell_volume 649.605432
_symmetry_space_group_name_H-M "P -1"
_symmetry_group_IT_number 2
_symmetry_cell_setting 'triclinic'
loop_
_space_group_symop_operation_xyz
x,y,z
-x,-y,-z
loop_
_atom_site_type_symbol
_atom_site_label
_atom_site_fract_x
_atom_site_fract_y
_atom_site_fract_z
Si Si1 0.137449 0.166059 0.343302
Si Si2 0.940026 0.318127 0.333805
Si Si3 0.370160 0.740948 0.091660
Si Si4 0.431743 0.624954 0.430378
Si Si5 0.377257 0.980408 0.846413
Si Si6 0.794322 0.505247 0.176967
Si Si7 0.204825 0.862274 0.468396
Si Si8 0.714867 0.683793 0.876218
O O1 0.172948 0.342158 0.575597
O O2 0.220129 0.177707 0.181011
O O3 0.027299 0.178147 0.250400
O O4 0.143699 0.003349 0.412433
O O5 0.873807 0.351576 0.144626
O O6 0.868425 0.274955 0.495127
O O7 0.000000 0.500000 0.500000
O O8 0.450248 0.663957 0.211456
O O9 0.283566 0.795394 0.272161
O O10 0.395646 0.907364 0.037774
O O11 0.315156 0.588953 0.861307
O O12 0.500000 0.500000 0.500000
O O13 0.433867 0.828138 0.637431
O O14 0.331409 0.493906 0.340271
O O15 0.270242 0.947886 0.707073
O O16 0.375807 0.198902 0.981264
O O17 0.785595 0.604565 0.013455
#
# Coordination Sequence:
#
# PCOD9004756 Si02
#       8
#     2   2   2   2   2   2   2   2
#     4  11  22  39  59  91 130 171 224 274 318 371
#     4  10  23  37  58  90 133 173 218 284 323 357
#     4  10  21  39  68  87 124 174 210 258 330 385
#     4  10  25  44  68 102 133 160 209 273 329 395
#     4  11  21  42  68  95 130 171 217 265 320 395
#     4  10  21  38  58  89 125 172 219 266 319 382
#     4  11  21  40  60  90 129 170 224 268 318 379
#     4  11  23  41  70  96 125 180 221 255 332 396
#
# _framework density 24.630336
#
# number of rings (size 3 to 8) (size 9 to 14) (size 15 to 20)
#    0.000    1.500    3.750    1.125    8.750    1.500 
#    2.250    1.875    0.000    0.000    0.000    0.000 
#    0.000    0.000    0.000    0.000    0.000    0.000 
#
# Total GULP energy -89261.350297 kJ/mol
# GULP energy per Si atom -5578.834394 kJ/mol
# Density = 2.457428 g / cm^3
# Si number density = 24.630336 Si / 1000 Ang^3
#
#
#
# Elastic Constant Matrix: (Units=GPa)
#
#
# Indices 1 2 3 4 5 6 
#
# 1 65.9401 35.0594 46.7682 -20.9272 5.6138 -18.5787
# 2 35.0594 125.6938 51.5470 -34.9220 18.5072 -29.4443
# 3 46.7682 51.5470 127.5123 -8.7386 16.1719 -15.0881
# 4 -20.9272 -34.9220 -8.7386 53.5211 -15.8549 12.2805
# 5 5.6138 18.5072 16.1719 -15.8549 28.9261 -14.7931
# 6 -18.5787 -29.4443 -15.0881 12.2805 -14.7931 51.0343
#
#
#
# Elastic Compliance Matrix: (Units=1/GPa)
#
#
# Indices 1 2 3 4 5 6 
#
# 1 0.026000 -0.000730 -0.008942 0.009345 0.009000 0.006760
# 2 -0.000730 0.012474 -0.003830 0.006217 -0.000106 0.004272
# 3 -0.008942 -0.003830 0.012931 -0.005486 -0.007297 -0.002437
# 4 0.009345 0.006217 -0.005486 0.029239 0.014616 0.002567
# 5 0.009000 -0.000106 -0.007297 0.014616 0.051335 0.012421
# 6 0.006760 0.004272 -0.002437 0.002567 0.012421 0.026783
#
#
# Mechanical properties :
#
#
# Convention : Reuss Voigt Hill
#
# Bulk Modulus (GPa) = 40.98195 65.09947 53.04071
# Shear Modulus (GPa) = 25.78663 39.08106 32.43384
#
# Velocity S-wave (km/s) = 3.23916 3.98767 3.63275
# Velocity P-wave (km/s) = 5.53755 6.90579 6.25917
#
# Compressibility (1/GPa) = 0.02440099
#
# Stress axis : x y z
#
# Youngs Moduli (GPa) = 38.46193 80.16972 77.33140
#
# Poissons Ratio (x) = 0.05854 0.69149
# Poissons Ratio (y) = 0.02809 0.29615
# Poissons Ratio (z) = 0.34392 0.30702
#
# Static dielectric constant tensor:
#      x y z
#    x 2.049400 -0.044030 -0.059330 
#    y -0.044030 2.013390 0.037120 
#    z -0.059330 0.037120 1.992240 
# 
# From -- ./inp_files/51756.got.cif
#   From: 2010.05.17/outbox.cif.g08.bks.cpg/sg2_26_cif.got.tgz:51756.got - 2010.06.03 11:33:40.
