data_PCOD9004123
_publ_section_title
;
Structure prediction by ZEFSAII (Michael W. Deem and Ramdas Pophale) SiO2 
 PCOD9004123
Probable space group: P -1
;
_chemical_formula_sum "Si O2"
_cell_formula_units_Z 14
_cell_length_a 6.994480
_cell_length_b 18.142543
_cell_length_c 6.578170
_cell_angle_alpha 76.961144
_cell_angle_beta 117.577437
_cell_angle_gamma 120.768496
_cell_volume 635.696157
_symmetry_space_group_name_H-M "P -1"
_symmetry_group_IT_number 2
_symmetry_cell_setting 'triclinic'
loop_
_space_group_symop_operation_xyz
x,y,z
-x,-y,-z
loop_
_atom_site_type_symbol
_atom_site_label
_atom_site_fract_x
_atom_site_fract_y
_atom_site_fract_z
Si Si1 0.770692 0.558135 0.515363
Si Si2 0.731725 0.155933 0.838764
Si Si3 0.870344 0.302858 0.141729
Si Si4 0.584718 0.262976 0.412798
Si Si5 0.695946 0.996228 0.448021
Si Si6 0.054390 0.577766 0.270359
Si Si7 0.060094 0.113969 0.247275
O O1 0.500000 0.500000 0.500000
O O2 0.927434 0.509025 0.681779
O O3 0.896211 0.651814 0.621834
O O4 0.819156 0.566794 0.291200
O O5 0.719374 0.210844 0.607281
O O6 0.464085 0.074338 0.758243
O O7 0.808074 0.219895 0.028059
O O8 0.926423 0.120683 0.974174
O O9 0.643103 0.278306 0.194845
O O10 0.922250 0.376575 0.958120
O O11 0.709793 0.354221 0.528056
O O12 0.299790 0.203994 0.346896
O O13 0.847627 0.957240 0.665326
O O14 0.500000 0.000000 0.500000
O O15 0.871471 0.082548 0.363030
#
# Coordination Sequence:
#
# PCOD9004123 Si02
#       7
#     2   2   2   2   2   2   2
#     4  10  21  37  64  92 120 164 207 250 306 365
#     4  10  22  40  63  92 125 160 211 256 303 376
#     4  10  21  41  62  86 130 166 195 261 311 351
#     4   9  21  42  59  93 129 163 208 260 300 368
#     4  10  23  44  65  91 127 158 209 264 305 370
#     4   9  20  41  60  87 131 157 205 259 297 359
#     4  10  22  41  65  93 120 166 206 250 315 370
#
# _framework density 22.023098000000001
#
# number of rings (size 3 to 8) (size 9 to 14) (size 15 to 20)
#    0.000    2.286    0.000    0.857    6.000    1.143 
#   18.000    0.000    0.000    0.000    0.000    0.000 
#    0.000    0.000    0.000    0.000    0.000    0.000 
#
# Total GULP energy -78095.306904 kJ/mol
# GULP energy per Si atom -5578.236207 kJ/mol
# Density = 2.197297 g / cm^3
# Si number density = 22.023098 Si / 1000 Ang^3
#
#
#
# Elastic Constant Matrix: (Units=GPa)
#
#
# Indices 1 2 3 4 5 6 
#
# 1 93.3860 37.6850 51.2053 -8.5757 -14.4211 26.7210
# 2 37.6850 109.8631 36.2303 -1.7813 -17.5518 31.2662
# 3 51.2053 36.2303 90.4008 -10.7047 -8.3579 1.4362
# 4 -8.5757 -1.7813 -10.7047 28.7580 1.3252 0.1587
# 5 -14.4211 -17.5518 -8.3579 1.3252 41.2789 -10.6549
# 6 26.7210 31.2662 1.4362 0.1587 -10.6549 40.8482
#
#
#
# Elastic Compliance Matrix: (Units=1/GPa)
#
#
# Indices 1 2 3 4 5 6 
#
# 1 0.021122 0.000769 -0.011655 0.002000 0.001788 -0.013537
# 2 0.000769 0.014107 -0.005832 -0.001122 0.002422 -0.010460
# 3 -0.011655 -0.005832 0.020286 0.003633 0.000398 0.011465
# 4 0.002000 -0.001122 0.003633 0.036677 -0.000435 -0.000834
# 5 0.001788 0.002422 0.000398 -0.000435 0.027010 0.004009
# 6 -0.013537 -0.010460 0.011465 -0.000834 0.004009 0.041989
#
#
# Mechanical properties :
#
#
# Convention : Reuss Voigt Hill
#
# Bulk Modulus (GPa) = 45.29240 60.43235 52.86237
# Shear Modulus (GPa) = 24.75430 33.41232 29.08331
#
# Velocity S-wave (km/s) = 3.35627 3.89929 3.63792
# Velocity P-wave (km/s) = 5.96908 6.91177 6.45765
#
# Compressibility (1/GPa) = 0.02207876
#
# Stress axis : x y z
#
# Youngs Moduli (GPa) = 47.34461 70.88485 49.29586
#
# Poissons Ratio (x) = -0.05451 0.57454
# Poissons Ratio (y) = -0.03641 0.28750
# Poissons Ratio (z) = 0.55180 0.41341
#
# Static dielectric constant tensor:
#      x y z
#    x 1.835060 -0.032150 -0.000080 
#    y -0.032150 1.836100 -0.000970 
#    z -0.000080 -0.000970 1.831020 
# 
# From -- ./inp_files/10867.got.cif
#   From: 2010.05.17/outbox.cif.g08.bks.cpg/sg2_6_cif.got.tgz:10867.got - 2010.06.03 11:33:40.
