data_PCOD9004156
_publ_section_title
;
Structure prediction by ZEFSAII (Michael W. Deem and Ramdas Pophale) SiO2 
 PCOD9004156
Probable space group: P -1
;
_chemical_formula_sum "Si O2"
_cell_formula_units_Z 16
_cell_length_a 6.429139
_cell_length_b 11.857279
_cell_length_c 9.880519
_cell_angle_alpha 111.052208
_cell_angle_beta 92.937339
_cell_angle_gamma 109.901833
_cell_volume 647.905246
_symmetry_space_group_name_H-M "P -1"
_symmetry_group_IT_number 2
_symmetry_cell_setting 'triclinic'
loop_
_space_group_symop_operation_xyz
x,y,z
-x,-y,-z
loop_
_atom_site_type_symbol
_atom_site_label
_atom_site_fract_x
_atom_site_fract_y
_atom_site_fract_z
Si Si1 0.948995 0.131942 0.723234
Si Si2 0.341066 0.275027 0.137834
Si Si3 0.029362 0.592073 0.198221
Si Si4 0.410926 0.029972 0.153801
Si Si5 0.605879 0.391041 0.959896
Si Si6 0.958293 0.690895 0.660263
Si Si7 0.192374 0.938639 0.609898
Si Si8 0.753726 0.468937 0.376529
O O1 0.797949 0.090647 0.561845
O O2 0.035934 0.288108 0.798614
O O3 0.811686 0.077081 0.832454
O O4 0.127669 0.064700 0.677702
O O5 0.357746 0.156788 0.172544
O O6 0.426748 0.272328 0.986854
O O7 0.105678 0.281439 0.178168
O O8 0.531481 0.411114 0.255373
O O9 0.848820 0.455712 0.072554
O O10 0.966505 0.567862 0.341375
O O11 0.291863 0.629472 0.187986
O O12 0.596399 0.048399 0.284137
O O13 0.500000 0.000000 0.000000
O O14 0.500000 0.500000 0.000000
O O15 0.759716 0.560677 0.540927
O O16 0.993953 0.813580 0.617877
O O17 0.176049 0.653741 0.648477
#
# Coordination Sequence:
#
# PCOD9004156 Si02
#       8
#     2   2   2   2   2   2   2   2
#     4  11  24  45  68  97 134 172 226 270 327 391
#     4  11  22  39  61  93 128 163 214 269 320 388
#     4  10  21  39  63  91 125 171 209 267 325 385
#     4  12  26  44  65  97 132 177 222 270 326 389
#     4  10  22  40  61  93 130 168 218 264 323 389
#     4  11  20  39  64  93 124 162 211 266 332 380
#     4  11  24  45  68  95 132 177 221 275 325 390
#     4  10  21  37  64  94 123 155 207 269 332 381
#
# _framework density 24.694966999999998
#
# number of rings (size 3 to 8) (size 9 to 14) (size 15 to 20)
#    0.000    1.250    3.750    2.250    0.000    2.500 
#    2.250    1.250    0.000    0.000    0.000    0.000 
#    0.000    0.000    0.000    0.000    0.000    0.000 
#
# Total GULP energy -89345.977392 kJ/mol
# GULP energy per Si atom -5584.123587 kJ/mol
# Density = 2.463876 g / cm^3
# Si number density = 24.694967 Si / 1000 Ang^3
#
#
#
# Elastic Constant Matrix: (Units=GPa)
#
#
# Indices 1 2 3 4 5 6 
#
# 1 27.6517 6.8731 26.3701 -5.5100 -10.1890 -13.4456
# 2 6.8731 124.1319 25.0318 -17.8125 -15.0786 -13.5816
# 3 26.3701 25.0318 97.6375 -19.9109 -20.6028 17.8064
# 4 -5.5100 -17.8125 -19.9109 43.8495 7.4314 -5.6386
# 5 -10.1890 -15.0786 -20.6028 7.4314 43.9901 -7.8442
# 6 -13.4456 -13.5816 17.8064 -5.6386 -7.8442 29.6841
#
#
#
# Elastic Compliance Matrix: (Units=1/GPa)
#
#
# Indices 1 2 3 4 5 6 
#
# 1 0.243273 0.038057 -0.096838 0.018622 0.057337 0.204383
# 2 0.038057 0.016284 -0.017873 0.006357 0.012049 0.039802
# 3 -0.096838 -0.017873 0.052412 -0.003846 -0.019284 -0.089308
# 4 0.018622 0.006357 -0.003846 0.027943 0.003517 0.019888
# 5 0.057337 0.012049 -0.019284 0.003517 0.040208 0.054345
# 6 0.204383 0.039802 -0.089308 0.019888 0.054345 0.216186
#
#
# Mechanical properties :
#
#
# Convention : Reuss Voigt Hill
#
# Bulk Modulus (GPa) = 6.30276 40.66347 23.48311
# Shear Modulus (GPa) = 6.23053 36.24780 21.23917
#
# Velocity S-wave (km/s) = 1.59012 3.83537 2.93586
# Velocity P-wave (km/s) = 2.43497 6.00962 4.58501
#
# Compressibility (1/GPa) = 0.15866074
#
# Stress axis : x y z
#
# Youngs Moduli (GPa) = 4.11061 61.41139 19.07952
#
# Poissons Ratio (x) = -2.33714 1.84763
# Poissons Ratio (y) = -0.15644 0.34101
# Poissons Ratio (z) = 0.39806 1.09761
#
# Static dielectric constant tensor:
#      x y z
#    x 2.010100 0.020560 -0.048960 
#    y 0.020560 1.956310 -0.015130 
#    z -0.048960 -0.015130 2.057400 
# 
# From -- ./inp_files/365011.got.cif
#   From: 2010.05.17/outbox.cif.g08.bks.cpg/sg2_183_cif.got.tgz:365011.got - 2010.06.03 11:33:40.
