data_PCOD9004926
_publ_section_title
;
Structure prediction by ZEFSAII (Michael W. Deem and Ramdas Pophale) SiO2 
 PCOD9004926
Probable space group: P -1
;
_chemical_formula_sum "Si O2"
_cell_formula_units_Z 15
_cell_length_a 4.903567
_cell_length_b 12.108541
_cell_length_c 14.270201
_cell_angle_alpha 45.673725
_cell_angle_beta 88.371409
_cell_angle_gamma 92.594544
_cell_volume 603.367668
_symmetry_space_group_name_H-M "P -1"
_symmetry_group_IT_number 2
_symmetry_cell_setting 'triclinic'
loop_
_space_group_symop_operation_xyz
x,y,z
-x,-y,-z
loop_
_atom_site_type_symbol
_atom_site_label
_atom_site_fract_x
_atom_site_fract_y
_atom_site_fract_z
Si Si1 0.173308 0.903621 0.126535
Si Si2 0.041030 0.928344 0.698486
Si Si3 0.249012 0.201385 0.646388
Si Si4 0.885859 0.407105 0.398191
Si Si5 0.841528 0.336336 0.881137
Si Si6 0.724008 0.139257 0.440225
Si Si7 0.500000 0.500000 0.500000
Si Si8 0.341405 0.189686 0.061013
O O1 0.275313 0.767001 0.144831
O O2 0.957048 0.841822 0.242705
O O3 0.383967 0.026571 0.105206
O O4 0.000000 0.000000 0.000000
O O5 0.807401 0.852581 0.813915
O O6 0.154720 0.812319 0.691580
O O7 0.925245 0.055738 0.556203
O O8 0.265569 0.037591 0.690408
O O9 0.517158 0.308059 0.610384
O O10 0.103457 0.326736 0.508922
O O11 0.672367 0.286960 0.415234
O O12 0.721324 0.516073 0.400948
O O13 0.068872 0.498463 0.262570
O O14 0.617390 0.303037 0.984603
O O15 0.115921 0.271274 0.955378
O O16 0.500000 0.000000 0.500000
#
# Coordination Sequence:
#
# PCOD9004926 Si02
#       8
#     2   2   2   2   2   2   1   2
#     4   9  19  38  57  89 127 173 214 257 314 387
#     4   9  21  42  64  93 121 164 220 272 316 378
#     4  10  21  38  59  92 125 164 213 260 325 380
#     4  11  25  38  61  94 128 168 210 270 327 383
#     4  11  23  40  60  94 131 172 211 262 322 391
#     4  10  21  42  69  92 120 164 221 273 323 378
#     4  12  22  36  60  90 132 166 202 264 322 400
#     4  10  23  40  64  90 130 171 216 262 316 388
#
# _framework density 24.860465999999999
#
# number of rings (size 3 to 8) (size 9 to 14) (size 15 to 20)
#    0.000    1.867    1.333    1.600    3.733    0.000 
#   14.400    1.333    0.000    0.000    0.000    0.000 
#    0.000    0.000    0.000    0.000    0.000    0.000 
#
# Total GULP energy -83630.796436 kJ/mol
# GULP energy per Si atom -5575.386429 kJ/mol
# Density = 2.480388 g / cm^3
# Si number density = 24.860466 Si / 1000 Ang^3
#
#
#
# Elastic Constant Matrix: (Units=GPa)
#
#
# Indices 1 2 3 4 5 6 
#
# 1 63.4463 7.3372 5.8328 -5.3681 -1.2880 0.7151
# 2 7.3372 101.8333 27.2083 16.6680 -2.8155 -6.5530
# 3 5.8328 27.2083 130.7881 -5.7139 -17.8480 4.9646
# 4 -5.3681 16.6680 -5.7139 24.7441 5.8505 -8.6675
# 5 -1.2880 -2.8155 -17.8480 5.8505 37.5730 1.2765
# 6 0.7151 -6.5530 4.9646 -8.6675 1.2765 22.2622
#
#
#
# Elastic Compliance Matrix: (Units=1/GPa)
#
#
# Indices 1 2 3 4 5 6 
#
# 1 0.016433 -0.001947 -0.000210 0.005326 -0.000547 0.001051
# 2 -0.001947 0.012300 -0.002770 -0.009369 0.000977 0.000597
# 3 -0.000210 -0.002770 0.008922 0.002246 0.003746 -0.002139
# 4 0.005326 -0.009369 0.002246 0.057336 -0.009040 0.019411
# 5 -0.000547 0.000977 0.003746 -0.009040 0.030053 -0.005773
# 6 0.001051 0.000597 -0.002139 0.019411 -0.005773 0.053427
#
#
# Mechanical properties :
#
#
# Convention : Reuss Voigt Hill
#
# Bulk Modulus (GPa) = 35.97069 41.86936 38.92002
# Shear Modulus (GPa) = 25.30466 33.96183 29.63324
#
# Velocity S-wave (km/s) = 3.19386 3.70009 3.45626
# Velocity P-wave (km/s) = 5.30108 5.92727 5.62290
#
# Compressibility (1/GPa) = 0.02780041
#
# Stress axis : x y z
#
# Youngs Moduli (GPa) = 60.85138 81.30411 112.07974
#
# Poissons Ratio (x) = 0.15832 0.02350
# Poissons Ratio (y) = 0.11849 0.31051
# Poissons Ratio (z) = 0.01276 0.22525
#
# Static dielectric constant tensor:
#      x y z
#    x 2.149210 0.208110 0.001360 
#    y 0.208110 2.192420 0.008760 
#    z 0.001360 0.008760 2.029080 
# 
# From -- ./inp_files/482611.got.cif
#   From: 2010.05.17/outbox.cif.g08.bks.cpg/sg2_242_cif.got.tgz:482611.got - 2010.06.03 11:33:40.
