data_PCOD9004570
_publ_section_title
;
Structure prediction by ZEFSAII (Michael W. Deem and Ramdas Pophale) SiO2 
 PCOD9004570
Probable space group: P -1
;
_chemical_formula_sum "Si O2"
_cell_formula_units_Z 16
_cell_length_a 15.555829
_cell_length_b 9.404150
_cell_length_c 15.366970
_cell_angle_alpha 142.711460
_cell_angle_beta 141.097860
_cell_angle_gamma 39.544766
_cell_volume 784.070318
_symmetry_space_group_name_H-M "P -1"
_symmetry_group_IT_number 2
_symmetry_cell_setting 'triclinic'
loop_
_space_group_symop_operation_xyz
x,y,z
-x,-y,-z
loop_
_atom_site_type_symbol
_atom_site_label
_atom_site_fract_x
_atom_site_fract_y
_atom_site_fract_z
Si Si1 0.404749 0.111126 0.088855
Si Si2 0.138255 0.413243 0.132543
Si Si3 0.487709 0.580824 0.429196
Si Si4 0.291837 0.291922 0.905264
Si Si5 0.829961 0.083391 0.647919
Si Si6 0.856188 0.109788 0.878180
Si Si7 0.217679 0.333398 0.346012
Si Si8 0.033147 0.196119 0.555057
O O1 0.279525 0.168817 0.091691
O O2 0.462784 0.344301 0.247805
O O3 0.545869 0.844905 0.077918
O O4 0.318816 0.140537 0.944405
O O5 0.185607 0.648891 0.275365
O O6 0.117331 0.383980 0.203081
O O7 0.000000 0.500000 0.000000
O O8 0.500000 0.500000 0.500000
O O9 0.344421 0.850819 0.439432
O O10 0.635457 0.616160 0.533327
O O11 0.170083 0.243239 0.728416
O O12 0.234270 0.590593 0.028369
O O13 0.902958 0.059102 0.788675
O O14 0.918489 0.891517 0.548569
O O15 0.757016 0.948489 0.741412
O O16 0.000000 0.000000 0.000000
O O17 0.113774 0.543323 0.433325
O O18 0.000000 0.000000 0.500000
#
# Coordination Sequence:
#
# PCOD9004570 Si02
#       8
#     2   2   2   2   2   2   2   2
#     4  10  21  37  70  96 129 173 226 277 351 378
#     4  11  20  39  65 102 128 173 229 283 332 400
#     4  11  19  42  68 102 129 171 229 291 345 393
#     4  11  22  42  65  96 139 174 216 288 336 407
#     4  11  24  41  70  94 138 181 220 283 353 391
#     4  12  25  48  65  98 142 192 221 271 350 421
#     4  12  24  38  70  98 135 180 229 281 337 411
#     4  12  23  40  69 107 129 171 238 287 333 393
#
# _framework density 20.406334000000001
#
# number of rings (size 3 to 8) (size 9 to 14) (size 15 to 20)
#    0.000    0.750    7.500    3.000    0.000    1.000 
#    0.000    0.625    0.000    0.000    0.000    0.000 
#    0.000    0.000    0.000    0.000    0.000    0.000 
#
# Total GULP energy -89300.073801 kJ/mol
# GULP energy per Si atom -5581.254613 kJ/mol
# Density = 2.035989 g / cm^3
# Si number density = 20.406334 Si / 1000 Ang^3
#
#
#
# Elastic Constant Matrix: (Units=GPa)
#
#
# Indices 1 2 3 4 5 6 
#
# 1 104.6892 61.5377 58.4799 0.8791 -24.1190 -24.8735
# 2 61.5377 99.1369 44.9947 1.0333 -6.6317 -29.1232
# 3 58.4799 44.9947 88.8959 -0.6830 -20.0993 -14.7130
# 4 0.8791 1.0333 -0.6830 27.1198 1.1630 -3.0592
# 5 -24.1190 -6.6317 -20.0993 1.1630 38.3497 3.1025
# 6 -24.8735 -29.1232 -14.7130 -3.0592 3.1025 46.7884
#
#
#
# Elastic Compliance Matrix: (Units=1/GPa)
#
#
# Indices 1 2 3 4 5 6 
#
# 1 0.021099 -0.008267 -0.007430 -0.000527 0.007704 0.003189
# 2 -0.008267 0.018525 -0.003940 0.000361 -0.004575 0.006224
# 3 -0.007430 -0.003940 0.019083 0.000595 0.004684 -0.000673
# 4 -0.000527 0.000361 0.000595 0.037247 -0.001301 0.002653
# 5 0.007704 -0.004575 0.004684 -0.001301 0.032586 0.000475
# 6 0.003189 0.006224 -0.000673 0.002653 0.000475 0.026873
#
#
# Mechanical properties :
#
#
# Convention : Reuss Voigt Hill
#
# Bulk Modulus (GPa) = 51.45534 69.19406 60.32470
# Shear Modulus (GPa) = 24.85531 30.96556 27.91044
#
# Velocity S-wave (km/s) = 3.49380 3.89967 3.70230
# Velocity P-wave (km/s) = 6.44559 7.36602 6.92113
#
# Compressibility (1/GPa) = 0.01943433
#
# Stress axis : x y z
#
# Youngs Moduli (GPa) = 47.39577 53.97978 52.40228
#
# Poissons Ratio (x) = 0.44625 0.38934
# Poissons Ratio (y) = 0.39182 0.20645
# Poissons Ratio (z) = 0.35214 0.21267
#
# Static dielectric constant tensor:
#      x y z
#    x 1.802320 -0.063920 0.006530 
#    y -0.063920 1.752650 -0.014260 
#    z 0.006530 -0.014260 1.802220 
# 
# From -- ./inp_files/530259.got.cif
#   From: 2010.05.17/outbox.cif.g08.bks.cpg/sg2_266_cif.got.tgz:530259.got - 2010.06.03 11:33:40.
