data_PCOD9004599
_publ_section_title
;
Structure prediction by ZEFSAII (Michael W. Deem and Ramdas Pophale) SiO2 
 PCOD9004599
Probable space group: P -1
;
_chemical_formula_sum "Si O2"
_cell_formula_units_Z 14
_cell_length_a 8.406682
_cell_length_b 14.267336
_cell_length_c 7.294740
_cell_angle_alpha 125.776908
_cell_angle_beta 51.578948
_cell_angle_gamma 112.717157
_cell_volume 555.772296
_symmetry_space_group_name_H-M "P -1"
_symmetry_group_IT_number 2
_symmetry_cell_setting 'triclinic'
loop_
_space_group_symop_operation_xyz
x,y,z
-x,-y,-z
loop_
_atom_site_type_symbol
_atom_site_label
_atom_site_fract_x
_atom_site_fract_y
_atom_site_fract_z
Si Si1 0.342293 0.967821 0.368360
Si Si2 0.509820 0.382220 0.466115
Si Si3 0.231667 0.809780 0.974522
Si Si4 0.796528 0.916118 0.076457
Si Si5 0.864117 0.215970 0.413529
Si Si6 0.925200 0.605830 0.045019
Si Si7 0.725850 0.459249 0.743206
O O1 0.585735 0.955958 0.185047
O O2 0.247661 0.868379 0.457688
O O3 0.264531 0.081192 0.659506
O O4 0.251145 0.934225 0.198489
O O5 0.500000 0.500000 0.500000
O O6 0.570353 0.262343 0.197586
O O7 0.295611 0.363615 0.692068
O O8 0.693176 0.418184 0.513458
O O9 0.211700 0.813151 0.773366
O O10 0.058077 0.723369 0.080587
O O11 0.892456 0.800630 0.794521
O O12 0.000000 0.000000 0.000000
O O13 0.796318 0.343276 0.658354
O O14 0.880800 0.557930 0.815952
O O15 0.000000 0.500000 0.000000
O O16 0.500000 0.500000 0.000000
#
# Coordination Sequence:
#
# PCOD9004599 Si02
#       7
#     2   2   2   2   2   2   2
#     4  10  22  43  67  89 128 158 197 265 319 370
#     4  10  21  38  54  83 120 162 213 251 300 355
#     4  11  24  39  59  94 123 163 210 252 309 367
#     4   9  21  44  68  94 119 158 205 254 323 380
#     4  10  22  40  63  94 124 161 213 249 308 373
#     4  11  21  38  58  84 126 167 214 255 296 362
#     4   9  21  37  57  85 126 168 205 253 299 353
#
# _framework density 25.190173000000001
#
# number of rings (size 3 to 8) (size 9 to 14) (size 15 to 20)
#    0.000    2.000    1.429    0.857    2.000    9.714 
#    2.571    6.429    0.000    0.000    0.000    0.000 
#    0.000    0.000    0.000    0.000    0.000    0.000 
#
# Total GULP energy -78148.332601 kJ/mol
# GULP energy per Si atom -5582.023757 kJ/mol
# Density = 2.513284 g / cm^3
# Si number density = 25.190173 Si / 1000 Ang^3
#
#
#
# Elastic Constant Matrix: (Units=GPa)
#
#
# Indices 1 2 3 4 5 6 
#
# 1 83.3706 26.7840 34.6432 -12.9700 -7.5375 23.5274
# 2 26.7840 65.5279 27.8783 -13.4333 -14.4098 5.9919
# 3 34.6432 27.8783 109.7461 -11.1868 -33.4880 24.5004
# 4 -12.9700 -13.4333 -11.1868 30.1139 4.4447 -6.0258
# 5 -7.5375 -14.4098 -33.4880 4.4447 62.5067 -3.7294
# 6 23.5274 5.9919 24.5004 -6.0258 -3.7294 42.7843
#
#
#
# Elastic Compliance Matrix: (Units=1/GPa)
#
#
# Indices 1 2 3 4 5 6 
#
# 1 0.016913 -0.004804 -0.002633 0.002964 -0.001095 -0.006798
# 2 -0.004804 0.019898 -0.002810 0.005933 0.002229 0.002494
# 3 -0.002633 -0.002810 0.013789 0.000758 0.006045 -0.005421
# 4 0.002964 0.005933 0.000758 0.037958 -0.000424 0.002414
# 5 -0.001095 0.002229 0.006045 -0.000424 0.019558 -0.001527
# 6 -0.006798 0.002494 -0.005421 0.002414 -0.001527 0.030073
#
#
# Mechanical properties :
#
#
# Convention : Reuss Voigt Hill
#
# Bulk Modulus (GPa) = 33.21590 48.58397 40.89994
# Shear Modulus (GPa) = 29.63528 38.37027 34.00278
#
# Velocity S-wave (km/s) = 3.43368 3.90708 3.67801
# Velocity P-wave (km/s) = 5.37912 6.29940 5.85736
#
# Compressibility (1/GPa) = 0.03010607
#
# Stress axis : x y z
#
# Youngs Moduli (GPa) = 59.12745 50.25543 72.52258
#
# Poissons Ratio (x) = 0.24144 0.19093
# Poissons Ratio (y) = 0.28407 0.20378
# Poissons Ratio (z) = 0.15566 0.14121
#
# Static dielectric constant tensor:
#      x y z
#    x 2.058370 -0.043040 -0.003870 
#    y -0.043040 2.029910 0.117540 
#    z -0.003870 0.117540 2.236320 
# 
# From -- ./inp_files/216087.got.cif
#   From: 2010.05.17/outbox.cif.g08.bks.cpg/sg2_109_cif.got.tgz:216087.got - 2010.06.03 11:33:40.
