data_PCOD9004096
_publ_section_title
;
Structure prediction by ZEFSAII (Michael W. Deem and Ramdas Pophale) SiO2 
 PCOD9004096
Probable space group: P -1
;
_chemical_formula_sum "Si O2"
_cell_formula_units_Z 16
_cell_length_a 14.976272
_cell_length_b 12.503379
_cell_length_c 14.852379
_cell_angle_alpha 37.915738
_cell_angle_beta 43.031218
_cell_angle_gamma 27.559812
_cell_volume 785.830715
_symmetry_space_group_name_H-M "P -1"
_symmetry_group_IT_number 2
_symmetry_cell_setting 'triclinic'
loop_
_space_group_symop_operation_xyz
x,y,z
-x,-y,-z
loop_
_atom_site_type_symbol
_atom_site_label
_atom_site_fract_x
_atom_site_fract_y
_atom_site_fract_z
Si Si1 0.305091 0.188485 0.829910
Si Si2 0.744638 0.068774 0.099495
Si Si3 0.134354 0.305063 0.203713
Si Si4 0.301252 0.303158 0.447626
Si Si5 0.947799 0.454513 0.706427
Si Si6 0.565434 0.707867 0.076719
Si Si7 0.541235 0.268086 0.658876
Si Si8 0.544672 0.503757 0.820612
O O1 0.440091 0.223561 0.699541
O O2 0.085826 0.466183 0.817804
O O3 0.319157 0.046450 0.828194
O O4 0.380685 0.001936 0.982868
O O5 0.608028 0.255172 0.159386
O O6 0.707478 0.250375 0.930568
O O7 0.960971 0.814116 0.143412
O O8 0.132576 0.358508 0.274834
O O9 0.237802 0.017830 0.306456
O O10 0.257551 0.336169 0.044076
O O11 0.212256 0.411162 0.341237
O O12 0.356315 0.442707 0.346485
O O13 0.132515 0.373919 0.580773
O O14 0.500000 0.000000 0.500000
O O15 0.548869 0.670498 0.216627
O O16 0.562579 0.538517 0.129762
O O17 0.500000 0.500000 0.500000
#
# Coordination Sequence:
#
# PCOD9004096 Si02
#       8
#     2   2   2   2   2   2   2   2
#     4   9  20  41  66  91 119 160 211 255 315 366
#     4   9  19  38  60  95 118 159 210 251 309 363
#     4  10  22  42  68  89 122 162 207 268 303 373
#     4  11  23  39  58  86 132 171 201 254 304 377
#     4  10  23  39  60  94 120 167 216 243 323 367
#     4  10  23  41  61  95 121 164 214 252 316 361
#     4  11  25  42  63  93 125 164 205 261 315 375
#     4  10  21  37  64  89 127 166 203 260 306 365
#
# _framework density 20.360619
#
# number of rings (size 3 to 8) (size 9 to 14) (size 15 to 20)
#    0.000    2.000    1.250    1.500    7.000    6.000 
#    4.500    0.000    0.000    0.000    0.000    0.000 
#    0.000    0.000    0.000    0.000    0.000    0.000 
#
# Total GULP energy -89359.582628 kJ/mol
# GULP energy per Si atom -5584.973914 kJ/mol
# Density = 2.031428 g / cm^3
# Si number density = 20.360619 Si / 1000 Ang^3
#
#
#
# Elastic Constant Matrix: (Units=GPa)
#
#
# Indices 1 2 3 4 5 6 
#
# 1 54.2945 27.3017 27.3473 -14.8002 -3.8178 -1.7014
# 2 27.3017 106.3993 41.1489 -16.5190 -5.1309 -1.7418
# 3 27.3473 41.1489 88.6188 -26.5178 -11.6594 12.6449
# 4 -14.8002 -16.5190 -26.5178 27.7400 8.4787 6.1602
# 5 -3.8178 -5.1309 -11.6594 8.4787 29.9761 -2.4553
# 6 -1.7014 -1.7418 12.6449 6.1602 -2.4553 27.9305
#
#
#
# Elastic Compliance Matrix: (Units=1/GPa)
#
#
# Indices 1 2 3 4 5 6 
#
# 1 0.024103 -0.003570 -0.004097 0.006759 -0.000922 0.001529
# 2 -0.003570 0.012299 -0.005010 0.000030 -0.000077 0.002804
# 3 -0.004097 -0.005010 0.023247 0.020297 0.000651 -0.015506
# 4 0.006759 0.000030 0.020297 0.068497 -0.012661 -0.024996
# 5 -0.000922 -0.000077 0.000651 -0.012661 0.037534 0.005736
# 6 0.001529 0.002804 -0.015506 -0.024996 0.005736 0.049108
#
#
# Mechanical properties :
#
#
# Convention : Reuss Voigt Hill
#
# Bulk Modulus (GPa) = 29.15977 48.98982 39.07480
# Shear Modulus (GPa) = 19.87484 27.36364 23.61924
#
# Velocity S-wave (km/s) = 3.12772 3.66997 3.40964
# Velocity P-wave (km/s) = 5.23414 6.48626 5.89354
#
# Compressibility (1/GPa) = 0.03429382
#
# Stress axis : x y z
#
# Youngs Moduli (GPa) = 41.48945 81.30523 43.01623
#
# Poissons Ratio (x) = 0.29028 0.17623
# Poissons Ratio (y) = 0.14813 0.21553
# Poissons Ratio (z) = 0.16998 0.40738
#
# Static dielectric constant tensor:
#      x y z
#    x 1.745730 -0.001950 0.005540 
#    y -0.001950 1.717220 -0.005820 
#    z 0.005540 -0.005820 1.733220 
# 
# From -- ./inp_files/531637.got.cif
#   From: 2010.05.17/outbox.cif.g08.bks.cpg/sg2_266_cif.got.tgz:531637.got - 2010.06.03 11:33:40.
