data_PCOD9004004
_publ_section_title
;
Structure prediction by ZEFSAII (Michael W. Deem and Ramdas Pophale) SiO2 
 PCOD9004004
Probable space group: P -1
;
_chemical_formula_sum "Si O2"
_cell_formula_units_Z 16
_cell_length_a 12.303950
_cell_length_b 16.148148
_cell_length_c 13.846851
_cell_angle_alpha 20.326239
_cell_angle_beta 44.258122
_cell_angle_gamma 45.859435
_cell_volume 663.445513
_symmetry_space_group_name_H-M "P -1"
_symmetry_group_IT_number 2
_symmetry_cell_setting 'triclinic'
loop_
_space_group_symop_operation_xyz
x,y,z
-x,-y,-z
loop_
_atom_site_type_symbol
_atom_site_label
_atom_site_fract_x
_atom_site_fract_y
_atom_site_fract_z
Si Si1 0.471269 0.563996 0.181834
Si Si2 0.221088 0.975096 0.813551
Si Si3 0.528290 0.732483 0.669851
Si Si4 0.061169 0.259053 0.782659
Si Si5 0.038288 0.774367 0.645798
Si Si6 0.660252 0.989725 0.798079
Si Si7 0.274651 0.133359 0.333159
Si Si8 0.658125 0.702160 0.293452
O O1 0.439119 0.336816 0.386646
O O2 0.422885 0.526007 0.364537
O O3 0.645493 0.618775 0.984563
O O4 0.357386 0.777754 0.976323
O O5 0.312920 0.180302 0.485671
O O6 0.143562 0.080914 0.845460
O O7 0.093653 0.859508 0.958437
O O8 0.378344 0.927110 0.551163
O O9 0.500000 0.500000 0.000000
O O10 0.182155 0.298284 0.747061
O O11 0.000000 0.500000 0.500000
O O12 0.911671 0.836270 0.573428
O O13 0.219062 0.813411 0.464942
O O14 0.000000 0.000000 0.500000
O O15 0.000000 0.500000 0.000000
O O16 0.689459 0.932306 0.730700
O O17 0.479757 0.090460 0.817689
O O18 0.693668 0.757843 0.099239
#
# Coordination Sequence:
#
# PCOD9004004 Si02
#       8
#     2   2   2   2   2   2   2   2
#     4  11  20  40  67  90 131 169 213 277 337 404
#     4  10  21  37  63  93 125 173 216 260 346 389
#     4  11  23  42  64  95 130 169 224 278 341 414
#     4  11  20  39  62  90 129 169 208 268 323 395
#     4  10  22  43  68  94 134 180 228 281 340 398
#     4  10  22  41  64  99 131 172 227 267 328 408
#     4  10  22  40  68  94 131 176 222 276 345 403
#     4  11  20  38  67  93 133 173 216 268 331 399
#
# _framework density 24.116524999999999
#
# number of rings (size 3 to 8) (size 9 to 14) (size 15 to 20)
#    0.000    1.500    3.750    1.500    1.750    2.500 
#    6.750    3.750    0.000    0.000    0.000    0.000 
#    0.000    0.000    0.000    0.000    0.000    0.000 
#
# Total GULP energy -89302.671399 kJ/mol
# GULP energy per Si atom -5581.416962 kJ/mol
# Density = 2.406163 g / cm^3
# Si number density = 24.116525 Si / 1000 Ang^3
#
#
#
# Elastic Constant Matrix: (Units=GPa)
#
#
# Indices 1 2 3 4 5 6 
#
# 1 111.5667 8.1517 46.5135 13.6123 -10.8954 -29.3204
# 2 8.1517 36.1131 0.8083 -1.9673 -1.6159 -0.0601
# 3 46.5135 0.8083 138.5148 23.4903 -5.3316 -6.6490
# 4 13.6123 -1.9673 23.4903 29.9832 4.7782 4.0530
# 5 -10.8954 -1.6159 -5.3316 4.7782 40.6923 2.8158
# 6 -29.3204 -0.0601 -6.6490 4.0530 2.8158 30.3448
#
#
#
# Elastic Compliance Matrix: (Units=1/GPa)
#
#
# Indices 1 2 3 4 5 6 
#
# 1 0.015834 -0.003736 -0.003136 -0.007604 0.003515 0.015295
# 2 -0.003736 0.028737 0.000222 0.003955 -0.000015 -0.004031
# 3 -0.003136 0.000222 0.009318 -0.006000 0.001115 -0.000290
# 4 -0.007604 0.003955 -0.006000 0.044763 -0.006953 -0.013988
# 5 0.003515 -0.000015 0.001115 -0.006953 0.026331 0.002126
# 6 0.015295 -0.004031 -0.000290 -0.013988 0.002126 0.049332
#
#
# Mechanical properties :
#
#
# Convention : Reuss Voigt Hill
#
# Bulk Modulus (GPa) = 24.63706 44.12686 34.38196
# Shear Modulus (GPa) = 24.85763 35.58548 30.22155
#
# Velocity S-wave (km/s) = 3.21398 3.84547 3.54382
# Velocity P-wave (km/s) = 4.90009 6.16879 5.57068
#
# Compressibility (1/GPa) = 0.04058925
#
# Stress axis : x y z
#
# Youngs Moduli (GPa) = 63.15369 34.79823 107.32137
#
# Poissons Ratio (x) = 0.12999 0.33660
# Poissons Ratio (y) = 0.23592 -0.02382
# Poissons Ratio (z) = 0.19807 -0.00772
#
# Static dielectric constant tensor:
#      x y z
#    x 1.987310 0.005320 -0.035550 
#    y 0.005320 1.999810 0.035020 
#    z -0.035550 0.035020 2.013150 
# 
# From -- ./inp_files/523401.got.cif
#   From: 2010.05.17/outbox.cif.g08.bks.cpg/sg2_262_cif.got.tgz:523401.got - 2010.06.03 11:33:40.
