data_PCOD9004527
_publ_section_title
;
Structure prediction by ZEFSAII (Michael W. Deem and Ramdas Pophale) SiO2 
 PCOD9004527
Probable space group: P -1
;
_chemical_formula_sum "Si O2"
_cell_formula_units_Z 14
_cell_length_a 10.296359
_cell_length_b 6.975848
_cell_length_c 12.127397
_cell_angle_alpha 54.519240
_cell_angle_beta 45.708279
_cell_angle_gamma 63.755755
_cell_volume 506.704986
_symmetry_space_group_name_H-M "P -1"
_symmetry_group_IT_number 2
_symmetry_cell_setting 'triclinic'
loop_
_space_group_symop_operation_xyz
x,y,z
-x,-y,-z
loop_
_atom_site_type_symbol
_atom_site_label
_atom_site_fract_x
_atom_site_fract_y
_atom_site_fract_z
Si Si1 0.807985 0.485535 0.175982
Si Si2 0.807134 0.879791 0.637056
Si Si3 0.786851 0.975327 0.151363
Si Si4 0.271041 0.825799 0.097466
Si Si5 0.672474 0.354414 0.504325
Si Si6 0.647621 0.670308 0.007257
Si Si7 0.153297 0.250931 0.592003
O O1 0.766676 0.723300 0.190523
O O2 0.799168 0.296911 0.340720
O O3 0.679867 0.479469 0.148764
O O4 0.000000 0.500000 0.000000
O O5 0.654564 0.101591 0.656032
O O6 0.765809 0.689817 0.818912
O O7 0.801374 0.774811 0.553627
O O8 0.000000 0.000000 0.500000
O O9 0.756391 0.943619 0.309632
O O10 0.697616 0.162510 0.057104
O O11 0.000000 0.000000 0.000000
O O12 0.065236 0.761076 0.263519
O O13 0.296322 0.085508 0.048238
O O14 0.438195 0.674318 0.099393
O O15 0.500000 0.500000 0.500000
O O16 0.774868 0.511272 0.478091
#
# Coordination Sequence:
#
# PCOD9004527 Si02
#       7
#     2   2   2   2   2   2   2
#     4  10  21  40  66  95 129 174 228 280 333 404
#     4  12  25  44  72 102 141 185 229 282 355 420
#     4   8  17  33  61  89 119 165 221 266 324 389
#     4   9  18  37  68  95 131 177 228 277 336 407
#     4  11  28  46  69 104 142 179 231 293 351 408
#     4  10  21  37  69 101 132 180 229 279 343 412
#     4  10  22  44  68  99 137 188 228 280 349 417
#
# _framework density 27.629491000000002
#
# number of rings (size 3 to 8) (size 9 to 14) (size 15 to 20)
#    0.000    2.000    1.429    0.857   12.000    1.143 
#    0.000    0.000    0.000    9.429    0.000    0.000 
#    0.000    0.000    0.000    0.000    0.000    0.000 
#
# Total GULP energy -78404.700941 kJ/mol
# GULP energy per Si atom -5600.335781 kJ/mol
# Density = 2.756660 g / cm^3
# Si number density = 27.629491 Si / 1000 Ang^3
#
#
#
# Elastic Constant Matrix: (Units=GPa)
#
#
# Indices 1 2 3 4 5 6 
#
# 1 203.5891 54.2946 68.0877 8.2159 22.0049 13.1616
# 2 54.2946 78.0828 31.0981 -1.4059 11.9696 21.8943
# 3 68.0877 31.0981 153.4971 0.5229 27.8463 24.0831
# 4 8.2159 -1.4059 0.5229 40.3676 8.0647 16.6609
# 5 22.0049 11.9696 27.8463 8.0647 73.4686 8.4285
# 6 13.1616 21.8943 24.0831 16.6609 8.4285 60.6024
#
#
#
# Elastic Compliance Matrix: (Units=1/GPa)
#
#
# Indices 1 2 3 4 5 6 
#
# 1 0.006860 -0.004261 -0.002349 -0.002097 -0.000426 0.001619
# 2 -0.004261 0.018054 -0.000558 0.004391 -0.001199 -0.006415
# 3 -0.002349 -0.000558 0.008543 0.002016 -0.002330 -0.002913
# 4 -0.002097 0.004391 0.002016 0.029952 -0.003021 -0.009746
# 5 -0.000426 -0.001199 -0.002330 -0.003021 0.015129 0.000178
# 6 0.001619 -0.006415 -0.002913 -0.009746 0.000178 0.022279
#
#
# Mechanical properties :
#
#
# Convention : Reuss Voigt Hill
#
# Bulk Modulus (GPa) = 52.30244 82.45887 67.38065
# Shear Modulus (GPa) = 41.14317 53.66696 47.40507
#
# Velocity S-wave (km/s) = 3.86308 4.41202 4.14664
# Velocity P-wave (km/s) = 6.23449 7.47422 6.88232
#
# Compressibility (1/GPa) = 0.01911957
#
# Stress axis : x y z
#
# Youngs Moduli (GPa) = 145.77691 55.38991 117.05531
#
# Poissons Ratio (x) = 0.23600 0.27500
# Poissons Ratio (y) = 0.62112 0.06537
# Poissons Ratio (z) = 0.34247 0.03093
#
# Static dielectric constant tensor:
#      x y z
#    x 2.130990 -0.071520 0.055150 
#    y -0.071520 2.264520 -0.006510 
#    z 0.055150 -0.006510 2.114140 
# 
# From -- ./inp_files/381238.got.cif
#   From: 2010.05.17/outbox.cif.g08.bks.cpg/sg2_191_cif.got.tgz:381238.got - 2010.06.03 11:33:40.
