data_PCOD9004733
_publ_section_title
;
Structure prediction by ZEFSAII (Michael W. Deem and Ramdas Pophale) SiO2 
 PCOD9004733
Probable space group: P -1
;
_chemical_formula_sum "Si O2"
_cell_formula_units_Z 15
_cell_length_a 8.197593
_cell_length_b 8.395258
_cell_length_c 24.700066
_cell_angle_alpha 129.077332
_cell_angle_beta 153.382902
_cell_angle_gamma 51.144782
_cell_volume 581.189966
_symmetry_space_group_name_H-M "P -1"
_symmetry_group_IT_number 2
_symmetry_cell_setting 'triclinic'
loop_
_space_group_symop_operation_xyz
x,y,z
-x,-y,-z
loop_
_atom_site_type_symbol
_atom_site_label
_atom_site_fract_x
_atom_site_fract_y
_atom_site_fract_z
Si Si1 0.000000 0.000000 0.000000
Si Si2 0.025830 0.072860 0.141606
Si Si3 0.235940 0.362933 0.624220
Si Si4 0.229905 0.522922 0.976001
Si Si5 0.047952 0.897034 0.217514
Si Si6 0.587974 0.349974 0.356877
Si Si7 0.334244 0.346796 0.770305
Si Si8 0.088323 0.953029 0.364599
O O1 0.824592 0.057295 0.021980
O O2 0.978068 0.751840 0.948239
O O3 0.873308 0.049575 0.150936
O O4 0.359238 0.868903 0.191021
O O5 0.204195 0.279673 0.238305
O O6 0.497536 0.133110 0.653894
O O7 0.410373 0.471240 0.648713
O O8 0.246290 0.443188 0.705740
O O9 0.813510 0.382505 0.484490
O O10 0.022202 0.329741 0.870128
O O11 0.500000 0.500000 0.000000
O O12 0.470337 0.521725 0.101618
O O13 0.941446 0.945962 0.258134
O O14 0.838895 0.148862 0.360753
O O15 0.988014 0.258183 0.674802
O O16 0.500000 0.000000 0.500000
#
# Coordination Sequence:
#
# PCOD9004733 Si02
#       8
#     1   2   2   2   2   2   2   2
#     4  10  22  42  64  88 122 170 206 256 312 364
#     4   9  21  37  62  88 116 162 205 253 303 373
#     4  10  21  38  60  88 113 165 206 256 304 368
#     4  11  22  42  64  91 129 160 211 260 312 372
#     4  11  22  38  63  91 119 162 204 254 314 367
#     4  10  21  38  58  85 126 154 206 255 307 371
#     4   9  21  38  62  85 116 164 202 251 313 363
#     4  11  21  37  59  86 124 160 199 251 310 372
#
# _framework density 25.809114000000001
#
# number of rings (size 3 to 8) (size 9 to 14) (size 15 to 20)
#    0.000    1.867    2.667    0.800    1.867    7.467 
#    2.400    1.333    0.000    0.000    0.000    0.000 
#    0.000    0.000    0.000    0.000    0.000    0.000 
#
# Total GULP energy -83662.229484 kJ/mol
# GULP energy per Si atom -5577.481966 kJ/mol
# Density = 2.575037 g / cm^3
# Si number density = 25.809114 Si / 1000 Ang^3
#
#
#
# Elastic Constant Matrix: (Units=GPa)
#
#
# Indices 1 2 3 4 5 6 
#
# 1 106.6007 5.1360 55.5887 -8.5615 -26.3844 33.8038
# 2 5.1360 70.4505 29.2570 1.0379 -1.6376 -2.2894
# 3 55.5887 29.2570 155.7894 -5.3884 -35.0244 19.0646
# 4 -8.5615 1.0379 -5.3884 31.2875 8.0681 -2.3423
# 5 -26.3844 -1.6376 -35.0244 8.0681 54.4852 -9.5320
# 6 33.8038 -2.2894 19.0646 -2.3423 -9.5320 31.8329
#
#
#
# Elastic Compliance Matrix: (Units=1/GPa)
#
#
# Indices 1 2 3 4 5 6 
#
# 1 0.016736 -0.000261 -0.003365 0.002122 0.003046 -0.014708
# 2 -0.000261 0.015774 -0.003565 -0.000639 -0.001306 0.003109
# 3 -0.003365 -0.003565 0.009336 -0.000339 0.004129 -0.001063
# 4 0.002122 -0.000639 -0.000339 0.033555 -0.004340 -0.000927
# 5 0.003046 -0.001306 0.004129 -0.004340 0.023233 0.000836
# 6 -0.014708 0.003109 -0.001063 -0.000927 0.000836 0.048075
#
#
# Mechanical properties :
#
#
# Convention : Reuss Voigt Hill
#
# Bulk Modulus (GPa) = 36.41147 56.97824 46.69486
# Shear Modulus (GPa) = 29.36931 39.71171 34.54051
#
# Velocity S-wave (km/s) = 3.37700 3.92684 3.66226
# Velocity P-wave (km/s) = 5.41702 6.53336 6.00121
#
# Compressibility (1/GPa) = 0.02746387
#
# Stress axis : x y z
#
# Youngs Moduli (GPa) = 59.75014 63.39501 107.11596
#
# Poissons Ratio (x) = 0.01656 0.36040
# Poissons Ratio (y) = 0.01561 0.38190
# Poissons Ratio (z) = 0.20104 0.22602
#
# Static dielectric constant tensor:
#      x y z
#    x 2.082910 -0.022340 0.050930 
#    y -0.022340 2.062510 -0.069230 
#    z 0.050930 -0.069230 2.090110 
# 
# From -- ./inp_files/169275.got.cif
#   From: 2010.05.17/outbox.cif.g08.bks.cpg/sg2_85_cif.got.tgz:169275.got - 2010.06.03 11:33:40.
