data_PCOD9004155
_publ_section_title
;
Structure prediction by ZEFSAII (Michael W. Deem and Ramdas Pophale) SiO2 
 PCOD9004155
Probable space group: P -1
;
_chemical_formula_sum "Si O2"
_cell_formula_units_Z 16
_cell_length_a 12.389779
_cell_length_b 25.383761
_cell_length_c 8.968633
_cell_angle_alpha 115.077675
_cell_angle_beta 133.310586
_cell_angle_gamma 27.268038
_cell_volume 780.592188
_symmetry_space_group_name_H-M "P -1"
_symmetry_group_IT_number 2
_symmetry_cell_setting 'triclinic'
loop_
_space_group_symop_operation_xyz
x,y,z
-x,-y,-z
loop_
_atom_site_type_symbol
_atom_site_label
_atom_site_fract_x
_atom_site_fract_y
_atom_site_fract_z
Si Si1 0.068610 0.036252 0.524759
Si Si2 0.875612 0.501525 0.247309
Si Si3 0.137852 0.073842 0.929918
Si Si4 0.363840 0.740945 0.841485
Si Si5 0.169003 0.698743 0.947088
Si Si6 0.761946 0.739825 0.674868
Si Si7 0.758238 0.869839 0.482881
Si Si8 0.265936 0.860730 0.157878
O O1 0.159302 0.053783 0.751917
O O2 0.732124 0.178378 0.280503
O O3 0.416210 0.899077 0.590385
O O4 0.000000 0.000000 0.500000
O O5 0.000000 0.500000 0.500000
O O6 0.147219 0.354560 0.278665
O O7 0.736792 0.581541 0.058655
O O8 0.552697 0.581864 0.117158
O O9 0.879569 0.116289 0.802158
O O10 0.993923 0.188605 0.979980
O O11 0.506809 0.932526 0.195730
O O12 0.065388 0.797910 0.609945
O O13 0.273541 0.804893 0.986699
O O14 0.091584 0.665904 0.916363
O O15 0.955912 0.763234 0.668473
O O16 0.635880 0.760277 0.418413
O O17 0.500000 0.000000 0.500000
O O18 0.000000 0.000000 0.000000
#
# Coordination Sequence:
#
# PCOD9004155 Si02
#       8
#     2   2   2   2   2   2   2   2
#     4  12  25  39  61  95 132 164 207 256 313 377
#     4  11  22  41  67  94 122 163 212 263 311 369
#     4  11  20  37  60  90 129 161 206 254 319 374
#     4  11  21  38  61  92 119 165 207 258 313 364
#     4  10  21  37  64  94 122 160 212 262 311 361
#     4  12  23  37  62  92 131 161 205 261 313 363
#     4   9  16  31  59  89 118 149 201 256 305 357
#     4  12  19  34  62  90 120 158 212 262 302 358
#
# _framework density 20.497257000000001
#
# number of rings (size 3 to 8) (size 9 to 14) (size 15 to 20)
#    0.000    1.000    7.500    2.625    0.000    2.000 
#    0.000    0.625    0.000    3.750    0.000    0.000 
#    0.000    0.000    0.000    0.000    0.000    0.000 
#
# Total GULP energy -89078.740273 kJ/mol
# GULP energy per Si atom -5567.421267 kJ/mol
# Density = 2.045060 g / cm^3
# Si number density = 20.497257 Si / 1000 Ang^3
#
#
#
# Elastic Constant Matrix: (Units=GPa)
#
#
# Indices 1 2 3 4 5 6 
#
# 1 55.2294 12.0749 28.2502 -1.4048 0.7616 24.7520
# 2 12.0749 72.2817 31.8207 0.6547 -13.5123 22.1635
# 3 28.2502 31.8207 125.2110 -0.2559 -2.6518 6.7685
# 4 -1.4048 0.6547 -0.2559 32.9094 6.2271 -9.9871
# 5 0.7616 -13.5123 -2.6518 6.2271 40.4834 -0.9809
# 6 24.7520 22.1635 6.7685 -9.9871 -0.9809 26.9279
#
#
#
# Elastic Compliance Matrix: (Units=1/GPa)
#
#
# Indices 1 2 3 4 5 6 
#
# 1 0.046984 0.017013 -0.011567 -0.017852 0.005312 -0.060711
# 2 0.017013 0.030480 -0.009029 -0.015211 0.010542 -0.043714
# 3 -0.011567 -0.009029 0.011933 0.005390 -0.002432 0.016975
# 4 -0.017852 -0.015211 0.005390 0.045264 -0.010285 0.043987
# 5 0.005312 0.010542 -0.002432 -0.010285 0.029162 -0.015700
# 6 -0.060711 -0.043714 0.016975 0.043987 -0.015700 0.140396
#
#
# Mechanical properties :
#
#
# Convention : Reuss Voigt Hill
#
# Bulk Modulus (GPa) = 12.16073 44.11263 28.13668
# Shear Modulus (GPa) = 14.75817 32.10256 23.43036
#
# Velocity S-wave (km/s) = 2.68621 3.96180 3.38464
# Velocity P-wave (km/s) = 3.94546 6.51888 5.38806
#
# Compressibility (1/GPa) = 0.08223191
#
# Stress axis : x y z
#
# Youngs Moduli (GPa) = 21.28370 32.80845 83.80280
#
# Poissons Ratio (x) = -0.55818 0.96931
# Poissons Ratio (y) = -0.36211 0.75669
# Poissons Ratio (z) = 0.24618 0.29624
#
# Static dielectric constant tensor:
#      x y z
#    x 1.865440 0.030190 -0.004610 
#    y 0.030190 1.869480 -0.094280 
#    z -0.004610 -0.094280 1.771430 
# 
# From -- ./inp_files/284868.got.cif
#   From: 2010.05.17/outbox.cif.g08.bks.cpg/sg2_143_cif.got.tgz:284868.got - 2010.06.03 11:33:40.
