data_PCOD9004621
_publ_section_title
;
Structure prediction by ZEFSAII (Michael W. Deem and Ramdas Pophale) SiO2 
 PCOD9004621
Probable space group: P -1
;
_chemical_formula_sum "Si O2"
_cell_formula_units_Z 16
_cell_length_a 9.412520
_cell_length_b 7.927238
_cell_length_c 20.567227
_cell_angle_alpha 147.973508
_cell_angle_beta 104.676122
_cell_angle_gamma 79.218323
_cell_volume 786.128089
_symmetry_space_group_name_H-M "P -1"
_symmetry_group_IT_number 2
_symmetry_cell_setting 'triclinic'
loop_
_space_group_symop_operation_xyz
x,y,z
-x,-y,-z
loop_
_atom_site_type_symbol
_atom_site_label
_atom_site_fract_x
_atom_site_fract_y
_atom_site_fract_z
Si Si1 0.815582 0.650747 0.560315
Si Si2 0.894159 0.328571 0.337083
Si Si3 0.374174 0.974153 0.106267
Si Si4 0.661696 0.629175 0.183826
Si Si5 0.381456 0.967003 0.254803
Si Si6 0.219688 0.331145 0.089424
Si Si7 0.318457 0.783322 0.830225
Si Si8 0.974933 0.756090 0.224387
O O1 0.808267 0.426208 0.424027
O O2 0.939137 0.533446 0.586812
O O3 0.673493 0.747118 0.614061
O O4 0.899129 0.982407 0.652430
O O5 0.801196 0.405335 0.289424
O O6 0.912345 0.945593 0.216912
O O7 0.285421 0.200858 0.121936
O O8 0.547083 0.070997 0.149192
O O9 0.331891 0.997125 0.184123
O O10 0.352332 0.615483 0.958341
O O11 0.554328 0.912802 0.256780
O O12 0.612044 0.431936 0.177219
O O13 0.834320 0.712178 0.239033
O O14 0.305271 0.645077 0.172086
O O15 0.053534 0.435161 0.114110
O O16 0.240279 0.054290 0.949549
#
# Coordination Sequence:
#
# PCOD9004621 Si02
#       8
#     2   2   2   2   2   2   2   2
#     4   8  20  40  60  81 111 150 195 248 274 336
#     4   9  19  38  62  77 116 151 192 236 295 320
#     4  11  22  35  57  88 127 148 184 236 286 345
#     4  11  21  36  56  89 123 147 186 237 288 342
#     4  11  20  36  65  80 113 160 190 224 294 341
#     4  10  21  38  55  90 121 147 188 235 284 344
#     4  11  21  35  57  87 121 152 186 238 282 346
#     4   9  20  36  60  81 113 149 189 242 278 341
#
# _framework density 20.352917000000001
#
# number of rings (size 3 to 8) (size 9 to 14) (size 15 to 20)
#    0.750    1.250    2.500    1.875    1.750    4.500 
#    0.000    3.750    5.500    0.000    0.000    0.000 
#    0.000    0.000    0.000    0.000    0.000    0.000 
#
# Total GULP energy -89143.410963 kJ/mol
# GULP energy per Si atom -5571.463185 kJ/mol
# Density = 2.030659 g / cm^3
# Si number density = 20.352917 Si / 1000 Ang^3
#
#
#
# Elastic Constant Matrix: (Units=GPa)
#
#
# Indices 1 2 3 4 5 6 
#
# 1 98.3236 32.4453 34.9420 -7.1273 -25.5868 0.5837
# 2 32.4453 67.9367 34.9164 -9.6782 -22.8663 -9.2658
# 3 34.9420 34.9164 47.3807 -13.2171 -18.0346 -15.2521
# 4 -7.1273 -9.6782 -13.2171 12.1238 3.9420 11.4533
# 5 -25.5868 -22.8663 -18.0346 3.9420 28.6663 6.3064
# 6 0.5837 -9.2658 -15.2521 11.4533 6.3064 13.7918
#
#
#
# Elastic Compliance Matrix: (Units=1/GPa)
#
#
# Indices 1 2 3 4 5 6 
#
# 1 0.044862 0.010892 -0.043227 0.150624 0.041878 -0.186618
# 2 0.010892 0.030801 -0.027652 0.061381 0.024398 -0.072478
# 3 -0.043227 -0.027652 0.091651 -0.143073 -0.031196 0.217685
# 4 0.150624 0.061381 -0.143073 0.927589 0.180605 -0.976250
# 5 0.041878 0.024398 -0.031196 0.180605 0.094097 -0.212888
# 6 -0.186618 -0.072478 0.217685 -0.976250 -0.212888 1.180508
#
#
# Mechanical properties :
#
#
# Convention : Reuss Voigt Hill
#
# Bulk Modulus (GPa) = 21.12424 46.47204 33.79814
# Shear Modulus (GPa) = 1.99580 18.33888 10.16734
#
# Velocity S-wave (km/s) = 0.99132 3.00500 2.23749
# Velocity P-wave (km/s) = 3.42225 5.90954 4.82879
#
# Compressibility (1/GPa) = 0.04733899
#
# Stress axis : x y z
#
# Youngs Moduli (GPa) = 22.29036 32.46643 10.91093
#
# Poissons Ratio (x) = -0.35362 0.47165
# Poissons Ratio (y) = -0.24278 0.30171
# Poissons Ratio (z) = 0.96355 0.89777
#
# Static dielectric constant tensor:
#      x y z
#    x 1.771010 0.006090 0.025990 
#    y 0.006090 1.741540 0.037960 
#    z 0.025990 0.037960 1.723590 
# 
# From -- ./inp_files/457690.got.cif
#   From: 2010.05.17/outbox.cif.g08.bks.cpg/sg2_229_cif.got.tgz:457690.got - 2010.06.03 11:33:40.
