data_PCOD9004037
_publ_section_title
;
Structure prediction by ZEFSAII (Michael W. Deem and Ramdas Pophale) SiO2 
 PCOD9004037
Probable space group: P -1
;
_chemical_formula_sum "Si O2"
_cell_formula_units_Z 12
_cell_length_a 10.032591
_cell_length_b 13.636539
_cell_length_c 8.640068
_cell_angle_alpha 74.851956
_cell_angle_beta 84.082595
_cell_angle_gamma 146.535274
_cell_volume 501.786793
_symmetry_space_group_name_H-M "P -1"
_symmetry_group_IT_number 2
_symmetry_cell_setting 'triclinic'
loop_
_space_group_symop_operation_xyz
x,y,z
-x,-y,-z
loop_
_atom_site_type_symbol
_atom_site_label
_atom_site_fract_x
_atom_site_fract_y
_atom_site_fract_z
Si Si1 0.842146 0.674501 0.752687
Si Si2 0.946438 0.667106 0.068389
Si Si3 0.903935 0.040212 0.913565
Si Si4 0.218812 0.776087 0.516232
Si Si5 0.273302 0.724908 0.185785
Si Si6 0.338987 0.234874 0.197278
O O1 0.827675 0.784852 0.695950
O O2 0.991378 0.717316 0.576977
O O3 0.514862 0.407814 0.956203
O O4 0.022915 0.767525 0.850691
O O5 0.204240 0.769043 0.057373
O O6 0.624419 0.391631 0.197439
O O7 0.888036 0.723245 0.163854
O O8 0.873715 0.992440 0.757561
O O9 0.574317 0.862476 0.072763
O O10 0.000000 0.000000 0.000000
O O11 0.272077 0.773550 0.336670
O O12 0.009972 0.542836 0.702011
O O13 0.500000 0.000000 0.500000
#
# Coordination Sequence:
#
# PCOD9004037 Si02
#       6
#     2   2   2   2   2   2
#     4   9  17  39  61  88 116 156 196 248 296 355
#     4  10  21  37  63  97 121 146 205 261 298 345
#     4  12  20  36  67  93 118 159 199 250 307 357
#     4  11  24  41  61  82 129 169 197 238 313 364
#     4  11  25  40  59  98 121 154 207 254 295 362
#     4   9  19  35  63  91 116 152 204 248 298 348
#
# _framework density 23.914538
#
# number of rings (size 3 to 8) (size 9 to 14) (size 15 to 20)
#    1.000    0.667    3.333    1.500    0.000    4.000 
#    0.000    0.833    0.000    2.000    0.000    0.000 
#    0.000    0.000    0.000    0.000    0.000    0.000 
#
# Total GULP energy -66938.192926 kJ/mol
# GULP energy per Si atom -5578.182744 kJ/mol
# Density = 2.386011 g / cm^3
# Si number density = 23.914538 Si / 1000 Ang^3
#
#
#
# Elastic Constant Matrix: (Units=GPa)
#
#
# Indices 1 2 3 4 5 6 
#
# 1 180.4552 38.1147 43.8052 21.2829 -8.8938 -2.0272
# 2 38.1147 154.3185 16.6515 9.6440 1.5227 -3.5425
# 3 43.8052 16.6515 40.7690 2.8541 -3.5546 -7.0985
# 4 21.2829 9.6440 2.8541 15.6524 -11.1942 -3.8822
# 5 -8.8938 1.5227 -3.5546 -11.1942 32.7928 13.9343
# 6 -2.0272 -3.5425 -7.0985 -3.8822 13.9343 47.9371
#
#
#
# Elastic Compliance Matrix: (Units=1/GPa)
#
#
# Indices 1 2 3 4 5 6 
#
# 1 0.009252 -0.000517 -0.009290 -0.012432 -0.002117 -0.001414
# 2 -0.000517 0.007201 -0.002164 -0.005130 -0.002698 0.000559
# 3 -0.009290 -0.002164 0.035727 0.010886 0.003174 0.004697
# 4 -0.012432 -0.005130 0.010886 0.106649 0.034777 -0.000765
# 5 -0.002117 -0.002698 0.003174 0.034777 0.046763 -0.010596
# 6 -0.001414 0.000559 0.004697 -0.000765 -0.010596 0.024556
#
#
# Mechanical properties :
#
#
# Convention : Reuss Voigt Hill
#
# Bulk Modulus (GPa) = 35.41495 63.63170 49.52333
# Shear Modulus (GPa) = 18.97501 37.74123 28.35812
#
# Velocity S-wave (km/s) = 2.81988 3.97693 3.44730
# Velocity P-wave (km/s) = 5.04415 6.91040 6.04967
#
# Compressibility (1/GPa) = 0.02823666
#
# Stress axis : x y z
#
# Youngs Moduli (GPa) = 108.08470 138.86126 27.99016
#
# Poissons Ratio (x) = 0.07184 0.26003
# Poissons Ratio (y) = 0.05592 0.06058
# Poissons Ratio (z) = 1.00413 0.30053
#
# Static dielectric constant tensor:
#      x y z
#    x 1.922020 -0.014310 0.016930 
#    y -0.014310 2.025110 -0.068790 
#    z 0.016930 -0.068790 2.015970 
# 
# From -- ./inp_files/185945.got.cif
#   From: 2010.05.17/outbox.cif.g08.bks.cpg/sg2_93_cif.got.tgz:185945.got - 2010.06.03 11:33:40.
