data_PCOD9004310
_publ_section_title
;
Structure prediction by ZEFSAII (Michael W. Deem and Ramdas Pophale) SiO2 
 PCOD9004310
Probable space group: P -1
;
_chemical_formula_sum "Si O2"
_cell_formula_units_Z 16
_cell_length_a 7.933855
_cell_length_b 5.606850
_cell_length_c 19.824348
_cell_angle_alpha 61.351349
_cell_angle_beta 64.507294
_cell_angle_gamma 61.353675
_cell_volume 655.742557
_symmetry_space_group_name_H-M "P -1"
_symmetry_group_IT_number 2
_symmetry_cell_setting 'triclinic'
loop_
_space_group_symop_operation_xyz
x,y,z
-x,-y,-z
loop_
_atom_site_type_symbol
_atom_site_label
_atom_site_fract_x
_atom_site_fract_y
_atom_site_fract_z
Si Si1 0.529125 0.482324 0.785678
Si Si2 0.147971 0.366958 0.825645
Si Si3 0.437337 0.633396 0.065986
Si Si4 0.166012 0.063636 0.234789
Si Si5 0.808569 0.784489 0.642205
Si Si6 0.175977 0.206043 0.987519
Si Si7 0.470165 0.841242 0.458231
Si Si8 0.161287 0.233407 0.688032
O O1 0.309712 0.520738 0.794619
O O2 0.554685 0.580644 0.843941
O O3 0.657509 0.604751 0.697670
O O4 0.650418 0.138017 0.811873
O O5 0.153943 0.169407 0.916102
O O6 0.199663 0.225158 0.762680
O O7 0.932891 0.613599 0.820410
O O8 0.620593 0.732068 0.043808
O O9 0.500000 0.500000 0.000000
O O10 0.228640 0.900695 0.058325
O O11 0.226294 0.041033 0.305612
O O12 0.985795 0.939695 0.277533
O O13 0.031418 0.559785 0.642131
O O14 0.744343 0.983002 0.561271
O O15 0.000000 0.500000 0.000000
O O16 0.500000 0.500000 0.500000
O O17 0.637259 0.866229 0.374317
O O18 0.500000 0.000000 0.500000
#
# Coordination Sequence:
#
# PCOD9004310 Si02
#       8
#     2   2   2   2   2   2   2   2
#     4  10  21  38  64  91 126 173 221 274 332 400
#     4  10  21  37  65  95 128 175 223 278 329 403
#     4  10  23  38  57  90 130 172 219 276 339 404
#     4  10  21  39  66  94 127 166 229 271 326 392
#     4  10  24  43  70  95 130 173 218 277 331 408
#     4  10  22  39  60  92 134 173 220 280 343 402
#     4  12  30  47  73 105 142 181 224 282 352 415
#     4  10  24  43  69  97 133 172 229 271 333 411
#
# _framework density 24.399816999999999
#
# number of rings (size 3 to 8) (size 9 to 14) (size 15 to 20)
#    0.000    1.750    0.000    2.250    8.750   10.500 
#    0.000    0.000    0.000    0.000    0.000    0.000 
#    0.000    0.000    0.000    0.000    0.000    0.000 
#
# Total GULP energy -89491.210058 kJ/mol
# GULP energy per Si atom -5593.200629 kJ/mol
# Density = 2.434428 g / cm^3
# Si number density = 24.399817 Si / 1000 Ang^3
#
#
#
# Elastic Constant Matrix: (Units=GPa)
#
#
# Indices 1 2 3 4 5 6 
#
# 1 130.5557 32.2812 29.5070 2.4887 28.9542 -2.7099
# 2 32.2812 102.6748 53.9605 7.3437 19.9002 -11.0603
# 3 29.5070 53.9605 86.4201 0.5878 44.3785 -4.9230
# 4 2.4887 7.3437 0.5878 33.7714 1.5794 0.7656
# 5 28.9542 19.9002 44.3785 1.5794 49.0649 7.5540
# 6 -2.7099 -11.0603 -4.9230 0.7656 7.5540 45.5435
#
#
#
# Elastic Compliance Matrix: (Units=1/GPa)
#
#
# Indices 1 2 3 4 5 6 
#
# 1 0.009278 -0.002423 0.001505 0.000074 -0.006029 0.001125
# 2 -0.002423 0.016152 -0.012032 -0.003424 0.005625 0.001602
# 3 0.001505 -0.012032 0.032147 0.003048 -0.025936 0.004893
# 4 0.000074 -0.003424 0.003048 0.030418 -0.002294 -0.000628
# 5 -0.006029 0.005625 -0.025936 -0.002294 0.046652 -0.009495
# 6 0.001125 0.001602 0.004893 -0.000628 -0.009495 0.024528
#
#
# Mechanical properties :
#
#
# Convention : Reuss Voigt Hill
#
# Bulk Modulus (GPa) = 31.57007 61.23866 46.40436
# Shear Modulus (GPa) = 25.55798 39.26940 32.41369
#
# Velocity S-wave (km/s) = 3.23997 4.01610 3.64873
# Velocity P-wave (km/s) = 5.19262 6.83066 6.06717
#
# Compressibility (1/GPa) = 0.03167557
#
# Stress axis : x y z
#
# Youngs Moduli (GPa) = 107.78607 61.91196 31.10721
#
# Poissons Ratio (x) = 0.15004 -0.04681
# Poissons Ratio (y) = 0.26121 0.37428
# Poissons Ratio (z) = -0.16221 0.74492
#
# Static dielectric constant tensor:
#      x y z
#    x 1.891140 0.015810 -0.015760 
#    y 0.015810 2.057840 -0.085530 
#    z -0.015760 -0.085530 1.988220 
# 
# From -- ./inp_files/105829.got.cif
#   From: 2010.05.17/outbox.cif.g08.bks.cpg/sg2_53_cif.got.tgz:105829.got - 2010.06.03 11:33:40.
