data_PCOD9004980
_publ_section_title
;
Structure prediction by ZEFSAII (Michael W. Deem and Ramdas Pophale) SiO2 
 PCOD9004980
Probable space group: P -1
;
_chemical_formula_sum "Si O2"
_cell_formula_units_Z 14
_cell_length_a 15.293174
_cell_length_b 27.751572
_cell_length_c 28.233478
_cell_angle_alpha 10.307812
_cell_angle_beta 160.972801
_cell_angle_gamma 161.268609
_cell_volume 668.940432
_symmetry_space_group_name_H-M "P -1"
_symmetry_group_IT_number 2
_symmetry_cell_setting 'triclinic'
loop_
_space_group_symop_operation_xyz
x,y,z
-x,-y,-z
loop_
_atom_site_type_symbol
_atom_site_label
_atom_site_fract_x
_atom_site_fract_y
_atom_site_fract_z
Si Si1 0.292586 0.670847 0.086636
Si Si2 0.561498 0.736415 0.261882
Si Si3 0.242714 0.244682 0.833251
Si Si4 0.855182 0.851292 0.840277
Si Si5 0.713827 0.254077 0.303253
Si Si6 0.921570 0.089532 0.469985
Si Si7 0.359717 0.848951 0.357097
O O1 0.376163 0.643883 0.210012
O O2 0.577178 0.764465 0.111888
O O3 0.107816 0.886189 0.777070
O O4 0.114510 0.360209 0.279602
O O5 0.500000 0.500000 0.500000
O O6 0.879563 0.891335 0.257797
O O7 0.500000 0.000000 0.000000
O O8 0.316263 0.551512 0.597392
O O9 0.906207 0.156892 0.739798
O O10 0.334532 0.056354 0.101654
O O11 0.612723 0.766508 0.837506
O O12 0.749464 0.990939 0.605892
O O13 0.886334 0.552890 0.126219
O O14 0.808758 0.214575 0.337533
O O15 0.651745 0.934740 0.450934
#
# Coordination Sequence:
#
# PCOD9004980 Si02
#       7
#     2   2   2   2   2   2   2
#     4  12  26  40  65  97 131 167 216 264 316 387
#     4  12  24  40  62  89 129 174 212 258 321 373
#     4  10  23  45  65  97 126 165 217 259 321 391
#     4  10  21  38  60  85 118 172 207 265 306 372
#     4  10  21  38  60  88 123 156 219 258 313 372
#     4  12  24  40  64  97 127 171 205 272 317 381
#     4  10  23  43  70  91 129 169 206 270 321 378
#
# _framework density 20.928619000000001
#
# number of rings (size 3 to 8) (size 9 to 14) (size 15 to 20)
#    0.000    1.143    0.000    6.857    2.000    3.429 
#    0.000    0.000    0.000    0.000    0.000    0.000 
#    0.000    0.000    0.000    0.000    0.000    0.000 
#
# Total GULP energy -78200.444176 kJ/mol
# GULP energy per Si atom -5585.746013 kJ/mol
# Density = 2.088098 g / cm^3
# Si number density = 20.928619 Si / 1000 Ang^3
#
#
#
# Elastic Constant Matrix: (Units=GPa)
#
#
# Indices 1 2 3 4 5 6 
#
# 1 95.5175 36.3544 33.8338 10.7204 -0.5165 18.7209
# 2 36.3544 123.3910 29.9762 0.2927 -5.4709 11.1875
# 3 33.8338 29.9762 149.9508 -11.8083 -3.2229 3.4718
# 4 10.7204 0.2927 -11.8083 31.9597 9.0028 -1.3008
# 5 -0.5165 -5.4709 -3.2229 9.0028 14.9685 -4.8015
# 6 18.7209 11.1875 3.4718 -1.3008 -4.8015 26.4833
#
#
#
# Elastic Compliance Matrix: (Units=1/GPa)
#
#
# Indices 1 2 3 4 5 6 
#
# 1 0.015300 -0.002865 -0.003183 -0.006583 -0.000315 -0.009568
# 2 -0.002865 0.009490 -0.001192 -0.000455 0.002966 -0.001312
# 3 -0.003183 -0.001192 0.007906 0.004317 -0.000872 0.001771
# 4 -0.006583 -0.000455 0.004317 0.041956 -0.024064 0.001977
# 5 -0.000315 0.002966 -0.000872 -0.024064 0.086525 0.013589
# 6 -0.009568 -0.001312 0.001771 0.001977 0.013589 0.047406
#
#
# Mechanical properties :
#
#
# Convention : Reuss Voigt Hill
#
# Bulk Modulus (GPa) = 54.90303 63.24314 59.07308
# Shear Modulus (GPa) = 21.82128 32.59527 27.20828
#
# Velocity S-wave (km/s) = 3.23252 3.95074 3.60953
# Velocity P-wave (km/s) = 6.34213 7.14809 6.75714
#
# Compressibility (1/GPa) = 0.01821393
#
# Stress axis : x y z
#
# Youngs Moduli (GPa) = 65.36103 105.37785 126.49283
#
# Poissons Ratio (x) = 0.30194 0.40261
# Poissons Ratio (y) = 0.18728 0.15081
# Poissons Ratio (z) = 0.20804 0.12564
#
# Static dielectric constant tensor:
#      x y z
#    x 1.744450 0.088920 0.010370 
#    y 0.088920 1.855240 0.011790 
#    z 0.010370 0.011790 1.715310 
# 
# From -- ./inp_files/534243.got.cif
#   From: 2010.05.17/outbox.cif.g08.bks.cpg/sg2_268_cif.got.tgz:534243.got - 2010.06.03 11:33:40.
