data_PCOD9004984
_publ_section_title
;
Structure prediction by ZEFSAII (Michael W. Deem and Ramdas Pophale) SiO2 
 PCOD9004984
Probable space group: P -1
;
_chemical_formula_sum "Si O2"
_cell_formula_units_Z 14
_cell_length_a 14.881015
_cell_length_b 7.462940
_cell_length_c 7.602154
_cell_angle_alpha 53.112765
_cell_angle_beta 72.195470
_cell_angle_gamma 93.485541
_cell_volume 608.926227
_symmetry_space_group_name_H-M "P -1"
_symmetry_group_IT_number 2
_symmetry_cell_setting 'triclinic'
loop_
_space_group_symop_operation_xyz
x,y,z
-x,-y,-z
loop_
_atom_site_type_symbol
_atom_site_label
_atom_site_fract_x
_atom_site_fract_y
_atom_site_fract_z
Si Si1 0.094211 0.772879 0.636471
Si Si2 0.338379 0.328039 0.546843
Si Si3 0.507592 0.241051 0.951972
Si Si4 0.136231 0.321283 0.814966
Si Si5 0.606084 0.105224 0.279680
Si Si6 0.014722 0.118926 0.682023
Si Si7 0.697111 0.938822 0.620415
O O1 0.105604 0.520445 0.822309
O O2 0.071267 0.930080 0.712348
O O3 0.203244 0.935740 0.408257
O O4 0.011492 0.762174 0.545715
O O5 0.253631 0.381769 0.678689
O O6 0.365190 0.097125 0.726423
O O7 0.293278 0.243079 0.428726
O O8 0.440692 0.539635 0.333573
O O9 0.398417 0.194271 0.126979
O O10 0.584906 0.277201 0.048788
O O11 0.500000 0.000000 0.000000
O O12 0.080356 0.305028 0.670356
O O13 0.087926 0.056087 0.073088
O O14 0.677549 0.142935 0.384613
O O15 0.500000 0.000000 0.500000
#
# Coordination Sequence:
#
# PCOD9004984 Si02
#       7
#     2   2   2   2   2   2   2
#     4  11  21  42  63  92 118 159 201 244 302 358
#     4  10  21  38  60  85 120 158 196 242 293 351
#     4  11  21  36  60  87 117 157 200 243 292 354
#     4  11  22  40  63  90 121 160 196 249 302 353
#     4   8  19  37  56  80 115 159 191 240 294 341
#     4  10  23  41  63  89 124 151 202 253 297 355
#     4   9  20  40  56  83 123 151 198 244 289 354
#
# _framework density 22.991292000000001
#
# number of rings (size 3 to 8) (size 9 to 14) (size 15 to 20)
#    0.857    1.143    1.429    2.143    0.000    2.857 
#    2.571    1.429    0.000    0.000    0.000    0.000 
#    0.000    0.000    0.000    0.000    0.000    0.000 
#
# Total GULP energy -78014.883515 kJ/mol
# GULP energy per Si atom -5572.491680 kJ/mol
# Density = 2.293896 g / cm^3
# Si number density = 22.991292 Si / 1000 Ang^3
#
#
#
# Elastic Constant Matrix: (Units=GPa)
#
#
# Indices 1 2 3 4 5 6 
#
# 1 72.9442 14.5472 18.2305 1.6403 -9.3843 -2.7683
# 2 14.5472 58.6807 -14.0155 1.5806 -4.3960 -12.7481
# 3 18.2305 -14.0155 47.8126 -1.4858 -15.4792 -0.8261
# 4 1.6403 1.5806 -1.4858 23.6352 2.4378 -5.3166
# 5 -9.3843 -4.3960 -15.4792 2.4378 23.9516 6.1559
# 6 -2.7683 -12.7481 -0.8261 -5.3166 6.1559 36.6844
#
#
#
# Elastic Compliance Matrix: (Units=1/GPa)
#
#
# Indices 1 2 3 4 5 6 
#
# 1 0.017136 -0.006445 -0.008258 -0.001693 0.000753 -0.001504
# 2 -0.006445 0.023539 0.012009 0.000331 0.007799 0.006703
# 3 -0.008258 0.012009 0.034394 -0.000055 0.020998 0.000793
# 4 -0.001693 0.000331 -0.000055 0.044874 -0.007183 0.007695
# 5 0.000753 0.007799 0.020998 -0.007183 0.059793 -0.007835
# 6 -0.001504 0.006703 0.000793 0.007695 -0.007835 0.031923
#
#
# Mechanical properties :
#
#
# Convention : Reuss Voigt Hill
#
# Bulk Modulus (GPa) = 14.35133 24.10689 19.22911
# Shear Modulus (GPa) = 20.80952 27.56590 24.18771
#
# Velocity S-wave (km/s) = 3.01176 3.46637 3.24703
# Velocity P-wave (km/s) = 4.28368 5.15063 4.73703
#
# Compressibility (1/GPa) = 0.06967995
#
# Stress axis : x y z
#
# Youngs Moduli (GPa) = 58.35580 42.48269 29.07492
#
# Poissons Ratio (x) = 0.27381 0.24010
# Poissons Ratio (y) = 0.37612 -0.34915
# Poissons Ratio (z) = 0.48190 -0.51016
#
# Static dielectric constant tensor:
#      x y z
#    x 1.887600 -0.003760 0.037550 
#    y -0.003760 1.869310 0.015510 
#    z 0.037550 0.015510 1.897250 
# 
# From -- ./inp_files/54447.got.cif
#   From: 2010.05.17/outbox.cif.g08.bks.cpg/sg2_28_cif.got.tgz:54447.got - 2010.06.03 11:33:40.
