data_PCOD9004050
_publ_section_title
;
Structure prediction by ZEFSAII (Michael W. Deem and Ramdas Pophale) SiO2 
 PCOD9004050
Probable space group: P -1
;
_chemical_formula_sum "Si O2"
_cell_formula_units_Z 16
_cell_length_a 11.146862
_cell_length_b 9.954098
_cell_length_c 14.962080
_cell_angle_alpha 35.132290
_cell_angle_beta 60.193469
_cell_angle_gamma 84.596480
_cell_volume 646.766047
_symmetry_space_group_name_H-M "P -1"
_symmetry_group_IT_number 2
_symmetry_cell_setting 'triclinic'
loop_
_space_group_symop_operation_xyz
x,y,z
-x,-y,-z
loop_
_atom_site_type_symbol
_atom_site_label
_atom_site_fract_x
_atom_site_fract_y
_atom_site_fract_z
Si Si1 0.854093 0.143559 0.570714
Si Si2 0.762174 0.556948 0.006764
Si Si3 0.362687 0.237241 0.309049
Si Si4 0.791595 0.738451 0.081868
Si Si5 0.694248 0.810360 0.257109
Si Si6 0.888787 0.570525 0.450629
Si Si7 0.233344 0.583886 0.112210
Si Si8 0.365282 0.355124 0.435240
O O1 0.812018 0.348176 0.516453
O O2 0.061997 0.349301 0.362301
O O3 0.803748 0.875312 0.799484
O O4 0.756582 0.008020 0.586971
O O5 0.809916 0.565828 0.088489
O O6 0.829461 0.502191 0.921772
O O7 0.551333 0.312544 0.204504
O O8 0.296240 0.164440 0.474535
O O9 0.630072 0.482077 0.879138
O O10 0.795272 0.746928 0.184679
O O11 0.580719 0.586327 0.228513
O O12 0.959298 0.081612 0.815783
O O13 0.500000 0.500000 0.500000
O O14 0.723381 0.848136 0.332580
O O15 0.705143 0.088712 0.069496
O O16 0.722328 0.483976 0.615579
O O17 0.000000 0.500000 0.500000
#
# Coordination Sequence:
#
# PCOD9004050 Si02
#       8
#     2   2   2   2   2   2   2   2
#     4  11  21  36  59  99 127 158 206 261 322 377
#     4  10  21  37  63  98 129 161 210 265 321 376
#     4  10  22  39  63  97 127 162 215 259 320 383
#     4  10  22  42  63  95 128 168 214 255 323 379
#     4  10  23  45  62  90 130 171 216 263 317 381
#     4  12  23  39  67  97 131 163 213 267 326 374
#     4  11  21  38  66  90 126 169 206 263 320 374
#     4  10  25  43  66  90 134 168 213 269 315 378
#
# _framework density 24.738465999999999
#
# number of rings (size 3 to 8) (size 9 to 14) (size 15 to 20)
#    0.000    1.500    2.500    3.750    1.750    5.000 
#    0.000    7.500    0.000    0.000    0.000    0.000 
#    0.000    0.000    0.000    0.000    0.000    0.000 
#
# Total GULP energy -89242.944993 kJ/mol
# GULP energy per Si atom -5577.684062 kJ/mol
# Density = 2.468216 g / cm^3
# Si number density = 24.738466 Si / 1000 Ang^3
#
#
#
# Elastic Constant Matrix: (Units=GPa)
#
#
# Indices 1 2 3 4 5 6 
#
# 1 38.9426 5.9498 11.0149 -9.5571 -5.5792 20.6533
# 2 5.9498 133.5785 6.8386 12.5723 3.1136 43.3392
# 3 11.0149 6.8386 58.2378 0.3489 -12.8074 10.3175
# 4 -9.5571 12.5723 0.3489 50.4002 2.5779 3.9267
# 5 -5.5792 3.1136 -12.8074 2.5779 14.9137 21.0964
# 6 20.6533 43.3392 10.3175 3.9267 21.0964 22.1095
#
#
#
# Elastic Compliance Matrix: (Units=1/GPa)
#
#
# Indices 1 2 3 4 5 6 
#
# 1 0.020405 -0.004825 -0.010215 0.005120 -0.020335 0.013657
# 2 -0.004825 0.006906 -0.003356 -0.002347 -0.012136 0.004533
# 3 -0.010215 -0.003356 0.017491 -0.001900 -0.001408 0.009640
# 4 0.005120 -0.002347 -0.001900 0.021557 -0.004194 0.000878
# 5 -0.020335 -0.012136 -0.001408 -0.004194 0.002890 0.041429
# 6 0.013657 0.004533 0.009640 0.000878 0.041429 -0.020600
#
#
# Mechanical properties :
#
#
# Convention : Reuss Voigt Hill
#
# Bulk Modulus (GPa) = 124.84502 30.92948 77.88725
# Shear Modulus (GPa) = 56.74597 31.28172 44.01385
#
# Velocity S-wave (km/s) = 4.79460 3.55983 4.22259
# Velocity P-wave (km/s) = 9.01257 5.42460 7.43817
#
# Compressibility (1/GPa) = 0.00800993
#
# Stress axis : x y z
#
# Youngs Moduli (GPa) = 49.00656 144.80462 57.17189
#
# Poissons Ratio (x) = 0.69865 0.58401
# Poissons Ratio (y) = 0.23644 0.19190
# Poissons Ratio (z) = 0.50060 0.48603
#
# Static dielectric constant tensor:
#      x y z
#    x 2.102940 0.043040 0.066690 
#    y 0.043040 2.117340 0.010290 
#    z 0.066690 0.010290 1.943680 
# 
# From -- ./inp_files/529400.got.cif
#   From: 2010.05.17/outbox.cif.g08.bks.cpg/sg2_265_cif.got.tgz:529400.got - 2010.06.03 11:33:40.
