data_PCOD9004134
_publ_section_title
;
Structure prediction by ZEFSAII (Michael W. Deem and Ramdas Pophale) SiO2 
 PCOD9004134
Probable space group: P -1
;
_chemical_formula_sum "Si O2"
_cell_formula_units_Z 16
_cell_length_a 11.779891
_cell_length_b 9.132999
_cell_length_c 10.980567
_cell_angle_alpha 125.671338
_cell_angle_beta 132.831519
_cell_angle_gamma 58.669062
_cell_volume 688.504907
_symmetry_space_group_name_H-M "P -1"
_symmetry_group_IT_number 2
_symmetry_cell_setting 'triclinic'
loop_
_space_group_symop_operation_xyz
x,y,z
-x,-y,-z
loop_
_atom_site_type_symbol
_atom_site_label
_atom_site_fract_x
_atom_site_fract_y
_atom_site_fract_z
Si Si1 0.254087 0.166062 0.774341
Si Si2 0.677595 0.266088 0.417854
Si Si3 0.310405 0.671519 0.276983
Si Si4 0.155461 0.343194 0.039073
Si Si5 0.967296 0.407575 0.601633
Si Si6 0.500328 0.572012 0.881370
Si Si7 0.978609 0.940826 0.091658
Si Si8 0.832518 0.352771 0.228220
O O1 0.169836 0.224765 0.869911
O O2 0.115122 0.237080 0.611385
O O3 0.300658 0.950139 0.695391
O O4 0.391439 0.283266 0.929678
O O5 0.611961 0.285644 0.518217
O O6 0.840638 0.348096 0.572486
O O7 0.586221 0.353636 0.273860
O O8 0.404223 0.628260 0.196337
O O9 0.146845 0.824744 0.211157
O O10 0.282646 0.467134 0.188200
O O11 0.142601 0.197865 0.061935
O O12 0.000000 0.500000 0.000000
O O13 0.872298 0.448949 0.427947
O O14 0.067507 0.570430 0.768743
O O15 0.357352 0.589673 0.883562
O O16 0.896853 0.134896 0.187606
O O17 0.000000 0.000000 0.000000
#
# Coordination Sequence:
#
# PCOD9004134 Si02
#       8
#     2   2   2   2   2   2   2   2
#     4  11  21  37  67  94 126 163 220 266 323 373
#     4  11  21  38  67  95 125 164 220 269 318 375
#     4  10  22  40  65  94 127 168 213 269 323 377
#     4   9  19  35  57  90 124 159 210 261 311 369
#     4  10  21  37  64  92 126 171 213 262 312 385
#     4  10  23  41  64  96 132 166 210 263 333 380
#     4  11  23  37  62  92 130 169 218 260 314 382
#     4  10  23  41  62  92 134 170 215 254 323 389
#
# _framework density 23.238761
#
# number of rings (size 3 to 8) (size 9 to 14) (size 15 to 20)
#    0.000    1.750    0.000    4.875    7.000    1.500 
#    0.000    0.000    0.000    7.500    0.000    0.000 
#    0.000    0.000    0.000    0.000    0.000    0.000 
#
# Total GULP energy -89141.864871 kJ/mol
# GULP energy per Si atom -5571.366554 kJ/mol
# Density = 2.318587 g / cm^3
# Si number density = 23.238761 Si / 1000 Ang^3
#
#
#
# Elastic Constant Matrix: (Units=GPa)
#
#
# Indices 1 2 3 4 5 6 
#
# 1 125.9894 33.6604 39.9645 15.5349 6.0641 3.9605
# 2 33.6604 86.9892 14.5655 27.1207 12.0546 -3.7757
# 3 39.9645 14.5655 53.7533 2.8620 -5.2122 -2.3670
# 4 15.5349 27.1207 2.8620 38.0046 -8.4635 -3.2678
# 5 6.0641 12.0546 -5.2122 -8.4635 44.9183 0.0609
# 6 3.9605 -3.7757 -2.3670 -3.2678 0.0609 36.3166
#
#
#
# Elastic Compliance Matrix: (Units=1/GPa)
#
#
# Indices 1 2 3 4 5 6 
#
# 1 0.011742 -0.001642 -0.008460 -0.003826 -0.002844 -0.002342
# 2 -0.001642 0.018060 -0.003661 -0.013583 -0.007610 0.000609
# 3 -0.008460 -0.003661 0.026309 0.005719 0.006251 0.002761
# 4 -0.003826 -0.013583 0.005719 0.040153 0.012387 0.002970
# 5 -0.002844 -0.007610 0.006251 0.012387 0.027747 0.000994
# 6 -0.002342 0.000609 0.002761 0.002970 0.000994 0.028300
#
#
# Mechanical properties :
#
#
# Convention : Reuss Voigt Hill
#
# Bulk Modulus (GPa) = 34.98380 49.23475 42.10927
# Shear Modulus (GPa) = 26.40433 35.75067 31.07750
#
# Velocity S-wave (km/s) = 3.37444 3.92651 3.66090
# Velocity P-wave (km/s) = 5.50175 6.46445 6.00243
#
# Compressibility (1/GPa) = 0.02858466
#
# Stress axis : x y z
#
# Youngs Moduli (GPa) = 85.16785 55.37150 38.01045
#
# Poissons Ratio (x) = 0.09090 0.32157
# Poissons Ratio (y) = 0.13982 0.13916
# Poissons Ratio (z) = 0.72051 0.20271
#
# Static dielectric constant tensor:
#      x y z
#    x 2.043610 0.004810 0.021810 
#    y 0.004810 1.905390 -0.030170 
#    z 0.021810 -0.030170 1.912090 
# 
# From -- ./inp_files/420127.got.cif
#   From: 2010.05.17/outbox.cif.g08.bks.cpg/sg2_211_cif.got.tgz:420127.got - 2010.06.03 11:33:40.
