data_PCOD9004196
_publ_section_title
;
Structure prediction by ZEFSAII (Michael W. Deem and Ramdas Pophale) SiO2 
 PCOD9004196
Probable space group: P -1
;
_chemical_formula_sum "Si O2"
_cell_formula_units_Z 16
_cell_length_a 10.676923
_cell_length_b 14.929923
_cell_length_c 10.640661
_cell_angle_alpha 114.128568
_cell_angle_beta 107.443185
_cell_angle_gamma 129.563237
_cell_volume 722.150424
_symmetry_space_group_name_H-M "P -1"
_symmetry_group_IT_number 2
_symmetry_cell_setting 'triclinic'
loop_
_space_group_symop_operation_xyz
x,y,z
-x,-y,-z
loop_
_atom_site_type_symbol
_atom_site_label
_atom_site_fract_x
_atom_site_fract_y
_atom_site_fract_z
Si Si1 0.219997 0.461261 0.798597
Si Si2 0.999277 0.905679 0.031557
Si Si3 0.192639 0.179107 0.821824
Si Si4 0.769624 0.069649 0.557392
Si Si5 0.922215 0.430116 0.291667
Si Si6 0.162091 0.929402 0.680308
Si Si7 0.759138 0.101279 0.041331
Si Si8 0.472254 0.829469 0.574714
O O1 0.981205 0.297206 0.736038
O O2 0.243604 0.583555 0.813540
O O3 0.100389 0.307438 0.570347
O O4 0.509740 0.621999 0.031498
O O5 0.781959 0.770063 0.996657
O O6 0.293944 0.098470 0.295897
O O7 0.001840 0.805600 0.899208
O O8 0.000000 0.000000 0.000000
O O9 0.972161 0.108004 0.657023
O O10 0.106107 0.008955 0.704363
O O11 0.648714 0.973829 0.327398
O O12 0.564462 0.939937 0.536177
O O13 0.178496 0.597567 0.371262
O O14 0.000000 0.500000 0.500000
O O15 0.808513 0.247250 0.150039
O O16 0.266785 0.964962 0.867944
O O17 0.519532 0.926419 0.769642
#
# Coordination Sequence:
#
# PCOD9004196 Si02
#       8
#     2   2   2   2   2   2   2   2
#     4  10  25  38  63  96 124 163 216 256 306 373
#     4   9  19  37  63  89 124 163 202 249 321 365
#     4  11  19  41  66  91 131 161 203 267 315 374
#     4   9  21  45  61  94 127 163 207 263 315 370
#     4  12  24  42  63  96 129 162 221 255 299 384
#     4  10  21  37  64  97 119 168 209 244 329 362
#     4  10  22  42  63  95 125 170 206 253 324 360
#     4   9  23  42  63  87 133 163 202 263 311 363
#
# _framework density 22.156047999999998
#
# number of rings (size 3 to 8) (size 9 to 14) (size 15 to 20)
#    1.500    0.500    2.500    0.750    3.500    2.000 
#    6.750    1.875    0.000    0.000    0.000    0.000 
#    0.000    0.000    0.000    0.000    0.000    0.000 
#
# Total GULP energy -89162.268936 kJ/mol
# GULP energy per Si atom -5572.641809 kJ/mol
# Density = 2.210562 g / cm^3
# Si number density = 22.156048 Si / 1000 Ang^3
#
#
#
# Elastic Constant Matrix: (Units=GPa)
#
#
# Indices 1 2 3 4 5 6 
#
# 1 60.8341 27.5754 22.1638 4.7688 -7.3895 -20.8926
# 2 27.5754 119.3176 17.4988 -15.9372 -3.0039 -0.9567
# 3 22.1638 17.4988 32.9607 -3.7743 -4.5894 0.3894
# 4 4.7688 -15.9372 -3.7743 34.1378 2.3131 -0.4922
# 5 -7.3895 -3.0039 -4.5894 2.3131 34.4719 0.5170
# 6 -20.8926 -0.9567 0.3894 -0.4922 0.5170 56.7121
#
#
#
# Elastic Compliance Matrix: (Units=1/GPa)
#
#
# Indices 1 2 3 4 5 6 
#
# 1 0.030579 -0.005384 -0.018289 -0.008923 0.004082 0.011185
# 2 -0.005384 0.010542 -0.001428 0.005543 -0.000772 -0.001741
# 3 -0.018289 -0.001428 0.044448 0.006597 0.001535 -0.007024
# 4 -0.008923 0.005543 0.006597 0.034003 -0.002789 -0.002918
# 5 0.004082 -0.000772 0.001535 -0.002789 0.030191 0.001181
# 6 0.011185 -0.001741 -0.007024 -0.002918 0.001181 0.021736
#
#
# Mechanical properties :
#
#
# Convention : Reuss Voigt Hill
#
# Bulk Modulus (GPa) = 28.27649 38.62092 33.44870
# Shear Modulus (GPa) = 21.41421 34.78931 28.10176
#
# Velocity S-wave (km/s) = 3.11226 3.96687 3.56526
# Velocity P-wave (km/s) = 5.07001 6.20085 5.66372
#
# Compressibility (1/GPa) = 0.03536507
#
# Stress axis : x y z
#
# Youngs Moduli (GPa) = 32.70260 94.86082 22.49836
#
# Poissons Ratio (x) = 0.51074 0.41147
# Poissons Ratio (y) = 0.17607 0.03214
# Poissons Ratio (z) = 0.59810 0.13549
#
# Static dielectric constant tensor:
#      x y z
#    x 1.825390 0.013380 0.005290 
#    y 0.013380 1.834520 -0.020030 
#    z 0.005290 -0.020030 1.839250 
# 
# From -- ./inp_files/399454.got.cif
#   From: 2010.05.17/outbox.cif.g08.bks.cpg/sg2_200_cif.got.tgz:399454.got - 2010.06.03 11:33:40.
