data_PCOD9004384
_publ_section_title
;
Structure prediction by ZEFSAII (Michael W. Deem and Ramdas Pophale) SiO2 
 PCOD9004384
Probable space group: P -1
;
_chemical_formula_sum "Si O2"
_cell_formula_units_Z 16
_cell_length_a 11.791499
_cell_length_b 14.136005
_cell_length_c 11.770915
_cell_angle_alpha 19.216821
_cell_angle_beta 100.604358
_cell_angle_gamma 103.246039
_cell_volume 625.398844
_symmetry_space_group_name_H-M "P -1"
_symmetry_group_IT_number 2
_symmetry_cell_setting 'triclinic'
loop_
_space_group_symop_operation_xyz
x,y,z
-x,-y,-z
loop_
_atom_site_type_symbol
_atom_site_label
_atom_site_fract_x
_atom_site_fract_y
_atom_site_fract_z
Si Si1 0.905880 0.590787 0.523935
Si Si2 0.613631 0.173020 0.523422
Si Si3 0.429507 0.910657 0.972599
Si Si4 0.873124 0.835356 0.704691
Si Si5 0.755038 0.685051 0.078966
Si Si6 0.698160 0.592466 0.610081
Si Si7 0.856952 0.183999 0.773617
Si Si8 0.714283 0.298472 0.167909
O O1 0.830301 0.533286 0.687484
O O2 0.906246 0.313548 0.758241
O O3 0.038833 0.745788 0.378899
O O4 0.838661 0.837371 0.174976
O O5 0.506745 0.035386 0.737546
O O6 0.649782 0.510143 0.182792
O O7 0.619445 0.185069 0.375384
O O8 0.713380 0.969562 0.799294
O O9 0.318920 0.076161 0.769252
O O10 0.500000 0.000000 0.000000
O O11 0.380227 0.576593 0.313550
O O12 0.775454 0.035466 0.434215
O O13 0.861291 0.782101 0.899864
O O14 0.821066 0.527614 0.984780
O O15 0.000000 0.000000 0.500000
O O16 0.772725 0.414159 0.469086
O O17 0.657992 0.451365 0.882541
#
# Coordination Sequence:
#
# PCOD9004384 Si02
#       8
#     2   2   2   2   2   2   2   2
#     4  10  23  39  59  91 128 166 215 257 311 391
#     4  10  23  43  65  95 128 165 223 267 317 394
#     4  12  28  45  68  98 126 172 221 275 343 385
#     4  10  21  39  63 100 135 170 215 261 315 384
#     4  10  21  37  66  93 124 175 205 265 324 372
#     4  12  26  45  68  97 132 173 213 283 330 377
#     4  10  21  39  60  90 127 174 211 248 319 386
#     4  10  23  43  66  96 132 172 220 262 327 386
#
# _framework density 25.583677000000002
#
# number of rings (size 3 to 8) (size 9 to 14) (size 15 to 20)
#    0.000    1.500    0.000    3.750    7.000    1.000 
#    4.500    0.000    0.000    0.000    0.000    0.000 
#    0.000    0.000    0.000    0.000    0.000    0.000 
#
# Total GULP energy -89402.492461 kJ/mol
# GULP energy per Si atom -5587.655779 kJ/mol
# Density = 2.552545 g / cm^3
# Si number density = 25.583677 Si / 1000 Ang^3
#
#
#
# Elastic Constant Matrix: (Units=GPa)
#
#
# Indices 1 2 3 4 5 6 
#
# 1 89.6458 24.7843 -3.8631 -3.5350 -31.8550 -27.8320
# 2 24.7843 59.8941 22.3375 -22.8564 -1.6292 -8.2043
# 3 -3.8631 22.3375 92.1830 -28.9916 1.4413 3.0619
# 4 -3.5350 -22.8564 -28.9916 35.5779 2.1621 6.7061
# 5 -31.8550 -1.6292 1.4413 2.1621 51.4523 4.4330
# 6 -27.8320 -8.2043 3.0619 6.7061 4.4330 29.5090
#
#
#
# Elastic Compliance Matrix: (Units=1/GPa)
#
#
# Indices 1 2 3 4 5 6 
#
# 1 0.025038 -0.010595 -0.000183 -0.009209 0.013773 0.020712
# 2 -0.010595 0.027051 -0.001592 0.016355 -0.005903 -0.005137
# 3 -0.000183 -0.001592 0.015298 0.012393 -0.000689 -0.004915
# 4 -0.009209 0.016355 0.012393 0.051219 -0.006294 -0.016118
# 5 0.013773 -0.005903 -0.000689 -0.006294 0.027306 0.008749
# 6 0.020712 -0.005137 -0.004915 -0.016118 0.008749 0.054853
#
#
# Mechanical properties :
#
#
# Convention : Reuss Voigt Hill
#
# Bulk Modulus (GPa) = 23.44837 36.47113 29.95975
# Shear Modulus (GPa) = 20.85756 36.53879 28.69818
#
# Velocity S-wave (km/s) = 2.85839 3.78326 3.35287
# Velocity P-wave (km/s) = 4.48097 5.77674 5.16961
#
# Compressibility (1/GPa) = 0.04264689
#
# Stress axis : x y z
#
# Youngs Moduli (GPa) = 39.93965 36.96660 65.36872
#
# Poissons Ratio (x) = 0.39166 0.01196
# Poissons Ratio (y) = 0.42316 0.10409
# Poissons Ratio (z) = 0.00730 0.05886
#
# Static dielectric constant tensor:
#      x y z
#    x 2.037920 0.042270 -0.011130 
#    y 0.042270 2.053430 0.097010 
#    z -0.011130 0.097010 1.994310 
# 
# From -- ./inp_files/433624.got.cif
#   From: 2010.05.17/outbox.cif.g08.bks.cpg/sg2_217_cif.got.tgz:433624.got - 2010.06.03 11:33:40.
