data_PCOD9004687
_publ_section_title
;
Structure prediction by ZEFSAII (Michael W. Deem and Ramdas Pophale) SiO2 
 PCOD9004687
Probable space group: P -1
;
_chemical_formula_sum "Si O2"
_cell_formula_units_Z 16
_cell_length_a 12.950406
_cell_length_b 18.837137
_cell_length_c 11.223451
_cell_angle_alpha 148.509631
_cell_angle_beta 32.298969
_cell_angle_gamma 144.432708
_cell_volume 720.871152
_symmetry_space_group_name_H-M "P -1"
_symmetry_group_IT_number 2
_symmetry_cell_setting 'triclinic'
loop_
_space_group_symop_operation_xyz
x,y,z
-x,-y,-z
loop_
_atom_site_type_symbol
_atom_site_label
_atom_site_fract_x
_atom_site_fract_y
_atom_site_fract_z
Si Si1 0.116664 0.932551 0.613540
Si Si2 0.257368 0.481220 0.479307
Si Si3 0.817438 0.466273 0.962249
Si Si4 0.275786 0.315275 0.453881
Si Si5 0.616832 0.570601 0.106204
Si Si6 0.436843 0.831978 0.098595
Si Si7 0.192849 0.924787 0.802342
Si Si8 0.969394 0.653211 0.723743
O O1 0.308159 0.938842 0.352040
O O2 0.181406 0.901744 0.639606
O O3 0.929813 0.807241 0.560192
O O4 0.016611 0.054096 0.914801
O O5 0.340769 0.410956 0.406972
O O6 0.445770 0.600002 0.399451
O O7 0.155044 0.368367 0.311152
O O8 0.060648 0.513997 0.769296
O O9 0.775824 0.587210 0.257296
O O10 0.694661 0.462259 0.954384
O O11 0.727815 0.311082 0.889234
O O12 0.443535 0.239051 0.211000
O O13 0.500000 0.500000 0.000000
O O14 0.829400 0.680381 0.005982
O O15 0.620283 0.931476 0.145237
O O16 0.182384 0.780338 0.675790
O O17 0.000000 0.500000 0.500000
#
# Coordination Sequence:
#
# PCOD9004687 Si02
#       8
#     2   2   2   2   2   2   2   2
#     4  10  21  38  57  89 130 164 197 259 315 373
#     4  11  21  37  58  91 129 157 202 254 316 362
#     4  12  22  37  62  97 127 160 207 255 321 371
#     4  11  22  35  62  95 129 160 201 264 314 370
#     4  10  24  37  58  89 124 164 204 255 301 366
#     4  11  22  36  59  91 127 166 199 254 321 375
#     4  10  22  38  59  88 125 165 208 251 313 373
#     4  11  21  42  63  88 125 164 209 259 302 363
#
# _framework density 22.195366
#
# number of rings (size 3 to 8) (size 9 to 14) (size 15 to 20)
#    0.000    1.250    5.000    1.125    0.000    0.000 
#    6.750    0.000    0.000    3.000    0.000    6.125 
#    0.000    0.000    0.000    0.000    0.000    0.000 
#
# Total GULP energy -89159.425645 kJ/mol
# GULP energy per Si atom -5572.464103 kJ/mol
# Density = 2.214485 g / cm^3
# Si number density = 22.195366 Si / 1000 Ang^3
#
#
#
# Elastic Constant Matrix: (Units=GPa)
#
#
# Indices 1 2 3 4 5 6 
#
# 1 38.3719 0.9679 20.6921 -6.6426 0.1398 3.3254
# 2 0.9679 67.4438 37.1516 -11.4553 4.0042 6.1173
# 3 20.6921 37.1516 165.2561 -13.8968 -7.7258 18.3859
# 4 -6.6426 -11.4553 -13.8968 37.2881 8.9929 -1.1969
# 5 0.1398 4.0042 -7.7258 8.9929 27.3626 -3.4675
# 6 3.3254 6.1173 18.3859 -1.1969 -3.4675 18.5210
#
#
#
# Elastic Compliance Matrix: (Units=1/GPa)
#
#
# Indices 1 2 3 4 5 6 
#
# 1 0.029236 0.003086 -0.003740 0.005602 -0.003868 -0.002919
# 2 0.003086 0.018738 -0.003972 0.006251 -0.006389 -0.003592
# 3 -0.003740 -0.003972 0.008186 0.000492 0.002024 -0.005732
# 4 0.005602 0.006251 0.000492 0.032700 -0.012020 -0.003697
# 5 -0.003868 -0.006389 0.002024 -0.012020 0.043047 0.008078
# 6 -0.002919 -0.003592 -0.005732 -0.003697 0.008078 0.062667
#
#
# Mechanical properties :
#
#
# Convention : Reuss Voigt Hill
#
# Bulk Modulus (GPa) = 21.31784 43.18833 32.25308
# Shear Modulus (GPa) = 22.78292 30.78502 26.78397
#
# Velocity S-wave (km/s) = 3.20734 3.72829 3.47758
# Velocity P-wave (km/s) = 4.83130 6.16717 5.53965
#
# Compressibility (1/GPa) = 0.04690906
#
# Stress axis : x y z
#
# Youngs Moduli (GPa) = 34.20417 53.36747 122.15585
#
# Poissons Ratio (x) = -0.16470 0.45681
# Poissons Ratio (y) = -0.10556 0.48524
# Poissons Ratio (z) = 0.12791 0.21199
#
# Static dielectric constant tensor:
#      x y z
#    x 1.836350 0.007970 -0.047160 
#    y 0.007970 1.844000 -0.039520 
#    z -0.047160 -0.039520 1.906730 
# 
# From -- ./inp_files/457708.got.cif
#   From: 2010.05.17/outbox.cif.g08.bks.cpg/sg2_229_cif.got.tgz:457708.got - 2010.06.03 11:33:40.
