data_PCOD9004727
_publ_section_title
;
Structure prediction by ZEFSAII (Michael W. Deem and Ramdas Pophale) SiO2 
 PCOD9004727
Probable space group: P -1
;
_chemical_formula_sum "Si O2"
_cell_formula_units_Z 12
_cell_length_a 10.542241
_cell_length_b 8.770566
_cell_length_c 10.962522
_cell_angle_alpha 70.125158
_cell_angle_beta 107.704981
_cell_angle_gamma 48.970977
_cell_volume 481.100059
_symmetry_space_group_name_H-M "P -1"
_symmetry_group_IT_number 2
_symmetry_cell_setting 'triclinic'
loop_
_space_group_symop_operation_xyz
x,y,z
-x,-y,-z
loop_
_atom_site_type_symbol
_atom_site_label
_atom_site_fract_x
_atom_site_fract_y
_atom_site_fract_z
Si Si1 0.975697 0.825367 0.790591
Si Si2 0.673957 0.047794 0.019201
Si Si3 0.260916 0.735786 0.721611
Si Si4 0.147949 0.758163 0.218775
Si Si5 0.608701 0.842668 0.869749
Si Si6 0.601789 0.098225 0.410995
O O1 0.185504 0.735869 0.826956
O O2 0.787675 0.149545 0.706562
O O3 0.841097 0.863538 0.633093
O O4 0.146977 0.518553 0.992172
O O5 0.478064 0.392317 0.833475
O O6 0.694179 0.919253 0.937953
O O7 0.554012 0.069776 0.090464
O O8 0.941447 0.846844 0.187819
O O9 0.349270 0.826140 0.706210
O O10 0.000000 0.000000 0.500000
O O11 0.376315 0.414121 0.332904
O O12 0.000000 0.000000 0.000000
O O13 0.461557 0.999690 0.654817
#
# Coordination Sequence:
#
# PCOD9004727 Si02
#       6
#     2   2   2   2   2   2
#     4  10  21  38  58  85 116 148 196 235 277 337
#     4  10  21  38  60  85 115 153 188 233 287 338
#     4   9  18  35  59  85 109 146 193 238 273 325
#     4  12  21  36  60  86 115 151 189 237 286 332
#     4  10  21  40  61  81 117 154 188 232 284 340
#     4  11  21  37  60  87 114 151 191 236 285 334
#
# _framework density 24.942837999999998
#
# number of rings (size 3 to 8) (size 9 to 14) (size 15 to 20)
#    0.000    1.667    3.333    1.500    0.000    3.333 
#    0.000   17.500    0.000    0.000    0.000    0.000 
#    0.000    0.000    0.000    0.000    0.000    0.000 
#
# Total GULP energy -67007.712415 kJ/mol
# GULP energy per Si atom -5583.976035 kJ/mol
# Density = 2.488607 g / cm^3
# Si number density = 24.942838 Si / 1000 Ang^3
#
#
#
# Elastic Constant Matrix: (Units=GPa)
#
#
# Indices 1 2 3 4 5 6 
#
# 1 59.9743 9.0820 3.9573 -5.2492 8.8835 -5.7315
# 2 9.0820 118.6617 22.4946 28.7521 29.1398 16.6540
# 3 3.9573 22.4946 84.2794 19.1844 22.7307 6.6765
# 4 -5.2492 28.7521 19.1844 42.9670 7.7765 20.9951
# 5 8.8835 29.1398 22.7307 7.7765 23.5154 2.7720
# 6 -5.7315 16.6540 6.6765 20.9951 2.7720 33.1879
#
#
#
# Elastic Compliance Matrix: (Units=1/GPa)
#
#
# Indices 1 2 3 4 5 6 
#
# 1 0.018355 -0.000499 0.000681 0.002612 -0.008110 0.002308
# 2 -0.000499 0.014122 0.002597 -0.006466 -0.017430 -0.002149
# 3 0.000681 0.002597 0.017518 -0.006667 -0.018327 0.001039
# 4 0.002612 -0.006466 -0.006667 0.040653 0.002489 -0.020888
# 5 -0.008110 -0.017430 -0.018327 0.002489 0.083790 0.002460
# 6 0.002308 -0.002149 0.001039 -0.020888 0.002460 0.044408
#
#
# Mechanical properties :
#
#
# Convention : Reuss Voigt Hill
#
# Bulk Modulus (GPa) = 18.00082 37.10924 27.55503
# Shear Modulus (GPa) = 21.56976 35.09280 28.33128
#
# Velocity S-wave (km/s) = 2.94388 3.75497 3.37389
# Velocity P-wave (km/s) = 4.33449 5.80601 5.12336
#
# Compressibility (1/GPa) = 0.05555302
#
# Stress axis : x y z
#
# Youngs Moduli (GPa) = 54.48129 70.81309 57.08277
#
# Poissons Ratio (x) = 0.03536 -0.03888
# Poissons Ratio (y) = 0.02721 -0.14826
# Poissons Ratio (z) = -0.03711 -0.18392
#
# Static dielectric constant tensor:
#      x y z
#    x 2.072000 -0.031490 0.010890 
#    y -0.031490 2.019990 0.067870 
#    z 0.010890 0.067870 1.935780 
# 
# From -- ./inp_files/151501.got.cif
#   From: 2010.05.17/outbox.cif.g08.bks.cpg/sg2_76_cif.got.tgz:151501.got - 2010.06.03 11:33:40.
