data_PCOD9004970
_publ_section_title
;
Structure prediction by ZEFSAII (Michael W. Deem and Ramdas Pophale) SiO2 
 PCOD9004970
Probable space group: P -1
;
_chemical_formula_sum "Si O2"
_cell_formula_units_Z 14
_cell_length_a 14.944815
_cell_length_b 16.267278
_cell_length_c 7.650207
_cell_angle_alpha 50.284202
_cell_angle_beta 118.002876
_cell_angle_gamma 153.793020
_cell_volume 601.587897
_symmetry_space_group_name_H-M "P -1"
_symmetry_group_IT_number 2
_symmetry_cell_setting 'triclinic'
loop_
_space_group_symop_operation_xyz
x,y,z
-x,-y,-z
loop_
_atom_site_type_symbol
_atom_site_label
_atom_site_fract_x
_atom_site_fract_y
_atom_site_fract_z
Si Si1 0.421747 0.903225 0.285469
Si Si2 0.150306 0.000644 0.489282
Si Si3 0.855528 0.560510 0.387675
Si Si4 0.844025 0.294815 0.335081
Si Si5 0.704753 0.667874 0.579262
Si Si6 0.444522 0.569542 0.895724
Si Si7 0.120603 0.759323 0.009236
O O1 0.318672 0.695146 0.423907
O O2 0.292754 0.814996 0.464029
O O3 0.349603 0.927222 0.052064
O O4 0.666956 0.122630 0.259390
O O5 0.233192 0.166967 0.480460
O O6 0.331859 0.162403 0.287622
O O7 0.917182 0.826935 0.456905
O O8 0.130447 0.871044 0.746377
O O9 0.722050 0.542561 0.249022
O O10 0.005883 0.668688 0.541068
O O11 0.998686 0.679663 0.183961
O O12 0.983423 0.531397 0.124087
O O13 0.500000 0.500000 0.500000
O O14 0.650084 0.524948 0.867513
O O15 0.500000 0.500000 0.000000
#
# Coordination Sequence:
#
# PCOD9004970 Si02
#       7
#     2   2   2   2   2   2   2
#     4   8  15  28  49  82 110 144 187 224 280 333
#     4  10  21  38  60  85 114 153 189 238 291 333
#     4   9  16  32  52  78 112 149 186 228 280 332
#     4   8  15  28  50  79 112 145 183 233 273 333
#     4  10  22  41  60  83 112 150 197 239 287 342
#     4  10  21  39  61  83 117 152 191 239 286 340
#     4   9  16  30  55  80 111 145 187 229 276 339
#
# _framework density 23.271744000000002
#
# number of rings (size 3 to 8) (size 9 to 14) (size 15 to 20)
#    0.000    2.857    1.429    1.714    0.000    1.714 
#    5.143    5.714    0.000    1.714    0.000    0.000 
#    0.000    0.000    0.000    0.000    0.000    0.000 
#
# Total GULP energy -78252.075417 kJ/mol
# GULP energy per Si atom -5589.433958 kJ/mol
# Density = 2.321878 g / cm^3
# Si number density = 23.271744 Si / 1000 Ang^3
#
#
#
# Elastic Constant Matrix: (Units=GPa)
#
#
# Indices 1 2 3 4 5 6 
#
# 1 59.6498 45.7957 30.0143 9.2765 13.0146 25.8802
# 2 45.7957 217.3783 70.7644 18.4851 19.7779 33.2968
# 3 30.0143 70.7644 145.6515 3.2914 13.5667 11.5196
# 4 9.2765 18.4851 3.2914 32.1667 18.3183 -1.7320
# 5 13.0146 19.7779 13.5667 18.3183 38.6146 10.2679
# 6 25.8802 33.2968 11.5196 -1.7320 10.2679 39.0636
#
#
#
# Elastic Compliance Matrix: (Units=1/GPa)
#
#
# Indices 1 2 3 4 5 6 
#
# 1 0.028205 -0.001548 -0.003628 -0.008378 0.001041 -0.016941
# 2 -0.001548 0.006677 -0.002589 -0.003955 0.001045 -0.004352
# 3 -0.003628 -0.002589 0.008838 0.003496 -0.002998 0.002947
# 4 -0.008378 -0.003955 0.003496 0.050377 -0.024695 0.016616
# 5 0.001041 0.001045 -0.002998 -0.024695 0.041131 -0.012602
# 6 -0.016941 -0.004352 0.002947 0.016616 -0.012602 0.043713
#
#
# Mechanical properties :
#
#
# Convention : Reuss Voigt Hill
#
# Bulk Modulus (GPa) = 35.47262 79.53648 57.50455
# Shear Modulus (GPa) = 24.52576 40.37601 32.45088
#
# Velocity S-wave (km/s) = 3.24988 4.16983 3.73826
# Velocity P-wave (km/s) = 5.41832 7.57857 6.58760
#
# Compressibility (1/GPa) = 0.02819076
#
# Stress axis : x y z
#
# Youngs Moduli (GPa) = 35.45505 149.76590 113.14512
#
# Poissons Ratio (x) = 0.23189 0.41044
# Poissons Ratio (y) = 0.05490 0.29290
# Poissons Ratio (z) = 0.12862 0.38770
#
# Static dielectric constant tensor:
#      x y z
#    x 1.954360 -0.001830 -0.084790 
#    y -0.001830 1.877930 -0.002850 
#    z -0.084790 -0.002850 1.894890 
# 
# From -- ./inp_files/201761.got.cif
#   From: 2010.05.17/outbox.cif.g08.bks.cpg/sg2_101_cif.got.tgz:201761.got - 2010.06.03 11:33:40.
