data_PCOD9004954
_publ_section_title
;
Structure prediction by ZEFSAII (Michael W. Deem and Ramdas Pophale) SiO2 
 PCOD9004954
Probable space group: P -1
;
_chemical_formula_sum "Si O2"
_cell_formula_units_Z 16
_cell_length_a 11.873679
_cell_length_b 13.311927
_cell_length_c 11.630054
_cell_angle_alpha 45.244251
_cell_angle_beta 113.201205
_cell_angle_gamma 75.961158
_cell_volume 725.213043
_symmetry_space_group_name_H-M "P -1"
_symmetry_group_IT_number 2
_symmetry_cell_setting 'triclinic'
loop_
_space_group_symop_operation_xyz
x,y,z
-x,-y,-z
loop_
_atom_site_type_symbol
_atom_site_label
_atom_site_fract_x
_atom_site_fract_y
_atom_site_fract_z
Si Si1 0.288278 0.253748 0.756918
Si Si2 0.650203 0.951643 0.721683
Si Si3 0.061195 0.147126 0.226564
Si Si4 0.057921 0.232094 0.809428
Si Si5 0.657857 0.647022 0.055835
Si Si6 0.815234 0.632020 0.732732
Si Si7 0.787367 0.965960 0.381592
Si Si8 0.002524 0.890305 0.324095
O O1 0.141150 0.257705 0.720004
O O2 0.148801 0.503292 0.441949
O O3 0.333691 0.281651 0.875686
O O4 0.500000 0.000000 0.000000
O O5 0.410392 0.176506 0.462256
O O6 0.734628 0.955565 0.642778
O O7 0.703769 0.734770 0.917696
O O8 0.772354 0.913399 0.906955
O O9 0.056126 0.135813 0.371945
O O10 0.051688 0.007120 0.273186
O O11 0.884145 0.413931 0.896783
O O12 0.025054 0.120202 0.813466
O O13 0.430670 0.798919 0.841039
O O14 0.818563 0.374821 0.341941
O O15 0.802401 0.780648 0.524459
O O16 0.000000 0.500000 0.000000
O O17 0.819025 0.015003 0.234740
#
# Coordination Sequence:
#
# PCOD9004954 Si02
#       8
#     2   2   2   2   2   2   2   2
#     4   9  16  31  56  86 114 146 193 242 286 335
#     4  10  21  39  59  85 116 148 198 241 287 349
#     4  11  24  37  57  85 118 157 191 239 292 344
#     4   9  20  34  54  83 117 155 190 235 287 342
#     4   9  20  35  59  86 109 147 192 242 294 336
#     4   9  21  40  62  86 112 150 196 245 294 342
#     4  10  21  38  60  83 109 150 200 244 286 336
#     4  11  22  38  56  84 122 153 190 236 290 351
#
# _framework density 22.062480999999998
#
# number of rings (size 3 to 8) (size 9 to 14) (size 15 to 20)
#    0.000    2.250    0.000    2.625    0.000   11.500 
#    0.000    0.625    0.000    0.000    0.000    0.000 
#    0.000    0.000    0.000    0.000    0.000    0.000 
#
# Total GULP energy -89301.200545 kJ/mol
# GULP energy per Si atom -5581.325034 kJ/mol
# Density = 2.201227 g / cm^3
# Si number density = 22.062481 Si / 1000 Ang^3
#
#
#
# Elastic Constant Matrix: (Units=GPa)
#
#
# Indices 1 2 3 4 5 6 
#
# 1 78.7881 26.6145 36.9601 -19.0925 2.6044 -0.4149
# 2 26.6145 111.4288 47.2548 -9.8444 -4.2984 16.3024
# 3 36.9601 47.2548 101.0705 -2.3181 17.2079 3.5954
# 4 -19.0925 -9.8444 -2.3181 39.2786 -5.0819 -9.3844
# 5 2.6044 -4.2984 17.2079 -5.0819 24.5009 -6.7058
# 6 -0.4149 16.3024 3.5954 -9.3844 -6.7058 34.7363
#
#
#
# Elastic Compliance Matrix: (Units=1/GPa)
#
#
# Indices 1 2 3 4 5 6 
#
# 1 0.019033 -0.000888 -0.007700 0.010857 0.007051 0.005736
# 2 -0.000888 0.013016 -0.006713 0.002465 0.006654 -0.003474
# 3 -0.007700 -0.006713 0.018540 -0.007337 -0.015977 -0.003927
# 4 0.010857 0.002465 -0.007337 0.035848 0.015250 0.012361
# 5 0.007051 0.006654 -0.015977 0.015250 0.059510 0.014224
# 6 0.005736 -0.003474 -0.003927 0.012361 0.014224 0.036979
#
#
# Mechanical properties :
#
#
# Convention : Reuss Voigt Hill
#
# Bulk Modulus (GPa) = 50.03661 56.99403 53.51532
# Shear Modulus (GPa) = 22.70744 31.73368 27.22056
#
# Velocity S-wave (km/s) = 3.21165 3.79668 3.51635
# Velocity P-wave (km/s) = 6.04000 6.71631 6.38711
#
# Compressibility (1/GPa) = 0.01998537
#
# Stress axis : x y z
#
# Youngs Moduli (GPa) = 52.54151 76.82661 53.93615
#
# Poissons Ratio (x) = 0.06826 0.41531
# Poissons Ratio (y) = 0.04668 0.36210
# Poissons Ratio (z) = 0.40457 0.51578
#
# Static dielectric constant tensor:
#      x y z
#    x 1.833180 -0.016150 0.010710 
#    y -0.016150 1.876560 0.026740 
#    z 0.010710 0.026740 1.869790 
# 
# From -- ./inp_files/427629.got.cif
#   From: 2010.05.17/outbox.cif.g08.bks.cpg/sg2_214_cif.got.tgz:427629.got - 2010.06.03 11:33:40.
