data_PCOD9004514
_publ_section_title
;
Structure prediction by ZEFSAII (Michael W. Deem and Ramdas Pophale) SiO2 
 PCOD9004514
Probable space group: P -1
;
_chemical_formula_sum "Si O2"
_cell_formula_units_Z 16
_cell_length_a 13.487754
_cell_length_b 7.667793
_cell_length_c 9.339382
_cell_angle_alpha 105.900268
_cell_angle_beta 92.279599
_cell_angle_gamma 48.731661
_cell_volume 684.817979
_symmetry_space_group_name_H-M "P -1"
_symmetry_group_IT_number 2
_symmetry_cell_setting 'triclinic'
loop_
_space_group_symop_operation_xyz
x,y,z
-x,-y,-z
loop_
_atom_site_type_symbol
_atom_site_label
_atom_site_fract_x
_atom_site_fract_y
_atom_site_fract_z
Si Si1 0.133210 0.456845 0.657755
Si Si2 0.410586 0.284089 0.666498
Si Si3 0.080402 0.555198 0.342735
Si Si4 0.477781 0.208424 0.955571
Si Si5 0.131205 0.105976 0.145901
Si Si6 0.248735 0.631470 0.211786
Si Si7 0.674250 0.200716 0.143762
Si Si8 0.507932 0.685392 0.615015
O O1 0.283376 0.311321 0.672696
O O2 0.113954 0.534748 0.507337
O O3 0.073697 0.326738 0.643695
O O4 0.029128 0.705416 0.800150
O O5 0.503949 0.137338 0.775535
O O6 0.356038 0.557366 0.756464
O O7 0.471025 0.210933 0.494860
O O8 0.125246 0.668606 0.276335
O O9 0.160219 0.280155 0.225986
O O10 0.324276 0.453509 0.038176
O O11 0.573176 0.252237 0.025691
O O12 0.500000 0.000000 0.000000
O O13 0.200381 0.887538 0.215333
O O14 0.182175 0.000700 0.966225
O O15 0.364752 0.478542 0.306363
O O16 0.626599 0.134327 0.257611
O O17 0.500000 0.500000 0.500000
#
# Coordination Sequence:
#
# PCOD9004514 Si02
#       8
#     2   2   2   2   2   2   2   2
#     4   9  21  41  64  95 133 175 217 281 329 393
#     4  11  20  42  67  93 134 173 219 278 329 391
#     4   9  20  42  61  93 138 171 224 267 331 394
#     4  11  24  40  65  96 130 179 221 267 342 400
#     4  10  21  37  68  96 130 181 219 263 337 398
#     4  11  20  40  65  93 130 178 223 267 334 401
#     4  10  21  40  63  95 131 171 216 271 331 396
#     4   9  21  35  63  93 131 167 215 279 320 389
#
# _framework density 23.363873999999999
#
# number of rings (size 3 to 8) (size 9 to 14) (size 15 to 20)
#    0.750    1.250    2.500    1.125    3.500    1.000 
#    0.000    8.125    0.000    0.000    0.000    0.000 
#    0.000    0.000    0.000    0.000    0.000    0.000 
#
# Total GULP energy -89367.889767 kJ/mol
# GULP energy per Si atom -5585.493110 kJ/mol
# Density = 2.331070 g / cm^3
# Si number density = 23.363874 Si / 1000 Ang^3
#
#
#
# Elastic Constant Matrix: (Units=GPa)
#
#
# Indices 1 2 3 4 5 6 
#
# 1 105.4902 21.9760 33.3662 -11.4691 -8.5017 5.3390
# 2 21.9760 61.3984 26.8091 -6.0706 -10.3092 6.7222
# 3 33.3662 26.8091 148.2011 -4.6567 -24.6735 0.2729
# 4 -11.4691 -6.0706 -4.6567 30.3516 1.9015 -5.9251
# 5 -8.5017 -10.3092 -24.6735 1.9015 38.6535 -3.1291
# 6 5.3390 6.7222 0.2729 -5.9251 -3.1291 25.8987
#
#
#
# Elastic Compliance Matrix: (Units=1/GPa)
#
#
# Indices 1 2 3 4 5 6 
#
# 1 0.011034 -0.002691 -0.001844 0.003174 0.000312 -0.000793
# 2 -0.002691 0.019305 -0.002388 0.001580 0.002651 -0.003749
# 3 -0.001844 -0.002388 0.008326 0.000115 0.004385 0.001468
# 4 0.003174 0.001580 0.000115 0.035874 0.000006 0.007142
# 5 0.000312 0.002651 0.004385 0.000006 0.029671 0.002788
# 6 -0.000793 -0.003749 0.001468 0.007142 0.002788 0.041704
#
#
# Mechanical properties :
#
#
# Convention : Reuss Voigt Hill
#
# Bulk Modulus (GPa) = 40.29487 53.26584 46.78036
# Shear Modulus (GPa) = 29.75597 34.50998 32.13298
#
# Velocity S-wave (km/s) = 3.57261 3.84743 3.71256
# Velocity P-wave (km/s) = 5.85680 6.52571 6.20028
#
# Compressibility (1/GPa) = 0.02481705
#
# Stress axis : x y z
#
# Youngs Moduli (GPa) = 90.63043 51.80017 120.10789
#
# Poissons Ratio (x) = 0.13940 0.22152
# Poissons Ratio (y) = 0.24389 0.28687
# Poissons Ratio (z) = 0.16715 0.12372
#
# Static dielectric constant tensor:
#      x y z
#    x 1.887270 0.004750 -0.008900 
#    y 0.004750 1.938830 -0.006390 
#    z -0.008900 -0.006390 1.917790 
# 
# From -- ./inp_files/296099.got.cif
#   From: 2010.05.17/outbox.cif.g08.bks.cpg/sg2_149_cif.got.tgz:296099.got - 2010.06.03 11:33:40.
