data_PCOD9004230
_publ_section_title
;
Structure prediction by ZEFSAII (Michael W. Deem and Ramdas Pophale) SiO2 
 PCOD9004230
Probable space group: P -1
;
_chemical_formula_sum "Si O2"
_cell_formula_units_Z 16
_cell_length_a 15.510039
_cell_length_b 11.721923
_cell_length_c 7.518550
_cell_angle_alpha 128.142638
_cell_angle_beta 143.607516
_cell_angle_gamma 55.332706
_cell_volume 630.282474
_symmetry_space_group_name_H-M "P -1"
_symmetry_group_IT_number 2
_symmetry_cell_setting 'triclinic'
loop_
_space_group_symop_operation_xyz
x,y,z
-x,-y,-z
loop_
_atom_site_type_symbol
_atom_site_label
_atom_site_fract_x
_atom_site_fract_y
_atom_site_fract_z
Si Si1 0.166588 0.611226 0.600589
Si Si2 0.996130 0.826047 0.808337
Si Si3 0.387388 0.404106 0.310351
Si Si4 0.157008 0.660061 0.238050
Si Si5 0.394362 0.989592 0.519013
Si Si6 0.511908 0.308426 0.803158
Si Si7 0.407944 0.847138 0.762180
Si Si8 0.244248 0.290861 0.555805
O O1 0.100200 0.739965 0.748661
O O2 0.100136 0.638813 0.320291
O O3 0.156347 0.446941 0.493747
O O4 0.339078 0.624349 0.881490
O O5 0.841901 0.761435 0.468033
O O6 0.046313 0.754353 0.013102
O O7 0.000000 0.000000 0.000000
O O8 0.500000 0.500000 0.500000
O O9 0.228872 0.502786 0.123703
O O10 0.416843 0.375752 0.540396
O O11 0.443497 0.249587 0.162101
O O12 0.294796 0.750952 0.564709
O O13 0.560708 0.139216 0.667954
O O14 0.410554 0.326282 0.827059
O O15 0.331294 0.920703 0.526418
O O16 0.535640 0.044741 0.899439
O O17 0.282016 0.123568 0.376938
#
# Coordination Sequence:
#
# PCOD9004230 Si02
#       8
#     2   2   2   2   2   2   2   2
#     4  12  26  46  75 108 138 187 240 292 359 424
#     4  12  29  52  71  96 147 194 237 292 359 425
#     4   9  18  34  63 102 139 180 225 289 351 406
#     4  11  23  43  72  98 136 186 238 291 351 418
#     4  10  21  37  65 101 146 184 227 290 356 411
#     4  11  22  42  68 106 145 182 235 292 354 413
#     4   9  19  36  62 103 138 184 234 284 351 420
#     4  12  25  42  68 105 141 187 236 294 349 421
#
# _framework density 25.385445000000001
#
# number of rings (size 3 to 8) (size 9 to 14) (size 15 to 20)
#    0.000    1.250    1.250    5.625    5.250    2.000 
#    0.000    2.500    0.000    0.000    0.000    0.000 
#    0.000    0.000    0.000    0.000    0.000    0.000 
#
# Total GULP energy -89301.955148 kJ/mol
# GULP energy per Si atom -5581.372197 kJ/mol
# Density = 2.532767 g / cm^3
# Si number density = 25.385445 Si / 1000 Ang^3
#
#
#
# Elastic Constant Matrix: (Units=GPa)
#
#
# Indices 1 2 3 4 5 6 
#
# 1 136.9463 67.0806 35.5186 13.4786 -2.2429 10.9841
# 2 67.0806 227.1444 47.3431 15.3969 -16.5314 -1.5735
# 3 35.5186 47.3431 83.8608 13.8976 1.4822 1.3967
# 4 13.4786 15.3969 13.8976 45.3677 4.2964 -3.8262
# 5 -2.2429 -16.5314 1.4822 4.2964 45.2032 2.8298
# 6 10.9841 -1.5735 1.3967 -3.8262 2.8298 37.3098
#
#
#
# Elastic Compliance Matrix: (Units=1/GPa)
#
#
# Indices 1 2 3 4 5 6 
#
# 1 0.009390 -0.002172 -0.002445 -0.001559 0.000083 -0.002931
# 2 -0.002172 0.005716 -0.002232 -0.000746 0.002081 0.000730
# 3 -0.002445 -0.002232 0.014729 -0.002932 -0.001133 -0.000140
# 4 -0.001559 -0.000746 -0.002932 0.024190 -0.002755 0.003227
# 5 0.000083 0.002081 -0.001133 -0.002755 0.023308 -0.001945
# 6 -0.002931 0.000730 -0.000140 0.003227 -0.001945 0.028180
#
#
# Mechanical properties :
#
#
# Convention : Reuss Voigt Hill
#
# Bulk Modulus (GPa) = 61.97391 83.09290 72.53341
# Shear Modulus (GPa) = 40.13121 45.44344 42.78732
#
# Velocity S-wave (km/s) = 3.98033 4.23559 4.10995
# Velocity P-wave (km/s) = 6.75206 7.53153 7.15242
#
# Compressibility (1/GPa) = 0.01613582
#
# Stress axis : x y z
#
# Youngs Moduli (GPa) = 106.49523 174.93685 67.89413
#
# Poissons Ratio (x) = 0.37997 0.16602
# Poissons Ratio (y) = 0.23131 0.15157
# Poissons Ratio (z) = 0.26041 0.39053
#
# Static dielectric constant tensor:
#      x y z
#    x 2.043790 0.047420 0.048050 
#    y 0.047420 2.123070 -0.084840 
#    z 0.048050 -0.084840 2.190030 
# 
# From -- ./inp_files/308404.got.cif
#   From: 2010.05.17/outbox.cif.g08.bks.cpg/sg2_155_cif.got.tgz:308404.got - 2010.06.03 11:33:40.
