data_PCOD9004288
_publ_section_title
;
Structure prediction by ZEFSAII (Michael W. Deem and Ramdas Pophale) SiO2 
 PCOD9004288
Probable space group: P -1
;
_chemical_formula_sum "Si O2"
_cell_formula_units_Z 16
_cell_length_a 9.054959
_cell_length_b 13.236491
_cell_length_c 8.061653
_cell_angle_alpha 98.468488
_cell_angle_beta 112.217410
_cell_angle_gamma 126.732562
_cell_volume 619.468852
_symmetry_space_group_name_H-M "P -1"
_symmetry_group_IT_number 2
_symmetry_cell_setting 'triclinic'
loop_
_space_group_symop_operation_xyz
x,y,z
-x,-y,-z
loop_
_atom_site_type_symbol
_atom_site_label
_atom_site_fract_x
_atom_site_fract_y
_atom_site_fract_z
Si Si1 0.620557 0.675776 0.951657
Si Si2 0.731934 0.007986 0.891626
Si Si3 0.235787 0.761353 0.592135
Si Si4 0.816210 0.848311 0.728420
Si Si5 0.740188 0.403291 0.985402
Si Si6 0.258218 0.386116 0.536828
Si Si7 0.808747 0.462605 0.667278
Si Si8 0.953232 0.250446 0.806432
O O1 0.701228 0.758674 0.830841
O O2 0.444148 0.505741 0.779518
O O3 0.476703 0.681044 0.013083
O O4 0.852262 0.743664 0.150070
O O5 0.472935 0.894216 0.812358
O O6 0.748314 0.935662 0.724287
O O7 0.835788 0.160282 0.903641
O O8 0.913104 0.044881 0.106933
O O9 0.225571 0.635347 0.517496
O O10 0.995069 0.690355 0.541191
O O11 0.236095 0.818669 0.428526
O O12 0.745593 0.734763 0.533302
O O13 0.698992 0.366221 0.765052
O O14 0.892397 0.577032 0.082936
O O15 0.921077 0.410832 0.150115
O O16 0.290494 0.473012 0.408227
#
# Coordination Sequence:
#
# PCOD9004288 Si02
#       8
#     2   2   2   2   2   2   2   2
#     4  11  21  39  67  92 132 163 202 266 327 376
#     4  10  22  43  65  84 127 173 220 256 309 369
#     4  11  23  39  66  91 130 169 214 259 312 380
#     4  10  24  41  65  94 126 168 212 265 316 373
#     4  10  21  37  65  93 131 164 204 260 329 376
#     4  12  23  39  65 101 129 163 211 263 324 378
#     4  10  21  38  60 100 129 162 206 263 321 381
#     4  10  21  40  63  90 125 172 206 261 313 375
#
# _framework density 25.828579000000001
#
# number of rings (size 3 to 8) (size 9 to 14) (size 15 to 20)
#    0.000    1.500    2.500    3.750    1.750    1.500 
#    0.000    0.625   19.250    0.000    0.000    0.000 
#    0.000    0.000    0.000    0.000    0.000    0.000 
#
# Total GULP energy -89545.759335 kJ/mol
# GULP energy per Si atom -5596.609958 kJ/mol
# Density = 2.576979 g / cm^3
# Si number density = 25.828579 Si / 1000 Ang^3
#
#
#
# Elastic Constant Matrix: (Units=GPa)
#
#
# Indices 1 2 3 4 5 6 
#
# 1 105.4528 15.2076 46.0341 15.1177 9.7655 6.9279
# 2 15.2076 68.6885 16.5975 18.0940 1.2638 1.7710
# 3 46.0341 16.5975 81.6542 19.0279 21.8433 9.1099
# 4 15.1177 18.0940 19.0279 38.5029 5.4840 10.1095
# 5 9.7655 1.2638 21.8433 5.4840 52.2290 3.4930
# 6 6.9279 1.7710 9.1099 10.1095 3.4930 47.1908
#
#
#
# Elastic Compliance Matrix: (Units=1/GPa)
#
#
# Indices 1 2 3 4 5 6 
#
# 1 0.012736 -0.000842 -0.006866 -0.001227 0.000659 -0.000299
# 2 -0.000842 0.017039 -0.001736 -0.007325 0.001153 0.001303
# 3 -0.006866 -0.001736 0.019396 -0.004885 -0.006195 -0.001166
# 4 -0.001227 -0.007325 -0.004885 0.033942 -0.000725 -0.005819
# 5 0.000659 0.001153 -0.006195 -0.000725 0.021689 -0.000394
# 6 -0.000299 0.001303 -0.001166 -0.005819 -0.000394 0.022686
#
#
# Mechanical properties :
#
#
# Convention : Reuss Voigt Hill
#
# Bulk Modulus (GPa) = 33.02043 45.71930 39.36986
# Shear Modulus (GPa) = 31.95482 39.44829 35.70156
#
# Velocity S-wave (km/s) = 3.52118 3.91232 3.72190
# Velocity P-wave (km/s) = 5.41700 6.17639 5.80912
#
# Compressibility (1/GPa) = 0.03028428
#
# Stress axis : x y z
#
# Youngs Moduli (GPa) = 78.51652 58.68853 51.55613
#
# Poissons Ratio (x) = 0.04940 0.35400
# Poissons Ratio (y) = 0.06609 0.08948
# Poissons Ratio (z) = 0.53911 0.10186
#
# Static dielectric constant tensor:
#      x y z
#    x 2.060160 -0.008400 -0.028190 
#    y -0.008400 2.093600 -0.021900 
#    z -0.028190 -0.021900 2.080930 
# 
# From -- ./inp_files/205016.got.cif
#   From: 2010.05.17/outbox.cif.g08.bks.cpg/sg2_103_cif.got.tgz:205016.got - 2010.06.03 11:33:40.
