data_PCOD9004712
_publ_section_title
;
Structure prediction by ZEFSAII (Michael W. Deem and Ramdas Pophale) SiO2 
 PCOD9004712
Probable space group: P -1
;
_chemical_formula_sum "Si O2"
_cell_formula_units_Z 16
_cell_length_a 7.951224
_cell_length_b 20.362347
_cell_length_c 4.954626
_cell_angle_alpha 69.477635
_cell_angle_beta 115.232634
_cell_angle_gamma 130.063016
_cell_volume 551.985938
_symmetry_space_group_name_H-M "P -1"
_symmetry_group_IT_number 2
_symmetry_cell_setting 'triclinic'
loop_
_space_group_symop_operation_xyz
x,y,z
-x,-y,-z
loop_
_atom_site_type_symbol
_atom_site_label
_atom_site_fract_x
_atom_site_fract_y
_atom_site_fract_z
Si Si1 0.607157 0.337600 0.321614
Si Si2 0.173651 0.375786 0.412976
Si Si3 0.753336 0.856124 0.167623
Si Si4 0.118106 0.242680 0.975520
Si Si5 0.721920 0.231474 0.181202
Si Si6 0.800911 0.992963 0.597593
Si Si7 0.319657 0.556929 0.308539
Si Si8 0.669977 0.091110 0.748999
O O1 0.679440 0.282332 0.305942
O O2 0.734124 0.391993 0.597209
O O3 0.331482 0.273597 0.270467
O O4 0.643950 0.404769 0.019100
O O5 0.133420 0.321679 0.732240
O O6 0.151859 0.454017 0.330937
O O7 0.436724 0.419854 0.450322
O O8 0.985094 0.303723 0.182796
O O9 0.817927 0.794935 0.182229
O O10 0.483314 0.801992 0.122507
O O11 0.784001 0.915165 0.847202
O O12 0.938197 0.927120 0.402277
O O13 0.862367 0.159949 0.990546
O O14 0.694043 0.153393 0.434329
O O15 0.599296 0.963717 0.287435
O O16 0.735264 0.033233 0.735383
#
# Coordination Sequence:
#
# PCOD9004712 Si02
#       8
#     2   2   2   2   2   2   2   2
#     4  10  21  38  58  83 116 153 192 237 287 339
#     4   9  19  34  54  78 108 149 194 239 285 339
#     4   8  13  22  40  70 112 149 186 230 283 337
#     4   8  15  28  46  70 109 148 187 231 282 336
#     4   9  17  31  50  76 114 150 191 238 287 338
#     4   8  12  19  38  71 112 148 187 229 278 338
#     4  10  22  39  59  82 113 154 195 236 287 341
#     4   8  13  23  41  71 112 148 188 231 279 335
#
# _framework density 28.986249000000001
#
# number of rings (size 3 to 8) (size 9 to 14) (size 15 to 20)
#    0.000    3.250    0.000    0.000    0.000    5.500 
#    0.000    3.750    0.000    0.000    0.000    0.000 
#    0.000 1716.000    0.000    0.000    0.000  214.625 
#
# Total GULP energy -89744.406049 kJ/mol
# GULP energy per Si atom -5609.025378 kJ/mol
# Density = 2.892028 g / cm^3
# Si number density = 28.986249 Si / 1000 Ang^3
#
#
#
# Elastic Constant Matrix: (Units=GPa)
#
#
# Indices 1 2 3 4 5 6 
#
# 1 69.8536 16.1954 38.5468 -16.1058 13.7323 21.3463
# 2 16.1954 144.9627 32.9760 1.7798 -10.4698 7.7066
# 3 38.5468 32.9760 100.1327 5.4480 -3.3380 7.0460
# 4 -16.1058 1.7798 5.4480 45.7251 2.2477 20.2219
# 5 13.7323 -10.4698 -3.3380 2.2477 53.1631 15.0305
# 6 21.3463 7.7066 7.0460 20.2219 15.0305 43.5389
#
#
#
# Elastic Compliance Matrix: (Units=1/GPa)
#
#
# Indices 1 2 3 4 5 6 
#
# 1 0.037550 -0.000161 -0.014093 0.027202 -0.004036 -0.027342
# 2 -0.000161 0.007669 -0.002304 0.000651 0.001908 -0.001866
# 3 -0.014093 -0.002304 0.016199 -0.010902 0.002111 0.009030
# 4 0.027202 0.000651 -0.010902 0.047684 -0.000036 -0.033822
# 5 -0.004036 0.001908 0.002111 -0.000036 0.022152 -0.006331
# 6 -0.027342 -0.001866 0.009030 -0.033822 -0.006331 0.053137
#
#
# Mechanical properties :
#
#
# Convention : Reuss Voigt Hill
#
# Bulk Modulus (GPa) = 35.33288 54.48727 44.91007
# Shear Modulus (GPa) = 22.03204 43.63413 32.83308
#
# Velocity S-wave (km/s) = 2.75996 3.88408 3.36923
# Velocity P-wave (km/s) = 4.72995 6.24125 5.53740
#
# Compressibility (1/GPa) = 0.02830225
#
# Stress axis : x y z
#
# Youngs Moduli (GPa) = 26.63096 130.38668 61.73324
#
# Poissons Ratio (x) = 0.02103 0.86999
# Poissons Ratio (y) = 0.00429 0.14224
# Poissons Ratio (z) = 0.37530 0.30043
#
# Static dielectric constant tensor:
#      x y z
#    x 2.380960 0.032160 0.108180 
#    y 0.032160 2.269120 0.082630 
#    z 0.108180 0.082630 2.114440 
# 
# From -- ./inp_files/52796.got.cif
#   From: 2010.05.17/outbox.cif.g08.bks.cpg/sg2_27_cif.got.tgz:52796.got - 2010.06.03 11:33:40.
