data_PCOD9004171
_publ_section_title
;
Structure prediction by ZEFSAII (Michael W. Deem and Ramdas Pophale) SiO2 
 PCOD9004171
Probable space group: P -1
;
_chemical_formula_sum "Si O2"
_cell_formula_units_Z 14
_cell_length_a 7.829783
_cell_length_b 10.567665
_cell_length_c 7.529316
_cell_angle_alpha 93.790205
_cell_angle_beta 120.390216
_cell_angle_gamma 79.310858
_cell_volume 527.787658
_symmetry_space_group_name_H-M "P -1"
_symmetry_group_IT_number 2
_symmetry_cell_setting 'triclinic'
loop_
_space_group_symop_operation_xyz
x,y,z
-x,-y,-z
loop_
_atom_site_type_symbol
_atom_site_label
_atom_site_fract_x
_atom_site_fract_y
_atom_site_fract_z
Si Si1 0.266627 0.733473 0.748674
Si Si2 0.429879 0.480097 0.659739
Si Si3 0.716125 0.217766 0.850646
Si Si4 0.811575 0.053391 0.573883
Si Si5 0.123909 0.322855 0.963415
Si Si6 0.056718 0.417472 0.301779
Si Si7 0.718802 0.930132 0.182925
O O1 0.433251 0.605007 0.794106
O O2 0.248316 0.820511 0.572927
O O3 0.062168 0.682120 0.680196
O O4 0.287523 0.809857 0.946322
O O5 0.500000 0.500000 0.500000
O O6 0.545003 0.342152 0.760585
O O7 0.198543 0.470207 0.518322
O O8 0.713341 0.094229 0.715470
O O9 0.912102 0.273943 0.889527
O O10 0.054412 0.031389 0.726146
O O11 0.728352 0.944908 0.405033
O O12 0.249823 0.211708 0.901261
O O13 0.081618 0.460101 0.854347
O O14 0.189922 0.346664 0.201381
O O15 0.500000 0.000000 0.000000
#
# Coordination Sequence:
#
# PCOD9004171 Si02
#       7
#     2   2   2   2   2   2   2
#     4  11  23  41  64  97 133 173 211 267 339 392
#     4  12  20  34  60  95 133 169 211 262 325 399
#     4  10  21  39  60  93 130 170 212 264 328 388
#     4  10  22  45  68  92 133 174 219 277 328 381
#     4   9  19  39  62  93 129 169 215 264 327 388
#     4  10  21  37  64  94 135 168 207 270 332 395
#     4  10  22  41  69  97 125 178 228 267 323 391
#
# _framework density 26.525818000000001
#
# number of rings (size 3 to 8) (size 9 to 14) (size 15 to 20)
#    0.000    1.714    2.857    1.714    2.000    0.000 
#    5.143   11.429    0.000    8.571    0.000    0.000 
#    0.000    0.000    0.000    0.000    0.000    0.000 
#
# Total GULP energy -78314.876367 kJ/mol
# GULP energy per Si atom -5593.919740 kJ/mol
# Density = 2.646544 g / cm^3
# Si number density = 26.525818 Si / 1000 Ang^3
#
#
#
# Elastic Constant Matrix: (Units=GPa)
#
#
# Indices 1 2 3 4 5 6 
#
# 1 111.1148 26.6059 36.1972 10.5075 0.8711 -8.8766
# 2 26.6059 124.8560 63.3025 29.4839 0.9880 -48.0527
# 3 36.1972 63.3025 142.1535 32.1311 -13.3152 -37.4127
# 4 10.5075 29.4839 32.1311 60.4916 -22.6724 -9.0058
# 5 0.8711 0.9880 -13.3152 -22.6724 31.6529 10.3833
# 6 -8.8766 -48.0527 -37.4127 -9.0058 10.3833 52.1931
#
#
#
# Elastic Compliance Matrix: (Units=1/GPa)
#
#
# Indices 1 2 3 4 5 6 
#
# 1 0.010008 -0.001147 -0.002233 -0.000623 -0.001366 -0.000790
# 2 -0.001147 0.018145 -0.002698 -0.010160 -0.014072 0.015623
# 3 -0.002233 -0.002698 0.010627 -0.002881 0.001237 0.004011
# 4 -0.000623 -0.010160 -0.002881 0.030762 0.024816 -0.011154
# 5 -0.001366 -0.014072 0.001237 0.024816 0.056695 -0.019299
# 6 -0.000790 0.015623 0.004011 -0.011154 -0.019299 0.038198
#
#
# Mechanical properties :
#
#
# Convention : Reuss Voigt Hill
#
# Bulk Modulus (GPa) = 37.55822 70.03728 53.79775
# Shear Modulus (GPa) = 26.95910 45.66875 36.31392
#
# Velocity S-wave (km/s) = 3.19146 4.15380 3.70402
# Velocity P-wave (km/s) = 5.26976 7.03322 6.21436
#
# Compressibility (1/GPa) = 0.02662533
#
# Stress axis : x y z
#
# Youngs Moduli (GPa) = 99.91839 55.11279 94.09648
#
# Poissons Ratio (x) = 0.06319 0.21010
# Poissons Ratio (y) = 0.11457 0.25388
# Poissons Ratio (z) = 0.22310 0.14870
#
# Static dielectric constant tensor:
#      x y z
#    x 2.079830 -0.032080 -0.016740 
#    y -0.032080 2.141450 0.011870 
#    z -0.016740 0.011870 2.082040 
# 
# From -- ./inp_files/171715.got.cif
#   From: 2010.05.17/outbox.cif.g08.bks.cpg/sg2_86_cif.got.tgz:171715.got - 2010.06.03 11:33:40.
