data_PCOD9004277
_publ_section_title
;
Structure prediction by ZEFSAII (Michael W. Deem and Ramdas Pophale) SiO2 
 PCOD9004277
Probable space group: P -1
;
_chemical_formula_sum "Si O2"
_cell_formula_units_Z 16
_cell_length_a 9.072129
_cell_length_b 17.685593
_cell_length_c 8.006071
_cell_angle_alpha 50.011928
_cell_angle_beta 110.474363
_cell_angle_gamma 132.989145
_cell_volume 710.906079
_symmetry_space_group_name_H-M "P -1"
_symmetry_group_IT_number 2
_symmetry_cell_setting 'triclinic'
loop_
_space_group_symop_operation_xyz
x,y,z
-x,-y,-z
loop_
_atom_site_type_symbol
_atom_site_label
_atom_site_fract_x
_atom_site_fract_y
_atom_site_fract_z
Si Si1 0.629733 0.493614 0.923182
Si Si2 0.716959 0.325462 0.268425
Si Si3 0.363688 0.352713 0.721748
Si Si4 0.724183 0.861122 0.521755
Si Si5 0.096057 0.885238 0.604453
Si Si6 0.759896 0.907131 0.090380
Si Si7 0.967481 0.711993 0.503844
Si Si8 0.431262 0.884831 0.766674
O O1 0.460229 0.373581 0.909613
O O2 0.778169 0.616211 0.690840
O O3 0.500000 0.500000 0.000000
O O4 0.775774 0.462792 0.081884
O O5 0.514825 0.250193 0.406824
O O6 0.647304 0.240729 0.192103
O O7 0.893430 0.327229 0.405783
O O8 0.500000 0.500000 0.500000
O O9 0.346293 0.243102 0.770221
O O10 0.131159 0.296248 0.697290
O O11 0.769033 0.925168 0.267471
O O12 0.867625 0.823355 0.655444
O O13 0.787872 0.964894 0.540673
O O14 0.225190 0.854900 0.798737
O O15 0.082136 0.841141 0.471644
O O16 0.604915 0.920235 0.915243
O O17 0.000000 0.000000 0.000000
O O18 0.500000 0.000000 0.500000
#
# Coordination Sequence:
#
# PCOD9004277 Si02
#       8
#     2   2   2   2   2   2   2   2
#     4  11  23  42  69  99 127 175 231 277 331 401
#     4  11  23  40  69  93 135 174 221 276 335 405
#     4  10  23  44  68  97 135 177 221 280 339 404
#     4  11  23  40  65  98 131 173 226 274 338 390
#     4  10  21  37  65  92 132 169 215 274 323 393
#     4  12  26  41  70 100 135 178 228 277 344 406
#     4  10  22  42  68  93 134 177 222 269 341 396
#     4  11  22  42  63  96 134 177 214 275 343 401
#
# _framework density 22.506488999999998
#
# number of rings (size 3 to 8) (size 9 to 14) (size 15 to 20)
#    0.000    1.250    3.750    1.875    5.250    1.500 
#    0.000    4.375    0.000    0.000    0.000    0.000 
#    0.000    0.000    0.000    0.000    0.000    0.000 
#
# Total GULP energy -89199.205200 kJ/mol
# GULP energy per Si atom -5574.950325 kJ/mol
# Density = 2.245526 g / cm^3
# Si number density = 22.506489 Si / 1000 Ang^3
#
#
#
# Elastic Constant Matrix: (Units=GPa)
#
#
# Indices 1 2 3 4 5 6 
#
# 1 134.0924 20.8499 46.2339 8.1524 42.9714 12.4391
# 2 20.8499 81.5935 21.8812 1.6061 20.7604 4.9960
# 3 46.2339 21.8812 75.4227 5.7224 31.9402 10.7691
# 4 8.1524 1.6061 5.7224 35.6939 12.8530 16.5077
# 5 42.9714 20.7604 31.9402 12.8530 48.4820 -1.4396
# 6 12.4391 4.9960 10.7691 16.5077 -1.4396 36.3498
#
#
#
# Elastic Compliance Matrix: (Units=1/GPa)
#
#
# Indices 1 2 3 4 5 6 
#
# 1 0.011808 0.000531 -0.002581 0.003925 -0.010197 -0.005535
# 2 0.000531 0.014365 -0.001378 0.003574 -0.006770 -0.003639
# 3 -0.002581 -0.001378 0.021574 0.005855 -0.013140 -0.008498
# 4 0.003925 0.003574 0.005855 0.045396 -0.021645 -0.025042
# 5 -0.010197 -0.006770 -0.013140 -0.021645 0.047553 0.020026
# 6 -0.005535 -0.003639 -0.008498 -0.025042 0.020026 0.044588
#
#
# Mechanical properties :
#
#
# Convention : Reuss Voigt Hill
#
# Bulk Modulus (GPa) = 24.45510 52.11539 38.28524
# Shear Modulus (GPa) = 24.29914 37.58138 30.94026
#
# Velocity S-wave (km/s) = 3.28937 4.09075 3.71175
# Velocity P-wave (km/s) = 5.03150 6.74673 5.95123
#
# Compressibility (1/GPa) = 0.04089127
#
# Stress axis : x y z
#
# Youngs Moduli (GPa) = 84.69086 69.61591 46.35144
#
# Poissons Ratio (x) = -0.03698 0.11964
# Poissons Ratio (y) = -0.04499 0.06386
# Poissons Ratio (z) = 0.21860 0.09591
#
# Static dielectric constant tensor:
#      x y z
#    x 1.879290 0.056880 0.004690 
#    y 0.056880 1.884800 -0.032300 
#    z 0.004690 -0.032300 1.911320 
# 
# From -- ./inp_files/214562.got.cif
#   From: 2010.05.17/outbox.cif.g08.bks.cpg/sg2_108_cif.got.tgz:214562.got - 2010.06.03 11:33:40.
