data_PCOD9004447
_publ_section_title
;
Structure prediction by ZEFSAII (Michael W. Deem and Ramdas Pophale) SiO2 
 PCOD9004447
Probable space group: P -1
;
_chemical_formula_sum "Si O2"
_cell_formula_units_Z 12
_cell_length_a 21.692834
_cell_length_b 5.025995
_cell_length_c 14.112719
_cell_angle_alpha 62.268526
_cell_angle_beta 161.322882
_cell_angle_gamma 117.541924
_cell_volume 434.877410
_symmetry_space_group_name_H-M "P -1"
_symmetry_group_IT_number 2
_symmetry_cell_setting 'triclinic'
loop_
_space_group_symop_operation_xyz
x,y,z
-x,-y,-z
loop_
_atom_site_type_symbol
_atom_site_label
_atom_site_fract_x
_atom_site_fract_y
_atom_site_fract_z
Si Si1 0.664407 0.116380 0.793842
Si Si2 0.868141 0.415493 0.189773
Si Si3 0.557484 0.261485 0.320345
Si Si4 0.083370 0.822845 0.030025
Si Si5 0.860994 0.052224 0.425560
Si Si6 0.677570 0.965885 0.368873
O O1 0.624461 0.863151 0.861518
O O2 0.500000 0.000000 0.500000
O O3 0.833062 0.203369 0.948986
O O4 0.696834 0.405449 0.864614
O O5 0.802899 0.234479 0.218783
O O6 0.968478 0.729869 0.315534
O O7 0.040835 0.238673 0.422676
O O8 0.733901 0.087813 0.652053
O O9 0.606414 0.617561 0.342182
O O10 0.555631 0.179325 0.220385
O O11 0.000000 0.500000 0.000000
O O12 0.900063 0.018243 0.722953
O O13 0.705150 0.007314 0.289321
#
# Coordination Sequence:
#
# PCOD9004447 Si02
#       6
#     2   2   2   2   2   2
#     4  10  21  42  62  92 131 165 198 254 319 374
#     4  10  21  40  61  96 119 160 208 257 309 354
#     4  10  23  37  56  89 127 160 196 250 311 370
#     4   9  19  37  60  87 116 160 207 250 293 358
#     4  10  21  37  67  90 121 157 214 262 292 357
#     4  11  20  39  60  88 119 160 211 249 298 356
#
# _framework density 27.593983999999999
#
# number of rings (size 3 to 8) (size 9 to 14) (size 15 to 20)
#    0.000    2.000    1.667    1.500    2.333    1.333 
#    3.000   10.833    0.000    0.000    0.000    0.000 
#    0.000    0.000    0.000    0.000    0.000    0.000 
#
# Total GULP energy -67107.468963 kJ/mol
# GULP energy per Si atom -5592.289080 kJ/mol
# Density = 2.753118 g / cm^3
# Si number density = 27.593984 Si / 1000 Ang^3
#
#
#
# Elastic Constant Matrix: (Units=GPa)
#
#
# Indices 1 2 3 4 5 6 
#
# 1 262.6346 56.1463 66.9014 4.9953 8.9399 17.4707
# 2 56.1463 71.3875 25.9054 5.6114 10.4615 -4.4965
# 3 66.9014 25.9054 104.1313 22.9717 -8.9862 -2.8177
# 4 4.9953 5.6114 22.9717 29.6632 6.3221 -4.2869
# 5 8.9399 10.4615 -8.9862 6.3221 67.1603 7.9323
# 6 17.4707 -4.4965 -2.8177 -4.2869 7.9323 41.6667
#
#
#
# Elastic Compliance Matrix: (Units=1/GPa)
#
#
# Indices 1 2 3 4 5 6 
#
# 1 0.005514 -0.003402 -0.003244 0.001962 -0.000516 -0.002599
# 2 -0.003402 0.018331 -0.002639 0.000404 -0.003253 0.003887
# 3 -0.003244 -0.002639 0.015244 -0.011579 0.003953 0.000162
# 4 0.001962 0.000404 -0.011579 0.044279 -0.006542 0.004239
# 5 -0.000516 -0.003253 0.003953 -0.006542 0.017057 -0.003788
# 6 -0.002599 0.003887 0.000162 0.004239 -0.003788 0.026677
#
#
# Mechanical properties :
#
#
# Convention : Reuss Voigt Hill
#
# Bulk Modulus (GPa) = 48.73608 81.78437 65.26022
# Shear Modulus (GPa) = 32.78402 46.97806 39.88104
#
# Velocity S-wave (km/s) = 3.45060 4.13058 3.80581
# Velocity P-wave (km/s) = 5.79446 7.24236 6.55849
#
# Compressibility (1/GPa) = 0.02051868
#
# Stress axis : x y z
#
# Youngs Moduli (GPa) = 181.34526 54.55132 65.60007
#
# Poissons Ratio (x) = 0.18559 0.21281
# Poissons Ratio (y) = 0.61696 0.17314
# Poissons Ratio (z) = 0.58828 0.14398
#
# Static dielectric constant tensor:
#      x y z
#    x 2.092650 -0.034100 0.010590 
#    y -0.034100 2.128020 -0.152570 
#    z 0.010590 -0.152570 2.487350 
# 
# From -- ./inp_files/19575.got.cif
#   From: 2010.05.17/outbox.cif.g08.bks.cpg/sg2_10_cif.got.tgz:19575.got - 2010.06.03 11:33:40.
