data_PCOD9004013
_publ_section_title
;
Structure prediction by ZEFSAII (Michael W. Deem and Ramdas Pophale) SiO2 
 PCOD9004013
Probable space group: P -1
;
_chemical_formula_sum "Si O2"
_cell_formula_units_Z 14
_cell_length_a 10.863071
_cell_length_b 9.289129
_cell_length_c 7.887594
_cell_angle_alpha 86.400232
_cell_angle_beta 51.527568
_cell_angle_gamma 85.320118
_cell_volume 620.984491
_symmetry_space_group_name_H-M "P -1"
_symmetry_group_IT_number 2
_symmetry_cell_setting 'triclinic'
loop_
_space_group_symop_operation_xyz
x,y,z
-x,-y,-z
loop_
_atom_site_type_symbol
_atom_site_label
_atom_site_fract_x
_atom_site_fract_y
_atom_site_fract_z
Si Si1 0.728566 0.785282 0.088212
Si Si2 0.478047 0.334534 0.994178
Si Si3 0.938974 0.190996 0.703860
Si Si4 0.408574 0.928236 0.924404
Si Si5 0.950264 0.074543 0.214305
Si Si6 0.110059 0.413369 0.775006
Si Si7 0.219994 0.694753 0.492691
O O1 0.674324 0.693289 0.982227
O O2 0.757385 0.688088 0.235974
O O3 0.900514 0.832756 0.890201
O O4 0.618871 0.934123 0.187273
O O5 0.495050 0.227656 0.149793
O O6 0.617178 0.292147 0.744306
O O7 0.500000 0.500000 0.000000
O O8 0.770398 0.124551 0.897797
O O9 0.909967 0.258111 0.540687
O O10 0.998890 0.312765 0.768766
O O11 0.062168 0.053869 0.630308
O O12 0.500000 0.000000 0.000000
O O13 0.802867 0.188319 0.345267
O O14 0.000000 0.000000 0.000000
O O15 0.192036 0.534327 0.587770
O O16 0.000000 0.500000 0.000000
#
# Coordination Sequence:
#
# PCOD9004013 Si02
#       7
#     2   2   2   2   2   2   2
#     4  10  21  39  66  90 129 171 215 263 324 387
#     4  10  23  43  66  95 131 172 217 267 328 385
#     4  10  21  37  63  94 128 166 217 268 320 382
#     4   8  18  37  62  89 121 168 216 263 315 381
#     4  11  20  41  67  95 126 167 213 272 330 381
#     4  12  23  38  62  99 135 171 215 271 330 381
#     4  11  24  40  63  95 132 171 222 267 319 390
#
# _framework density 22.544848999999999
#
# number of rings (size 3 to 8) (size 9 to 14) (size 15 to 20)
#    0.000    1.714    2.857    0.857    4.000    1.714 
#    0.000    5.000    0.000    0.000    0.000    0.000 
#    0.000    0.000    0.000    0.000    0.000    0.000 
#
# Total GULP energy -78044.996643 kJ/mol
# GULP energy per Si atom -5574.642617 kJ/mol
# Density = 2.249354 g / cm^3
# Si number density = 22.544849 Si / 1000 Ang^3
#
#
#
# Elastic Constant Matrix: (Units=GPa)
#
#
# Indices 1 2 3 4 5 6 
#
# 1 87.8894 50.6398 19.8338 -5.2622 6.7437 4.7260
# 2 50.6398 173.3870 32.6871 -23.9091 18.4123 -5.3601
# 3 19.8338 32.6871 47.9530 -5.7726 7.4398 -4.1002
# 4 -5.2622 -23.9091 -5.7726 46.0742 -9.7204 15.7795
# 5 6.7437 18.4123 7.4398 -9.7204 22.2449 -15.6620
# 6 4.7260 -5.3601 -4.1002 15.7795 -15.6620 44.6361
#
#
#
# Elastic Compliance Matrix: (Units=1/GPa)
#
#
# Indices 1 2 3 4 5 6 
#
# 1 0.014506 -0.003384 -0.003554 -0.000011 -0.002666 -0.003200
# 2 -0.003384 0.008224 -0.003279 0.003079 -0.004476 -0.001614
# 3 -0.003554 -0.003279 0.025253 -0.000114 -0.004057 0.000919
# 4 -0.000011 0.003079 -0.000114 0.026734 0.003685 -0.007797
# 5 -0.002666 -0.004476 -0.004057 0.003685 0.067832 0.021870
# 6 -0.003200 -0.001614 0.000919 -0.007797 0.021870 0.033063
#
#
# Mechanical properties :
#
#
# Convention : Reuss Voigt Hill
#
# Bulk Modulus (GPa) = 36.30028 57.28340 46.79184
# Shear Modulus (GPa) = 24.36287 36.32897 30.34592
#
# Velocity S-wave (km/s) = 3.29088 4.01859 3.67280
# Velocity P-wave (km/s) = 5.52957 6.85536 6.22784
#
# Compressibility (1/GPa) = 0.02754800
#
# Stress axis : x y z
#
# Youngs Moduli (GPa) = 68.93827 121.59754 39.59858
#
# Poissons Ratio (x) = 0.41147 0.14075
# Poissons Ratio (y) = 0.23328 0.12985
# Poissons Ratio (z) = 0.24504 0.39874
#
# Static dielectric constant tensor:
#      x y z
#    x 1.886520 -0.044090 0.021820 
#    y -0.044090 1.914390 0.020920 
#    z 0.021820 0.020920 1.916550 
# 
# From -- ./inp_files/230985.got.cif
#   From: 2010.05.17/outbox.cif.g08.bks.cpg/sg2_116_cif.got.tgz:230985.got - 2010.06.03 11:33:40.
