data_PCOD9004148
_publ_section_title
;
Structure prediction by ZEFSAII (Michael W. Deem and Ramdas Pophale) SiO2 
 PCOD9004148
Probable space group: P -1
;
_chemical_formula_sum "Si O2"
_cell_formula_units_Z 16
_cell_length_a 9.338523
_cell_length_b 11.601234
_cell_length_c 11.496752
_cell_angle_alpha 56.094316
_cell_angle_beta 124.766233
_cell_angle_gamma 114.117988
_cell_volume 841.686853
_symmetry_space_group_name_H-M "P -1"
_symmetry_group_IT_number 2
_symmetry_cell_setting 'triclinic'
loop_
_space_group_symop_operation_xyz
x,y,z
-x,-y,-z
loop_
_atom_site_type_symbol
_atom_site_label
_atom_site_fract_x
_atom_site_fract_y
_atom_site_fract_z
Si Si1 0.886705 0.628177 0.356439
Si Si2 0.432566 0.872954 0.198906
Si Si3 0.080989 0.859533 0.157161
Si Si4 0.603836 0.636234 0.025625
Si Si5 0.656672 0.630276 0.482468
Si Si6 0.000841 0.659755 0.785176
Si Si7 0.095653 0.357362 0.980993
Si Si8 0.652408 0.168341 0.085911
O O1 0.764250 0.633027 0.409665
O O2 0.000000 0.500000 0.500000
O O3 0.001777 0.777144 0.283987
O O4 0.748961 0.597713 0.205077
O O5 0.288723 0.897325 0.215568
O O6 0.547796 0.759135 0.360237
O O7 0.563799 0.013353 0.159446
O O8 0.347785 0.825167 0.059415
O O9 0.038831 0.736613 0.110964
O O10 0.000000 0.000000 0.000000
O O11 0.722589 0.699286 0.937127
O O12 0.479811 0.729813 0.981534
O O13 0.500000 0.500000 0.000000
O O14 0.500000 0.500000 0.500000
O O15 0.816865 0.649737 0.637662
O O16 0.948486 0.655374 0.898195
O O17 0.160275 0.787845 0.788616
O O18 0.087020 0.522211 0.863220
#
# Coordination Sequence:
#
# PCOD9004148 Si02
#       8
#     2   2   2   2   2   2   2   2
#     4  11  24  41  63 101 133 173 219 272 336 391
#     4  11  23  43  65  95 131 170 222 272 323 401
#     4  11  23  43  70  97 132 174 222 270 331 398
#     4  11  21  37  64  95 125 166 216 276 324 388
#     4  12  26  41  66  99 135 174 217 273 339 396
#     4  11  23  40  64  95 129 173 219 274 325 396
#     4  10  21  37  64  93 128 168 222 268 322 384
#     4  11  23  41  67  94 126 174 225 269 327 390
#
# _framework density 19.009443999999998
#
# number of rings (size 3 to 8) (size 9 to 14) (size 15 to 20)
#    0.000    1.000    3.750    4.500    5.250    0.500 
#    0.000    0.000    0.000    2.250    0.000    0.000 
#    0.000    0.000    0.000    0.000    0.000    0.000 
#
# Total GULP energy -89086.924242 kJ/mol
# GULP energy per Si atom -5567.932765 kJ/mol
# Density = 1.896618 g / cm^3
# Si number density = 19.009444 Si / 1000 Ang^3
#
#
#
# Elastic Constant Matrix: (Units=GPa)
#
#
# Indices 1 2 3 4 5 6 
#
# 1 123.4979 25.1624 38.4306 -11.0990 5.9780 18.7230
# 2 25.1624 97.0707 36.0893 1.7697 2.8431 15.3868
# 3 38.4306 36.0893 80.0246 -10.3450 17.8821 12.7371
# 4 -11.0990 1.7697 -10.3450 34.3493 -0.9152 4.3981
# 5 5.9780 2.8431 17.8821 -0.9152 31.0679 4.3955
# 6 18.7230 15.3868 12.7371 4.3981 4.3955 31.7173
#
#
#
# Elastic Compliance Matrix: (Units=1/GPa)
#
#
# Indices 1 2 3 4 5 6 
#
# 1 0.010337 -0.000589 -0.003783 0.002877 0.001011 -0.004837
# 2 -0.000589 0.013234 -0.005991 -0.002119 0.002820 -0.003764
# 3 -0.003783 -0.005991 0.020280 0.005232 -0.009909 -0.002357
# 4 0.002877 -0.002119 0.005232 0.032598 -0.001407 -0.007097
# 5 0.001011 0.002820 -0.009909 -0.001407 0.037826 -0.003033
# 6 -0.004837 -0.003764 -0.002357 -0.007097 -0.003033 0.038561
#
#
# Mechanical properties :
#
#
# Convention : Reuss Voigt Hill
#
# Bulk Modulus (GPa) = 43.23931 55.55089 49.39510
# Shear Modulus (GPa) = 27.58293 32.82096 30.20195
#
# Velocity S-wave (km/s) = 3.81335 4.15970 3.99028
# Velocity P-wave (km/s) = 6.49495 7.23581 6.87537
#
# Compressibility (1/GPa) = 0.02312710
#
# Stress axis : x y z
#
# Youngs Moduli (GPa) = 96.73633 75.56122 49.30847
#
# Poissons Ratio (x) = 0.04447 0.18654
# Poissons Ratio (y) = 0.05693 0.29540
# Poissons Ratio (z) = 0.36597 0.45268
#
# Static dielectric constant tensor:
#      x y z
#    x 1.785890 0.107290 0.026340 
#    y 0.107290 1.753070 0.051760 
#    z 0.026340 0.051760 1.711190 
# 
# From -- ./inp_files/333140.got.cif
#   From: 2010.05.17/outbox.cif.g08.bks.cpg/sg2_167_cif.got.tgz:333140.got - 2010.06.03 11:33:40.
