data_PCOD9004923
_publ_section_title
;
Structure prediction by ZEFSAII (Michael W. Deem and Ramdas Pophale) SiO2 
 PCOD9004923
Probable space group: P -1
;
_chemical_formula_sum "Si O2"
_cell_formula_units_Z 16
_cell_length_a 21.912447
_cell_length_b 22.025491
_cell_length_c 8.283105
_cell_angle_alpha 32.628380
_cell_angle_beta 40.027307
_cell_angle_gamma 17.927378
_cell_volume 648.084383
_symmetry_space_group_name_H-M "P -1"
_symmetry_group_IT_number 2
_symmetry_cell_setting 'triclinic'
loop_
_space_group_symop_operation_xyz
x,y,z
-x,-y,-z
loop_
_atom_site_type_symbol
_atom_site_label
_atom_site_fract_x
_atom_site_fract_y
_atom_site_fract_z
Si Si1 0.365566 0.929994 0.151625
Si Si2 0.803666 0.795041 0.420681
Si Si3 0.330649 0.205807 0.753234
Si Si4 0.001420 0.822374 0.555068
Si Si5 0.790020 0.582157 0.778476
Si Si6 0.346910 0.419715 0.380535
Si Si7 0.210670 0.024738 0.681756
Si Si8 0.004671 0.047394 0.204850
O O1 0.576026 0.675007 0.379433
O O2 0.210827 0.989688 0.349700
O O3 0.363286 0.971304 0.879634
O O4 0.269772 0.140973 0.968805
O O5 0.784343 0.681702 0.705158
O O6 0.013944 0.599382 0.331488
O O7 0.814936 0.832054 0.492452
O O8 0.383945 0.204122 0.475438
O O9 0.244669 0.408841 0.559707
O O10 0.500000 0.000000 0.000000
O O11 0.951265 0.833874 0.449247
O O12 0.039143 0.913135 0.304885
O O13 0.168356 0.579444 0.863380
O O14 0.564641 0.209051 0.323420
O O15 0.203619 0.670199 0.051805
O O16 0.175059 0.964317 0.021251
O O17 0.000000 0.000000 0.500000
#
# Coordination Sequence:
#
# PCOD9004923 Si02
#       8
#     2   2   2   2   2   2   2   2
#     4   8  17  35  61  87 121 162 197 245 307 373
#     4   9  17  34  61  91 121 158 201 248 310 371
#     4   9  16  32  59  89 120 158 200 243 301 365
#     4  10  21  38  59  91 127 161 211 260 303 367
#     4   9  17  34  61  89 124 164 200 250 309 366
#     4  10  22  40  64  91 125 164 201 256 314 360
#     4  11  24  41  62  92 125 158 211 264 306 371
#     4  12  25  43  66  89 120 168 215 255 310 372
#
# _framework density 24.688141999999999
#
# number of rings (size 3 to 8) (size 9 to 14) (size 15 to 20)
#    0.000    2.250    0.000    4.125    0.000    3.000 
#    0.000   10.000    0.000    0.000    0.000    0.000 
#    0.000    0.000    0.000    0.000    0.000    0.000 
#
# Total GULP energy -89311.028413 kJ/mol
# GULP energy per Si atom -5581.939276 kJ/mol
# Density = 2.463195 g / cm^3
# Si number density = 24.688142 Si / 1000 Ang^3
#
#
#
# Elastic Constant Matrix: (Units=GPa)
#
#
# Indices 1 2 3 4 5 6 
#
# 1 122.9133 7.9520 29.8925 -23.2926 6.1359 5.2218
# 2 7.9520 78.0336 25.9149 -2.1794 17.6034 -4.8733
# 3 29.8925 25.9149 136.1934 -28.0984 15.5119 -0.3874
# 4 -23.2926 -2.1794 -28.0984 41.3186 -0.1551 2.4743
# 5 6.1359 17.6034 15.5119 -0.1551 44.6988 -1.0817
# 6 5.2218 -4.8733 -0.3874 2.4743 -1.0817 35.2433
#
#
#
# Elastic Compliance Matrix: (Units=1/GPa)
#
#
# Indices 1 2 3 4 5 6 
#
# 1 0.009408 -0.000452 -0.000906 0.004770 -0.000827 -0.001827
# 2 -0.000452 0.014865 -0.002425 -0.001260 -0.004906 0.002034
# 3 -0.000906 -0.002425 0.009451 0.005814 -0.002194 -0.000573
# 4 0.004770 -0.001260 0.005814 0.030954 -0.002143 -0.003056
# 5 -0.000827 -0.004906 -0.002194 -0.002143 0.025180 0.000343
# 6 -0.001827 0.002034 -0.000573 -0.003056 0.000343 0.029145
#
#
# Mechanical properties :
#
#
# Convention : Reuss Voigt Hill
#
# Bulk Modulus (GPa) = 38.22915 51.62880 44.92898
# Shear Modulus (GPa) = 36.95856 42.47751 39.71804
#
# Velocity S-wave (km/s) = 3.87333 4.15247 4.01532
# Velocity P-wave (km/s) = 5.96003 6.62936 6.30359
#
# Compressibility (1/GPa) = 0.02615805
#
# Stress axis : x y z
#
# Youngs Moduli (GPa) = 106.29015 67.27303 105.81445
#
# Poissons Ratio (x) = 0.03043 0.09585
# Poissons Ratio (y) = 0.04808 0.25656
# Poissons Ratio (z) = 0.09628 0.16311
#
# Static dielectric constant tensor:
#      x y z
#    x 1.999620 -0.042060 0.056070 
#    y -0.042060 2.165220 -0.040450 
#    z 0.056070 -0.040450 1.925940 
# 
# From -- ./inp_files/355550.got.cif
#   From: 2010.05.17/outbox.cif.g08.bks.cpg/sg2_178_cif.got.tgz:355550.got - 2010.06.03 11:33:40.
