data_PCOD9004791
_publ_section_title
;
Structure prediction by ZEFSAII (Michael W. Deem and Ramdas Pophale) SiO2 
 PCOD9004791
Probable space group: P -1
;
_chemical_formula_sum "Si O2"
_cell_formula_units_Z 16
_cell_length_a 8.686192
_cell_length_b 20.050072
_cell_length_c 20.558605
_cell_angle_alpha 20.334413
_cell_angle_beta 43.213467
_cell_angle_gamma 43.494956
_cell_volume 838.524142
_symmetry_space_group_name_H-M "P -1"
_symmetry_group_IT_number 2
_symmetry_cell_setting 'triclinic'
loop_
_space_group_symop_operation_xyz
x,y,z
-x,-y,-z
loop_
_atom_site_type_symbol
_atom_site_label
_atom_site_fract_x
_atom_site_fract_y
_atom_site_fract_z
Si Si1 0.098214 0.217245 0.676841
Si Si2 0.772142 0.944199 0.970355
Si Si3 0.532592 0.152396 0.088103
Si Si4 0.967474 0.348814 0.743247
Si Si5 0.823356 0.577338 0.789548
Si Si6 0.876978 0.806232 0.921053
Si Si7 0.267711 0.009843 0.603560
Si Si8 0.481948 0.302225 0.101662
O O1 0.066157 0.271168 0.713719
O O2 0.895004 0.106642 0.817773
O O3 0.081444 0.417684 0.459136
O O4 0.334108 0.064325 0.738034
O O5 0.852910 0.914806 0.898118
O O6 0.500000 0.000000 0.000000
O O7 0.862653 0.748273 0.163433
O O8 0.351491 0.149092 0.090323
O O9 0.409864 0.266823 0.083538
O O10 0.733077 0.268208 0.899962
O O11 0.850097 0.766275 0.567380
O O12 0.711487 0.645372 0.831945
O O13 0.643983 0.463942 0.911910
O O14 0.047663 0.421209 0.877455
O O15 0.088750 0.878334 0.753300
O O16 0.500000 0.000000 0.500000
O O17 0.359664 0.902147 0.739633
#
# Coordination Sequence:
#
# PCOD9004791 Si02
#       8
#     2   2   2   2   2   2   2   2
#     4  10  21  38  59  82 111 146 189 226 275 336
#     4  11  22  38  59  85 116 147 182 230 277 326
#     4  11  22  37  54  81 117 147 183 230 278 328
#     4  10  21  38  60  82 108 149 185 228 280 327
#     4   9  18  36  56  79 106 139 187 230 270 328
#     4  11  23  35  55  84 113 149 187 225 278 333
#     4   9  18  36  58  79 106 143 185 232 276 321
#     4   9  19  34  57  79 104 144 183 226 279 327
#
# _framework density 19.081143000000001
#
# number of rings (size 3 to 8) (size 9 to 14) (size 15 to 20)
#    0.000    2.000    0.000    6.750    0.000    6.000 
#    0.000    2.500    0.000    0.000    0.000    0.000 
#    0.000    0.000    0.000    0.000    0.000    0.000 
#
# Total GULP energy -89256.745917 kJ/mol
# GULP energy per Si atom -5578.546620 kJ/mol
# Density = 1.903771 g / cm^3
# Si number density = 19.081143 Si / 1000 Ang^3
#
#
#
# Elastic Constant Matrix: (Units=GPa)
#
#
# Indices 1 2 3 4 5 6 
#
# 1 100.9269 26.7232 25.7204 -5.1716 7.2021 -9.2766
# 2 26.7232 62.6600 10.9347 -9.2365 -3.6598 -0.5446
# 3 25.7204 10.9347 109.6031 -27.2739 9.2624 -7.9582
# 4 -5.1716 -9.2365 -27.2739 27.4320 -1.9916 1.6507
# 5 7.2021 -3.6598 9.2624 -1.9916 6.9087 1.4221
# 6 -9.2766 -0.5446 -7.9582 1.6507 1.4221 38.5998
#
#
#
# Elastic Compliance Matrix: (Units=1/GPa)
#
#
# Indices 1 2 3 4 5 6 
#
# 1 0.013532 -0.006899 -0.001419 -0.002661 -0.017370 0.003616
# 2 -0.006899 0.021326 -0.000893 0.006762 0.022180 -0.002648
# 3 -0.001419 -0.000893 0.013998 0.012121 -0.014793 0.002559
# 4 -0.002661 0.006762 0.012121 0.050651 0.004787 -0.000388
# 5 -0.017370 0.022180 -0.014793 0.004787 0.198788 -0.014440
# 6 0.003616 -0.002648 0.002559 -0.000388 -0.014440 0.027815
#
#
# Mechanical properties :
#
#
# Convention : Reuss Voigt Hill
#
# Bulk Modulus (GPa) = 32.85634 44.43850 38.64742
# Shear Modulus (GPa) = 14.09734 28.57555 21.33644
#
# Velocity S-wave (km/s) = 2.72105 3.87406 3.34757
# Velocity P-wave (km/s) = 5.20854 6.58414 5.93632
#
# Compressibility (1/GPa) = 0.03043553
#
# Stress axis : x y z
#
# Youngs Moduli (GPa) = 73.89897 46.89018 71.43785
#
# Poissons Ratio (x) = 0.32349 0.10137
# Poissons Ratio (y) = 0.50982 0.06377
# Poissons Ratio (z) = 0.10486 0.04186
#
# Static dielectric constant tensor:
#      x y z
#    x 1.633940 0.010210 0.009470 
#    y 0.010210 1.700930 -0.001480 
#    z 0.009470 -0.001480 1.680810 
# 
# From -- ./inp_files/591764.got.cif
#   From: 2010.05.17/outbox.cif.g08.bks.cpg/sg2_296_cif.got.tgz:591764.got - 2010.06.03 11:33:40.
