data_PCOD9004003
_publ_section_title
;
Structure prediction by ZEFSAII (Michael W. Deem and Ramdas Pophale) SiO2 
 PCOD9004003
Probable space group: P -1
;
_chemical_formula_sum "Si O2"
_cell_formula_units_Z 10
_cell_length_a 9.771001
_cell_length_b 15.927423
_cell_length_c 5.182036
_cell_angle_alpha 126.486685
_cell_angle_beta 49.060467
_cell_angle_gamma 146.042270
_cell_volume 337.782535
_symmetry_space_group_name_H-M "P -1"
_symmetry_group_IT_number 2
_symmetry_cell_setting 'triclinic'
loop_
_space_group_symop_operation_xyz
x,y,z
-x,-y,-z
loop_
_atom_site_type_symbol
_atom_site_label
_atom_site_fract_x
_atom_site_fract_y
_atom_site_fract_z
Si Si1 0.150789 0.629791 0.832888
Si Si2 0.308892 0.104418 0.305082
Si Si3 0.275113 0.433099 0.958182
Si Si4 0.280212 0.253565 0.256919
Si Si5 0.257837 0.905763 0.428259
O O1 0.450119 0.722980 0.562771
O O2 0.210469 0.766153 0.149349
O O3 0.000000 0.500000 0.000000
O O4 0.977175 0.598434 0.745542
O O5 0.337243 0.156813 0.066598
O O6 0.323963 0.008731 0.292090
O O7 0.000000 0.000000 0.500000
O O8 0.191379 0.288516 0.675085
O O9 0.444053 0.576456 0.822012
O O10 0.500000 0.500000 0.000000
O O11 0.023180 0.169272 0.246185
O O12 0.500000 0.000000 0.500000
#
# Coordination Sequence:
#
# PCOD9004003 Si02
#       5
#     2   2   2   2   2
#     4  11  22  41  67  92 125 165 215 263 314 382
#     4  10  21  42  61  86 130 168 203 263 324 371
#     4  10  21  37  63  93 125 164 214 264 317 370
#     4   9  20  41  59  88 131 164 209 268 310 378
#     4  10  23  40  63  92 128 166 210 261 324 379
#
# _framework density 29.604848
#
# number of rings (size 3 to 8) (size 9 to 14) (size 15 to 20)
#    0.000    2.000    2.000    0.600    2.800    1.600 
#    0.000    4.000    0.000    0.000    0.000    0.000 
#    0.000    0.000    0.000    0.000    0.000    0.000 
#
# Total GULP energy -55744.706573 kJ/mol
# GULP energy per Si atom -5574.470657 kJ/mol
# Density = 2.953747 g / cm^3
# Si number density = 29.604848 Si / 1000 Ang^3
#
#
#
# Elastic Constant Matrix: (Units=GPa)
#
#
# Indices 1 2 3 4 5 6 
#
# 1 268.7839 65.1681 38.8154 -2.5606 -47.5567 9.3255
# 2 65.1681 201.1993 22.1852 -18.8027 -2.0840 -21.7853
# 3 38.8154 22.1852 55.2767 5.9834 -5.5419 -13.6940
# 4 -2.5606 -18.8027 5.9834 51.9915 2.2200 -7.5300
# 5 -47.5567 -2.0840 -5.5419 2.2200 47.3634 -13.6067
# 6 9.3255 -21.7853 -13.6940 -7.5300 -13.6067 78.7467
#
#
#
# Elastic Compliance Matrix: (Units=1/GPa)
#
#
# Indices 1 2 3 4 5 6 
#
# 1 0.005359 -0.001476 -0.002846 -0.000253 0.004783 -0.000735
# 2 -0.001476 0.006003 -0.001335 0.002537 -0.001013 0.001671
# 3 -0.002846 -0.001335 0.021902 -0.002648 0.000824 0.003666
# 4 -0.000253 0.002537 -0.002648 0.020785 -0.000818 0.002118
# 5 0.004783 -0.001013 0.000824 -0.000818 0.027128 0.003906
# 6 -0.000735 0.001671 0.003666 0.002118 0.003906 0.014763
#
#
# Mechanical properties :
#
#
# Convention : Reuss Voigt Hill
#
# Bulk Modulus (GPa) = 45.55727 86.39971 65.97849
# Shear Modulus (GPa) = 43.64103 62.22639 52.93371
#
# Velocity S-wave (km/s) = 3.84359 4.58962 4.23307
# Velocity P-wave (km/s) = 5.92616 7.57191 6.79902
#
# Compressibility (1/GPa) = 0.02195039
#
# Stress axis : x y z
#
# Youngs Moduli (GPa) = 186.61603 166.58602 45.65707
#
# Poissons Ratio (x) = 0.24581 0.12993
# Poissons Ratio (y) = 0.27536 0.06097
# Poissons Ratio (z) = 0.53108 0.22245
#
# Static dielectric constant tensor:
#      x y z
#    x 2.829260 -0.059570 -0.118990 
#    y -0.059570 2.469160 -0.120720 
#    z -0.118990 -0.120720 2.907420 
# 
# From -- ./inp_files/20697.got.cif
#   From: 2010.05.17/outbox.cif.g08.bks.cpg/sg2_11_cif.got.tgz:20697.got - 2010.06.03 11:33:40.
