data_PCOD9004490
_publ_section_title
;
Structure prediction by ZEFSAII (Michael W. Deem and Ramdas Pophale) SiO2 
 PCOD9004490
Probable space group: P -1
;
_chemical_formula_sum "Si O2"
_cell_formula_units_Z 14
_cell_length_a 9.881042
_cell_length_b 11.900569
_cell_length_c 8.884418
_cell_angle_alpha 81.612380
_cell_angle_beta 51.791722
_cell_angle_gamma 53.937166
_cell_volume 623.200752
_symmetry_space_group_name_H-M "P -1"
_symmetry_group_IT_number 2
_symmetry_cell_setting 'triclinic'
loop_
_space_group_symop_operation_xyz
x,y,z
-x,-y,-z
loop_
_atom_site_type_symbol
_atom_site_label
_atom_site_fract_x
_atom_site_fract_y
_atom_site_fract_z
Si Si1 0.888131 0.800519 0.795064
Si Si2 0.553835 0.148832 0.624348
Si Si3 0.722107 0.353771 0.950612
Si Si4 0.957264 0.638494 0.078336
Si Si5 0.827006 0.175680 0.618159
Si Si6 0.523494 0.912774 0.823041
Si Si7 0.256071 0.859821 0.810837
O O1 0.087671 0.762791 0.564776
O O2 0.734097 0.782748 0.802217
O O3 0.694422 0.972794 0.943480
O O4 0.971235 0.717612 0.911153
O O5 0.589948 0.221660 0.722530
O O6 0.596887 0.002209 0.680049
O O7 0.711378 0.130658 0.389190
O O8 0.301954 0.252357 0.716901
O O9 0.886269 0.383007 0.891853
O O10 0.825209 0.227432 0.775868
O O11 0.500000 0.500000 0.000000
O O12 0.686233 0.287837 0.132914
O O13 0.000000 0.500000 0.000000
O O14 0.000000 0.000000 0.500000
O O15 0.430354 0.869807 0.770374
O O16 0.000000 0.000000 0.000000
#
# Coordination Sequence:
#
# PCOD9004490 Si02
#       7
#     2   2   2   2   2   2   2
#     4  10  22  39  67  97 135 179 230 287 348 408
#     4  11  23  41  70 101 137 180 234 294 351 412
#     4  12  29  48  70 105 148 189 236 293 362 429
#     4  11  26  48  70  95 138 189 240 288 352 428
#     4  12  23  42  72 106 142 186 234 288 353 423
#     4  10  21  37  68 102 137 173 234 289 353 402
#     4  12  25  42  70 103 146 185 239 293 353 420
#
# _framework density 22.464673000000001
#
# number of rings (size 3 to 8) (size 9 to 14) (size 15 to 20)
#    0.000    0.857    1.429    6.429    8.000    1.143 
#    0.000    4.286    0.000    0.000    0.000    0.000 
#    0.000    0.000    0.000    0.000    0.000    0.000 
#
# Total GULP energy -78263.886416 kJ/mol
# GULP energy per Si atom -5590.277601 kJ/mol
# Density = 2.241354 g / cm^3
# Si number density = 22.464673 Si / 1000 Ang^3
#
#
#
# Elastic Constant Matrix: (Units=GPa)
#
#
# Indices 1 2 3 4 5 6 
#
# 1 220.1626 38.8334 24.9703 5.3253 -5.3053 -3.2821
# 2 38.8334 75.8330 28.6761 -0.5597 -2.8941 -13.7681
# 3 24.9703 28.6761 107.9054 -22.8997 2.5212 -1.5738
# 4 5.3253 -0.5597 -22.8997 20.2129 4.8994 0.9712
# 5 -5.3053 -2.8941 2.5212 4.8994 32.0566 2.6072
# 6 -3.2821 -13.7681 -1.5738 0.9712 2.6072 36.7616
#
#
#
# Elastic Compliance Matrix: (Units=1/GPa)
#
#
# Indices 1 2 3 4 5 6 
#
# 1 0.005185 -0.002201 -0.001338 -0.003236 0.001294 -0.000425
# 2 -0.002201 0.017467 -0.005306 -0.005729 0.002007 0.006127
# 3 -0.001338 -0.005306 0.014961 0.018335 -0.004547 -0.001628
# 4 -0.003236 -0.005729 0.018335 0.074375 -0.013647 -0.002646
# 5 0.001294 0.002007 -0.004547 -0.013647 0.034146 -0.001389
# 6 -0.000425 0.006127 -0.001628 -0.002646 -0.001389 0.029558
#
#
# Mechanical properties :
#
#
# Convention : Reuss Voigt Hill
#
# Bulk Modulus (GPa) = 50.19323 65.42895 57.81109
# Shear Modulus (GPa) = 24.99704 38.56763 31.78233
#
# Velocity S-wave (km/s) = 3.33937 4.14794 3.76542
# Velocity P-wave (km/s) = 6.10412 7.22004 6.68540
#
# Compressibility (1/GPa) = 0.01992300
#
# Stress axis : x y z
#
# Youngs Moduli (GPa) = 192.85614 57.25056 66.84151
#
# Poissons Ratio (x) = 0.12600 0.08945
# Poissons Ratio (y) = 0.42445 0.35465
# Poissons Ratio (z) = 0.25810 0.30376
#
# Static dielectric constant tensor:
#      x y z
#    x 1.830160 -0.026850 -0.000630 
#    y -0.026850 1.853500 -0.002530 
#    z -0.000630 -0.002530 1.851660 
# 
# From -- ./inp_files/177572.got.cif
#   From: 2010.05.17/outbox.cif.g08.bks.cpg/sg2_89_cif.got.tgz:177572.got - 2010.06.03 11:33:40.
