data_PCOD9004951
_publ_section_title
;
Structure prediction by ZEFSAII (Michael W. Deem and Ramdas Pophale) SiO2 
 PCOD9004951
Probable space group: P -1
;
_chemical_formula_sum "Si O2"
_cell_formula_units_Z 14
_cell_length_a 9.506049
_cell_length_b 11.975077
_cell_length_c 11.728637
_cell_angle_alpha 129.774267
_cell_angle_beta 66.310679
_cell_angle_gamma 75.649791
_cell_volume 654.670304
_symmetry_space_group_name_H-M "P -1"
_symmetry_group_IT_number 2
_symmetry_cell_setting 'triclinic'
loop_
_space_group_symop_operation_xyz
x,y,z
-x,-y,-z
loop_
_atom_site_type_symbol
_atom_site_label
_atom_site_fract_x
_atom_site_fract_y
_atom_site_fract_z
Si Si1 0.799745 0.932039 0.319082
Si Si2 0.634128 0.878622 0.543123
Si Si3 0.961321 0.654470 0.668919
Si Si4 0.892081 0.144149 0.308388
Si Si5 0.844570 0.421247 0.198159
Si Si6 0.323663 0.754237 0.799088
Si Si7 0.404589 0.144746 0.208733
O O1 0.766458 0.903718 0.440461
O O2 0.602450 0.989569 0.350638
O O3 0.795075 0.108570 0.415107
O O4 0.018952 0.724931 0.050921
O O5 0.752156 0.642175 0.348161
O O6 0.608932 0.932863 0.719199
O O7 0.096232 0.690771 0.581098
O O8 0.997993 0.679052 0.806825
O O9 0.125938 0.390500 0.449426
O O10 0.672401 0.886872 0.908146
O O11 0.779058 0.171975 0.245161
O O12 0.145183 0.929032 0.063408
O O13 0.655977 0.429561 0.295644
O O14 0.510396 0.747567 0.738671
#
# Coordination Sequence:
#
# PCOD9004951 Si02
#       7
#     2   2   2   2   2   2   2
#     4  10  21  38  60  82 114 152 194 236 269 338
#     4  11  22  36  59  88 111 151 195 230 283 334
#     4  11  21  33  55  86 117 142 182 236 291 334
#     4   9  17  35  55  81 112 149 186 231 280 333
#     4  10  21  39  60  85 114 147 191 240 281 333
#     4   9  18  32  58  83 108 146 187 234 287 325
#     4  12  21  35  56  85 116 144 185 237 287 341
#
# _framework density 21.384810999999999
#
# number of rings (size 3 to 8) (size 9 to 14) (size 15 to 20)
#    0.000    1.714    4.286    2.143    0.000    1.714 
#    0.000    0.714    0.000    0.000    0.000    8.000 
#    0.000    0.000    0.000    0.000    0.000    0.000 
#
# Total GULP energy -78062.373472 kJ/mol
# GULP energy per Si atom -5575.883819 kJ/mol
# Density = 2.133614 g / cm^3
# Si number density = 21.384811 Si / 1000 Ang^3
#
#
#
# Elastic Constant Matrix: (Units=GPa)
#
#
# Indices 1 2 3 4 5 6 
#
# 1 110.4912 45.2849 21.9749 -22.6153 1.0373 17.9245
# 2 45.2849 169.3301 43.0157 -43.4669 9.4563 25.6741
# 3 21.9749 43.0157 73.9630 -17.0401 13.5468 -0.6308
# 4 -22.6153 -43.4669 -17.0401 40.0597 8.3390 -3.8750
# 5 1.0373 9.4563 13.5468 8.3390 32.4128 8.3586
# 6 17.9245 25.6741 -0.6308 -3.8750 8.3586 39.4969
#
#
#
# Elastic Compliance Matrix: (Units=1/GPa)
#
#
# Indices 1 2 3 4 5 6 
#
# 1 0.011350 -0.000850 -0.002179 0.003935 0.000929 -0.004444
# 2 -0.000850 0.010211 -0.003017 0.009459 -0.002897 -0.004759
# 3 -0.002179 -0.003017 0.019371 0.006488 -0.010387 0.006094
# 4 0.003935 0.009459 0.006488 0.043718 -0.016851 0.000024
# 5 0.000929 -0.002897 -0.010387 -0.016851 0.042771 -0.009409
# 6 -0.004444 -0.004759 0.006094 0.000024 -0.009409 0.032519
#
#
# Mechanical properties :
#
#
# Convention : Reuss Voigt Hill
#
# Bulk Modulus (GPa) = 34.67327 63.81502 49.24414
# Shear Modulus (GPa) = 27.52631 38.62780 33.07705
#
# Velocity S-wave (km/s) = 3.59163 4.25469 3.93715
# Velocity P-wave (km/s) = 5.78351 7.35137 6.61406
#
# Compressibility (1/GPa) = 0.02884066
#
# Stress axis : x y z
#
# Youngs Moduli (GPa) = 88.10724 97.93743 51.62238
#
# Poissons Ratio (x) = 0.08321 0.11251
# Poissons Ratio (y) = 0.07486 0.15572
# Poissons Ratio (z) = 0.19202 0.29543
#
# Static dielectric constant tensor:
#      x y z
#    x 1.756970 -0.004170 -0.043890 
#    y -0.004170 1.771850 0.103100 
#    z -0.043890 0.103100 2.070140 
# 
# From -- ./inp_files/436996.got.cif
#   From: 2010.05.17/outbox.cif.g08.bks.cpg/sg2_219_cif.got.tgz:436996.got - 2010.06.03 11:33:40.
