data_PCOD9004550
_publ_section_title
;
Structure prediction by ZEFSAII (Michael W. Deem and Ramdas Pophale) SiO2 
 PCOD9004550
Probable space group: P -1
;
_chemical_formula_sum "Si O2"
_cell_formula_units_Z 12
_cell_length_a 7.884727
_cell_length_b 13.389830
_cell_length_c 5.396693
_cell_angle_alpha 110.527843
_cell_angle_beta 123.272126
_cell_angle_gamma 73.417012
_cell_volume 442.951391
_symmetry_space_group_name_H-M "P -1"
_symmetry_group_IT_number 2
_symmetry_cell_setting 'triclinic'
loop_
_space_group_symop_operation_xyz
x,y,z
-x,-y,-z
loop_
_atom_site_type_symbol
_atom_site_label
_atom_site_fract_x
_atom_site_fract_y
_atom_site_fract_z
Si Si1 0.018753 0.348733 0.736696
Si Si2 0.371004 0.810518 0.009598
Si Si3 0.388094 0.701705 0.420635
Si Si4 0.908709 0.764558 0.722981
Si Si5 0.130495 0.020186 0.874708
Si Si6 0.749142 0.550817 0.612395
O O1 0.854588 0.304328 0.753883
O O2 0.149405 0.246708 0.625085
O O3 0.854685 0.433790 0.528163
O O4 0.178254 0.426689 0.030357
O O5 0.447926 0.744386 0.772867
O O6 0.142696 0.779143 0.854872
O O7 0.330187 0.933824 0.993959
O O8 0.455311 0.777407 0.320772
O O9 0.512410 0.583654 0.391507
O O10 0.850419 0.649281 0.657799
O O11 0.828798 0.858664 0.927908
O O12 0.000000 0.000000 0.500000
O O13 0.000000 0.000000 0.000000
#
# Coordination Sequence:
#
# PCOD9004550 Si02
#       6
#     2   2   2   2   2   2
#     4  10  23  43  63  95 132 173 220 268 323 387
#     4  10  21  41  63  95 130 167 213 266 322 387
#     4  11  23  42  65  95 134 171 212 268 326 384
#     4  10  21  39  66  94 129 169 218 270 320 385
#     4  10  21  37  69  99 125 171 219 261 328 391
#     4  11  23  40  66  95 129 176 220 268 322 386
#
# _framework density 27.091009
#
# number of rings (size 3 to 8) (size 9 to 14) (size 15 to 20)
#    0.000    1.667    1.667    3.000    7.000    0.000 
#    0.000    4.167    0.000    0.000    0.000    0.000 
#    0.000    0.000    0.000    0.000    0.000    0.000 
#
# Total GULP energy -66814.746653 kJ/mol
# GULP energy per Si atom -5567.895554 kJ/mol
# Density = 2.702935 g / cm^3
# Si number density = 27.091009 Si / 1000 Ang^3
#
#
#
# Elastic Constant Matrix: (Units=GPa)
#
#
# Indices 1 2 3 4 5 6 
#
# 1 94.1995 33.2857 42.9683 2.9962 -8.1482 5.0710
# 2 33.2857 168.0760 56.7962 5.4951 -34.3373 -6.9130
# 3 42.9683 56.7962 143.6052 3.2556 -23.6063 -2.0943
# 4 2.9962 5.4951 3.2556 49.0035 2.8234 -4.9744
# 5 -8.1482 -34.3373 -23.6063 2.8234 34.0883 -4.1002
# 6 5.0710 -6.9130 -2.0943 -4.9744 -4.1002 38.5869
#
#
#
# Elastic Compliance Matrix: (Units=1/GPa)
#
#
# Indices 1 2 3 4 5 6 
#
# 1 0.012804 -0.001734 -0.003376 -0.000533 -0.001266 -0.002380
# 2 -0.001734 0.008452 -0.001556 -0.000928 0.007378 0.002322
# 3 -0.003376 -0.001556 0.009309 -0.000373 0.004232 0.001072
# 4 -0.000533 -0.000928 -0.000373 0.020961 -0.002780 0.002290
# 5 -0.001266 0.007378 0.004232 -0.002780 0.040304 0.005642
# 6 -0.002380 0.002322 0.001072 0.002290 0.005642 0.027597
#
#
# Mechanical properties :
#
#
# Convention : Reuss Voigt Hill
#
# Bulk Modulus (GPa) = 58.03086 74.66455 66.34770
# Shear Modulus (GPa) = 36.10017 42.52442 39.31230
#
# Velocity S-wave (km/s) = 3.65437 3.96623 3.81349
# Velocity P-wave (km/s) = 6.26683 6.97102 6.62828
#
# Compressibility (1/GPa) = 0.01723221
#
# Stress axis : x y z
#
# Youngs Moduli (GPa) = 78.10083 118.31423 107.42429
#
# Poissons Ratio (x) = 0.20515 0.36267
# Poissons Ratio (y) = 0.13543 0.16719
# Poissons Ratio (z) = 0.26367 0.18413
#
# Static dielectric constant tensor:
#      x y z
#    x 2.286410 0.069790 -0.195830 
#    y 0.069790 2.213970 -0.112700 
#    z -0.195830 -0.112700 2.597540 
# 
# From -- ./inp_files/40063.got.cif
#   From: 2010.05.17/outbox.cif.g08.bks.cpg/sg2_21_cif.got.tgz:40063.got - 2010.06.03 11:33:40.
