data_PCOD9004823
_publ_section_title
;
Structure prediction by ZEFSAII (Michael W. Deem and Ramdas Pophale) SiO2 
 PCOD9004823
Probable space group: P -1
;
_chemical_formula_sum "Si O2"
_cell_formula_units_Z 16
_cell_length_a 10.755162
_cell_length_b 9.162006
_cell_length_c 13.714045
_cell_angle_alpha 96.894640
_cell_angle_beta 131.451673
_cell_angle_gamma 60.663311
_cell_volume 838.705634
_symmetry_space_group_name_H-M "P -1"
_symmetry_group_IT_number 2
_symmetry_cell_setting 'triclinic'
loop_
_space_group_symop_operation_xyz
x,y,z
-x,-y,-z
loop_
_atom_site_type_symbol
_atom_site_label
_atom_site_fract_x
_atom_site_fract_y
_atom_site_fract_z
Si Si1 0.554801 0.985859 0.415088
Si Si2 0.556740 0.920167 0.130690
Si Si3 0.221320 0.953635 0.610957
Si Si4 0.371554 0.571669 0.713445
Si Si5 0.803691 0.504187 0.200603
Si Si6 0.210539 0.550860 0.038832
Si Si7 0.165634 0.423123 0.494041
Si Si8 0.227559 0.210519 0.108670
O O1 0.658701 0.781714 0.420671
O O2 0.500000 0.000000 0.500000
O O3 0.718389 0.021966 0.463766
O O4 0.357370 0.133659 0.267963
O O5 0.654932 0.712956 0.158484
O O6 0.714923 0.946917 0.273569
O O7 0.349343 0.039376 0.089820
O O8 0.500000 0.000000 0.000000
O O9 0.347727 0.753774 0.694664
O O10 0.000000 0.000000 0.500000
O O11 0.260349 0.582193 0.757167
O O12 0.606781 0.436080 0.833397
O O13 0.269061 0.529158 0.570621
O O14 0.029467 0.449944 0.333088
O O15 0.786163 0.459557 0.077597
O O16 0.232353 0.372198 0.076982
O O17 0.000518 0.711133 0.981768
O O18 0.000000 0.500000 0.500000
#
# Coordination Sequence:
#
# PCOD9004823 Si02
#       8
#     2   2   2   2   2   2   2   2
#     4  11  22  42  64  87 122 170 205 243 308 377
#     4  11  20  39  60  89 118 163 200 244 297 369
#     4  11  21  37  61  91 123 155 204 258 301 350
#     4  11  20  37  59  92 122 154 199 260 298 348
#     4  11  21  37  62  92 120 157 204 243 308 369
#     4  11  21  37  61  87 119 161 200 247 297 362
#     4  10  21  38  62  89 121 161 197 249 306 363
#     4  10  21  38  59  84 120 160 202 240 307 356
#
# _framework density 19.077013999999998
#
# number of rings (size 3 to 8) (size 9 to 14) (size 15 to 20)
#    0.000    1.250    3.750    6.375    0.000    0.000 
#    0.000    4.375    0.000    0.000    0.000    0.000 
#    0.000    0.000    0.000    0.000    0.000    0.000 
#
# Total GULP energy -89207.452571 kJ/mol
# GULP energy per Si atom -5575.465786 kJ/mol
# Density = 1.903359 g / cm^3
# Si number density = 19.077014 Si / 1000 Ang^3
#
#
#
# Elastic Constant Matrix: (Units=GPa)
#
#
# Indices 1 2 3 4 5 6 
#
# 1 110.2741 9.4633 36.3815 8.8483 -1.6744 -11.7652
# 2 9.4633 40.9657 -12.7360 -2.3801 -1.4339 -9.7067
# 3 36.3815 -12.7360 64.1444 -2.2362 14.5399 -18.3976
# 4 8.8483 -2.3801 -2.2362 24.3922 3.7980 3.5652
# 5 -1.6744 -1.4339 14.5399 3.7980 47.2256 -13.6499
# 6 -11.7652 -9.7067 -18.3976 3.5652 -13.6499 22.9201
#
#
#
# Elastic Compliance Matrix: (Units=1/GPa)
#
#
# Indices 1 2 3 4 5 6 
#
# 1 0.013644 -0.006942 -0.010514 -0.007028 0.003777 -0.001034
# 2 -0.006942 0.039929 0.020092 0.003169 0.003506 0.031069
# 3 -0.010514 0.020092 0.034462 0.005177 -0.002570 0.028439
# 4 -0.007028 0.003169 0.005177 0.047215 -0.008601 -0.010576
# 5 0.003777 0.003506 -0.002570 -0.008601 0.028601 0.019732
# 6 -0.001034 0.031069 0.028439 -0.010576 0.019732 0.092480
#
#
# Mechanical properties :
#
#
# Convention : Reuss Voigt Hill
#
# Bulk Modulus (GPa) = 10.71718 31.28909 21.00313
# Shear Modulus (GPa) = 17.72031 31.05929 24.38980
#
# Velocity S-wave (km/s) = 3.05106 4.03935 3.57948
# Velocity P-wave (km/s) = 4.24759 6.17998 5.30256
#
# Compressibility (1/GPa) = 0.09330817
#
# Stress axis : x y z
#
# Youngs Moduli (GPa) = 73.29322 25.04416 29.01725
#
# Poissons Ratio (x) = 0.17385 0.30510
# Poissons Ratio (y) = 0.50878 -0.58302
# Poissons Ratio (z) = 0.77063 -0.50319
#
# Static dielectric constant tensor:
#      x y z
#    x 1.672930 -0.008000 0.009130 
#    y -0.008000 1.672850 -0.031430 
#    z 0.009130 -0.031430 1.739120 
# 
# From -- ./inp_files/515785.got.cif
#   From: 2010.05.17/outbox.cif.g08.bks.cpg/sg2_258_cif.got.tgz:515785.got - 2010.06.03 11:33:40.
