data_PCOD9004824
_publ_section_title
;
Structure prediction by ZEFSAII (Michael W. Deem and Ramdas Pophale) SiO2 
 PCOD9004824
Probable space group: P -1
;
_chemical_formula_sum "Si O2"
_cell_formula_units_Z 16
_cell_length_a 16.149249
_cell_length_b 7.926114
_cell_length_c 11.512765
_cell_angle_alpha 106.792863
_cell_angle_beta 148.135198
_cell_angle_gamma 95.158564
_cell_volume 557.296927
_symmetry_space_group_name_H-M "P -1"
_symmetry_group_IT_number 2
_symmetry_cell_setting 'triclinic'
loop_
_space_group_symop_operation_xyz
x,y,z
-x,-y,-z
loop_
_atom_site_type_symbol
_atom_site_label
_atom_site_fract_x
_atom_site_fract_y
_atom_site_fract_z
Si Si1 0.466975 0.423319 0.577167
Si Si2 0.442257 0.857745 0.261470
Si Si3 0.358548 0.231122 0.825420
Si Si4 0.810280 0.530655 0.660865
Si Si5 0.260090 0.706020 0.755591
Si Si6 0.153513 0.954759 0.004863
Si Si7 0.993677 0.188141 0.437241
Si Si8 0.144298 0.816218 0.308239
O O1 0.500000 0.500000 0.500000
O O2 0.602243 0.367895 0.782058
O O3 0.420776 0.561256 0.623727
O O4 0.241869 0.159921 0.242076
O O5 0.685572 0.076378 0.570402
O O6 0.358725 0.799895 0.019772
O O7 0.323642 0.924305 0.198285
O O8 0.185685 0.198391 0.696331
O O9 0.217699 0.037641 0.515300
O O10 0.500000 0.500000 0.000000
O O11 0.540923 0.220949 0.065696
O O12 0.831232 0.341531 0.617852
O O13 0.937962 0.732159 0.758479
O O14 0.923499 0.636904 0.943234
O O15 0.095358 0.425769 0.529312
O O16 0.134397 0.799057 0.613991
O O17 0.140042 0.003570 0.863653
#
# Coordination Sequence:
#
# PCOD9004824 Si02
#       8
#     2   2   2   2   2   2   2   2
#     4  12  25  37  56  86 120 156 202 241 295 365
#     4  10  21  38  60  82 118 158 198 243 298 355
#     4   9  17  32  59  85 108 151 200 244 292 346
#     4  11  24  36  57  88 125 158 192 246 299 360
#     4   8  17  32  55  86 112 147 196 243 294 342
#     4  11  22  37  60  87 117 160 196 243 303 351
#     4   9  17  32  56  89 109 147 198 243 289 359
#     4  10  21  38  59  84 122 156 197 244 299 358
#
# _framework density 28.710006
#
# number of rings (size 3 to 8) (size 9 to 14) (size 15 to 20)
#    0.000    2.000    1.250    2.250    7.000    0.000 
#    0.000    0.000    0.000    7.500   22.750    0.000 
#    0.000    0.000    0.000    0.000    0.000    0.000 
#
# Total GULP energy -89529.532129 kJ/mol
# GULP energy per Si atom -5595.595758 kJ/mol
# Density = 2.864466 g / cm^3
# Si number density = 28.710006 Si / 1000 Ang^3
#
#
#
# Elastic Constant Matrix: (Units=GPa)
#
#
# Indices 1 2 3 4 5 6 
#
# 1 150.3864 33.2368 31.5430 -20.1448 25.8407 -40.0623
# 2 33.2368 155.3599 36.5555 -42.3766 11.8349 -33.5688
# 3 31.5430 36.5555 86.6701 -16.4314 12.6572 -19.8277
# 4 -20.1448 -42.3766 -16.4314 56.5039 -21.1161 14.4008
# 5 25.8407 11.8349 12.6572 -21.1161 61.7987 -3.0059
# 6 -40.0623 -33.5688 -19.8277 14.4008 -3.0059 56.8687
#
#
#
# Elastic Compliance Matrix: (Units=1/GPa)
#
#
# Indices 1 2 3 4 5 6 
#
# 1 0.009026 -0.000106 -0.001483 0.000110 -0.003141 0.005585
# 2 -0.000106 0.009138 -0.002130 0.005697 0.000832 0.003178
# 3 -0.001483 -0.002130 0.013850 0.000794 -0.001428 0.002250
# 4 0.000110 0.005697 0.000794 0.025584 0.007327 -0.002374
# 5 -0.003141 0.000832 -0.001428 0.007327 0.019985 -0.003019
# 6 0.005585 0.003178 0.002250 -0.002374 -0.003019 0.024621
#
#
# Mechanical properties :
#
#
# Convention : Reuss Voigt Hill
#
# Bulk Modulus (GPa) = 40.68989 66.12078 53.40534
# Shear Modulus (GPa) = 42.43277 54.43968 48.43622
#
# Velocity S-wave (km/s) = 3.84862 4.35925 4.11187
# Velocity P-wave (km/s) = 5.82689 6.95831 6.41758
#
# Compressibility (1/GPa) = 0.02457613
#
# Stress axis : x y z
#
# Youngs Moduli (GPa) = 110.78648 109.43703 72.20209
#
# Poissons Ratio (x) = 0.01160 0.10708
# Poissons Ratio (y) = 0.01174 0.15378
# Poissons Ratio (z) = 0.16430 0.23309
#
# Static dielectric constant tensor:
#      x y z
#    x 2.231190 -0.048130 -0.090670 
#    y -0.048130 2.380580 0.007950 
#    z -0.090670 0.007950 2.397820 
# 
# From -- ./inp_files/201654.got.cif
#   From: 2010.05.17/outbox.cif.g08.bks.cpg/sg2_101_cif.got.tgz:201654.got - 2010.06.03 11:33:40.
