data_PCOD9004062
_publ_section_title
;
Structure prediction by ZEFSAII (Michael W. Deem and Ramdas Pophale) SiO2 
 PCOD9004062
Probable space group: P -1
;
_chemical_formula_sum "Si O2"
_cell_formula_units_Z 14
_cell_length_a 18.016113
_cell_length_b 16.007164
_cell_length_c 9.724861
_cell_angle_alpha 128.662535
_cell_angle_beta 35.763788
_cell_angle_gamma 156.325788
_cell_volume 568.223965
_symmetry_space_group_name_H-M "P -1"
_symmetry_group_IT_number 2
_symmetry_cell_setting 'triclinic'
loop_
_space_group_symop_operation_xyz
x,y,z
-x,-y,-z
loop_
_atom_site_type_symbol
_atom_site_label
_atom_site_fract_x
_atom_site_fract_y
_atom_site_fract_z
Si Si1 0.845978 0.818241 0.420803
Si Si2 0.589419 0.378427 0.590437
Si Si3 0.423544 0.831165 0.076374
Si Si4 0.406877 0.150408 0.889801
Si Si5 0.370154 0.445949 0.951320
Si Si6 0.765234 0.940780 0.463732
Si Si7 0.124399 0.664452 0.104680
O O1 0.518052 0.554431 0.688336
O O2 0.868258 0.908592 0.346616
O O3 0.000000 0.000000 0.500000
O O4 0.063107 0.882872 0.149132
O O5 0.466402 0.191305 0.680914
O O6 0.498434 0.432548 0.806247
O O7 0.923265 0.616260 0.355954
O O8 0.484364 0.272199 0.487284
O O9 0.627987 0.906341 0.757305
O O10 0.558873 0.052010 0.108101
O O11 0.428299 0.792356 0.184455
O O12 0.144902 0.629054 0.189691
O O13 0.516844 0.355273 0.960397
O O14 0.034370 0.187578 0.224878
O O15 0.000000 0.500000 0.000000
#
# Coordination Sequence:
#
# PCOD9004062 Si02
#       7
#     2   2   2   2   2   2   2
#     4  10  21  37  63  99 141 175 226 271 349 422
#     4  12  25  41  68 103 145 182 235 291 346 420
#     4  11  24  48  75  99 140 187 236 294 346 419
#     4  11  23  43  67 107 139 181 233 286 357 428
#     4  11  23  39  69 103 143 185 220 283 361 417
#     4  12  23  43  65 106 144 180 233 287 352 424
#     4  11  25  48  75  98 133 192 243 290 350 403
#
# _framework density 24.638176000000001
#
# number of rings (size 3 to 8) (size 9 to 14) (size 15 to 20)
#    0.000    0.857    5.714    2.571    4.000    1.143 
#    5.143    0.714    0.000    0.000    0.000    0.000 
#    0.000    0.000    0.000    0.000    0.000    0.000 
#
# Total GULP energy -78148.243927 kJ/mol
# GULP energy per Si atom -5582.017423 kJ/mol
# Density = 2.458210 g / cm^3
# Si number density = 24.638176 Si / 1000 Ang^3
#
#
#
# Elastic Constant Matrix: (Units=GPa)
#
#
# Indices 1 2 3 4 5 6 
#
# 1 172.1128 19.1528 9.6339 -5.6504 12.4380 19.3438
# 2 19.1528 60.8250 14.1302 0.7523 3.6014 11.3763
# 3 9.6339 14.1302 51.6539 -18.9949 7.4901 4.8350
# 4 -5.6504 0.7523 -18.9949 32.1922 -0.8905 2.5824
# 5 12.4380 3.6014 7.4901 -0.8905 47.5905 -5.7909
# 6 19.3438 11.3763 4.8350 2.5824 -5.7909 36.5157
#
#
#
# Elastic Compliance Matrix: (Units=1/GPa)
#
#
# Indices 1 2 3 4 5 6 
#
# 1 0.006542 -0.001389 0.000392 0.001638 -0.002065 -0.003528
# 2 -0.001389 0.019139 -0.005874 -0.003833 -0.000755 -0.004298
# 3 0.000392 -0.005874 0.028138 0.017010 -0.004252 -0.003981
# 4 0.001638 -0.003833 0.017010 0.041829 -0.002678 -0.005309
# 5 -0.002065 -0.000755 -0.004252 -0.002678 0.022924 0.005717
# 6 -0.003528 -0.004298 -0.003981 -0.005309 0.005717 0.032403
#
#
# Mechanical properties :
#
#
# Convention : Reuss Voigt Hill
#
# Bulk Modulus (GPa) = 24.95277 41.15840 33.05558
# Shear Modulus (GPa) = 28.07778 39.37133 33.72456
#
# Velocity S-wave (km/s) = 3.37947 4.00181 3.70373
# Velocity P-wave (km/s) = 5.03760 6.17204 5.63345
#
# Compressibility (1/GPa) = 0.04007571
#
# Stress axis : x y z
#
# Youngs Moduli (GPa) = 152.85053 52.25040 35.53914
#
# Poissons Ratio (x) = 0.07259 -0.01392
# Poissons Ratio (y) = 0.21234 0.20876
# Poissons Ratio (z) = -0.05989 0.30693
#
# Static dielectric constant tensor:
#      x y z
#    x 1.999950 0.003830 0.052350 
#    y 0.003830 1.983060 -0.004290 
#    z 0.052350 -0.004290 2.164370 
# 
# From -- ./inp_files/315534.got.cif
#   From: 2010.05.17/outbox.cif.g08.bks.cpg/sg2_158_cif.got.tgz:315534.got - 2010.06.03 11:33:40.
