data_PCOD9004069
_publ_section_title
;
Structure prediction by ZEFSAII (Michael W. Deem and Ramdas Pophale) SiO2 
 PCOD9004069
Probable space group: P -1
;
_chemical_formula_sum "Si O2"
_cell_formula_units_Z 14
_cell_length_a 11.940774
_cell_length_b 5.572661
_cell_length_c 15.892160
_cell_angle_alpha 55.171229
_cell_angle_beta 46.014643
_cell_angle_gamma 47.674220
_cell_volume 551.792794
_symmetry_space_group_name_H-M "P -1"
_symmetry_group_IT_number 2
_symmetry_cell_setting 'triclinic'
loop_
_space_group_symop_operation_xyz
x,y,z
-x,-y,-z
loop_
_atom_site_type_symbol
_atom_site_label
_atom_site_fract_x
_atom_site_fract_y
_atom_site_fract_z
Si Si1 0.936769 0.466552 0.755910
Si Si2 0.391007 0.607969 0.121466
Si Si3 0.229078 0.216400 0.513349
Si Si4 0.853846 0.681684 0.923573
Si Si5 0.968337 0.080660 0.596729
Si Si6 0.421072 0.886417 0.722480
Si Si7 0.218759 0.538428 0.813859
O O1 0.119294 0.331741 0.635037
O O2 0.784352 0.436621 0.791373
O O3 0.925079 0.386279 0.876288
O O4 0.885923 0.854071 0.714787
O O5 0.495342 0.391063 0.190766
O O6 0.320308 0.000374 0.079362
O O7 0.500000 0.500000 0.000000
O O8 0.152118 0.527296 0.425526
O O9 0.434092 0.085264 0.418991
O O10 0.153702 0.980615 0.563909
O O11 0.020955 0.749543 0.839148
O O12 0.807430 0.590524 0.056257
O O13 0.000000 0.000000 0.500000
O O14 0.317270 0.751072 0.743481
O O15 0.318023 0.232542 0.758356
#
# Coordination Sequence:
#
# PCOD9004069 Si02
#       7
#     2   2   2   2   2   2   2
#     4  11  23  39  70 100 142 183 238 292 368 419
#     4  12  25  42  73 108 140 178 247 306 351 413
#     4  10  21  37  64 100 140 186 228 297 353 429
#     4  11  26  48  72  98 146 192 239 289 371 432
#     4   9  18  35  59  97 135 183 227 281 363 411
#     4  12  26  46  73 112 144 183 246 298 354 420
#     4  11  29  48  74 102 148 196 234 296 364 433
#
# _framework density 25.371843999999999
#
# number of rings (size 3 to 8) (size 9 to 14) (size 15 to 20)
#    0.000    1.143    1.429    5.143   10.000    2.286 
#    0.000    1.429    0.000    0.000    0.000    0.000 
#    0.000    0.000    0.000    0.000    0.000    0.000 
#
# Total GULP energy -78197.734592 kJ/mol
# GULP energy per Si atom -5585.552471 kJ/mol
# Density = 2.531410 g / cm^3
# Si number density = 25.371844 Si / 1000 Ang^3
#
#
#
# Elastic Constant Matrix: (Units=GPa)
#
#
# Indices 1 2 3 4 5 6 
#
# 1 115.7724 57.7030 32.4769 11.5946 -13.1402 18.4251
# 2 57.7030 96.7582 49.1028 12.5975 -4.5129 -6.1865
# 3 32.4769 49.1028 165.2690 40.0025 2.5683 7.2099
# 4 11.5946 12.5975 40.0025 45.3644 14.4868 9.8049
# 5 -13.1402 -4.5129 2.5683 14.4868 52.5020 -1.4339
# 6 18.4251 -6.1865 7.2099 9.8049 -1.4339 39.5704
#
#
#
# Elastic Compliance Matrix: (Units=1/GPa)
#
#
# Indices 1 2 3 4 5 6 
#
# 1 0.014907 -0.009360 0.000318 -0.000632 0.002861 -0.008202
# 2 -0.009360 0.018489 -0.003711 -0.001249 -0.000002 0.008234
# 3 0.000318 -0.003711 0.008818 -0.007122 0.001280 -0.000524
# 4 -0.000632 -0.001249 -0.007122 0.033367 -0.009321 -0.007209
# 5 0.002861 -0.000002 0.001280 -0.009321 0.022314 0.001552
# 6 -0.008202 0.008234 -0.000524 -0.007209 0.001552 0.032316
#
#
# Mechanical properties :
#
#
# Convention : Reuss Voigt Hill
#
# Bulk Modulus (GPa) = 59.85240 72.92945 66.39092
# Shear Modulus (GPa) = 31.00084 43.38849 37.19466
#
# Velocity S-wave (km/s) = 3.49930 4.13983 3.83297
# Velocity P-wave (km/s) = 6.32204 7.18732 6.76852
#
# Compressibility (1/GPa) = 0.01670777
#
# Stress axis : x y z
#
# Youngs Moduli (GPa) = 67.08219 54.08568 113.41059
#
# Poissons Ratio (x) = 0.50624 -0.03606
# Poissons Ratio (y) = 0.62789 0.42085
# Poissons Ratio (z) = -0.02133 0.20071
#
# Static dielectric constant tensor:
#      x y z
#    x 1.969100 0.006750 -0.010540 
#    y 0.006750 2.066040 -0.016390 
#    z -0.010540 -0.016390 2.066820 
# 
# From -- ./inp_files/480181.got.cif
#   From: 2010.05.17/outbox.cif.g08.bks.cpg/sg2_241_cif.got.tgz:480181.got - 2010.06.03 11:33:40.
