data_PCOD9004216
_publ_section_title
;
Structure prediction by ZEFSAII (Michael W. Deem and Ramdas Pophale) SiO2 
 PCOD9004216
Probable space group: P -1
;
_chemical_formula_sum "Si O2"
_cell_formula_units_Z 14
_cell_length_a 18.377652
_cell_length_b 9.020578
_cell_length_c 8.445376
_cell_angle_alpha 108.690065
_cell_angle_beta 56.564394
_cell_angle_gamma 59.944381
_cell_volume 570.435887
_symmetry_space_group_name_H-M "P -1"
_symmetry_group_IT_number 2
_symmetry_cell_setting 'triclinic'
loop_
_space_group_symop_operation_xyz
x,y,z
-x,-y,-z
loop_
_atom_site_type_symbol
_atom_site_label
_atom_site_fract_x
_atom_site_fract_y
_atom_site_fract_z
Si Si1 0.395703 0.518661 0.476730
Si Si2 0.207063 0.095845 0.173425
Si Si3 0.879669 0.445485 0.684507
Si Si4 0.362303 0.356413 0.770305
Si Si5 0.557562 0.291051 0.721181
Si Si6 0.689462 0.636019 0.664525
Si Si7 0.155596 0.325996 0.657286
O O1 0.360417 0.457680 0.645180
O O2 0.343696 0.769824 0.561308
O O3 0.336362 0.501702 0.397437
O O4 0.596591 0.240628 0.160906
O O5 0.176523 0.285857 0.154745
O O6 0.156841 0.243076 0.455286
O O7 0.079952 0.148569 0.311815
O O8 0.770957 0.540601 0.704375
O O9 0.817386 0.448042 0.911917
O O10 0.410942 0.413474 0.860374
O O11 0.500000 0.000000 0.500000
O O12 0.680602 0.981335 0.550967
O O13 0.500000 0.500000 0.000000
O O14 0.816811 0.533420 0.360570
O O15 0.500000 0.000000 0.000000
O O16 0.000000 0.500000 0.000000
#
# Coordination Sequence:
#
# PCOD9004216 Si02
#       7
#     2   2   2   2   2   2   2
#     4  12  23  42  68 101 142 179 238 293 356 415
#     4  10  21  39  64  99 140 175 229 292 358 408
#     4  10  21  37  64  98 135 177 228 291 343 404
#     4  12  24  40  71 106 137 183 247 291 338 427
#     4  12  25  45  71 103 145 193 230 293 368 422
#     4  11  19  42  67 100 132 187 235 284 341 436
#     4  11  24  40  71 103 137 183 245 292 347 423
#
# _framework density 24.542632999999999
#
# number of rings (size 3 to 8) (size 9 to 14) (size 15 to 20)
#    0.000    0.857    5.714    3.000    4.000    1.143 
#    0.000    1.429    0.000    0.000    0.000    0.000 
#    0.000    0.000    0.000    0.000    0.000    0.000 
#
# Total GULP energy -78286.571383 kJ/mol
# GULP energy per Si atom -5591.897956 kJ/mol
# Density = 2.448677 g / cm^3
# Si number density = 24.542633 Si / 1000 Ang^3
#
#
#
# Elastic Constant Matrix: (Units=GPa)
#
#
# Indices 1 2 3 4 5 6 
#
# 1 126.4813 27.1830 31.7216 -11.8514 -20.9128 -2.2878
# 2 27.1830 111.5058 32.6465 -46.4195 -10.0524 12.8434
# 3 31.7216 32.6465 86.3195 -44.2145 -28.6618 10.8213
# 4 -11.8514 -46.4195 -44.2145 46.3369 9.3479 -15.6182
# 5 -20.9128 -10.0524 -28.6618 9.3479 42.3017 -1.1790
# 6 -2.2878 12.8434 10.8213 -15.6182 -1.1790 38.5492
#
#
#
# Elastic Compliance Matrix: (Units=1/GPa)
#
#
# Indices 1 2 3 4 5 6 
#
# 1 0.009523 -0.002908 -0.004066 -0.004508 0.002284 0.000919
# 2 -0.002908 0.017450 0.007171 0.023658 0.002387 0.001659
# 3 -0.004066 0.007171 0.033104 0.035879 0.014281 0.003050
# 4 -0.004508 0.023658 0.035879 0.081398 0.010136 0.015067
# 5 0.002284 0.002387 0.014281 0.010136 0.032784 0.000441
# 6 0.000919 0.001659 0.003050 0.015067 0.000441 0.030705
#
#
# Mechanical properties :
#
#
# Convention : Reuss Voigt Hill
#
# Bulk Modulus (GPa) = 16.53607 56.37873 36.45740
# Shear Modulus (GPa) = 22.24943 40.95459 31.60201
#
# Velocity S-wave (km/s) = 3.01418 4.08942 3.59226
# Velocity P-wave (km/s) = 4.34351 6.73197 5.66505
#
# Compressibility (1/GPa) = 0.06047386
#
# Stress axis : x y z
#
# Youngs Moduli (GPa) = 105.01218 57.30568 30.20777
#
# Poissons Ratio (x) = 0.16662 0.12281
# Poissons Ratio (y) = 0.30533 -0.21663
# Poissons Ratio (z) = 0.42693 -0.41097
#
# Static dielectric constant tensor:
#      x y z
#    x 1.974700 -0.027470 0.064060 
#    y -0.027470 1.924250 -0.017300 
#    z 0.064060 -0.017300 1.917930 
# 
# From -- ./inp_files/329122.got.cif
#   From: 2010.05.17/outbox.cif.g08.bks.cpg/sg2_165_cif.got.tgz:329122.got - 2010.06.03 11:33:40.
