data_PCOD9004646
_publ_section_title
;
Structure prediction by ZEFSAII (Michael W. Deem and Ramdas Pophale) SiO2 
 PCOD9004646
Probable space group: P -1
;
_chemical_formula_sum "Si O2"
_cell_formula_units_Z 14
_cell_length_a 8.688383
_cell_length_b 15.126525
_cell_length_c 12.512323
_cell_angle_alpha 130.227411
_cell_angle_beta 77.476610
_cell_angle_gamma 63.438863
_cell_volume 754.848024
_symmetry_space_group_name_H-M "P -1"
_symmetry_group_IT_number 2
_symmetry_cell_setting 'triclinic'
loop_
_space_group_symop_operation_xyz
x,y,z
-x,-y,-z
loop_
_atom_site_type_symbol
_atom_site_label
_atom_site_fract_x
_atom_site_fract_y
_atom_site_fract_z
Si Si1 0.436411 0.072237 0.812470
Si Si2 0.257348 0.713802 0.172998
Si Si3 0.327402 0.312273 0.191373
Si Si4 0.922974 0.982418 0.888299
Si Si5 0.106604 0.259823 0.357042
Si Si6 0.710591 0.044491 0.575748
Si Si7 0.870679 0.955029 0.248735
O O1 0.686646 0.890534 0.700283
O O2 0.523881 0.063956 0.676019
O O3 0.246547 0.074639 0.832050
O O4 0.316645 0.249324 0.032456
O O5 0.315984 0.815616 0.255909
O O6 0.140408 0.760327 0.109372
O O7 0.500000 0.500000 0.000000
O O8 0.009007 0.834724 0.380042
O O9 0.241477 0.268135 0.259077
O O10 0.137534 0.530396 0.397347
O O11 0.620912 0.175429 0.062701
O O12 0.964649 0.820293 0.750994
O O13 0.081577 0.954047 0.748960
O O14 0.000000 0.000000 0.000000
O O15 0.691467 0.071261 0.471712
#
# Coordination Sequence:
#
# PCOD9004646 Si02
#       7
#     2   2   2   2   2   2   2
#     4  11  20  39  59  82 117 155 193 233 286 338
#     4   9  19  37  57  80 114 151 186 237 287 330
#     4  10  22  39  58  86 116 150 196 233 285 348
#     4  11  21  38  63  87 115 151 190 236 292 334
#     4  10  22  39  60  83 116 154 188 239 290 337
#     4   9  21  37  56  83 114 151 193 232 282 346
#     4  10  21  38  56  87 118 148 193 240 278 344
#
# _framework density 18.546779999999998
#
# number of rings (size 3 to 8) (size 9 to 14) (size 15 to 20)
#    0.857    1.143    0.000    5.571    0.000    2.857 
#    2.571    0.714    0.000    0.000    0.000    0.000 
#    0.000    0.000    0.000    0.000    0.000    0.000 
#
# Total GULP energy -78047.410562 kJ/mol
# GULP energy per Si atom -5574.815040 kJ/mol
# Density = 1.850457 g / cm^3
# Si number density = 18.546780 Si / 1000 Ang^3
#
#
#
# Elastic Constant Matrix: (Units=GPa)
#
#
# Indices 1 2 3 4 5 6 
#
# 1 119.5294 24.0734 37.6274 4.3881 21.6200 -1.0864
# 2 24.0734 59.7234 39.2118 -4.8082 9.5211 4.9935
# 3 37.6274 39.2118 93.5119 12.6488 12.1859 8.0724
# 4 4.3881 -4.8082 12.6488 33.8202 6.3396 -2.1922
# 5 21.6200 9.5211 12.1859 6.3396 21.3142 -12.2620
# 6 -1.0864 4.9935 8.0724 -2.1922 -12.2620 23.0539
#
#
#
# Elastic Compliance Matrix: (Units=1/GPa)
#
#
# Indices 1 2 3 4 5 6 
#
# 1 0.011639 -0.000164 -0.002467 0.001675 -0.014259 -0.005977
# 2 -0.000164 0.027227 -0.009994 0.009745 -0.014455 -0.009167
# 3 -0.002467 -0.009994 0.018405 -0.007368 -0.006191 -0.008389
# 4 0.001675 0.009745 -0.007368 0.036012 -0.014792 -0.003895
# 5 -0.014259 -0.014455 -0.006191 -0.014792 0.111857 0.062715
# 6 -0.005977 -0.009167 -0.008389 -0.003895 0.062715 0.081005
#
#
# Mechanical properties :
#
#
# Convention : Reuss Voigt Hill
#
# Bulk Modulus (GPa) = 31.22976 52.73220 41.98098
# Shear Modulus (GPa) = 15.52461 27.09447 21.30954
#
# Velocity S-wave (km/s) = 2.89632 3.82628 3.39331
# Velocity P-wave (km/s) = 5.29715 6.92924 6.16742
#
# Compressibility (1/GPa) = 0.03202074
#
# Stress axis : x y z
#
# Youngs Moduli (GPa) = 85.91734 36.72808 54.33366
#
# Poissons Ratio (x) = 0.00603 0.13404
# Poissons Ratio (y) = 0.01409 0.54302
# Poissons Ratio (z) = 0.21195 0.36707
#
# Static dielectric constant tensor:
#      x y z
#    x 1.634620 0.006250 -0.006510 
#    y 0.006250 1.645500 -0.038480 
#    z -0.006510 -0.038480 1.645220 
# 
# From -- ./inp_files/399572.got.cif
#   From: 2010.05.17/outbox.cif.g08.bks.cpg/sg2_200_cif.got.tgz:399572.got - 2010.06.03 11:33:40.
