data_PCOD9004845
_publ_section_title
;
Structure prediction by ZEFSAII (Michael W. Deem and Ramdas Pophale) SiO2 
 PCOD9004845
Probable space group: P -1
;
_chemical_formula_sum "Si O2"
_cell_formula_units_Z 16
_cell_length_a 14.689933
_cell_length_b 7.319368
_cell_length_c 7.310688
_cell_angle_alpha 88.450130
_cell_angle_beta 123.383185
_cell_angle_gamma 87.580029
_cell_volume 654.583913
_symmetry_space_group_name_H-M "P -1"
_symmetry_group_IT_number 2
_symmetry_cell_setting 'triclinic'
loop_
_space_group_symop_operation_xyz
x,y,z
-x,-y,-z
loop_
_atom_site_type_symbol
_atom_site_label
_atom_site_fract_x
_atom_site_fract_y
_atom_site_fract_z
Si Si1 0.984713 0.977499 0.767017
Si Si2 0.235118 0.394184 0.802032
Si Si3 0.565554 0.242408 0.540373
Si Si4 0.754664 0.796474 0.536389
Si Si5 0.670141 0.877889 0.818465
Si Si6 0.338265 0.836551 0.707080
Si Si7 0.560444 0.390212 0.906275
Si Si8 0.894298 0.260242 0.386339
O O1 0.872554 0.874292 0.629162
O O2 0.074677 0.848705 0.762352
O O3 0.974041 0.168341 0.634667
O O4 0.000000 0.000000 0.000000
O O5 0.257074 0.365586 0.612288
O O6 0.123263 0.522830 0.682399
O O7 0.260399 0.193893 0.927019
O O8 0.326968 0.510206 0.992536
O O9 0.455659 0.173659 0.328182
O O10 0.630946 0.292474 0.430010
O O11 0.521535 0.363953 0.659577
O O12 0.651777 0.091750 0.738035
O O13 0.734923 0.770502 0.727892
O O14 0.666368 0.959529 0.378702
O O15 0.222070 0.789983 0.659527
O O16 0.418933 0.805065 0.966241
O O17 0.500000 0.500000 0.000000
#
# Coordination Sequence:
#
# PCOD9004845 Si02
#       8
#     2   2   2   2   2   2   2   2
#     4  10  22  43  68  88 111 151 197 242 295 356
#     4  11  23  37  57  87 123 155 188 242 298 342
#     4  10  21  38  59  86 119 162 207 238 279 344
#     4  10  22  39  60  86 117 152 194 239 293 357
#     4  10  22  38  59  86 121 160 198 240 287 341
#     4   9  20  38  60  83 114 157 198 242 287 342
#     4  11  22  35  57  85 119 160 200 243 289 338
#     4   9  22  40  62  91 117 147 195 244 293 355
#
# _framework density 24.443007999999999
#
# number of rings (size 3 to 8) (size 9 to 14) (size 15 to 20)
#    0.000    2.000    0.000    2.250    0.000   14.500 
#    0.000    6.250    0.000    0.000    0.000    0.000 
#    0.000    0.000    0.000    0.000    0.000    0.000 
#
# Total GULP energy -89257.804666 kJ/mol
# GULP energy per Si atom -5578.612792 kJ/mol
# Density = 2.438738 g / cm^3
# Si number density = 24.443008 Si / 1000 Ang^3
#
#
#
# Elastic Constant Matrix: (Units=GPa)
#
#
# Indices 1 2 3 4 5 6 
#
# 1 110.1648 22.6573 36.2656 3.6274 -26.4944 -20.1145
# 2 22.6573 82.4070 49.7771 -17.2205 -8.7594 -27.8982
# 3 36.2656 49.7771 143.9148 -2.1794 -40.5977 -22.9310
# 4 3.6274 -17.2205 -2.1794 40.6511 -7.8768 -1.8047
# 5 -26.4944 -8.7594 -40.5977 -7.8768 43.5852 14.7000
# 6 -20.1145 -27.8982 -22.9310 -1.8047 14.7000 44.0109
#
#
#
# Elastic Compliance Matrix: (Units=1/GPa)
#
#
# Indices 1 2 3 4 5 6 
#
# 1 0.011234 -0.001708 -0.000437 -0.000636 0.005277 0.002035
# 2 -0.001708 0.021751 -0.006565 0.008530 -0.005174 0.011665
# 3 -0.000437 -0.006565 0.011896 -0.000241 0.009957 -0.001499
# 4 -0.000636 0.008530 -0.000241 0.029404 0.004876 0.004568
# 5 0.005277 -0.005174 0.009957 0.004876 0.038027 -0.008181
# 6 0.002035 0.011665 -0.001499 0.004568 -0.008181 0.033185
#
#
# Mechanical properties :
#
#
# Convention : Reuss Voigt Hill
#
# Bulk Modulus (GPa) = 36.41344 61.54294 48.97819
# Shear Modulus (GPa) = 29.05772 40.83523 34.94648
#
# Velocity S-wave (km/s) = 3.45163 4.09177 3.78526
# Velocity P-wave (km/s) = 5.55109 6.89610 6.25983
#
# Compressibility (1/GPa) = 0.02746239
#
# Stress axis : x y z
#
# Youngs Moduli (GPa) = 89.01428 45.97391 84.06398
#
# Poissons Ratio (x) = 0.07852 0.03672
# Poissons Ratio (y) = 0.15202 0.55186
# Poissons Ratio (z) = 0.03888 0.30181
#
# Static dielectric constant tensor:
#      x y z
#    x 1.963070 -0.019990 0.024440 
#    y -0.019990 2.106580 -0.061180 
#    z 0.024440 -0.061180 1.955240 
# 
# From -- ./inp_files/90556.got.cif
#   From: 2010.05.17/outbox.cif.g08.bks.cpg/sg2_46_cif.got.tgz:90556.got - 2010.06.03 11:33:40.
