data_PCOD9004903
_publ_section_title
;
Structure prediction by ZEFSAII (Michael W. Deem and Ramdas Pophale) SiO2 
 PCOD9004903
Probable space group: P -1
;
_chemical_formula_sum "Si O2"
_cell_formula_units_Z 16
_cell_length_a 8.446338
_cell_length_b 16.094729
_cell_length_c 5.159858
_cell_angle_alpha 90.896710
_cell_angle_beta 107.025453
_cell_angle_gamma 87.461264
_cell_volume 670.037302
_symmetry_space_group_name_H-M "P -1"
_symmetry_group_IT_number 2
_symmetry_cell_setting 'triclinic'
loop_
_space_group_symop_operation_xyz
x,y,z
-x,-y,-z
loop_
_atom_site_type_symbol
_atom_site_label
_atom_site_fract_x
_atom_site_fract_y
_atom_site_fract_z
Si Si1 0.594108 0.943953 0.251304
Si Si2 0.138692 0.975458 0.349942
Si Si3 0.689926 0.717499 0.867508
Si Si4 0.086670 0.428994 0.217835
Si Si5 0.515966 0.232534 0.729112
Si Si6 0.106810 0.128399 0.944248
Si Si7 0.667647 0.457919 0.463728
Si Si8 0.246184 0.642993 0.983249
O O1 0.490143 0.866627 0.284226
O O2 0.674794 0.012482 0.472908
O O3 0.757679 0.894999 0.211299
O O4 0.500000 0.000000 0.000000
O O5 0.124261 0.049818 0.139550
O O6 0.000000 0.000000 0.500000
O O7 0.081391 0.883850 0.239254
O O8 0.776888 0.627551 0.870602
O O9 0.550527 0.734240 0.579504
O O10 0.830625 0.786732 0.904367
O O11 0.613626 0.731201 0.115071
O O12 0.190131 0.474129 0.492152
O O13 0.939071 0.368439 0.212081
O O14 0.000000 0.500000 0.000000
O O15 0.686144 0.266857 0.924168
O O16 0.500000 0.500000 0.500000
O O17 0.646404 0.408642 0.183969
O O18 0.732874 0.398692 0.725858
#
# Coordination Sequence:
#
# PCOD9004903 Si02
#       8
#     2   2   2   2   2   2   2   2
#     4  10  21  38  59  89 126 165 207 263 319 371
#     4   9  17  36  60  86 121 158 213 256 309 379
#     4  11  23  43  67  90 125 173 215 259 313 385
#     4  10  24  43  65  96 129 163 208 269 323 370
#     4  11  23  43  64  93 125 170 214 256 314 390
#     4   9  19  37  61  87 119 164 214 256 307 384
#     4  11  22  40  67  90 120 166 207 250 313 383
#     4  11  23  40  60  92 130 154 205 263 314 371
#
# _framework density 23.879266999999999
#
# number of rings (size 3 to 8) (size 9 to 14) (size 15 to 20)
#    0.000    1.750    1.250    3.000    0.000    5.500 
#    6.750    2.500    0.000    0.000    0.000    0.000 
#    0.000    0.000    0.000    0.000    0.000    0.000 
#
# Total GULP energy -89295.304929 kJ/mol
# GULP energy per Si atom -5580.956558 kJ/mol
# Density = 2.382492 g / cm^3
# Si number density = 23.879267 Si / 1000 Ang^3
#
#
#
# Elastic Constant Matrix: (Units=GPa)
#
#
# Indices 1 2 3 4 5 6 
#
# 1 81.2915 47.3647 11.1687 27.7968 15.2761 23.4015
# 2 47.3647 108.6013 35.7848 34.5540 17.7191 7.6631
# 3 11.1687 35.7848 74.6847 26.1206 7.9109 9.7478
# 4 27.7968 34.5540 26.1206 39.0607 10.5833 8.6605
# 5 15.2761 17.7191 7.9109 10.5833 51.1300 19.6446
# 6 23.4015 7.6631 9.7478 8.6605 19.6446 48.5204
#
#
#
# Elastic Compliance Matrix: (Units=1/GPa)
#
#
# Indices 1 2 3 4 5 6 
#
# 1 0.021959 -0.007322 0.005070 -0.010801 0.000833 -0.008862
# 2 -0.007322 0.016050 -0.004755 -0.005924 -0.003042 0.004241
# 3 0.005070 -0.004755 0.019444 -0.011827 0.001082 -0.003928
# 4 -0.010801 -0.005924 -0.011827 0.046979 -0.003157 0.001414
# 5 0.000833 -0.003042 0.001082 -0.003157 0.024497 -0.009493
# 6 -0.008862 0.004241 -0.003928 0.001414 -0.009493 0.028595
#
#
# Mechanical properties :
#
#
# Convention : Reuss Voigt Hill
#
# Bulk Modulus (GPa) = 23.01965 50.35709 36.68837
# Shear Modulus (GPa) = 26.87946 39.09285 32.98616
#
# Velocity S-wave (km/s) = 3.35870 4.05050 3.72071
# Velocity P-wave (km/s) = 4.97012 6.55816 5.81857
#
# Compressibility (1/GPa) = 0.04344115
#
# Stress axis : x y z
#
# Youngs Moduli (GPa) = 45.53979 62.30545 51.42971
#
# Poissons Ratio (x) = 0.45618 -0.26077
# Poissons Ratio (y) = 0.33343 0.24453
# Poissons Ratio (z) = -0.23091 0.29624
#
# Static dielectric constant tensor:
#      x y z
#    x 1.939860 0.056260 0.011080 
#    y 0.056260 1.923890 0.044570 
#    z 0.011080 0.044570 1.928910 
# 
# From -- ./inp_files/38992.got.cif
#   From: 2010.05.17/outbox.cif.g08.bks.cpg/sg2_20_cif.got.tgz:38992.got - 2010.06.03 11:33:40.
