data_PCOD9004760
_publ_section_title
;
Structure prediction by ZEFSAII (Michael W. Deem and Ramdas Pophale) SiO2 
 PCOD9004760
Probable space group: P -1
;
_chemical_formula_sum "Si O2"
_cell_formula_units_Z 16
_cell_length_a 9.503036
_cell_length_b 7.200805
_cell_length_c 17.220943
_cell_angle_alpha 101.410379
_cell_angle_beta 133.890060
_cell_angle_gamma 57.342299
_cell_volume 684.156377
_symmetry_space_group_name_H-M "P -1"
_symmetry_group_IT_number 2
_symmetry_cell_setting 'triclinic'
loop_
_space_group_symop_operation_xyz
x,y,z
-x,-y,-z
loop_
_atom_site_type_symbol
_atom_site_label
_atom_site_fract_x
_atom_site_fract_y
_atom_site_fract_z
Si Si1 0.079015 0.733952 0.507176
Si Si2 0.352737 0.683085 0.140824
Si Si3 0.914094 0.658598 0.737909
Si Si4 0.694019 0.146273 0.182407
Si Si5 0.724443 0.758540 0.251523
Si Si6 0.508971 0.625226 0.589210
Si Si7 0.145835 0.111723 0.419157
Si Si8 0.928168 0.050312 0.099579
O O1 0.361548 0.591389 0.594081
O O2 0.944843 0.715949 0.382347
O O3 0.990602 0.698251 0.550825
O O4 0.000000 0.000000 0.500000
O O5 0.501219 0.411947 0.154397
O O6 0.539696 0.749419 0.233497
O O7 0.228990 0.820520 0.025046
O O8 0.143339 0.793008 0.133989
O O9 0.763390 0.565922 0.704058
O O10 0.788983 0.801157 0.622602
O O11 0.168337 0.446556 0.787178
O O12 0.948222 0.818456 0.818784
O O13 0.622305 0.992399 0.184533
O O14 0.760685 0.087851 0.111880
O O15 0.948758 0.073353 0.308817
O O16 0.500000 0.500000 0.500000
O O17 0.355276 0.891104 0.525287
#
# Coordination Sequence:
#
# PCOD9004760 Si02
#       8
#     2   2   2   2   2   2   2   2
#     4  10  21  38  58  89 134 172 213 268 308 393
#     4  11  25  49  71  98 133 174 223 286 336 397
#     4  11  23  42  64  96 130 182 220 271 334 393
#     4  11  22  46  69 101 136 172 220 281 332 403
#     4  12  23  43  69  97 136 180 226 267 343 397
#     4  11  20  38  58  90 132 171 216 268 316 391
#     4  10  21  40  57  90 135 168 223 256 324 391
#     4  10  25  48  70  98 135 169 229 280 337 401
#
# _framework density 23.386467
#
# number of rings (size 3 to 8) (size 9 to 14) (size 15 to 20)
#    0.000    1.250    6.250    0.750    3.500    1.000 
#    9.000    1.250    0.000    0.000    0.000    0.000 
#    0.000    0.000    0.000    0.000    0.000    0.000 
#
# Total GULP energy -89410.250427 kJ/mol
# GULP energy per Si atom -5588.140652 kJ/mol
# Density = 2.333324 g / cm^3
# Si number density = 23.386467 Si / 1000 Ang^3
#
#
#
# Elastic Constant Matrix: (Units=GPa)
#
#
# Indices 1 2 3 4 5 6 
#
# 1 71.6592 40.1825 11.1223 1.4062 8.8395 -2.5527
# 2 40.1825 87.7697 -4.2793 2.9222 1.6615 0.8188
# 3 11.1223 -4.2793 41.4085 3.4651 -3.9412 -0.8411
# 4 1.4062 2.9222 3.4651 23.4012 -9.1267 -4.8843
# 5 8.8395 1.6615 -3.9412 -9.1267 18.3136 -4.4843
# 6 -2.5527 0.8188 -0.8411 -4.8843 -4.4843 30.0178
#
#
#
# Elastic Compliance Matrix: (Units=1/GPa)
#
#
# Indices 1 2 3 4 5 6 
#
# 1 0.022950 -0.010471 -0.008250 -0.004680 -0.014459 -0.000916
# 2 -0.010471 0.016379 0.004941 -0.000686 0.004119 -0.000695
# 3 -0.008250 0.004941 0.027848 -0.000134 0.009800 0.001386
# 4 -0.004680 -0.000686 -0.000134 0.060214 0.035920 0.014780
# 5 -0.014459 0.004119 0.009800 0.035920 0.085517 0.017552
# 6 -0.000916 -0.000695 0.001386 0.014780 0.017552 0.038321
#
#
# Mechanical properties :
#
#
# Convention : Reuss Voigt Hill
#
# Bulk Modulus (GPa) = 25.24139 32.76538 29.00338
# Shear Modulus (GPa) = 17.12359 24.60063 20.86211
#
# Velocity S-wave (km/s) = 2.70886 3.24685 2.98998
# Velocity P-wave (km/s) = 4.53877 5.30064 4.93443
#
# Compressibility (1/GPa) = 0.03961747
#
# Stress axis : x y z
#
# Youngs Moduli (GPa) = 43.57347 61.05203 35.90909
#
# Poissons Ratio (x) = 0.63927 0.29623
# Poissons Ratio (y) = 0.45625 -0.17741
# Poissons Ratio (z) = 0.35946 -0.30163
#
# Static dielectric constant tensor:
#      x y z
#    x 1.946880 0.000130 -0.002740 
#    y 0.000130 1.862950 0.032750 
#    z -0.002740 0.032750 1.852290 
# 
# From -- ./inp_files/556338.got.cif
#   From: 2010.05.17/outbox.cif.g08.bks.cpg/sg2_279_cif.got.tgz:556338.got - 2010.06.03 11:33:40.
