data_PCOD9004326
_publ_section_title
;
Structure prediction by ZEFSAII (Michael W. Deem and Ramdas Pophale) SiO2 
 PCOD9004326
Probable space group: P -1
;
_chemical_formula_sum "Si O2"
_cell_formula_units_Z 16
_cell_length_a 13.438621
_cell_length_b 23.067717
_cell_length_c 17.072347
_cell_angle_alpha 157.809027
_cell_angle_beta 33.125110
_cell_angle_gamma 159.748682
_cell_volume 671.891676
_symmetry_space_group_name_H-M "P -1"
_symmetry_group_IT_number 2
_symmetry_cell_setting 'triclinic'
loop_
_space_group_symop_operation_xyz
x,y,z
-x,-y,-z
loop_
_atom_site_type_symbol
_atom_site_label
_atom_site_fract_x
_atom_site_fract_y
_atom_site_fract_z
Si Si1 0.299910 0.888982 0.570449
Si Si2 0.882754 0.095696 0.709328
Si Si3 0.266846 0.041673 0.195988
Si Si4 0.729309 0.514562 0.381917
Si Si5 0.263609 0.537554 0.226083
Si Si6 0.893316 0.716153 0.363472
Si Si7 0.672971 0.785379 0.976223
Si Si8 0.498145 0.536808 0.928580
O O1 0.243502 0.700857 0.424029
O O2 0.980440 0.723048 0.539246
O O3 0.500000 0.000000 0.500000
O O4 0.432565 0.111101 0.813610
O O5 0.872438 0.153541 0.699454
O O6 0.176409 0.363115 0.889400
O O7 0.661140 0.949217 0.747448
O O8 0.000000 0.000000 0.500000
O O9 0.539128 0.251212 0.218624
O O10 0.108968 0.105058 0.386598
O O11 0.036319 0.761294 0.964270
O O12 0.500000 0.500000 0.500000
O O13 0.893001 0.610377 0.309198
O O14 0.412504 0.579301 0.260410
O O15 0.502214 0.634495 0.126991
O O16 0.570212 0.471410 0.231811
O O17 0.716005 0.745264 0.983439
O O18 0.000000 0.000000 0.000000
#
# Coordination Sequence:
#
# PCOD9004326 Si02
#       8
#     2   2   2   2   2   2   2   2
#     4  12  26  44  68 101 144 178 230 292 342 408
#     4   8  15  30  54  88 122 162 220 276 313 393
#     4   9  18  34  63  90 124 166 226 274 323 400
#     4  10  22  39  67  99 129 179 231 279 339 411
#     4  10  21  37  65  97 132 172 233 280 337 400
#     4   9  19  35  61  96 126 168 234 273 331 404
#     4  11  22  39  68  95 136 182 228 279 345 415
#     4   9  19  35  62  94 124 178 224 269 334 418
#
# _framework density 23.813362000000001
#
# number of rings (size 3 to 8) (size 9 to 14) (size 15 to 20)
#    0.000    2.250    1.250    1.500    5.250    3.500 
#    0.000    1.250   11.000    0.000    0.000    0.000 
#    0.000    0.000    0.000    0.000    0.000    0.000 
#
# Total GULP energy -89175.322975 kJ/mol
# GULP energy per Si atom -5573.457686 kJ/mol
# Density = 2.375916 g / cm^3
# Si number density = 23.813362 Si / 1000 Ang^3
#
#
#
# Elastic Constant Matrix: (Units=GPa)
#
#
# Indices 1 2 3 4 5 6 
#
# 1 112.4808 42.8387 31.2341 7.9172 -26.5989 -36.2926
# 2 42.8387 78.4281 24.0340 22.6141 -10.0515 -24.9732
# 3 31.2341 24.0340 99.0959 22.6156 -10.9925 0.7042
# 4 7.9172 22.6141 22.6156 27.1338 -1.7106 -7.9650
# 5 -26.5989 -10.0515 -10.9925 -1.7106 21.0256 8.5182
# 6 -36.2926 -24.9732 0.7042 -7.9650 8.5182 56.0914
#
#
#
# Elastic Compliance Matrix: (Units=1/GPa)
#
#
# Indices 1 2 3 4 5 6 
#
# 1 0.017828 -0.006004 -0.003976 0.006271 0.015071 0.007514
# 2 -0.006004 0.021518 0.000144 -0.015265 0.000103 0.003511
# 3 -0.003976 0.000144 0.014569 -0.012339 0.003678 -0.005002
# 4 0.006271 -0.015265 -0.012339 0.059695 -0.003565 0.006435
# 5 0.015071 0.000103 0.003678 -0.003565 0.068796 -0.001203
# 6 0.007514 0.003511 -0.005002 0.006435 -0.001203 0.025412
#
#
# Mechanical properties :
#
#
# Convention : Reuss Voigt Hill
#
# Bulk Modulus (GPa) = 29.20272 54.02427 41.61349
# Shear Modulus (GPa) = 20.92874 33.64337 27.28606
#
# Velocity S-wave (km/s) = 2.96778 3.76279 3.38868
# Velocity P-wave (km/s) = 4.90239 6.45089 5.72920
#
# Compressibility (1/GPa) = 0.03424339
#
# Stress axis : x y z
#
# Youngs Moduli (GPa) = 56.09217 46.47175 68.63772
#
# Poissons Ratio (x) = 0.27900 0.27290
# Poissons Ratio (y) = 0.33676 -0.00985
# Poissons Ratio (z) = 0.22302 -0.00667
#
# Static dielectric constant tensor:
#      x y z
#    x 2.035220 -0.035360 -0.018900 
#    y -0.035360 1.975320 0.024120 
#    z -0.018900 0.024120 1.983800 
# 
# From -- ./inp_files/598619.got.cif
#   From: 2010.05.17/outbox.cif.g08.bks.cpg/sg2_300_cif.got.tgz:598619.got - 2010.06.03 11:33:40.
