data_PCOD9004323
_publ_section_title
;
Structure prediction by ZEFSAII (Michael W. Deem and Ramdas Pophale) SiO2 
 PCOD9004323
Probable space group: P -1
;
_chemical_formula_sum "Si O2"
_cell_formula_units_Z 15
_cell_length_a 13.559139
_cell_length_b 8.474267
_cell_length_c 11.967005
_cell_angle_alpha 142.457173
_cell_angle_beta 59.994670
_cell_angle_gamma 101.942584
_cell_volume 677.154228
_symmetry_space_group_name_H-M "P -1"
_symmetry_group_IT_number 2
_symmetry_cell_setting 'triclinic'
loop_
_space_group_symop_operation_xyz
x,y,z
-x,-y,-z
loop_
_atom_site_type_symbol
_atom_site_label
_atom_site_fract_x
_atom_site_fract_y
_atom_site_fract_z
Si Si1 0.044217 0.664735 0.295496
Si Si2 0.240939 0.795075 0.367428
Si Si3 0.201087 0.207987 0.800154
Si Si4 0.500000 0.500000 0.000000
Si Si5 0.641058 0.564180 0.321291
Si Si6 0.367427 0.016344 0.044089
Si Si7 0.388555 0.036369 0.781108
Si Si8 0.217250 0.288512 0.486946
O O1 0.164480 0.607745 0.270003
O O2 0.928993 0.597520 0.366144
O O3 0.092846 0.484302 0.055642
O O4 0.000000 0.000000 0.500000
O O5 0.380546 0.629697 0.224510
O O6 0.167693 0.000571 0.621466
O O7 0.253760 0.988122 0.363278
O O8 0.297322 0.289998 0.718142
O O9 0.274632 0.053139 0.779326
O O10 0.562119 0.716002 0.134922
O O11 0.645929 0.281024 0.103653
O O12 0.721187 0.540111 0.375623
O O13 0.503478 0.754350 0.536163
O O14 0.358554 0.061342 0.942755
O O15 0.500000 0.000000 0.000000
O O16 0.271959 0.231690 0.300894
#
# Coordination Sequence:
#
# PCOD9004323 Si02
#       8
#     2   2   2   1   2   2   2   2
#     4  10  21  38  63  93 128 167 218 266 313 376
#     4  10  21  37  65  97 127 165 209 266 320 376
#     4  11  23  39  64  96 128 166 213 267 324 372
#     4  12  20  40  62  98 134 154 210 262 330 376
#     4  11  23  42  63  97 128 165 217 259 322 389
#     4  12  25  42  65  93 132 172 211 261 324 389
#     4  12  25  38  65 100 129 166 207 265 329 385
#     4  10  22  41  62  91 121 173 214 257 312 371
#
# _framework density 22.151527999999999
#
# number of rings (size 3 to 8) (size 9 to 14) (size 15 to 20)
#    0.000    1.067    5.333    2.400    1.867    5.867 
#    0.000    0.667    0.000    1.600    0.000    0.000 
#    0.000    0.000    0.000    0.000    0.000    0.000 
#
# Total GULP energy -83553.256567 kJ/mol
# GULP energy per Si atom -5570.217104 kJ/mol
# Density = 2.210111 g / cm^3
# Si number density = 22.151528 Si / 1000 Ang^3
#
#
#
# Elastic Constant Matrix: (Units=GPa)
#
#
# Indices 1 2 3 4 5 6 
#
# 1 77.3450 10.5304 42.6148 -12.5675 6.0389 8.0816
# 2 10.5304 16.2125 3.1301 -14.7801 1.3668 -5.1437
# 3 42.6148 3.1301 163.7655 -28.4973 7.8268 -1.0856
# 4 -12.5675 -14.7801 -28.4973 38.3808 5.3845 13.1340
# 5 6.0389 1.3668 7.8268 5.3845 37.0467 1.3180
# 6 8.0816 -5.1437 -1.0856 13.1340 1.3180 23.3873
#
#
#
# Elastic Compliance Matrix: (Units=1/GPa)
#
#
# Indices 1 2 3 4 5 6 
#
# 1 0.018483 -0.012765 -0.004267 0.001692 -0.001522 -0.010257
# 2 -0.012765 0.112984 0.009871 0.046835 -0.011124 0.004043
# 3 -0.004267 0.009871 0.008873 0.009852 -0.002929 -0.001311
# 4 0.001692 0.046835 0.009852 0.061842 -0.012224 -0.023867
# 5 -0.001522 -0.011124 -0.002929 -0.012224 0.029936 0.003121
# 6 -0.010257 0.004043 -0.001311 -0.023867 0.003121 0.060359
#
#
# Mechanical properties :
#
#
# Convention : Reuss Voigt Hill
#
# Bulk Modulus (GPa) = 7.93529 41.09706 24.51617
# Shear Modulus (GPa) = 14.33461 33.16613 23.75037
#
# Velocity S-wave (km/s) = 2.54661 3.87361 3.27796
# Velocity P-wave (km/s) = 3.49814 6.21285 5.04165
#
# Compressibility (1/GPa) = 0.12601935
#
# Stress axis : x y z
#
# Youngs Moduli (GPa) = 54.10310 8.85078 112.69518
#
# Poissons Ratio (x) = 0.11298 0.48082
# Poissons Ratio (y) = 0.69062 -1.11237
# Poissons Ratio (z) = 0.23083 -0.08736
#
# Static dielectric constant tensor:
#      x y z
#    x 1.846090 -0.054240 -0.025640 
#    y -0.054240 1.863020 0.067270 
#    z -0.025640 0.067270 1.811830 
# 
# From -- ./inp_files/270744.got.cif
#   From: 2010.05.17/outbox.cif.g08.bks.cpg/sg2_136_cif.got.tgz:270744.got - 2010.06.03 11:33:40.
