data_PCOD9004600
_publ_section_title
;
Structure prediction by ZEFSAII (Michael W. Deem and Ramdas Pophale) SiO2 
 PCOD9004600
Probable space group: P -1
;
_chemical_formula_sum "Si O2"
_cell_formula_units_Z 16
_cell_length_a 6.430011
_cell_length_b 7.479991
_cell_length_c 21.294603
_cell_angle_alpha 53.212834
_cell_angle_beta 106.210249
_cell_angle_gamma 120.138746
_cell_volume 709.012770
_symmetry_space_group_name_H-M "P -1"
_symmetry_group_IT_number 2
_symmetry_cell_setting 'triclinic'
loop_
_space_group_symop_operation_xyz
x,y,z
-x,-y,-z
loop_
_atom_site_type_symbol
_atom_site_label
_atom_site_fract_x
_atom_site_fract_y
_atom_site_fract_z
Si Si1 0.863930 0.162146 0.974257
Si Si2 0.398730 0.697280 0.470032
Si Si3 0.834170 0.171693 0.753045
Si Si4 0.116862 0.413469 0.609159
Si Si5 0.381416 0.789113 0.950510
Si Si6 0.330072 0.036880 0.672134
Si Si7 0.897657 0.504709 0.179987
Si Si8 0.579568 0.647179 0.877674
O O1 0.839405 0.177287 0.043774
O O2 0.995198 0.426074 0.895708
O O3 0.608404 0.021373 0.949260
O O4 0.000000 0.000000 0.000000
O O5 0.500000 0.500000 0.500000
O O6 0.332707 0.661211 0.546123
O O7 0.581557 0.943696 0.397195
O O8 0.137383 0.617507 0.433621
O O9 0.580570 0.153895 0.708583
O O10 0.053546 0.350030 0.689763
O O11 0.910802 0.290981 0.802295
O O12 0.784767 0.882985 0.811692
O O13 0.183326 0.197897 0.634810
O O14 0.362587 0.541696 0.036603
O O15 0.454347 0.768181 0.890186
O O16 0.168095 0.764472 0.741381
O O17 0.638128 0.512183 0.153940
#
# Coordination Sequence:
#
# PCOD9004600 Si02
#       8
#     2   2   2   2   2   2   2   2
#     4  11  22  41  60  85 114 155 202 248 301 352
#     4   8  15  33  63  89 118 147 193 237 275 343
#     4  10  21  38  54  83 123 148 193 243 286 352
#     4   9  17  34  62  89 112 160 191 226 294 342
#     4  10  22  40  61  82 114 150 199 258 298 350
#     4   9  20  37  57  87 117 153 193 236 286 347
#     4  11  22  39  57  83 120 155 191 244 299 348
#     4  10  21  41  60  86 113 153 204 247 301 355
#
# _framework density 22.566590000000001
#
# number of rings (size 3 to 8) (size 9 to 14) (size 15 to 20)
#    0.000    2.250    2.500    0.000    1.750    0.500 
#    6.750    0.625    0.000   25.500    0.000    0.000 
#    0.000    0.000    0.000    0.000    0.000    0.000 
#
# Total GULP energy -89148.130501 kJ/mol
# GULP energy per Si atom -5571.758156 kJ/mol
# Density = 2.251523 g / cm^3
# Si number density = 22.566590 Si / 1000 Ang^3
#
#
#
# Elastic Constant Matrix: (Units=GPa)
#
#
# Indices 1 2 3 4 5 6 
#
# 1 87.9193 10.9226 35.7156 -5.8914 -4.8475 -7.0280
# 2 10.9226 52.9423 2.9646 -7.0381 -5.7373 17.6707
# 3 35.7156 2.9646 125.4302 -14.9286 -23.6420 0.0341
# 4 -5.8914 -7.0381 -14.9286 25.6486 -1.7336 -7.6752
# 5 -4.8475 -5.7373 -23.6420 -1.7336 40.5987 2.1662
# 6 -7.0280 17.6707 0.0341 -7.6752 2.1662 25.2502
#
#
#
# Elastic Compliance Matrix: (Units=1/GPa)
#
#
# Indices 1 2 3 4 5 6 
#
# 1 0.014456 -0.005599 -0.004112 0.001861 -0.001843 0.008671
# 2 -0.005599 0.027769 0.002236 0.001753 0.005751 -0.020955
# 3 -0.004112 0.002236 0.011066 0.006129 0.006607 -0.001428
# 4 0.001861 0.001753 0.006129 0.047825 0.005368 0.013359
# 5 -0.001843 0.005751 0.006607 0.005368 0.029592 -0.005453
# 6 0.008671 -0.020955 -0.001428 0.013359 -0.005453 0.061213
#
#
# Mechanical properties :
#
#
# Convention : Reuss Voigt Hill
#
# Bulk Modulus (GPa) = 26.08138 40.61083 33.34611
# Shear Modulus (GPa) = 22.76339 32.74543 27.75441
#
# Velocity S-wave (km/s) = 3.17948 3.81341 3.51078
# Velocity P-wave (km/s) = 5.00614 6.11756 5.58954
#
# Compressibility (1/GPa) = 0.03834152
#
# Stress axis : x y z
#
# Youngs Moduli (GPa) = 69.17337 36.01139 90.36815
#
# Poissons Ratio (x) = 0.20162 0.37162
# Poissons Ratio (y) = 0.38729 -0.20209
# Poissons Ratio (z) = 0.28446 -0.08053
#
# Static dielectric constant tensor:
#      x y z
#    x 1.907220 -0.003230 -0.045820 
#    y -0.003230 1.850350 0.012540 
#    z -0.045820 0.012540 1.931510 
# 
# From -- ./inp_files/55557.got.cif
#   From: 2010.05.17/outbox.cif.g08.bks.cpg/sg2_28_cif.got.tgz:55557.got - 2010.06.03 11:33:40.
