data_PCOD9004548
_publ_section_title
;
Structure prediction by ZEFSAII (Michael W. Deem and Ramdas Pophale) SiO2 
 PCOD9004548
Probable space group: P -1
;
_chemical_formula_sum "Si O2"
_cell_formula_units_Z 16
_cell_length_a 12.613377
_cell_length_b 9.702098
_cell_length_c 12.199212
_cell_angle_alpha 108.001233
_cell_angle_beta 77.083400
_cell_angle_gamma 41.467398
_cell_volume 649.883761
_symmetry_space_group_name_H-M "P -1"
_symmetry_group_IT_number 2
_symmetry_cell_setting 'triclinic'
loop_
_space_group_symop_operation_xyz
x,y,z
-x,-y,-z
loop_
_atom_site_type_symbol
_atom_site_label
_atom_site_fract_x
_atom_site_fract_y
_atom_site_fract_z
Si Si1 0.289593 0.242512 0.872784
Si Si2 0.315432 0.803137 0.499337
Si Si3 0.227149 0.177993 0.308577
Si Si4 0.235846 0.841399 0.175863
Si Si5 0.144846 0.119509 0.964387
Si Si6 0.181130 0.795185 0.749493
Si Si7 0.635680 0.510301 0.763069
Si Si8 0.869974 0.512456 0.779317
O O1 0.276409 0.082672 0.844104
O O2 0.539860 0.020306 0.749938
O O3 0.198799 0.400688 0.054946
O O4 0.108029 0.507946 0.886519
O O5 0.257278 0.806853 0.632520
O O6 0.573555 0.562783 0.363868
O O7 0.318633 0.654368 0.386596
O O8 0.126014 0.150242 0.610934
O O9 0.186311 0.270747 0.213454
O O10 0.000000 0.500000 0.500000
O O11 0.237649 0.993653 0.270295
O O12 0.202766 0.747223 0.243892
O O13 0.500000 0.500000 0.000000
O O14 0.021240 0.076939 0.201798
O O15 0.093396 0.019475 0.908407
O O16 0.359388 0.837185 0.927587
O O17 0.712563 0.585256 0.764291
#
# Coordination Sequence:
#
# PCOD9004548 Si02
#       8
#     2   2   2   2   2   2   2   2
#     4  11  23  43  71  98 135 173 230 279 339 392
#     4  10  21  37  69  98 129 162 231 280 325 381
#     4  12  28  43  67 103 148 177 216 281 356 406
#     4  12  26  45  68  96 141 182 222 274 342 409
#     4  10  21  40  70 102 121 169 237 291 314 387
#     4  10  21  40  64  97 131 170 217 278 333 385
#     4  11  22  39  71 100 126 174 235 275 323 400
#     4  12  22  43  71 102 130 178 236 275 326 407
#
# _framework density 24.619788
#
# number of rings (size 3 to 8) (size 9 to 14) (size 15 to 20)
#    0.000    1.000    3.750    3.000    3.500    1.000 
#    0.000    7.500    0.000    0.000    0.000    0.000 
#    0.000    0.000    0.000    0.000    0.000    0.000 
#
# Total GULP energy -89369.457739 kJ/mol
# GULP energy per Si atom -5585.591109 kJ/mol
# Density = 2.456375 g / cm^3
# Si number density = 24.619788 Si / 1000 Ang^3
#
#
#
# Elastic Constant Matrix: (Units=GPa)
#
#
# Indices 1 2 3 4 5 6 
#
# 1 114.2182 -0.6058 45.5821 23.4257 -21.2485 -7.1854
# 2 -0.6058 58.8018 17.7948 21.8753 -7.8859 -9.0534
# 3 45.5821 17.7948 113.5412 29.9422 -8.4538 -7.5505
# 4 23.4257 21.8753 29.9422 28.9724 -12.9709 -6.3425
# 5 -21.2485 -7.8859 -8.4538 -12.9709 44.3266 13.2369
# 6 -7.1854 -9.0534 -7.5505 -6.3425 13.2369 37.6637
#
#
#
# Elastic Compliance Matrix: (Units=1/GPa)
#
#
# Indices 1 2 3 4 5 6 
#
# 1 0.012569 0.004928 -0.003181 -0.008935 0.003632 0.000164
# 2 0.004928 0.026232 0.000354 -0.023785 -0.000952 0.003646
# 3 -0.003181 0.000354 0.013136 -0.012330 -0.002877 0.001046
# 4 -0.008935 -0.023785 -0.012330 0.077656 0.012186 -0.001099
# 5 0.003632 -0.000952 -0.002877 0.012186 0.029685 -0.008493
# 6 0.000164 0.003646 0.001046 -0.001099 -0.008493 0.030468
#
#
# Mechanical properties :
#
#
# Convention : Reuss Voigt Hill
#
# Bulk Modulus (GPa) = 17.81253 45.78927 31.80090
# Shear Modulus (GPa) = 24.47906 37.11190 30.79548
#
# Velocity S-wave (km/s) = 3.15665 3.88674 3.54056
# Velocity P-wave (km/s) = 4.53174 6.22746 5.44600
#
# Compressibility (1/GPa) = 0.05614026
#
# Stress axis : x y z
#
# Youngs Moduli (GPa) = 79.55974 38.12134 76.12788
#
# Poissons Ratio (x) = -0.18787 0.24216
# Poissons Ratio (y) = -0.39209 -0.02697
# Poissons Ratio (z) = 0.25307 -0.01351
#
# Static dielectric constant tensor:
#      x y z
#    x 1.901740 -0.043730 -0.006310 
#    y -0.043730 2.055720 -0.084570 
#    z -0.006310 -0.084570 1.981890 
# 
# From -- ./inp_files/505538.got.cif
#   From: 2010.05.17/outbox.cif.g08.bks.cpg/sg2_253_cif.got.tgz:505538.got - 2010.06.03 11:33:40.
