data_PCOD9004470
_publ_section_title
;
Structure prediction by ZEFSAII (Michael W. Deem and Ramdas Pophale) SiO2 
 PCOD9004470
Probable space group: P -1
;
_chemical_formula_sum "Si O2"
_cell_formula_units_Z 16
_cell_length_a 6.929147
_cell_length_b 15.607871
_cell_length_c 8.231552
_cell_angle_alpha 119.765345
_cell_angle_beta 128.000470
_cell_angle_gamma 58.446371
_cell_volume 577.310321
_symmetry_space_group_name_H-M "P -1"
_symmetry_group_IT_number 2
_symmetry_cell_setting 'triclinic'
loop_
_space_group_symop_operation_xyz
x,y,z
-x,-y,-z
loop_
_atom_site_type_symbol
_atom_site_label
_atom_site_fract_x
_atom_site_fract_y
_atom_site_fract_z
Si Si1 0.277976 0.332134 0.897228
Si Si2 0.249691 0.964162 0.602910
Si Si3 0.851811 0.167833 0.038946
Si Si4 0.606405 0.411959 0.343469
Si Si5 0.782120 0.823667 0.049033
Si Si6 0.599185 0.262944 0.450272
Si Si7 0.757772 0.972136 0.650807
Si Si8 0.333539 0.449383 0.744325
O O1 0.581024 0.259699 0.982084
O O2 0.194285 0.393971 0.746393
O O3 0.326985 0.411921 0.126330
O O4 0.140995 0.255353 0.833049
O O5 0.281195 0.841757 0.487330
O O6 0.964604 0.974801 0.594647
O O7 0.466697 0.963809 0.560721
O O8 0.311900 0.056377 0.827320
O O9 0.776469 0.066634 0.860220
O O10 0.004342 0.191780 0.989736
O O11 0.049477 0.132159 0.258707
O O12 0.500000 0.500000 0.500000
O O13 0.730914 0.312180 0.425847
O O14 0.775357 0.449967 0.334670
O O15 0.572530 0.786992 0.805568
O O16 0.473669 0.355222 0.602358
O O17 0.500000 0.500000 0.000000
#
# Coordination Sequence:
#
# PCOD9004470 Si02
#       8
#     2   2   2   2   2   2   2   2
#     4  10  21  38  69  97 134 178 231 283 353 414
#     4  12  24  38  60  96 138 186 227 272 334 415
#     4  11  24  42  64  95 136 190 232 286 344 406
#     4   8  17  35  64  99 126 172 227 284 361 415
#     4  11  24  41  63  98 146 182 235 279 337 421
#     4  10  21  37  67  96 135 183 224 284 354 409
#     4  11  24  42  62  91 138 185 242 284 330 403
#     4   9  18  38  70 104 128 173 232 295 362 420
#
# _framework density 27.714732999999999
#
# number of rings (size 3 to 8) (size 9 to 14) (size 15 to 20)
#    0.000    1.750    1.250    2.625    3.500    2.000 
#    0.000    0.000    0.000   24.000    0.000    0.000 
#    0.000    0.000    0.000    0.000    0.000    0.000 
#
# Total GULP energy -89147.999721 kJ/mol
# GULP energy per Si atom -5571.749983 kJ/mol
# Density = 2.765165 g / cm^3
# Si number density = 27.714733 Si / 1000 Ang^3
#
#
#
# Elastic Constant Matrix: (Units=GPa)
#
#
# Indices 1 2 3 4 5 6 
#
# 1 156.0830 94.9447 38.2630 -11.3451 -2.2745 53.5918
# 2 94.9447 164.8408 79.4006 -1.0037 -9.1656 60.5174
# 3 38.2630 79.4006 157.2972 6.6734 -11.8840 0.2402
# 4 -11.3451 -1.0037 6.6734 65.8776 9.6256 -13.8267
# 5 -2.2745 -9.1656 -11.8840 9.6256 38.8259 -1.3497
# 6 53.5918 60.5174 0.2402 -13.8267 -1.3497 69.0150
#
#
#
# Elastic Compliance Matrix: (Units=1/GPa)
#
#
# Indices 1 2 3 4 5 6 
#
# 1 0.010756 -0.004450 -0.000484 0.001085 -0.000985 -0.004251
# 2 -0.004450 0.015991 -0.006746 -0.002388 0.001660 -0.010989
# 3 -0.000484 -0.006746 0.010004 -0.000132 0.001692 0.006263
# 4 0.001085 -0.002388 -0.000132 0.016972 -0.004590 0.004562
# 5 -0.000985 0.001660 0.001692 -0.004590 0.027708 -0.001073
# 6 -0.004251 -0.010989 0.006263 0.004562 -0.001073 0.028298
#
#
# Mechanical properties :
#
#
# Convention : Reuss Voigt Hill
#
# Bulk Modulus (GPa) = 74.67440 100.38197 87.52819
# Shear Modulus (GPa) = 36.34921 52.45122 44.40022
#
# Velocity S-wave (km/s) = 3.62546 4.35505 4.00690
# Velocity P-wave (km/s) = 6.67291 7.84774 7.28405
#
# Compressibility (1/GPa) = 0.01339147
#
# Stress axis : x y z
#
# Youngs Moduli (GPa) = 92.96750 62.53476 99.95596
#
# Poissons Ratio (x) = 0.27826 0.04842
# Poissons Ratio (y) = 0.41368 0.67431
# Poissons Ratio (z) = 0.04504 0.42187
#
# Static dielectric constant tensor:
#      x y z
#    x 2.382800 -0.007070 -0.023500 
#    y -0.007070 2.346900 -0.055980 
#    z -0.023500 -0.055980 2.459840 
# 
# From -- ./inp_files/203794.got.cif
#   From: 2010.05.17/outbox.cif.g08.bks.cpg/sg2_102_cif.got.tgz:203794.got - 2010.06.03 11:33:40.
