data_PCOD9004479
_publ_section_title
;
Structure prediction by ZEFSAII (Michael W. Deem and Ramdas Pophale) SiO2 
 PCOD9004479
Probable space group: P -1
;
_chemical_formula_sum "Si O2"
_cell_formula_units_Z 16
_cell_length_a 8.781723
_cell_length_b 8.731861
_cell_length_c 22.635919
_cell_angle_alpha 49.162602
_cell_angle_beta 129.492125
_cell_angle_gamma 147.290866
_cell_volume 693.837421
_symmetry_space_group_name_H-M "P -1"
_symmetry_group_IT_number 2
_symmetry_cell_setting 'triclinic'
loop_
_space_group_symop_operation_xyz
x,y,z
-x,-y,-z
loop_
_atom_site_type_symbol
_atom_site_label
_atom_site_fract_x
_atom_site_fract_y
_atom_site_fract_z
Si Si1 0.306178 0.204895 0.449346
Si Si2 0.746676 0.223895 0.050259
Si Si3 0.002712 0.403756 0.722014
Si Si4 0.114120 0.396368 0.450385
Si Si5 0.670072 0.830364 0.951580
Si Si6 0.526975 0.585090 0.290005
Si Si7 0.968209 0.953175 0.774672
Si Si8 0.516641 0.021733 0.229505
O O1 0.189475 0.294165 0.441853
O O2 0.584507 0.313230 0.521064
O O3 0.407684 0.379917 0.369345
O O4 0.058340 0.852474 0.479001
O O5 0.551233 0.198229 0.056290
O O6 0.878526 0.128697 0.139639
O O7 0.000000 0.500000 0.000000
O O8 0.500000 0.000000 0.000000
O O9 0.011546 0.168462 0.777272
O O10 0.064659 0.561196 0.635961
O O11 0.664992 0.183452 0.707014
O O12 0.190114 0.654752 0.755939
O O13 0.654653 0.934079 0.859410
O O14 0.500000 0.500000 0.000000
O O15 0.000000 0.000000 0.000000
O O16 0.861799 0.828550 0.294651
O O17 0.506151 0.811336 0.240578
O O18 0.340848 0.358012 0.246174
#
# Coordination Sequence:
#
# PCOD9004479 Si02
#       8
#     2   2   2   2   2   2   2   2
#     4  10  21  37  67  98 134 177 228 287 347 410
#     4  12  28  48  74 103 146 195 235 290 371 442
#     4  12  26  45  70 105 140 186 231 296 352 419
#     4  10  21  38  63 103 135 172 229 291 343 411
#     4  12  28  47  73 109 143 183 245 307 352 422
#     4  12  24  47  71 102 134 193 233 288 345 430
#     4  12  28  47  70  99 148 182 234 285 362 433
#     4  12  26  45  74 100 140 182 246 291 343 415
#
# _framework density 23.060155999999999
#
# number of rings (size 3 to 8) (size 9 to 14) (size 15 to 20)
#    0.000    0.500    2.500    5.250   10.500    0.000 
#    0.000    3.750    0.000    0.000    0.000    0.000 
#    0.000    0.000    0.000    0.000    0.000    0.000 
#
# Total GULP energy -89163.163074 kJ/mol
# GULP energy per Si atom -5572.697692 kJ/mol
# Density = 2.300767 g / cm^3
# Si number density = 23.060156 Si / 1000 Ang^3
#
#
#
# Elastic Constant Matrix: (Units=GPa)
#
#
# Indices 1 2 3 4 5 6 
#
# 1 55.9402 37.1286 27.8404 -19.8270 -2.2526 17.0204
# 2 37.1286 160.2621 27.6313 -1.4298 5.6120 6.5504
# 3 27.8404 27.6313 113.2238 -5.4960 -3.8534 -5.8189
# 4 -19.8270 -1.4298 -5.4960 36.8690 12.8655 -3.3378
# 5 -2.2526 5.6120 -3.8534 12.8655 34.1325 -9.2653
# 6 17.0204 6.5504 -5.8189 -3.3378 -9.2653 29.5750
#
#
#
# Elastic Compliance Matrix: (Units=1/GPa)
#
#
# Indices 1 2 3 4 5 6 
#
# 1 0.042988 -0.006524 -0.009656 0.023666 -0.013350 -0.026706
# 2 -0.006524 0.007726 -0.000354 -0.003064 -0.000157 0.001579
# 3 -0.009656 -0.000354 0.011707 -0.004327 0.004805 0.008956
# 4 0.023666 -0.003064 -0.004327 0.044443 -0.019189 -0.014788
# 5 -0.013350 -0.000157 0.004805 -0.019189 0.041512 0.019503
# 6 -0.026706 0.001579 0.008956 -0.014788 0.019503 0.055035
#
#
# Mechanical properties :
#
#
# Convention : Reuss Voigt Hill
#
# Bulk Modulus (GPa) = 34.06966 57.18075 45.62521
# Shear Modulus (GPa) = 20.30342 35.90368 28.10355
#
# Velocity S-wave (km/s) = 2.97046 3.95011 3.49478
# Velocity P-wave (km/s) = 5.15473 6.75682 6.00940
#
# Compressibility (1/GPa) = 0.02935163
#
# Stress axis : x y z
#
# Youngs Moduli (GPa) = 23.26217 129.43327 85.42204
#
# Poissons Ratio (x) = 0.84445 0.82485
# Poissons Ratio (y) = 0.15177 0.03025
# Poissons Ratio (z) = 0.22462 0.04584
#
# Static dielectric constant tensor:
#      x y z
#    x 1.892850 -0.043920 -0.012610 
#    y -0.043920 1.817640 -0.014930 
#    z -0.012610 -0.014930 1.859160 
# 
# From -- ./inp_files/217587.got.cif
#   From: 2010.05.17/outbox.cif.g08.bks.cpg/sg2_109_cif.got.tgz:217587.got - 2010.06.03 11:33:40.
