data_PCOD9004869
_publ_section_title
;
Structure prediction by ZEFSAII (Michael W. Deem and Ramdas Pophale) SiO2 
 PCOD9004869
Probable space group: P -1
;
_chemical_formula_sum "Si O2"
_cell_formula_units_Z 12
_cell_length_a 6.181615
_cell_length_b 18.306538
_cell_length_c 9.128217
_cell_angle_alpha 138.030044
_cell_angle_beta 113.566034
_cell_angle_gamma 91.801908
_cell_volume 534.451082
_symmetry_space_group_name_H-M "P -1"
_symmetry_group_IT_number 2
_symmetry_cell_setting 'triclinic'
loop_
_space_group_symop_operation_xyz
x,y,z
-x,-y,-z
loop_
_atom_site_type_symbol
_atom_site_label
_atom_site_fract_x
_atom_site_fract_y
_atom_site_fract_z
Si Si1 0.213465 0.981057 0.332614
Si Si2 0.076300 0.681090 0.220556
Si Si3 0.470913 0.562957 0.731630
Si Si4 0.509538 0.015016 0.197374
Si Si5 0.786777 0.519473 0.167457
Si Si6 0.680377 0.831860 0.122042
O O1 0.235813 0.983575 0.168383
O O2 0.214118 0.099053 0.587686
O O3 0.500000 0.000000 0.500000
O O4 0.944985 0.853517 0.134267
O O5 0.269573 0.834142 0.484343
O O6 0.030878 0.637325 0.314400
O O7 0.198219 0.604666 0.057607
O O8 0.770938 0.627694 0.991054
O O9 0.500000 0.500000 0.500000
O O10 0.236330 0.473664 0.653791
O O11 0.449145 0.683748 0.859944
O O12 0.584181 0.914586 0.131517
O O13 0.500000 0.000000 0.000000
O O14 0.500000 0.500000 0.000000
#
# Coordination Sequence:
#
# PCOD9004869 Si02
#       6
#     2   2   2   2   2   2
#     4   9  18  36  60  84 114 153 190 236 293 346
#     4  10  21  41  62  86 120 157 197 240 292 350
#     4  11  23  38  62  91 118 154 199 245 292 347
#     4  11  24  38  61  91 119 155 197 244 295 350
#     4   9  21  40  63  86 119 161 196 238 292 350
#     4  10  21  38  59  87 121 155 195 242 296 349
#
# _framework density 22.452942
#
# number of rings (size 3 to 8) (size 9 to 14) (size 15 to 20)
#    0.000    2.000    0.000    4.000    0.000    9.333 
#    0.000    0.000    0.000    0.000    0.000    0.000 
#    0.000    0.000    0.000    0.000    0.000    0.000 
#
# Total GULP energy -67003.215547 kJ/mol
# GULP energy per Si atom -5583.601296 kJ/mol
# Density = 2.240184 g / cm^3
# Si number density = 22.452942 Si / 1000 Ang^3
#
#
#
# Elastic Constant Matrix: (Units=GPa)
#
#
# Indices 1 2 3 4 5 6 
#
# 1 105.6072 47.3360 13.4861 -11.6348 -20.8613 26.6100
# 2 47.3360 139.0835 43.9626 2.0937 -28.8576 24.6817
# 3 13.4861 43.9626 42.3411 -3.3890 -17.1270 14.0266
# 4 -11.6348 2.0937 -3.3890 31.7814 8.4446 -19.2399
# 5 -20.8613 -28.8576 -17.1270 8.4446 29.5061 -11.9755
# 6 26.6100 24.6817 14.0266 -19.2399 -11.9755 56.6591
#
#
#
# Elastic Compliance Matrix: (Units=1/GPa)
#
#
# Indices 1 2 3 4 5 6 
#
# 1 0.012849 -0.003662 0.003213 0.001721 0.005456 -0.003497
# 2 -0.003662 0.013285 -0.010151 -0.006248 0.005260 -0.002565
# 3 0.003213 -0.010151 0.040150 -0.000072 0.014010 -0.004090
# 4 0.001721 -0.006248 -0.000072 0.044418 -0.011751 0.014531
# 5 0.005456 0.005260 0.014010 -0.011751 0.054025 -0.000893
# 6 -0.003497 -0.002565 -0.004090 0.014531 -0.000893 0.026167
#
#
# Mechanical properties :
#
#
# Convention : Reuss Voigt Hill
#
# Bulk Modulus (GPa) = 22.18064 55.17791 38.67928
# Shear Modulus (GPa) = 22.01466 35.73913 28.87689
#
# Velocity S-wave (km/s) = 3.13466 3.99398 3.59012
# Velocity P-wave (km/s) = 4.79600 6.77477 5.86937
#
# Compressibility (1/GPa) = 0.04508436
#
# Stress axis : x y z
#
# Youngs Moduli (GPa) = 77.82988 75.27231 24.90669
#
# Poissons Ratio (x) = 0.27562 -0.08002
# Poissons Ratio (y) = 0.28499 0.25282
# Poissons Ratio (z) = -0.25004 0.76406
#
# Static dielectric constant tensor:
#      x y z
#    x 1.889200 0.003010 -0.019320 
#    y 0.003010 1.893850 -0.042590 
#    z -0.019320 -0.042590 1.816850 
# 
# From -- ./inp_files/18603.got.cif
#   From: 2010.05.17/outbox.cif.g08.bks.cpg/sg2_10_cif.got.tgz:18603.got - 2010.06.03 11:33:40.
