data_PCOD9004371
_publ_section_title
;
Structure prediction by ZEFSAII (Michael W. Deem and Ramdas Pophale) SiO2 
 PCOD9004371
Probable space group: P -1
;
_chemical_formula_sum "Si O2"
_cell_formula_units_Z 16
_cell_length_a 14.829682
_cell_length_b 9.565094
_cell_length_c 15.101128
_cell_angle_alpha 37.477307
_cell_angle_beta 37.584095
_cell_angle_gamma 52.882625
_cell_volume 793.061694
_symmetry_space_group_name_H-M "P -1"
_symmetry_group_IT_number 2
_symmetry_cell_setting 'triclinic'
loop_
_space_group_symop_operation_xyz
x,y,z
-x,-y,-z
loop_
_atom_site_type_symbol
_atom_site_label
_atom_site_fract_x
_atom_site_fract_y
_atom_site_fract_z
Si Si1 0.824237 0.434349 0.099585
Si Si2 0.354319 0.920625 0.705776
Si Si3 0.343101 0.904163 0.922354
Si Si4 0.851426 0.652937 0.142842
Si Si5 0.447523 0.855783 0.233762
Si Si6 0.756539 0.922555 0.849913
Si Si7 0.257310 0.424464 0.551612
Si Si8 0.148546 0.640661 0.347769
O O1 0.724281 0.264240 0.203926
O O2 0.772314 0.485910 0.214252
O O3 0.826766 0.680344 0.923959
O O4 0.982367 0.325281 0.033193
O O5 0.367072 0.825218 0.843258
O O6 0.500000 0.000000 0.500000
O O7 0.274744 0.155722 0.662859
O O8 0.229179 0.109732 0.910802
O O9 0.497194 0.027240 0.776888
O O10 0.267435 0.703803 0.144994
O O11 0.853778 0.554772 0.289722
O O12 0.398879 0.585435 0.395899
O O13 0.306411 0.980810 0.241409
O O14 0.600026 0.899278 0.037288
O O15 0.866581 0.110617 0.718980
O O16 0.215608 0.508732 0.444786
O O17 0.000000 0.500000 0.500000
#
# Coordination Sequence:
#
# PCOD9004371 Si02
#       8
#     2   2   2   2   2   2   2   2
#     4  11  22  40  61  88 134 155 208 251 310 366
#     4  11  26  38  62  96 128 157 200 261 313 355
#     4  10  22  41  66  91 117 173 205 246 312 368
#     4  10  23  38  65  87 120 170 204 248 308 365
#     4   9  17  36  65  84 118 154 216 242 291 369
#     4   9  18  37  61  90 113 167 195 255 299 355
#     4  10  23  39  63  94 117 165 208 251 305 366
#     4  10  21  37  66  90 121 155 213 250 298 368
#
# _framework density 20.174973999999999
#
# number of rings (size 3 to 8) (size 9 to 14) (size 15 to 20)
#    0.000    2.000    2.500    1.500    5.250    2.000 
#    0.000    5.000    0.000    0.000    0.000    0.000 
#    0.000    0.000    0.000    0.000    0.000    0.000 
#
# Total GULP energy -89084.453925 kJ/mol
# GULP energy per Si atom -5567.778370 kJ/mol
# Density = 2.012905 g / cm^3
# Si number density = 20.174974 Si / 1000 Ang^3
#
#
#
# Elastic Constant Matrix: (Units=GPa)
#
#
# Indices 1 2 3 4 5 6 
#
# 1 90.4292 24.9449 22.0738 4.9265 6.3315 16.4178
# 2 24.9449 62.9272 11.6592 -0.5475 3.6915 14.4001
# 3 22.0738 11.6592 53.3585 -6.9110 8.1508 12.5458
# 4 4.9265 -0.5475 -6.9110 33.5335 13.0043 5.1130
# 5 6.3315 3.6915 8.1508 13.0043 42.8799 -0.3933
# 6 16.4178 14.4001 12.5458 5.1130 -0.3933 28.9812
#
#
#
# Elastic Compliance Matrix: (Units=1/GPa)
#
#
# Indices 1 2 3 4 5 6 
#
# 1 0.014014 -0.003911 -0.004346 -0.002368 -0.000222 -0.003700
# 2 -0.003911 0.019415 -0.000079 0.002868 -0.002021 -0.007930
# 3 -0.004346 -0.000079 0.025498 0.010373 -0.007440 -0.010467
# 4 -0.002368 0.002868 0.010373 0.039564 -0.013975 -0.011744
# 5 -0.000222 -0.002021 -0.007440 -0.013975 0.029247 0.007214
# 6 -0.003700 -0.007930 -0.010467 -0.011744 0.007214 0.047243
#
#
# Mechanical properties :
#
#
# Convention : Reuss Voigt Hill
#
# Bulk Modulus (GPa) = 23.66651 36.00785 29.83718
# Shear Modulus (GPa) = 24.30287 30.94804 27.62545
#
# Velocity S-wave (km/s) = 3.47451 3.92086 3.70441
# Velocity P-wave (km/s) = 5.27753 6.19548 5.75484
#
# Compressibility (1/GPa) = 0.04225381
#
# Stress axis : x y z
#
# Youngs Moduli (GPa) = 71.35543 51.50717 39.21951
#
# Poissons Ratio (x) = 0.20145 0.17044
# Poissons Ratio (y) = 0.27908 0.00312
# Poissons Ratio (z) = 0.31010 0.00409
#
# Static dielectric constant tensor:
#      x y z
#    x 1.787880 -0.010460 0.032670 
#    y -0.010460 1.691330 0.023040 
#    z 0.032670 0.023040 1.769030 
# 
# From -- ./inp_files/528060.got.cif
#   From: 2010.05.17/outbox.cif.g08.bks.cpg/sg2_265_cif.got.tgz:528060.got - 2010.06.03 11:33:40.
