data_PCOD9004296
_publ_section_title
;
Structure prediction by ZEFSAII (Michael W. Deem and Ramdas Pophale) SiO2 
 PCOD9004296
Probable space group: P -1
;
_chemical_formula_sum "Si O2"
_cell_formula_units_Z 16
_cell_length_a 8.929677
_cell_length_b 12.167346
_cell_length_c 7.836134
_cell_angle_alpha 107.928448
_cell_angle_beta 118.674324
_cell_angle_gamma 56.222077
_cell_volume 619.908375
_symmetry_space_group_name_H-M "P -1"
_symmetry_group_IT_number 2
_symmetry_cell_setting 'triclinic'
loop_
_space_group_symop_operation_xyz
x,y,z
-x,-y,-z
loop_
_atom_site_type_symbol
_atom_site_label
_atom_site_fract_x
_atom_site_fract_y
_atom_site_fract_z
Si Si1 0.247905 0.185554 0.537929
Si Si2 0.323059 0.409962 0.624953
Si Si3 0.046893 0.090907 0.948463
Si Si4 0.454770 0.744116 0.820094
Si Si5 0.756476 0.261784 0.636106
Si Si6 0.447220 0.060419 0.222950
Si Si7 0.169037 0.498355 0.205429
Si Si8 0.156348 0.704667 0.804146
O O1 0.264833 0.315270 0.652702
O O2 0.367340 0.133015 0.398076
O O3 0.026891 0.224101 0.392227
O O4 0.356180 0.072319 0.682919
O O5 0.554609 0.332533 0.670417
O O6 0.208050 0.440354 0.393171
O O7 0.257334 0.549026 0.748147
O O8 0.275805 0.035862 0.046640
O O9 0.950631 0.239010 0.048253
O O10 0.921825 0.120107 0.724752
O O11 0.000000 0.000000 0.000000
O O12 0.316338 0.754599 0.593154
O O13 0.528899 0.844614 0.852734
O O14 0.635754 0.597945 0.837603
O O15 0.318751 0.751927 0.905085
O O16 0.843220 0.360719 0.715542
O O17 0.000000 0.500000 0.000000
#
# Coordination Sequence:
#
# PCOD9004296 Si02
#       8
#     2   2   2   2   2   2   2   2
#     4  10  21  37  65  94 127 173 218 267 320 391
#     4  11  20  42  65  98 132 173 223 271 325 397
#     4  11  26  45  66  97 134 175 222 274 335 398
#     4  11  21  43  68  98 131 171 226 270 320 403
#     4  11  21  39  70  92 132 180 219 261 334 399
#     4  10  21  41  68  91 127 183 223 255 328 403
#     4  11  21  37  65  98 134 178 217 267 330 393
#     4  11  24  41  66 100 133 167 223 282 332 378
#
# _framework density 25.810265000000001
#
# number of rings (size 3 to 8) (size 9 to 14) (size 15 to 20)
#    0.000    1.250    5.000    2.625    5.250    1.000 
#    0.000    1.875    0.000    0.000    0.000    0.000 
#    0.000    0.000    0.000    0.000    0.000    0.000 
#
# Total GULP energy -89676.979645 kJ/mol
# GULP energy per Si atom -5604.811228 kJ/mol
# Density = 2.575152 g / cm^3
# Si number density = 25.810265 Si / 1000 Ang^3
#
#
#
# Elastic Constant Matrix: (Units=GPa)
#
#
# Indices 1 2 3 4 5 6 
#
# 1 51.3531 1.3009 -10.2235 13.1607 9.4829 10.3476
# 2 1.3009 65.2612 -5.6347 -2.1682 -5.2716 14.0018
# 3 -10.2235 -5.6347 81.8296 -8.1015 15.4848 2.4227
# 4 13.1607 -2.1682 -8.1015 39.1995 -3.1006 -2.9637
# 5 9.4829 -5.2716 15.4848 -3.1006 37.6963 15.1655
# 6 10.3476 14.0018 2.4227 -2.9637 15.1655 43.8022
#
#
#
# Elastic Compliance Matrix: (Units=1/GPa)
#
#
# Indices 1 2 3 4 5 6 
#
# 1 0.024383 -0.000083 0.003596 -0.008289 -0.006613 -0.004204
# 2 -0.000083 0.017399 0.000501 0.000957 0.005277 -0.007332
# 3 0.003596 0.000501 0.014091 0.001245 -0.006779 0.000642
# 4 -0.008289 0.000957 0.001245 0.029036 0.003100 0.002475
# 5 -0.006613 0.005277 -0.006779 0.003100 0.036927 -0.012325
# 6 -0.004204 -0.007332 0.000642 0.002475 -0.012325 0.030566
#
#
# Mechanical properties :
#
#
# Convention : Reuss Voigt Hill
#
# Bulk Modulus (GPa) = 15.64917 18.81436 17.23176
# Shear Modulus (GPa) = 30.17935 38.33968 34.25952
#
# Velocity S-wave (km/s) = 3.42318 3.85833 3.64725
# Velocity P-wave (km/s) = 4.65838 5.21097 4.94241
#
# Compressibility (1/GPa) = 0.06390115
#
# Stress axis : x y z
#
# Youngs Moduli (GPa) = 41.01137 57.47427 70.96570
#
# Poissons Ratio (x) = 0.00479 -0.25519
# Poissons Ratio (y) = 0.00341 -0.03555
# Poissons Ratio (z) = -0.14747 -0.02879
#
# Static dielectric constant tensor:
#      x y z
#    x 2.090200 -0.015860 -0.085000 
#    y -0.015860 2.045810 0.046250 
#    z -0.085000 0.046250 2.097930 
# 
# From -- ./inp_files/188782.got.cif
#   From: 2010.05.17/outbox.cif.g08.bks.cpg/sg2_95_cif.got.tgz:188782.got - 2010.06.03 11:33:40.
