data_PCOD9004444
_publ_section_title
;
Structure prediction by ZEFSAII (Michael W. Deem and Ramdas Pophale) SiO2 
 PCOD9004444
Probable space group: P -1
;
_chemical_formula_sum "Si O2"
_cell_formula_units_Z 16
_cell_length_a 9.910870
_cell_length_b 15.212505
_cell_length_c 11.600596
_cell_angle_alpha 97.550689
_cell_angle_beta 89.616836
_cell_angle_gamma 153.403225
_cell_volume 751.674682
_symmetry_space_group_name_H-M "P -1"
_symmetry_group_IT_number 2
_symmetry_cell_setting 'triclinic'
loop_
_space_group_symop_operation_xyz
x,y,z
-x,-y,-z
loop_
_atom_site_type_symbol
_atom_site_label
_atom_site_fract_x
_atom_site_fract_y
_atom_site_fract_z
Si Si1 0.134326 0.293488 0.600017
Si Si2 0.158299 0.460852 0.816262
Si Si3 0.704739 0.504873 0.590025
Si Si4 0.885076 0.185175 0.947014
Si Si5 0.703869 0.889307 0.477541
Si Si6 0.758460 0.165648 0.193988
Si Si7 0.505207 0.833529 0.215541
Si Si8 0.292239 0.110483 0.017406
O O1 0.151660 0.388082 0.698865
O O2 0.426986 0.398909 0.631917
O O3 0.160475 0.350477 0.482446
O O4 0.819753 0.048357 0.563923
O O5 0.448854 0.698769 0.863842
O O6 0.163441 0.395999 0.914382
O O7 0.843262 0.333001 0.802155
O O8 0.564020 0.331538 0.506997
O O9 0.967136 0.630314 0.699921
O O10 0.596745 0.013913 0.829106
O O11 0.862331 0.073960 0.977022
O O12 0.826381 0.210428 0.064890
O O13 0.608749 0.852577 0.339065
O O14 0.000000 0.000000 0.500000
O O15 0.734720 0.051435 0.222024
O O16 0.544593 0.798877 0.093715
O O17 0.000000 0.000000 0.000000
#
# Coordination Sequence:
#
# PCOD9004444 Si02
#       8
#     2   2   2   2   2   2   2   2
#     4  10  23  41  59  94 129 162 223 255 315 378
#     4  11  25  42  67  94 131 173 206 265 320 383
#     4  10  21  37  67  89 124 174 206 267 316 368
#     4   9  22  40  60  95 127 162 213 255 314 386
#     4  10  22  39  63  93 121 170 216 264 310 375
#     4   9  18  39  67  88 125 171 207 259 317 373
#     4  10  22  43  66  92 132 167 214 263 319 378
#     4  11  26  41  67  98 130 165 210 268 317 383
#
# _framework density 21.285803999999999
#
# number of rings (size 3 to 8) (size 9 to 14) (size 15 to 20)
#    0.000    2.000    1.250    1.125    7.000    4.000 
#    0.000    0.625    0.000    0.000    0.000    0.000 
#    0.000    0.000    0.000    0.000    0.000    0.000 
#
# Total GULP energy -89174.976582 kJ/mol
# GULP energy per Si atom -5573.436036 kJ/mol
# Density = 2.123736 g / cm^3
# Si number density = 21.285804 Si / 1000 Ang^3
#
#
#
# Elastic Constant Matrix: (Units=GPa)
#
#
# Indices 1 2 3 4 5 6 
#
# 1 4.3077 -30.5873 -50.5200 -44.4273 0.1623 9.7664
# 2 -30.5873 27.3473 -40.0735 -6.7511 -4.8705 1.5321
# 3 -50.5200 -40.0735 -24.0089 -33.5541 -5.3172 22.2402
# 4 -44.4273 -6.7511 -33.5541 4.2267 -6.3540 3.8785
# 5 0.1623 -4.8705 -5.3172 -6.3540 38.4720 -2.1465
# 6 9.7664 1.5321 22.2402 3.8785 -2.1465 22.4231
#
#
#
# Elastic Compliance Matrix: (Units=1/GPa)
#
#
# Indices 1 2 3 4 5 6 
#
# 1 0.014749 -0.007025 -0.016157 0.004140 -0.001989 0.009174
# 2 -0.007025 0.026240 0.001759 -0.020078 0.000448 0.003038
# 3 -0.016157 0.001759 0.017555 -0.024169 -0.001636 -0.006471
# 4 0.004140 -0.020078 -0.024169 0.045224 0.002460 0.015954
# 5 -0.001989 0.000448 -0.001636 0.002460 0.026493 0.004569
# 6 0.009174 0.003038 -0.006471 0.015954 0.004569 0.044490
#
#
# Mechanical properties :
#
#
# Convention : Reuss Voigt Hill
#
# Bulk Modulus (GPa) = 63.69612 -26.07948 18.80832
# Shear Modulus (GPa) = 22.43865 21.61282 22.02573
#
# Velocity S-wave (km/s) = 3.25031 3.18993 3.22026
# Velocity P-wave (km/s) = 6.63891 1.13530 4.76257
#
# Compressibility (1/GPa) = 0.01569954
#
# Stress axis : x y z
#
# Youngs Moduli (GPa) = 67.80071 38.10964 56.96247
#
# Poissons Ratio (x) = 0.26771 0.92032
# Poissons Ratio (y) = 0.47629 -0.10019
# Poissons Ratio (z) = 1.09543 -0.06703
#
# Static dielectric constant tensor:
#      x y z
#    x 1.794070 -0.027060 -0.007700 
#    y -0.027060 1.819840 0.008660 
#    z -0.007700 0.008660 1.775100 
# 
# From -- ./inp_files/399291.got.cif
#   From: 2010.05.17/outbox.cif.g08.bks.cpg/sg2_200_cif.got.tgz:399291.got - 2010.06.03 11:33:40.
