data_PCOD9004596
_publ_section_title
;
Structure prediction by ZEFSAII (Michael W. Deem and Ramdas Pophale) SiO2 
 PCOD9004596
Probable space group: P -1
;
_chemical_formula_sum "Si O2"
_cell_formula_units_Z 13
_cell_length_a 4.706985
_cell_length_b 20.363493
_cell_length_c 6.172309
_cell_angle_alpha 121.579581
_cell_angle_beta 88.312826
_cell_angle_gamma 112.438876
_cell_volume 454.804211
_symmetry_space_group_name_H-M "P -1"
_symmetry_group_IT_number 2
_symmetry_cell_setting 'triclinic'
loop_
_space_group_symop_operation_xyz
x,y,z
-x,-y,-z
loop_
_atom_site_type_symbol
_atom_site_label
_atom_site_fract_x
_atom_site_fract_y
_atom_site_fract_z
Si Si1 0.500000 0.000000 0.500000
Si Si2 0.886757 0.065744 0.221013
Si Si3 0.792447 0.627612 0.774619
Si Si4 0.414285 0.672019 0.238372
Si Si5 0.100168 0.222712 0.216413
Si Si6 0.697748 0.479520 0.773548
Si Si7 0.559286 0.829706 0.265008
O O1 0.428269 0.987530 0.735492
O O2 0.433244 0.897281 0.311722
O O3 0.871624 0.138887 0.200154
O O4 0.147900 0.114033 0.486319
O O5 0.000000 0.000000 0.000000
O O6 0.016521 0.713972 0.794524
O O7 0.918834 0.565802 0.786417
O O8 0.547198 0.573400 0.500879
O O9 0.602961 0.649927 0.005884
O O10 0.660871 0.722240 0.507453
O O11 0.186255 0.585476 0.223222
O O12 0.331383 0.744793 0.257467
O O13 0.286086 0.195293 0.985345
O O14 0.500000 0.500000 0.000000
#
# Coordination Sequence:
#
# PCOD9004596 Si02
#       7
#     1   2   2   2   2   2   2
#     4  12  24  38  60  82 104 150 192 226 290 338
#     4  11  23  40  57  80 111 144 185 238 282 331
#     4   8  13  22  42  69 104 142 180 221 266 329
#     4   8  15  27  46  69 107 144 175 229 274 316
#     4   9  17  33  50  71 109 144 175 234 278 316
#     4   8  12  20  38  71 104 140 182 219 265 326
#     4  10  21  38  54  80 111 142 189 233 275 338
#
# _framework density 28.583732000000001
#
# number of rings (size 3 to 8) (size 9 to 14) (size 15 to 20)
#    0.000    2.769    1.538    0.462    0.000    0.615 
#    0.000    0.000    0.000    0.000    0.000    1.077 
#    0.000  240.000    0.000   61.538    0.000   14.615 
#
# Total GULP energy -72604.974451 kJ/mol
# GULP energy per Si atom -5584.998035 kJ/mol
# Density = 2.851867 g / cm^3
# Si number density = 28.583732 Si / 1000 Ang^3
#
#
#
# Elastic Constant Matrix: (Units=GPa)
#
#
# Indices 1 2 3 4 5 6 
#
# 1 77.3566 44.4171 31.9653 -4.5447 18.7357 -10.2964
# 2 44.4171 402.4187 30.4703 -18.5507 10.6758 -41.2059
# 3 31.9653 30.4703 223.9728 -7.2597 -1.7646 -10.0988
# 4 -4.5447 -18.5507 -7.2597 54.0976 -10.4035 9.3562
# 5 18.7357 10.6758 -1.7646 -10.4035 22.8773 5.1102
# 6 -10.2964 -41.2059 -10.0988 9.3562 5.1102 27.9776
#
#
#
# Elastic Compliance Matrix: (Units=1/GPa)
#
#
# Indices 1 2 3 4 5 6 
#
# 1 0.020950 -0.000568 -0.002726 -0.005031 -0.021978 0.011585
# 2 -0.000568 0.003094 -0.000150 -0.000250 -0.002170 0.004773
# 3 -0.002726 -0.000150 0.004917 0.001077 0.003262 -0.000405
# 4 -0.005031 -0.000250 0.001077 0.023873 0.018107 -0.013121
# 5 -0.021978 -0.002170 0.003262 0.018107 0.078001 -0.030409
# 6 0.011585 0.004773 -0.000405 -0.013121 -0.030409 0.056833
#
#
# Mechanical properties :
#
#
# Convention : Reuss Voigt Hill
#
# Bulk Modulus (GPa) = 45.30853 101.93928 73.62390
# Shear Modulus (GPa) = 24.76309 60.78352 42.77330
#
# Velocity S-wave (km/s) = 2.94655 4.61641 3.87256
# Velocity P-wave (km/s) = 5.24040 8.00973 6.76822
#
# Compressibility (1/GPa) = 0.02207090
#
# Stress axis : x y z
#
# Youngs Moduli (GPa) = 47.73344 323.22128 203.39044
#
# Poissons Ratio (x) = 0.18374 0.55453
# Poissons Ratio (y) = 0.02713 0.03046
# Poissons Ratio (z) = 0.13014 0.04840
#
# Static dielectric constant tensor:
#      x y z
#    x 2.145450 0.013470 0.123920 
#    y 0.013470 2.248610 0.096550 
#    z 0.123920 0.096550 2.266700 
# 
# From -- ./inp_files/6500.got.cif
#   From: 2010.05.17/outbox.cif.g08.bks.cpg/sg2_4_cif.got.tgz:6500.got - 2010.06.03 11:33:40.
