data_PCOD9004752
_publ_section_title
;
Structure prediction by ZEFSAII (Michael W. Deem and Ramdas Pophale) SiO2 
 PCOD9004752
Probable space group: P -1
;
_chemical_formula_sum "Si O2"
_cell_formula_units_Z 16
_cell_length_a 7.807187
_cell_length_b 9.339391
_cell_length_c 14.946735
_cell_angle_alpha 58.268128
_cell_angle_beta 125.860969
_cell_angle_gamma 100.469743
_cell_volume 738.478726
_symmetry_space_group_name_H-M "P -1"
_symmetry_group_IT_number 2
_symmetry_cell_setting 'triclinic'
loop_
_space_group_symop_operation_xyz
x,y,z
-x,-y,-z
loop_
_atom_site_type_symbol
_atom_site_label
_atom_site_fract_x
_atom_site_fract_y
_atom_site_fract_z
Si Si1 0.388210 0.956169 0.390591
Si Si2 0.225586 0.284245 0.685579
Si Si3 0.079064 0.282060 0.172434
Si Si4 0.332377 0.384269 0.868443
Si Si5 0.318951 0.433543 0.046028
Si Si6 0.281996 0.583110 0.476710
Si Si7 0.845408 0.575188 0.669912
Si Si8 0.198046 0.082239 0.571879
O O1 0.156312 0.079067 0.271636
O O2 0.500000 0.000000 0.500000
O O3 0.371744 0.757799 0.456383
O O4 0.557740 0.999135 0.354510
O O5 0.345167 0.261901 0.826102
O O6 0.326504 0.426029 0.612833
O O7 0.211273 0.127418 0.665691
O O8 0.976840 0.359837 0.605925
O O9 0.169142 0.333154 0.089404
O O10 0.197988 0.366414 0.261197
O O11 0.832596 0.376637 0.075135
O O12 0.475377 0.530492 0.848573
O O13 0.083789 0.466975 0.775868
O O14 0.388471 0.339069 0.004638
O O15 0.303472 0.529784 0.395737
O O16 0.843485 0.739132 0.553395
O O17 0.000000 0.000000 0.500000
#
# Coordination Sequence:
#
# PCOD9004752 Si02
#       8
#     2   2   2   2   2   2   2   2
#     4  12  24  36  57  91 126 160 189 246 310 363
#     4   9  19  36  61  85 125 162 191 245 293 362
#     4  10  21  38  58  89 117 156 197 251 298 339
#     4   9  18  35  63  86 104 158 210 246 281 333
#     4   9  20  37  61  85 114 155 216 245 279 352
#     4   9  20  37  57  89 124 156 195 232 307 371
#     4   9  19  37  59  87 120 155 190 241 294 366
#     4  11  23  36  55  93 125 156 192 236 311 370
#
# _framework density 21.666163000000001
#
# number of rings (size 3 to 8) (size 9 to 14) (size 15 to 20)
#    0.000    2.250    1.250    1.500    3.500    3.000 
#    0.000    0.000    0.000   22.500    0.000    0.000 
#    0.000    0.000    0.000    0.000    0.000    0.000 
#
# Total GULP energy -89096.614083 kJ/mol
# GULP energy per Si atom -5568.538380 kJ/mol
# Density = 2.161685 g / cm^3
# Si number density = 21.666163 Si / 1000 Ang^3
#
#
#
# Elastic Constant Matrix: (Units=GPa)
#
#
# Indices 1 2 3 4 5 6 
#
# 1 71.2998 36.6671 11.2130 18.7576 -20.4281 7.3005
# 2 36.6671 129.9484 36.7957 29.2992 -7.4437 3.5237
# 3 11.2130 36.7957 43.9686 20.3442 -2.6115 -2.0778
# 4 18.7576 29.2992 20.3442 42.0955 -5.3523 -2.5693
# 5 -20.4281 -7.4437 -2.6115 -5.3523 21.1232 15.3601
# 6 7.3005 3.5237 -2.0778 -2.5693 15.3601 38.8492
#
#
#
# Elastic Compliance Matrix: (Units=1/GPa)
#
#
# Indices 1 2 3 4 5 6 
#
# 1 0.035572 -0.004739 0.000291 -0.007948 0.050067 -0.026561
# 2 -0.004739 0.011596 -0.007389 -0.002657 -0.002178 0.000129
# 3 0.000291 -0.007389 0.034245 -0.011765 -0.003205 0.002936
# 4 -0.007948 -0.002657 -0.011765 0.034489 -0.005334 0.005495
# 5 0.050067 -0.002178 -0.003205 -0.005334 0.140808 -0.065408
# 6 -0.026561 0.000129 0.002936 0.005495 -0.065408 0.057101
#
#
# Mechanical properties :
#
#
# Convention : Reuss Voigt Hill
#
# Bulk Modulus (GPa) = 17.31995 46.06316 31.69156
# Shear Modulus (GPa) = 14.01604 31.11634 22.56619
#
# Velocity S-wave (km/s) = 2.54620 3.79380 3.23079
# Velocity P-wave (km/s) = 4.08112 6.36373 5.34568
#
# Compressibility (1/GPa) = 0.05773688
#
# Stress axis : x y z
#
# Youngs Moduli (GPa) = 28.11185 86.23810 29.20115
#
# Poissons Ratio (x) = 0.40872 -0.00849
# Poissons Ratio (y) = 0.13323 0.21578
# Poissons Ratio (z) = -0.00817 0.63724
#
# Static dielectric constant tensor:
#      x y z
#    x 1.884440 -0.054560 -0.007300 
#    y -0.054560 1.838250 0.019130 
#    z -0.007300 0.019130 1.854650 
# 
# From -- ./inp_files/492589.got.cif
#   From: 2010.05.17/outbox.cif.g08.bks.cpg/sg2_247_cif.got.tgz:492589.got - 2010.06.03 11:33:40.
