data_PCOD9004552
_publ_section_title
;
Structure prediction by ZEFSAII (Michael W. Deem and Ramdas Pophale) SiO2 
 PCOD9004552
Probable space group: P -1
;
_chemical_formula_sum "Si O2"
_cell_formula_units_Z 16
_cell_length_a 5.509266
_cell_length_b 18.237002
_cell_length_c 7.987063
_cell_angle_alpha 118.578522
_cell_angle_beta 79.210757
_cell_angle_gamma 87.381956
_cell_volume 683.692050
_symmetry_space_group_name_H-M "P -1"
_symmetry_group_IT_number 2
_symmetry_cell_setting 'triclinic'
loop_
_space_group_symop_operation_xyz
x,y,z
-x,-y,-z
loop_
_atom_site_type_symbol
_atom_site_label
_atom_site_fract_x
_atom_site_fract_y
_atom_site_fract_z
Si Si1 0.070548 0.002218 0.294070
Si Si2 0.529976 0.066653 0.417956
Si Si3 0.156947 0.692847 0.992145
Si Si4 0.717041 0.750895 0.313923
Si Si5 0.849275 0.763163 0.674985
Si Si6 0.902783 0.592650 0.681172
Si Si7 0.525153 0.593420 0.044077
Si Si8 0.290939 0.825203 0.907766
O O1 0.302192 0.052853 0.312574
O O2 0.170097 0.912764 0.101294
O O3 0.000000 0.000000 0.500000
O O4 0.809800 0.042278 0.286643
O O5 0.486343 0.164867 0.582432
O O6 0.500000 0.000000 0.500000
O O7 0.252691 0.640962 0.084226
O O8 0.890229 0.747617 0.124572
O O9 0.328522 0.757516 0.980272
O O10 0.133306 0.624521 0.780499
O O11 0.878446 0.759913 0.468248
O O12 0.625774 0.659748 0.228072
O O13 0.828244 0.668021 0.639953
O O14 0.572829 0.818409 0.796994
O O15 0.082157 0.794877 0.776464
O O16 0.000000 0.500000 0.500000
O O17 0.693998 0.589505 0.849021
O O18 0.500000 0.500000 0.000000
#
# Coordination Sequence:
#
# PCOD9004552 Si02
#       8
#     2   2   2   2   2   2   2   2
#     4  10  21  37  69  99 132 170 233 281 334 403
#     4  10  22  39  66 103 129 179 225 281 343 400
#     4  10  23  42  68  96 133 184 234 282 347 405
#     4  11  27  43  69 100 144 176 237 292 344 419
#     4  11  26  45  68 102 139 195 223 287 360 410
#     4  10  24  43  65  95 138 182 233 287 350 418
#     4  11  26  42  69 101 133 183 236 292 342 412
#     4  11  23  46  70 100 141 183 234 281 344 427
#
# _framework density 23.402349999999998
#
# number of rings (size 3 to 8) (size 9 to 14) (size 15 to 20)
#    0.000    1.500    1.250    2.250   10.500    2.500 
#    0.000    3.750    0.000    0.000    0.000    0.000 
#    0.000    0.000    0.000    0.000    0.000    0.000 
#
# Total GULP energy -89357.526154 kJ/mol
# GULP energy per Si atom -5584.845385 kJ/mol
# Density = 2.334909 g / cm^3
# Si number density = 23.402350 Si / 1000 Ang^3
#
#
#
# Elastic Constant Matrix: (Units=GPa)
#
#
# Indices 1 2 3 4 5 6 
#
# 1 128.4188 31.2786 36.6114 24.2815 -0.4335 -18.5453
# 2 31.2786 129.7199 52.2618 24.6896 1.1260 12.6852
# 3 36.6114 52.2618 137.4123 38.0372 0.7322 -14.4840
# 4 24.2815 24.6896 38.0372 30.8393 -6.2854 0.4325
# 5 -0.4335 1.1260 0.7322 -6.2854 33.0073 5.0382
# 6 -18.5453 12.6852 -14.4840 0.4325 5.0382 26.9679
#
#
#
# Elastic Compliance Matrix: (Units=1/GPa)
#
#
# Indices 1 2 3 4 5 6 
#
# 1 0.011330 -0.002628 0.001915 -0.010017 -0.003367 0.010846
# 2 -0.002628 0.011215 -0.004155 -0.001482 0.000835 -0.009447
# 3 0.001915 -0.004155 0.014451 -0.017261 -0.005318 0.012303
# 4 -0.010017 -0.001482 -0.017261 0.066303 0.015903 -0.019496
# 5 -0.003367 0.000835 -0.005318 0.015903 0.035264 -0.012408
# 6 0.010846 -0.009447 0.012303 -0.019496 -0.012408 0.058222
#
#
# Mechanical properties :
#
#
# Convention : Reuss Voigt Hill
#
# Bulk Modulus (GPa) = 36.68584 70.65049 53.66817
# Shear Modulus (GPa) = 23.19016 36.52285 29.85650
#
# Velocity S-wave (km/s) = 3.15132 3.95479 3.57570
# Velocity P-wave (km/s) = 5.38064 7.14905 6.32693
#
# Compressibility (1/GPa) = 0.02725847
#
# Stress axis : x y z
#
# Youngs Moduli (GPa) = 88.25988 89.16371 69.20078
#
# Poissons Ratio (x) = 0.23435 -0.13250
# Poissons Ratio (y) = 0.23197 0.28755
# Poissons Ratio (z) = -0.16899 0.37050
#
# Static dielectric constant tensor:
#      x y z
#    x 1.931100 0.009380 0.026180 
#    y 0.009380 1.901030 -0.065690 
#    z 0.026180 -0.065690 1.914660 
# 
# From -- ./inp_files/53991.got.cif
#   From: 2010.05.17/outbox.cif.g08.bks.cpg/sg2_27_cif.got.tgz:53991.got - 2010.06.03 11:33:40.
