data_PCOD9004458
_publ_section_title
;
Structure prediction by ZEFSAII (Michael W. Deem and Ramdas Pophale) SiO2 
 PCOD9004458
Probable space group: P -1
;
_chemical_formula_sum "Si O2"
_cell_formula_units_Z 14
_cell_length_a 9.263585
_cell_length_b 15.354861
_cell_length_c 13.047113
_cell_angle_alpha 45.244702
_cell_angle_beta 57.112168
_cell_angle_gamma 30.973894
_cell_volume 668.821130
_symmetry_space_group_name_H-M "P -1"
_symmetry_group_IT_number 2
_symmetry_cell_setting 'triclinic'
loop_
_space_group_symop_operation_xyz
x,y,z
-x,-y,-z
loop_
_atom_site_type_symbol
_atom_site_label
_atom_site_fract_x
_atom_site_fract_y
_atom_site_fract_z
Si Si1 0.121565 0.302114 0.483484
Si Si2 0.898509 0.918376 0.626734
Si Si3 0.319536 0.283787 0.639491
Si Si4 0.855974 0.457470 0.049353
Si Si5 0.336090 0.942463 0.622761
Si Si6 0.309645 0.719550 0.935900
Si Si7 0.165930 0.192295 0.944782
O O1 0.235798 0.309108 0.533014
O O2 0.322049 0.236343 0.368532
O O3 0.790492 0.525421 0.429287
O O4 0.196000 0.116894 0.611404
O O5 0.090851 0.695319 0.775448
O O6 0.000000 0.000000 0.500000
O O7 0.654417 0.070343 0.681943
O O8 0.779776 0.953606 0.530290
O O9 0.152028 0.281389 0.774373
O O10 0.517427 0.660604 0.989930
O O11 0.000000 0.500000 0.000000
O O12 0.010689 0.342716 0.976452
O O13 0.267581 0.843972 0.761117
O O14 0.500000 0.500000 0.000000
O O15 0.007179 0.834291 0.987082
O O16 0.500000 0.000000 0.000000
#
# Coordination Sequence:
#
# PCOD9004458 Si02
#       7
#     2   2   2   2   2   2   2
#     4   9  20  37  62  93 121 162 213 272 324 389
#     4  11  23  41  65  92 129 176 223 268 333 407
#     4  10  21  38  63  88 127 167 215 267 341 385
#     4  11  25  41  67 100 134 173 222 274 330 394
#     4  10  21  37  67  93 125 162 225 268 316 392
#     4  10  22  40  66  93 130 175 218 262 332 403
#     4  11  22  41  66  90 131 172 217 266 336 395
#
# _framework density 20.932352000000002
#
# number of rings (size 3 to 8) (size 9 to 14) (size 15 to 20)
#    0.000    1.714    1.429    3.429    8.000    2.286 
#    0.000    5.000    0.000    0.000    0.000    0.000 
#    0.000    0.000    0.000    0.000    0.000    0.000 
#
# Total GULP energy -77987.612827 kJ/mol
# GULP energy per Si atom -5570.543773 kJ/mol
# Density = 2.088471 g / cm^3
# Si number density = 20.932352 Si / 1000 Ang^3
#
#
#
# Elastic Constant Matrix: (Units=GPa)
#
#
# Indices 1 2 3 4 5 6 
#
# 1 107.7142 35.8599 22.9925 4.1290 -12.8556 -13.3993
# 2 35.8599 84.6228 29.8626 -0.8545 -2.0430 0.0462
# 3 22.9925 29.8626 118.3850 5.2554 -18.4261 -7.1172
# 4 4.1290 -0.8545 5.2554 22.5211 -8.8360 -3.1946
# 5 -12.8556 -2.0430 -18.4261 -8.8360 30.9845 -4.8224
# 6 -13.3993 0.0462 -7.1172 -3.1946 -4.8224 33.1782
#
#
#
# Elastic Compliance Matrix: (Units=1/GPa)
#
#
# Indices 1 2 3 4 5 6 
#
# 1 0.012409 -0.005166 0.000163 0.000713 0.006042 0.006000
# 2 -0.005166 0.015205 -0.003631 0.000439 -0.003701 -0.003382
# 3 0.000163 -0.003631 0.010567 0.000505 0.006781 0.003372
# 4 0.000713 0.000439 0.000505 0.051793 0.016609 0.007797
# 5 0.006042 -0.003701 0.006781 0.016609 0.045184 0.012066
# 6 0.006000 -0.003382 0.003372 0.007797 0.012066 0.035796
#
#
# Mechanical properties :
#
#
# Convention : Reuss Voigt Hill
#
# Bulk Modulus (GPa) = 47.81980 54.23909 51.02944
# Shear Modulus (GPa) = 25.61562 32.13725 28.87643
#
# Velocity S-wave (km/s) = 3.50199 3.92253 3.71821
# Velocity P-wave (km/s) = 6.26469 6.81783 6.54711
#
# Compressibility (1/GPa) = 0.02091184
#
# Stress axis : x y z
#
# Youngs Moduli (GPa) = 80.58535 65.76959 94.63386
#
# Poissons Ratio (x) = 0.33977 -0.01538
# Poissons Ratio (y) = 0.41631 0.34361
# Poissons Ratio (z) = -0.01310 0.23880
#
# Static dielectric constant tensor:
#      x y z
#    x 1.835960 -0.031460 0.025050 
#    y -0.031460 1.817970 -0.072670 
#    z 0.025050 -0.072670 1.800120 
# 
# From -- ./inp_files/398549.got.cif
#   From: 2010.05.17/outbox.cif.g08.bks.cpg/sg2_200_cif.got.tgz:398549.got - 2010.06.03 11:33:40.
