data_PCOD9004367
_publ_section_title
;
Structure prediction by ZEFSAII (Michael W. Deem and Ramdas Pophale) SiO2 
 PCOD9004367
Probable space group: P -1
;
_chemical_formula_sum "Si O2"
_cell_formula_units_Z 12
_cell_length_a 8.435589
_cell_length_b 8.825945
_cell_length_c 17.457644
_cell_angle_alpha 39.047348
_cell_angle_beta 56.440878
_cell_angle_gamma 86.109355
_cell_volume 494.803566
_symmetry_space_group_name_H-M "P -1"
_symmetry_group_IT_number 2
_symmetry_cell_setting 'triclinic'
loop_
_space_group_symop_operation_xyz
x,y,z
-x,-y,-z
loop_
_atom_site_type_symbol
_atom_site_label
_atom_site_fract_x
_atom_site_fract_y
_atom_site_fract_z
Si Si1 0.155250 0.431287 0.314740
Si Si2 0.524367 0.429903 0.682678
Si Si3 0.435959 0.119268 0.283724
Si Si4 0.300819 0.698605 0.008087
Si Si5 0.885991 0.547133 0.435695
Si Si6 0.273858 0.634623 0.737265
O O1 0.322313 0.440161 0.329333
O O2 0.110967 0.670921 0.265603
O O3 0.291654 0.561659 0.145745
O O4 0.858492 0.069779 0.538144
O O5 0.752516 0.662031 0.465777
O O6 0.296172 0.423461 0.758365
O O7 0.412045 0.064725 0.846145
O O8 0.536712 0.287677 0.107825
O O9 0.646327 0.344168 0.204627
O O10 0.364152 0.778137 0.416821
O O11 0.002014 0.475817 0.150175
O O12 0.000000 0.500000 0.500000
O O13 0.500000 0.000000 0.500000
#
# Coordination Sequence:
#
# PCOD9004367 Si02
#       6
#     2   2   2   2   2   2
#     4   9  18  39  66  89 117 151 199 250 303 342
#     4  10  21  37  66  90 118 156 204 248 292 357
#     4   9  20  37  63  85 122 153 199 246 299 348
#     4  11  21  40  64  86 121 162 198 243 298 360
#     4   7  14  34  56  85 112 147 186 240 287 344
#     4  12  23  41  58  88 126 165 195 244 302 354
#
# _framework density 24.252050000000001
#
# number of rings (size 3 to 8) (size 9 to 14) (size 15 to 20)
#    1.000    1.333    1.667    1.500    0.000    0.667 
#    0.000   11.667    0.000    0.000    0.000    0.000 
#    0.000    0.000    0.000    0.000    0.000    0.000 
#
# Total GULP energy -66804.600963 kJ/mol
# GULP energy per Si atom -5567.050080 kJ/mol
# Density = 2.419685 g / cm^3
# Si number density = 24.252050 Si / 1000 Ang^3
#
#
#
# Elastic Constant Matrix: (Units=GPa)
#
#
# Indices 1 2 3 4 5 6 
#
# 1 22.0260 11.0093 4.1720 -0.3080 -11.4824 3.7335
# 2 11.0093 122.3781 26.2727 34.0935 11.7034 2.3102
# 3 4.1720 26.2727 69.1048 18.8772 -7.0914 -4.3507
# 4 -0.3080 34.0935 18.8772 52.1228 8.8759 -0.9287
# 5 -11.4824 11.7034 -7.0914 8.8759 30.8995 -6.2008
# 6 3.7335 2.3102 -4.3507 -0.9287 -6.2008 20.7662
#
#
#
# Elastic Compliance Matrix: (Units=1/GPa)
#
#
# Indices 1 2 3 4 5 6 
#
# 1 0.063893 -0.008953 0.001931 0.000916 0.026911 -0.002010
# 2 -0.008953 0.012037 -0.003557 -0.005369 -0.007769 -0.003035
# 3 0.001931 -0.003557 0.018689 -0.005908 0.009354 0.006493
# 4 0.000916 -0.005369 -0.005908 0.025966 -0.006775 -0.001667
# 5 0.026911 -0.007769 0.009354 -0.006775 0.052053 0.013226
# 6 -0.002010 -0.003035 0.006493 -0.001667 0.013226 0.054089
#
#
# Mechanical properties :
#
#
# Convention : Reuss Voigt Hill
#
# Bulk Modulus (GPa) = 13.61296 32.93520 23.27408
# Shear Modulus (GPa) = 18.35729 32.22803 25.29266
#
# Velocity S-wave (km/s) = 2.75423 3.64933 3.23291
# Velocity P-wave (km/s) = 3.96733 5.60060 4.85317
#
# Compressibility (1/GPa) = 0.07345940
#
# Stress axis : x y z
#
# Youngs Moduli (GPa) = 15.65129 83.08063 53.50726
#
# Poissons Ratio (x) = 0.74384 -0.10334
# Poissons Ratio (y) = 0.14013 0.19034
# Poissons Ratio (z) = -0.03023 0.29555
#
# Static dielectric constant tensor:
#      x y z
#    x 1.928060 -0.042740 0.025150 
#    y -0.042740 2.045690 -0.022970 
#    z 0.025150 -0.022970 2.010160 
# 
# From -- ./inp_files/233399.got.cif
#   From: 2010.05.17/outbox.cif.g08.bks.cpg/sg2_117_cif.got.tgz:233399.got - 2010.06.03 11:33:40.
