data_PCOD9004147
_publ_section_title
;
Structure prediction by ZEFSAII (Michael W. Deem and Ramdas Pophale) SiO2 
 PCOD9004147
Probable space group: P -1
;
_chemical_formula_sum "Si O2"
_cell_formula_units_Z 12
_cell_length_a 9.060778
_cell_length_b 7.235668
_cell_length_c 9.001255
_cell_angle_alpha 64.414852
_cell_angle_beta 82.017986
_cell_angle_gamma 62.794048
_cell_volume 472.115136
_symmetry_space_group_name_H-M "P -1"
_symmetry_group_IT_number 2
_symmetry_cell_setting 'triclinic'
loop_
_space_group_symop_operation_xyz
x,y,z
-x,-y,-z
loop_
_atom_site_type_symbol
_atom_site_label
_atom_site_fract_x
_atom_site_fract_y
_atom_site_fract_z
Si Si1 0.775225 0.004654 0.238123
Si Si2 0.308178 0.617508 0.663018
Si Si3 0.004767 0.787150 0.855807
Si Si4 0.521869 0.222131 0.962910
Si Si5 0.777446 0.607220 0.837534
Si Si6 0.804440 0.563016 0.506065
O O1 0.691256 0.157599 0.343801
O O2 0.960339 0.991206 0.219837
O O3 0.697003 0.135032 0.051181
O O4 0.740865 0.788098 0.333185
O O5 0.143639 0.631949 0.768105
O O6 0.261593 0.600992 0.506769
O O7 0.469059 0.399084 0.774097
O O8 0.833507 0.799324 0.819393
O O9 0.069405 0.632047 0.047760
O O10 0.386582 0.353218 0.064544
O O11 0.500000 0.000000 0.000000
O O12 0.751104 0.614550 0.664809
O O13 0.000000 0.500000 0.500000
#
# Coordination Sequence:
#
# PCOD9004147 Si02
#       6
#     2   2   2   2   2   2
#     4  10  22  40  68  88 125 169 203 252 309 370
#     4   9  20  39  65  87 123 162 207 245 310 361
#     4   8  19  40  64  85 121 165 203 252 299 356
#     4  11  21  41  68  88 121 173 208 246 309 371
#     4  10  21  37  64  93 128 156 206 263 298 364
#     4  12  22  39  65  94 127 163 200 257 321 358
#
# _framework density 25.417528000000001
#
# number of rings (size 3 to 8) (size 9 to 14) (size 15 to 20)
#    1.000    1.000    3.333    0.500    0.000    3.333 
#    0.000    5.833    0.000    0.000    0.000    0.000 
#    0.000    0.000    0.000    0.000    0.000    0.000 
#
# Total GULP energy -67031.157973 kJ/mol
# GULP energy per Si atom -5585.929831 kJ/mol
# Density = 2.535968 g / cm^3
# Si number density = 25.417528 Si / 1000 Ang^3
#
#
#
# Elastic Constant Matrix: (Units=GPa)
#
#
# Indices 1 2 3 4 5 6 
#
# 1 91.3482 4.9757 29.2151 15.4069 16.7830 15.6804
# 2 4.9757 54.8960 1.1370 8.5534 5.9814 19.1134
# 3 29.2151 1.1370 71.9201 23.2495 14.3056 -4.6018
# 4 15.4069 8.5534 23.2495 23.1882 6.6819 8.8169
# 5 16.7830 5.9814 14.3056 6.6819 41.6305 4.1176
# 6 15.6804 19.1134 -4.6018 8.8169 4.1176 29.8486
#
#
#
# Elastic Compliance Matrix: (Units=1/GPa)
#
#
# Indices 1 2 3 4 5 6 
#
# 1 0.015133 0.002653 -0.006153 -0.000049 -0.003359 -0.010119
# 2 0.002653 0.024230 -0.001115 -0.002914 -0.002124 -0.015927
# 3 -0.006153 -0.001115 0.027498 -0.028451 -0.003937 0.017133
# 4 -0.000049 -0.002914 -0.028451 0.083156 -0.000462 -0.026995
# 5 -0.003359 -0.002124 -0.003937 -0.000462 0.027216 -0.001100
# 6 -0.010119 -0.015927 0.017133 -0.026995 -0.001100 0.059784
#
#
# Mechanical properties :
#
#
# Convention : Reuss Voigt Hill
#
# Bulk Modulus (GPa) = 17.35212 32.09111 24.72162
# Shear Modulus (GPa) = 18.83543 31.12257 24.97900
#
# Velocity S-wave (km/s) = 2.72516 3.50301 3.13828
# Velocity P-wave (km/s) = 4.09190 5.38651 4.78321
#
# Compressibility (1/GPa) = 0.05762983
#
# Stress axis : x y z
#
# Youngs Moduli (GPa) = 66.08201 41.27143 36.36633
#
# Poissons Ratio (x) = -0.10948 0.22375
# Poissons Ratio (y) = -0.17529 0.04055
# Poissons Ratio (z) = 0.40659 0.04602
#
# Static dielectric constant tensor:
#      x y z
#    x 1.976100 -0.026680 0.030010 
#    y -0.026680 2.058420 -0.041520 
#    z 0.030010 -0.041520 1.983840 
# 
# From -- ./inp_files/152887.got.cif
#   From: 2010.05.17/outbox.cif.g08.bks.cpg/sg2_77_cif.got.tgz:152887.got - 2010.06.03 11:33:40.
