data_PCOD9004190
_publ_section_title
;
Structure prediction by ZEFSAII (Michael W. Deem and Ramdas Pophale) SiO2 
 PCOD9004190
Probable space group: P -1
;
_chemical_formula_sum "Si O2"
_cell_formula_units_Z 16
_cell_length_a 8.499554
_cell_length_b 14.518743
_cell_length_c 20.649423
_cell_angle_alpha 161.724287
_cell_angle_beta 120.675662
_cell_angle_gamma 58.861785
_cell_volume 682.214065
_symmetry_space_group_name_H-M "P -1"
_symmetry_group_IT_number 2
_symmetry_cell_setting 'triclinic'
loop_
_space_group_symop_operation_xyz
x,y,z
-x,-y,-z
loop_
_atom_site_type_symbol
_atom_site_label
_atom_site_fract_x
_atom_site_fract_y
_atom_site_fract_z
Si Si1 0.815838 0.769387 0.184106
Si Si2 0.058845 0.171001 0.061834
Si Si3 0.563133 0.837793 0.611529
Si Si4 0.395553 0.630810 0.196407
Si Si5 0.356718 0.295124 0.598782
Si Si6 0.941967 0.295625 0.506999
Si Si7 0.833730 0.301184 0.344011
Si Si8 0.245414 0.602520 0.954262
O O1 0.835606 0.585352 0.131843
O O2 0.621555 0.985695 0.282909
O O3 0.955236 0.002450 0.356994
O O4 0.780898 0.530898 0.962940
O O5 0.160122 0.430982 0.290081
O O6 0.887238 0.345796 0.101450
O O7 0.154106 0.947862 0.876920
O O8 0.000000 0.000000 0.000000
O O9 0.529839 0.763216 0.481107
O O10 0.649636 0.533955 0.458717
O O11 0.716357 0.069170 0.797761
O O12 0.520958 0.512911 0.204478
O O13 0.550432 0.564650 0.128654
O O14 0.347701 0.981511 0.422923
O O15 0.145333 0.392491 0.601856
O O16 0.860946 0.207653 0.362356
O O17 0.000000 0.500000 0.500000
#
# Coordination Sequence:
#
# PCOD9004190 Si02
#       8
#     2   2   2   2   2   2   2   2
#     4  11  25  43  64 100 147 172 211 284 359 395
#     4  12  23  43  70 101 131 176 234 282 324 401
#     4  11  20  42  70  92 132 179 227 273 329 413
#     4  10  21  37  64  96 131 180 219 263 334 413
#     4  11  19  38  66  97 128 169 235 267 322 412
#     4  12  26  44  67 107 134 178 224 288 344 392
#     4  12  23  42  71  98 129 179 237 281 325 402
#     4  11  19  40  68  98 128 179 223 264 336 413
#
# _framework density 23.453050000000001
#
# number of rings (size 3 to 8) (size 9 to 14) (size 15 to 20)
#    0.000    0.750    7.500    0.750    0.000    1.500 
#    2.250    0.625    0.000    0.000    0.000    0.000 
#    0.000    0.000    0.000    0.000    0.000    0.000 
#
# Total GULP energy -89233.960161 kJ/mol
# GULP energy per Si atom -5577.122510 kJ/mol
# Density = 2.339967 g / cm^3
# Si number density = 23.453050 Si / 1000 Ang^3
#
#
#
# Elastic Constant Matrix: (Units=GPa)
#
#
# Indices 1 2 3 4 5 6 
#
# 1 34.3760 19.6162 26.4778 6.8546 -6.1753 3.3284
# 2 19.6162 110.1754 47.1579 -6.2903 -3.7374 9.2243
# 3 26.4778 47.1579 116.1512 -0.5504 -19.0978 16.5491
# 4 6.8546 -6.2903 -0.5504 42.3091 2.0314 -14.8639
# 5 -6.1753 -3.7374 -19.0978 2.0314 31.8475 5.6943
# 6 3.3284 9.2243 16.5491 -14.8639 5.6943 31.8213
#
#
#
# Elastic Compliance Matrix: (Units=1/GPa)
#
#
# Indices 1 2 3 4 5 6 
#
# 1 0.039207 -0.004518 -0.005558 -0.009142 0.005236 -0.005108
# 2 -0.004518 0.011698 -0.004264 0.002920 -0.002443 0.001100
# 3 -0.005558 -0.004264 0.014232 -0.002956 0.008668 -0.008516
# 4 -0.009142 0.002920 -0.002956 0.032345 -0.008535 0.018284
# 5 0.005236 -0.002443 0.008668 -0.008535 0.040661 -0.015610
# 6 -0.005108 0.001100 -0.008516 0.018284 -0.015610 0.047404
#
#
# Mechanical properties :
#
#
# Convention : Reuss Voigt Hill
#
# Bulk Modulus (GPa) = 27.42981 49.68961 38.55971
# Shear Modulus (GPa) = 22.08669 32.35894 27.22282
#
# Velocity S-wave (km/s) = 3.07211 3.71851 3.41065
# Velocity P-wave (km/s) = 4.92999 6.29835 5.65571
#
# Compressibility (1/GPa) = 0.03645668
#
# Stress axis : x y z
#
# Youngs Moduli (GPa) = 25.50540 85.48687 70.26339
#
# Poissons Ratio (x) = 0.38627 0.39051
# Poissons Ratio (y) = 0.11525 0.29960
# Poissons Ratio (z) = 0.14176 0.36451
#
# Static dielectric constant tensor:
#      x y z
#    x 1.935000 -0.032610 -0.058710 
#    y -0.032610 1.932880 -0.014620 
#    z -0.058710 -0.014620 1.960520 
# 
# From -- ./inp_files/332318.got.cif
#   From: 2010.05.17/outbox.cif.g08.bks.cpg/sg2_167_cif.got.tgz:332318.got - 2010.06.03 11:33:40.
