data_PCOD9004207
_publ_section_title
;
Structure prediction by ZEFSAII (Michael W. Deem and Ramdas Pophale) SiO2 
 PCOD9004207
Probable space group: P -1
;
_chemical_formula_sum "Si O2"
_cell_formula_units_Z 15
_cell_length_a 12.298971
_cell_length_b 10.550896
_cell_length_c 11.469382
_cell_angle_alpha 39.130590
_cell_angle_beta 53.193795
_cell_angle_gamma 39.302151
_cell_volume 594.939144
_symmetry_space_group_name_H-M "P -1"
_symmetry_group_IT_number 2
_symmetry_cell_setting 'triclinic'
loop_
_space_group_symop_operation_xyz
x,y,z
-x,-y,-z
loop_
_atom_site_type_symbol
_atom_site_label
_atom_site_fract_x
_atom_site_fract_y
_atom_site_fract_z
Si Si1 0.865296 0.562676 0.831299
Si Si2 0.526055 0.176402 0.430322
Si Si3 0.840644 0.921322 0.261858
Si Si4 0.000000 0.500000 0.000000
Si Si5 0.373186 0.905646 0.318418
Si Si6 0.684242 0.399300 0.901565
Si Si7 0.111005 0.566234 0.504397
Si Si8 0.268650 0.546337 0.655794
O O1 0.759473 0.496493 0.874536
O O2 0.940658 0.642438 0.629942
O O3 0.770253 0.792197 0.828609
O O4 0.012130 0.354573 0.971672
O O5 0.550363 0.097763 0.603840
O O6 0.370945 0.461439 0.287905
O O7 0.500000 0.000000 0.500000
O O8 0.702287 0.107380 0.315670
O O9 0.817028 0.712073 0.388173
O O10 0.027818 0.762056 0.311311
O O11 0.803163 0.097636 0.051908
O O12 0.873841 0.434246 0.189856
O O13 0.287067 0.769287 0.497403
O O14 0.537597 0.721307 0.261656
O O15 0.500000 0.500000 0.000000
O O16 0.218881 0.565354 0.538352
#
# Coordination Sequence:
#
# PCOD9004207 Si02
#       8
#     2   2   2   1   2   2   2   2
#     4  11  23  42  65  95 136 185 228 288 347 418
#     4  11  19  38  66  98 133 181 222 287 345 415
#     4  10  21  37  64  97 136 179 224 282 342 421
#     4  10  26  44  66  94 138 176 228 292 350 396
#     4  11  23  43  71  99 135 180 244 274 345 429
#     4  10  23  36  62 103 133 181 221 292 348 398
#     4  10  21  41  65  96 137 185 227 278 351 420
#     4  10  25  44  68 100 131 185 234 291 340 418
#
# _framework density 25.212662999999999
#
# number of rings (size 3 to 8) (size 9 to 14) (size 15 to 20)
#    0.000    1.600    2.667    0.800    5.600    5.333 
#    0.000    5.333    0.000    0.000    0.000    0.000 
#    0.000    0.000    0.000    0.000    0.000    0.000 
#
# Total GULP energy -83594.581696 kJ/mol
# GULP energy per Si atom -5572.972113 kJ/mol
# Density = 2.515528 g / cm^3
# Si number density = 25.212663 Si / 1000 Ang^3
#
#
#
# Elastic Constant Matrix: (Units=GPa)
#
#
# Indices 1 2 3 4 5 6 
#
# 1 73.7130 0.7901 -1.0829 6.1743 -19.1681 9.8314
# 2 0.7901 85.9731 17.8315 -13.5665 -2.9012 -14.1134
# 3 -1.0829 17.8315 87.0474 -3.4089 11.0714 -3.2271
# 4 6.1743 -13.5665 -3.4089 33.5585 -5.6727 0.5563
# 5 -19.1681 -2.9012 11.0714 -5.6727 41.4090 8.7225
# 6 9.8314 -14.1134 -3.2271 0.5563 8.7225 30.9536
#
#
#
# Elastic Compliance Matrix: (Units=1/GPa)
#
#
# Indices 1 2 3 4 5 6 
#
# 1 0.017546 -0.001403 -0.001182 -0.002079 0.009974 -0.009109
# 2 -0.001403 0.014127 -0.002508 0.005683 0.000441 0.006399
# 3 -0.001182 -0.002508 0.012618 -0.000310 -0.004524 0.001828
# 4 -0.002079 0.005683 -0.000310 0.033049 0.003714 0.001579
# 5 0.009974 0.000441 -0.004524 0.003714 0.033226 -0.012868
# 6 -0.009109 0.006399 0.001828 0.001579 -0.012868 0.041905
#
#
# Mechanical properties :
#
#
# Convention : Reuss Voigt Hill
#
# Bulk Modulus (GPa) = 29.32039 31.31232 30.31635
# Shear Modulus (GPa) = 28.73154 36.46387 32.59771
#
# Velocity S-wave (km/s) = 3.37941 3.80709 3.59961
# Velocity P-wave (km/s) = 5.18476 5.63662 5.41540
#
# Compressibility (1/GPa) = 0.03410596
#
# Stress axis : x y z
#
# Youngs Moduli (GPa) = 56.99168 70.78841 79.25179
#
# Poissons Ratio (x) = 0.09931 0.09368
# Poissons Ratio (y) = 0.07995 0.19874
# Poissons Ratio (z) = 0.06736 0.17751
#
# Static dielectric constant tensor:
#      x y z
#    x 1.729270 0.197190 -0.110100 
#    y 0.197190 1.892420 0.207020 
#    z -0.110100 0.207020 1.988770 
# 
# From -- ./inp_files/531629.got.cif
#   From: 2010.05.17/outbox.cif.g08.bks.cpg/sg2_266_cif.got.tgz:531629.got - 2010.06.03 11:33:40.
