data_PCOD9004935
_publ_section_title
;
Structure prediction by ZEFSAII (Michael W. Deem and Ramdas Pophale) SiO2 
 PCOD9004935
Probable space group: P -1
;
_chemical_formula_sum "Si O2"
_cell_formula_units_Z 16
_cell_length_a 10.842678
_cell_length_b 21.755084
_cell_length_c 6.654870
_cell_angle_alpha 59.527382
_cell_angle_beta 62.563601
_cell_angle_gamma 33.173934
_cell_volume 738.111360
_symmetry_space_group_name_H-M "P -1"
_symmetry_group_IT_number 2
_symmetry_cell_setting 'triclinic'
loop_
_space_group_symop_operation_xyz
x,y,z
-x,-y,-z
loop_
_atom_site_type_symbol
_atom_site_label
_atom_site_fract_x
_atom_site_fract_y
_atom_site_fract_z
Si Si1 0.561304 0.078903 0.628168
Si Si2 0.186192 0.987308 0.852917
Si Si3 0.201333 0.113297 0.892250
Si Si4 0.586345 0.761722 0.193971
Si Si5 0.202651 0.677208 0.886154
Si Si6 0.607850 0.531871 0.130264
Si Si7 0.527160 0.618004 0.480732
Si Si8 0.915762 0.464972 0.741067
O O1 0.736993 0.025763 0.409484
O O2 0.352592 0.111702 0.668517
O O3 0.481612 0.183586 0.623124
O O4 0.664434 0.990659 0.878252
O O5 0.104075 0.094270 0.841625
O O6 0.419253 0.867895 0.986721
O O7 0.000000 0.000000 0.000000
O O8 0.028558 0.222190 0.990092
O O9 0.556269 0.689802 0.306332
O O10 0.855242 0.665850 0.143033
O O11 0.234269 0.596934 0.849049
O O12 0.289499 0.704747 0.629115
O O13 0.384698 0.608552 0.042581
O O14 0.546293 0.566775 0.347282
O O15 0.751571 0.542174 0.927479
O O16 0.734758 0.505609 0.651073
O O17 0.000000 0.500000 0.500000
#
# Coordination Sequence:
#
# PCOD9004935 Si02
#       8
#     2   2   2   2   2   2   2   2
#     4  10  23  44  64  93 130 165 221 264 320 385
#     4  11  26  40  66 100 128 165 218 267 323 394
#     4  10  23  43  67  90 126 174 212 269 321 381
#     4  10  23  39  63  93 128 170 210 266 326 373
#     4  10  22  38  61  88 127 168 207 263 321 382
#     4  10  21  38  59  93 127 161 217 256 319 388
#     4  10  22  37  62  91 125 166 215 264 317 379
#     4   9  20  39  58  87 124 165 209 264 312 371
#
# _framework density 21.676945
#
# number of rings (size 3 to 8) (size 9 to 14) (size 15 to 20)
#    0.000    2.000    0.000    1.500    5.250    6.000 
#    0.000    2.500    0.000    0.000    0.000    0.000 
#    0.000    0.000    0.000    0.000    0.000    0.000 
#
# Total GULP energy -89157.613250 kJ/mol
# GULP energy per Si atom -5572.350828 kJ/mol
# Density = 2.162761 g / cm^3
# Si number density = 21.676945 Si / 1000 Ang^3
#
#
#
# Elastic Constant Matrix: (Units=GPa)
#
#
# Indices 1 2 3 4 5 6 
#
# 1 95.9603 21.0328 41.0884 18.4744 -9.5063 18.8992
# 2 21.0328 63.0427 11.2535 7.9114 -4.4966 6.5248
# 3 41.0884 11.2535 84.4910 27.9374 -4.1348 -2.8006
# 4 18.4744 7.9114 27.9374 34.6361 -4.7696 2.0767
# 5 -9.5063 -4.4966 -4.1348 -4.7696 29.7431 7.9104
# 6 18.8992 6.5248 -2.8006 2.0767 7.9104 33.5273
#
#
#
# Elastic Compliance Matrix: (Units=1/GPa)
#
#
# Indices 1 2 3 4 5 6 
#
# 1 0.017561 -0.002631 -0.008027 -0.000610 0.007112 -0.011698
# 2 -0.002631 0.017430 -0.000416 -0.001819 0.002061 -0.002317
# 3 -0.008027 -0.000416 0.020128 -0.012896 -0.004036 0.008038
# 4 -0.000610 -0.001819 -0.012896 0.041014 0.005432 -0.004201
# 5 0.007112 0.002061 -0.004036 0.005432 0.040403 -0.014617
# 6 -0.011698 -0.002317 0.008038 -0.004201 -0.014617 0.041252
#
#
# Mechanical properties :
#
#
# Convention : Reuss Voigt Hill
#
# Bulk Modulus (GPa) = 30.33222 43.36036 36.84629
# Shear Modulus (GPa) = 23.70491 30.92257 27.31374
#
# Velocity S-wave (km/s) = 3.31048 3.78103 3.55355
# Velocity P-wave (km/s) = 5.35122 6.25364 5.81995
#
# Compressibility (1/GPa) = 0.03296825
#
# Stress axis : x y z
#
# Youngs Moduli (GPa) = 56.94527 57.37385 49.68225
#
# Poissons Ratio (x) = 0.15097 0.39882
# Poissons Ratio (y) = 0.14984 0.02068
# Poissons Ratio (z) = 0.45712 0.02388
#
# Static dielectric constant tensor:
#      x y z
#    x 1.873530 0.001100 -0.060320 
#    y 0.001100 1.830890 -0.049160 
#    z -0.060320 -0.049160 1.840200 
# 
# From -- ./inp_files/84198.got.cif
#   From: 2010.05.17/outbox.cif.g08.bks.cpg/sg2_43_cif.got.tgz:84198.got - 2010.06.03 11:33:40.
