data_PCOD9004624
_publ_section_title
;
Structure prediction by ZEFSAII (Michael W. Deem and Ramdas Pophale) SiO2 
 PCOD9004624
Probable space group: P -1
;
_chemical_formula_sum "Si O2"
_cell_formula_units_Z 16
_cell_length_a 18.412846
_cell_length_b 8.182072
_cell_length_c 12.917381
_cell_angle_alpha 103.102302
_cell_angle_beta 156.749195
_cell_angle_gamma 64.953759
_cell_volume 620.213555
_symmetry_space_group_name_H-M "P -1"
_symmetry_group_IT_number 2
_symmetry_cell_setting 'triclinic'
loop_
_space_group_symop_operation_xyz
x,y,z
-x,-y,-z
loop_
_atom_site_type_symbol
_atom_site_label
_atom_site_fract_x
_atom_site_fract_y
_atom_site_fract_z
Si Si1 0.704866 0.335990 0.449729
Si Si2 0.210287 0.484075 0.218150
Si Si3 0.557200 0.994774 0.877208
Si Si4 0.896559 0.874434 0.672353
Si Si5 0.880303 0.707080 0.080085
Si Si6 0.113392 0.271443 0.583559
Si Si7 0.723682 0.259673 0.095328
Si Si8 0.283320 0.880049 0.165055
O O1 0.741540 0.385743 0.623021
O O2 0.865477 0.364789 0.590461
O O3 0.785298 0.105885 0.518526
O O4 0.453264 0.500802 0.112969
O O5 0.457466 0.277981 0.502744
O O6 0.134465 0.479686 0.000430
O O7 0.000000 0.500000 0.000000
O O8 0.306933 0.096542 0.523803
O O9 0.722570 0.827313 0.986164
O O10 0.637897 0.867027 0.069691
O O11 0.606029 0.165699 0.983681
O O12 0.911428 0.749599 0.573261
O O13 0.122029 0.837164 0.011869
O O14 0.791783 0.888315 0.902766
O O15 0.000000 0.500000 0.500000
O O16 0.961194 0.206883 0.431669
O O17 0.757034 0.165930 0.010823
#
# Coordination Sequence:
#
# PCOD9004624 Si02
#       8
#     2   2   2   2   2   2   2   2
#     4   9  18  36  58  82 112 150 187 225 278 340
#     4   9  16  30  57  86 110 147 192 229 270 330
#     4  11  22  37  56  85 116 147 186 236 281 326
#     4  10  21  38  56  78 112 151 189 229 280 344
#     4   9  18  32  54  84 114 144 186 235 274 320
#     4  11  23  40  60  81 108 150 191 230 284 345
#     4   9  19  35  57  84 111 141 186 237 279 323
#     4   8  16  32  54  78 110 150 187 223 272 334
#
# _framework density 25.797567000000001
#
# number of rings (size 3 to 8) (size 9 to 14) (size 15 to 20)
#    0.000    2.500    0.000    2.625    0.000    1.000 
#    0.000    3.125    0.000    0.000    0.000    0.000 
#    0.000    0.000    0.000    0.000    0.000    0.000 
#
# Total GULP energy -89259.425703 kJ/mol
# GULP energy per Si atom -5578.714106 kJ/mol
# Density = 2.573885 g / cm^3
# Si number density = 25.797567 Si / 1000 Ang^3
#
#
#
# Elastic Constant Matrix: (Units=GPa)
#
#
# Indices 1 2 3 4 5 6 
#
# 1 53.5100 12.0359 22.7774 0.2731 5.4193 -15.8147
# 2 12.0359 74.5670 6.5563 6.9232 10.3680 -16.2640
# 3 22.7774 6.5563 142.8083 8.7612 30.3309 -2.2914
# 4 0.2731 6.9232 8.7612 37.5879 -1.3365 11.6473
# 5 5.4193 10.3680 30.3309 -1.3365 31.2141 -0.2849
# 6 -15.8147 -16.2640 -2.2914 11.6473 -0.2849 34.7107
#
#
#
# Elastic Compliance Matrix: (Units=1/GPa)
#
#
# Indices 1 2 3 4 5 6 
#
# 1 0.023600 -0.000747 -0.003228 -0.002749 -0.000729 0.011106
# 2 -0.000747 0.017246 0.001442 -0.006889 -0.007202 0.010088
# 3 -0.003228 0.001442 0.009654 -0.003074 -0.009423 0.000796
# 4 -0.002749 -0.006889 -0.003074 0.033809 0.007054 -0.015970
# 5 -0.000729 -0.007202 -0.009423 0.007054 0.043957 -0.006335
# 6 0.011106 0.010088 0.000796 -0.015970 -0.006335 0.043956
#
#
# Mechanical properties :
#
#
# Convention : Reuss Voigt Hill
#
# Bulk Modulus (GPa) = 22.01007 39.29163 30.65085
# Shear Modulus (GPa) = 25.98299 36.00358 30.99329
#
# Velocity S-wave (km/s) = 3.17707 3.73985 3.46989
# Velocity P-wave (km/s) = 4.69134 5.82344 5.28778
#
# Compressibility (1/GPa) = 0.04543375
#
# Stress axis : x y z
#
# Youngs Moduli (GPa) = 42.37211 57.98451 103.58492
#
# Poissons Ratio (x) = 0.04329 0.33440
# Poissons Ratio (y) = 0.03163 -0.14932
# Poissons Ratio (z) = 0.13679 -0.08359
#
# Static dielectric constant tensor:
#      x y z
#    x 2.207260 0.160090 0.067770 
#    y 0.160090 2.097200 0.025510 
#    z 0.067770 0.025510 2.047930 
# 
# From -- ./inp_files/521288.got.cif
#   From: 2010.05.17/outbox.cif.g08.bks.cpg/sg2_261_cif.got.tgz:521288.got - 2010.06.03 11:33:40.
