data_PCOD9004560
_publ_section_title
;
Structure prediction by ZEFSAII (Michael W. Deem and Ramdas Pophale) SiO2 
 PCOD9004560
Probable space group: P -1
;
_chemical_formula_sum "Si O2"
_cell_formula_units_Z 12
_cell_length_a 17.465056
_cell_length_b 4.914645
_cell_length_c 8.438411
_cell_angle_alpha 56.059840
_cell_angle_beta 121.004900
_cell_angle_gamma 128.501941
_cell_volume 454.331923
_symmetry_space_group_name_H-M "P -1"
_symmetry_group_IT_number 2
_symmetry_cell_setting 'triclinic'
loop_
_space_group_symop_operation_xyz
x,y,z
-x,-y,-z
loop_
_atom_site_type_symbol
_atom_site_label
_atom_site_fract_x
_atom_site_fract_y
_atom_site_fract_z
Si Si1 0.822118 0.668009 0.915195
Si Si2 0.034480 0.594635 0.688120
Si Si3 0.850161 0.664851 0.588670
Si Si4 0.507700 0.710476 0.227527
Si Si5 0.304867 0.145437 0.056775
Si Si6 0.365070 0.649249 0.648774
O O1 0.849785 0.807784 0.719500
O O2 0.788468 0.889780 0.926892
O O3 0.726170 0.253268 0.924631
O O4 0.912191 0.621867 0.107021
O O5 0.000000 0.500000 0.500000
O O6 0.941834 0.568508 0.701173
O O7 0.120431 0.021311 0.617562
O O8 0.734763 0.365118 0.528153
O O9 0.404322 0.335260 0.210363
O O10 0.596613 0.605807 0.319009
O O11 0.540952 0.947052 0.347070
O O12 0.500000 0.000000 0.000000
O O13 0.328653 0.443161 0.845996
#
# Coordination Sequence:
#
# PCOD9004560 Si02
#       6
#     2   2   2   2   2   2
#     4  12  26  44  71 102 142 174 225 283 338 404
#     4  11  26  47  73  95 137 180 230 279 341 408
#     4  11  27  44  68 105 132 181 226 282 341 402
#     4  10  21  37  70 102 132 182 229 272 329 405
#     4  11  22  43  67 103 138 178 227 276 337 399
#     4  11  21  41  69  98 138 178 230 272 334 403
#
# _framework density 26.412407000000002
#
# number of rings (size 3 to 8) (size 9 to 14) (size 15 to 20)
#    0.000    1.000    1.667    6.500    7.000    0.667 
#    0.000    5.000    0.000    0.000    0.000    0.000 
#    0.000    0.000    0.000    0.000    0.000    0.000 
#
# Total GULP energy -67278.007168 kJ/mol
# GULP energy per Si atom -5606.500597 kJ/mol
# Density = 2.635229 g / cm^3
# Si number density = 26.412407 Si / 1000 Ang^3
#
#
#
# Elastic Constant Matrix: (Units=GPa)
#
#
# Indices 1 2 3 4 5 6 
#
# 1 107.4205 -5.6550 14.3343 -17.9728 4.9233 -2.2670
# 2 -5.6550 109.8641 9.9666 13.9639 5.8003 12.7470
# 3 14.3343 9.9666 106.5130 -3.7128 6.5408 10.3877
# 4 -17.9728 13.9639 -3.7128 33.4608 4.4677 -6.0497
# 5 4.9233 5.8003 6.5408 4.4677 48.4117 2.4907
# 6 -2.2670 12.7470 10.3877 -6.0497 2.4907 47.0436
#
#
#
# Elastic Compliance Matrix: (Units=1/GPa)
#
#
# Indices 1 2 3 4 5 6 
#
# 1 0.010605 -0.000244 -0.001264 0.006177 -0.001538 0.001732
# 2 -0.000244 0.010190 -0.000751 -0.004988 -0.000468 -0.003224
# 3 -0.001264 -0.000751 0.009900 0.000529 -0.001069 -0.001919
# 4 0.006177 -0.004988 0.000529 0.037033 -0.003854 0.006499
# 5 -0.001538 -0.000468 -0.001069 -0.003854 0.021438 -0.001342
# 6 0.001732 -0.003224 -0.001919 0.006499 -0.001342 0.023544
#
#
# Mechanical properties :
#
#
# Convention : Reuss Voigt Hill
#
# Bulk Modulus (GPa) = 38.20082 40.12104 39.16093
# Shear Modulus (GPa) = 39.69656 46.12666 42.91161
#
# Velocity S-wave (km/s) = 3.88100 4.18353 4.03510
# Velocity P-wave (km/s) = 5.88026 6.20960 6.04717
#
# Compressibility (1/GPa) = 0.02617745
#
# Stress axis : x y z
#
# Youngs Moduli (GPa) = 94.29135 98.13133 101.00904
#
# Poissons Ratio (x) = 0.02398 0.12763
# Poissons Ratio (y) = 0.02304 0.07589
# Poissons Ratio (z) = 0.11914 0.07373
#
# Static dielectric constant tensor:
#      x y z
#    x 1.953860 0.045590 -0.007870 
#    y 0.045590 2.185450 -0.026330 
#    z -0.007870 -0.026330 2.006230 
# 
# From -- ./inp_files/31513.got.cif
#   From: 2010.05.17/outbox.cif.g08.bks.cpg/sg2_16_cif.got.tgz:31513.got - 2010.06.03 11:33:40.
