data_PCOD9004064
_publ_section_title
;
Structure prediction by ZEFSAII (Michael W. Deem and Ramdas Pophale) SiO2 
 PCOD9004064
Probable space group: P -1
;
_chemical_formula_sum "Si O2"
_cell_formula_units_Z 16
_cell_length_a 9.299697
_cell_length_b 16.138270
_cell_length_c 9.055591
_cell_angle_alpha 45.421110
_cell_angle_beta 91.280142
_cell_angle_gamma 116.695671
_cell_volume 767.740840
_symmetry_space_group_name_H-M "P -1"
_symmetry_group_IT_number 2
_symmetry_cell_setting 'triclinic'
loop_
_space_group_symop_operation_xyz
x,y,z
-x,-y,-z
loop_
_atom_site_type_symbol
_atom_site_label
_atom_site_fract_x
_atom_site_fract_y
_atom_site_fract_z
Si Si1 0.743413 0.136045 0.436213
Si Si2 0.808883 0.945209 0.490579
Si Si3 0.045626 0.353254 0.794936
Si Si4 0.297644 0.651518 0.251356
Si Si5 0.908112 0.578362 0.941930
Si Si6 0.415765 0.688265 0.875845
Si Si7 0.396923 0.037202 0.053379
Si Si8 0.924333 0.059211 0.032449
O O1 0.649218 0.211933 0.296547
O O2 0.763160 0.054474 0.405613
O O3 0.632897 0.021268 0.708012
O O4 0.951966 0.263848 0.329198
O O5 0.631567 0.786542 0.736316
O O6 0.000000 0.000000 0.500000
O O7 0.828954 0.954586 0.303369
O O8 0.194493 0.500825 0.525839
O O9 0.078564 0.387246 0.927436
O O10 0.848300 0.314346 0.806452
O O11 0.046391 0.220622 0.906256
O O12 0.351918 0.641678 0.100384
O O13 0.482499 0.787393 0.159561
O O14 0.702231 0.461627 0.032971
O O15 0.000000 0.500000 0.000000
O O16 0.210343 0.948883 0.074935
O O17 0.500000 0.000000 0.000000
O O18 0.000000 0.000000 0.000000
#
# Coordination Sequence:
#
# PCOD9004064 Si02
#       8
#     2   2   2   2   2   2   2   2
#     4  11  22  41  69  98 135 172 226 281 334 399
#     4  12  25  46  68  92 132 179 231 285 328 393
#     4  11  23  42  65 102 144 175 217 286 347 405
#     4  11  23  39  66 105 140 172 220 284 348 403
#     4  10  21  37  64 100 132 171 215 276 343 397
#     4  11  23  40  71 101 131 175 225 279 342 404
#     4  12  25  38  68 105 135 175 231 281 339 406
#     4  12  27  47  68  95 135 186 228 276 345 405
#
# _framework density 20.840368000000002
#
# number of rings (size 3 to 8) (size 9 to 14) (size 15 to 20)
#    0.000    0.750    6.250    1.875    7.000    0.000 
#    0.000    1.250    0.000    0.000    0.000    0.000 
#    0.000    0.000    0.000    0.000    0.000    0.000 
#
# Total GULP energy -89333.447466 kJ/mol
# GULP energy per Si atom -5583.340467 kJ/mol
# Density = 2.079293 g / cm^3
# Si number density = 20.840368 Si / 1000 Ang^3
#
#
#
# Elastic Constant Matrix: (Units=GPa)
#
#
# Indices 1 2 3 4 5 6 
#
# 1 42.8471 29.6601 21.2306 4.4056 -15.3575 -8.9890
# 2 29.6601 147.8214 45.0872 -0.7575 -17.8103 -13.7306
# 3 21.2306 45.0872 129.7546 4.4998 -32.7624 -8.8699
# 4 4.4056 -0.7575 4.4998 45.4685 5.6521 -13.8048
# 5 -15.3575 -17.8103 -32.7624 5.6521 24.0974 0.4687
# 6 -8.9890 -13.7306 -8.8699 -13.8048 0.4687 34.1664
#
#
#
# Elastic Compliance Matrix: (Units=1/GPa)
#
#
# Indices 1 2 3 4 5 6 
#
# 1 0.035394 -0.004452 0.002200 -0.004850 0.023282 0.005815
# 2 -0.004452 0.008543 -0.002058 0.001441 0.000296 0.002306
# 3 0.002200 -0.002058 0.012849 -0.003313 0.018099 0.001501
# 4 -0.004850 0.001441 -0.003313 0.027391 -0.013144 0.009690
# 5 0.023282 0.000296 0.018099 -0.013144 0.084158 0.004478
# 6 0.005815 0.002306 0.001501 0.009690 0.004478 0.035969
#
#
# Mechanical properties :
#
#
# Convention : Reuss Voigt Hill
#
# Bulk Modulus (GPa) = 20.76104 56.93099 38.84601
# Shear Modulus (GPa) = 21.83597 35.70947 28.77272
#
# Velocity S-wave (km/s) = 3.24044 4.14391 3.71971
# Velocity P-wave (km/s) = 4.89737 7.09034 6.09332
#
# Compressibility (1/GPa) = 0.04816715
#
# Stress axis : x y z
#
# Youngs Moduli (GPa) = 28.25313 117.05287 77.82571
#
# Poissons Ratio (x) = 0.52117 -0.17124
# Poissons Ratio (y) = 0.12580 0.16013
# Poissons Ratio (z) = -0.06216 0.24084
#
# Static dielectric constant tensor:
#      x y z
#    x 1.753420 0.012030 0.010620 
#    y 0.012030 1.766530 -0.045750 
#    z 0.010620 -0.045750 1.745900 
# 
# From -- ./inp_files/205611.got.cif
#   From: 2010.05.17/outbox.cif.g08.bks.cpg/sg2_103_cif.got.tgz:205611.got - 2010.06.03 11:33:40.
