data_PCOD9004578
_publ_section_title
;
Structure prediction by ZEFSAII (Michael W. Deem and Ramdas Pophale) SiO2 
 PCOD9004578
Probable space group: P -1
;
_chemical_formula_sum "Si O2"
_cell_formula_units_Z 15
_cell_length_a 7.743754
_cell_length_b 12.615133
_cell_length_c 9.705159
_cell_angle_alpha 80.921953
_cell_angle_beta 52.742699
_cell_angle_gamma 108.859864
_cell_volume 630.566977
_symmetry_space_group_name_H-M "P -1"
_symmetry_group_IT_number 2
_symmetry_cell_setting 'triclinic'
loop_
_space_group_symop_operation_xyz
x,y,z
-x,-y,-z
loop_
_atom_site_type_symbol
_atom_site_label
_atom_site_fract_x
_atom_site_fract_y
_atom_site_fract_z
Si Si1 0.432398 0.235123 0.710033
Si Si2 0.656514 0.328513 0.870771
Si Si3 0.996038 0.710861 0.131866
Si Si4 0.348087 0.980570 0.865070
Si Si5 0.118835 0.959849 0.281278
Si Si6 0.008469 0.388065 0.300828
Si Si7 0.000000 0.500000 0.000000
Si Si8 0.216856 0.210833 0.306867
O O1 0.460654 0.255649 0.857824
O O2 0.341573 0.088400 0.759684
O O3 0.716580 0.323879 0.498801
O O4 0.249444 0.279723 0.735633
O O5 0.848736 0.278995 0.805244
O O6 0.806598 0.477493 0.741111
O O7 0.510873 0.295868 0.096078
O O8 0.934669 0.577758 0.130398
O O9 0.192712 0.835190 0.919463
O O10 0.640009 0.024552 0.750086
O O11 0.202822 0.966689 0.082599
O O12 0.858913 0.838233 0.490097
O O13 0.105449 0.081782 0.300545
O O14 0.096456 0.292088 0.311926
O O15 0.034072 0.420532 0.121973
#
# Coordination Sequence:
#
# PCOD9004578 Si02
#       8
#     2   2   2   2   2   2   1   2
#     4  12  24  46  73 104 143 182 241 294 344 430
#     4  11  23  44  71 100 141 186 235 291 348 419
#     4  11  25  45  72 102 140 189 230 288 359 411
#     4  11  20  44  67 103 143 182 233 287 350 421
#     4  10  21  37  72 104 146 178 231 293 347 422
#     4  11  25  44  70 102 138 195 236 286 358 413
#     4  10  26  48  64  94 148 174 232 302 332 412
#     4  11  20  39  67 108 140 182 229 288 353 412
#
# _framework density 23.788115999999999
#
# number of rings (size 3 to 8) (size 9 to 14) (size 15 to 20)
#    0.000    1.067    4.000    2.800    0.000    3.200 
#    4.800    2.000    0.000    0.000    0.000    0.000 
#    0.000    0.000    0.000    0.000    0.000    0.000 
#
# Total GULP energy -83660.441643 kJ/mol
# GULP energy per Si atom -5577.362776 kJ/mol
# Density = 2.373397 g / cm^3
# Si number density = 23.788116 Si / 1000 Ang^3
#
#
#
# Elastic Constant Matrix: (Units=GPa)
#
#
# Indices 1 2 3 4 5 6 
#
# 1 70.2175 41.3994 27.3909 3.8681 -17.3576 -32.7509
# 2 41.3994 136.4235 8.5574 -21.5419 -12.4933 -30.3560
# 3 27.3909 8.5574 68.9160 -15.8959 -11.7040 5.7746
# 4 3.8681 -21.5419 -15.8959 26.0952 -10.4446 15.7747
# 5 -17.3576 -12.4933 -11.7040 -10.4446 36.3674 13.2702
# 6 -32.7509 -30.3560 5.7746 15.7747 13.2702 16.4771
#
#
#
# Elastic Compliance Matrix: (Units=1/GPa)
#
#
# Indices 1 2 3 4 5 6 
#
# 1 0.008889 -0.002916 0.004751 0.016221 0.015884 -0.017691
# 2 -0.002916 0.010929 0.000563 0.005384 0.001149 0.008061
# 3 0.004751 0.000563 0.008283 -0.008437 -0.004261 0.019087
# 4 0.016221 0.005384 -0.008437 0.010825 -0.003819 0.037830
# 5 0.015884 0.001149 -0.004261 -0.003819 0.026672 0.017356
# 6 -0.017691 0.008061 0.019087 0.037830 0.017356 -0.016508
#
#
# Mechanical properties :
#
#
# Convention : Reuss Voigt Hill
#
# Bulk Modulus (GPa) = 30.39808 47.80583 39.10196
# Shear Modulus (GPa) = 90.48286 29.00190 59.74238
#
# Velocity S-wave (km/s) = 6.17411 3.49546 5.01686
# Velocity P-wave (km/s) = 7.97700 6.03582 7.07332
#
# Compressibility (1/GPa) = 0.03289682
#
# Stress axis : x y z
#
# Youngs Moduli (GPa) = 112.50265 91.50204 120.72646
#
# Poissons Ratio (x) = 0.26682 -0.57353
# Poissons Ratio (y) = 0.32806 -0.06802
# Poissons Ratio (z) = -0.53447 -0.05155
#
# Static dielectric constant tensor:
#      x y z
#    x 1.942610 0.101750 -0.015390 
#    y 0.101750 1.937700 -0.011010 
#    z -0.015390 -0.011010 1.913580 
# 
# From -- ./inp_files/389936.got.cif
#   From: 2010.05.17/outbox.cif.g08.bks.cpg/sg2_195_cif.got.tgz:389936.got - 2010.06.03 11:33:40.
