data_PCOD9004124
_publ_section_title
;
Structure prediction by ZEFSAII (Michael W. Deem and Ramdas Pophale) SiO2 
 PCOD9004124
Probable space group: P -1
;
_chemical_formula_sum "Si O2"
_cell_formula_units_Z 16
_cell_length_a 11.240316
_cell_length_b 7.749108
_cell_length_c 10.659731
_cell_angle_alpha 110.101706
_cell_angle_beta 53.417080
_cell_angle_gamma 118.057076
_cell_volume 655.315987
_symmetry_space_group_name_H-M "P -1"
_symmetry_group_IT_number 2
_symmetry_cell_setting 'triclinic'
loop_
_space_group_symop_operation_xyz
x,y,z
-x,-y,-z
loop_
_atom_site_type_symbol
_atom_site_label
_atom_site_fract_x
_atom_site_fract_y
_atom_site_fract_z
Si Si1 0.392387 0.678212 0.979349
Si Si2 0.310642 0.050035 0.022359
Si Si3 0.895342 0.628348 0.213752
Si Si4 0.902041 0.780659 0.632573
Si Si5 0.446804 0.641631 0.660464
Si Si6 0.091225 0.850466 0.913239
Si Si7 0.771285 0.896849 0.499713
Si Si8 0.071217 0.464128 0.243905
O O1 0.532082 0.761917 0.012115
O O2 0.454408 0.611874 0.797280
O O3 0.238022 0.508547 0.081047
O O4 0.341497 0.866199 0.023115
O O5 0.170621 0.101307 0.193526
O O6 0.260022 0.978191 0.895841
O O7 0.743042 0.425773 0.255212
O O8 0.818843 0.794197 0.325580
O O9 0.001130 0.691278 0.038453
O O10 0.002067 0.618948 0.264421
O O11 0.801834 0.777996 0.571021
O O12 0.888508 0.573864 0.649704
O O13 0.089129 0.895668 0.520277
O O14 0.500000 0.500000 0.500000
O O15 0.583931 0.855448 0.605122
O O16 0.058857 0.738053 0.774268
O O17 0.000000 0.000000 0.000000
#
# Coordination Sequence:
#
# PCOD9004124 Si02
#       8
#     2   2   2   2   2   2   2   2
#     4  11  22  39  65  93 127 162 202 268 312 369
#     4  11  22  39  60  95 127 159 206 254 323 358
#     4  11  21  39  62  90 121 164 208 256 306 371
#     4  11  22  39  64  90 117 170 204 258 308 375
#     4  10  21  37  64  92 120 166 209 253 309 373
#     4  12  21  37  61  92 123 161 201 254 313 369
#     4  10  21  41  62  83 125 159 214 248 310 375
#     4  12  23  39  66  92 126 160 213 261 315 364
#
# _framework density 24.415703000000001
#
# number of rings (size 3 to 8) (size 9 to 14) (size 15 to 20)
#    0.000    1.000    6.250    1.125    0.000    1.000 
#    2.250    0.625    0.000    0.000    0.000    0.000 
#    0.000    0.000    0.000    0.000    0.000    0.000 
#
# Total GULP energy -89300.924848 kJ/mol
# GULP energy per Si atom -5581.307803 kJ/mol
# Density = 2.436013 g / cm^3
# Si number density = 24.415703 Si / 1000 Ang^3
#
#
#
# Elastic Constant Matrix: (Units=GPa)
#
#
# Indices 1 2 3 4 5 6 
#
# 1 105.2611 32.4967 18.5955 -20.6618 -11.5246 22.5283
# 2 32.4967 45.7591 15.1390 -0.8842 -6.7753 13.6117
# 3 18.5955 15.1390 88.6161 -8.0075 -14.8970 4.7614
# 4 -20.6618 -0.8842 -8.0075 37.2040 12.2085 -2.6195
# 5 -11.5246 -6.7753 -14.8970 12.2085 30.6127 -11.1250
# 6 22.5283 13.6117 4.7614 -2.6195 -11.1250 58.3170
#
#
#
# Elastic Compliance Matrix: (Units=1/GPa)
#
#
# Indices 1 2 3 4 5 6 
#
# 1 0.014587 -0.009135 -0.000825 0.007895 -0.001289 -0.003327
# 2 -0.009135 0.030651 -0.003187 -0.006295 0.003200 -0.003037
# 3 -0.000825 -0.003187 0.012908 0.000534 0.005441 0.001071
# 4 0.007895 -0.006295 0.000534 0.035380 -0.013199 -0.002553
# 5 -0.001289 0.003200 0.005441 -0.013199 0.043338 0.006981
# 6 -0.003327 -0.003037 0.001071 -0.002553 0.006981 0.020271
#
#
# Mechanical properties :
#
#
# Convention : Reuss Voigt Hill
#
# Bulk Modulus (GPa) = 31.39547 41.34429 36.36988
# Shear Modulus (GPa) = 25.76711 36.78708 31.27709
#
# Velocity S-wave (km/s) = 3.25214 3.88583 3.58302
# Velocity P-wave (km/s) = 5.19505 6.09124 5.66090
#
# Compressibility (1/GPa) = 0.03185172
#
# Stress axis : x y z
#
# Youngs Moduli (GPa) = 68.55593 32.62535 77.47332
#
# Poissons Ratio (x) = 0.29803 0.06391
# Poissons Ratio (y) = 0.62625 0.24691
# Poissons Ratio (z) = 0.05655 0.10398
#
# Static dielectric constant tensor:
#      x y z
#    x 1.940670 0.001180 -0.014980 
#    y 0.001180 1.980060 0.053700 
#    z -0.014980 0.053700 1.983390 
# 
# From -- ./inp_files/284737.got.cif
#   From: 2010.05.17/outbox.cif.g08.bks.cpg/sg2_143_cif.got.tgz:284737.got - 2010.06.03 11:33:40.
