data_PCOD9004654
_publ_section_title
;
Structure prediction by ZEFSAII (Michael W. Deem and Ramdas Pophale) SiO2 
 PCOD9004654
Probable space group: P -1
;
_chemical_formula_sum "Si O2"
_cell_formula_units_Z 12
_cell_length_a 9.572157
_cell_length_b 7.201993
_cell_length_c 11.577029
_cell_angle_alpha 129.182258
_cell_angle_beta 130.279407
_cell_angle_gamma 49.589200
_cell_volume 431.416403
_symmetry_space_group_name_H-M "P -1"
_symmetry_group_IT_number 2
_symmetry_cell_setting 'triclinic'
loop_
_space_group_symop_operation_xyz
x,y,z
-x,-y,-z
loop_
_atom_site_type_symbol
_atom_site_label
_atom_site_fract_x
_atom_site_fract_y
_atom_site_fract_z
Si Si1 0.673691 0.855188 0.387174
Si Si2 0.354741 0.418667 0.159981
Si Si3 0.248501 0.045248 0.885435
Si Si4 0.047165 0.502333 0.771546
Si Si5 0.228808 0.982090 0.250977
Si Si6 0.259882 0.718851 0.568573
O O1 0.803773 0.581788 0.290665
O O2 0.444469 0.897536 0.274151
O O3 0.741013 0.879409 0.561558
O O4 0.716822 0.063451 0.414096
O O5 0.209498 0.711869 0.164827
O O6 0.510903 0.466007 0.350089
O O7 0.532441 0.206405 0.090358
O O8 0.252922 0.221853 0.068583
O O9 0.169665 0.313029 0.866706
O O10 0.152189 0.881005 0.691987
O O11 0.864319 0.419825 0.612266
O O12 0.952477 0.812979 0.836421
#
# Coordination Sequence:
#
# PCOD9004654 Si02
#       6
#     2   2   2   2   2   2
#     4  10  21  38  56  91 122 150 188 242 295 337
#     4   9  19  37  59  83 116 157 189 235 287 348
#     4   8  18  37  61  79 117 155 193 231 288 344
#     4  11  21  39  63  89 114 151 195 244 286 337
#     4  11  23  34  58  91 120 149 191 240 293 339
#     4   9  18  37  65  84 110 157 194 233 286 342
#
# _framework density 27.815353999999999
#
# number of rings (size 3 to 8) (size 9 to 14) (size 15 to 20)
#    1.000    1.333    0.000    4.500    0.000    3.333 
#    0.000    3.333    0.000   13.000    0.000    0.000 
#    0.000    0.000    0.000    0.000    0.000    0.000 
#
# Total GULP energy -66849.630976 kJ/mol
# GULP energy per Si atom -5570.802581 kJ/mol
# Density = 2.775204 g / cm^3
# Si number density = 27.815354 Si / 1000 Ang^3
#
#
#
# Elastic Constant Matrix: (Units=GPa)
#
#
# Indices 1 2 3 4 5 6 
#
# 1 73.9898 27.1184 4.2094 4.5668 5.7068 -11.9179
# 2 27.1184 181.5510 24.5889 -9.5118 -1.1913 1.8140
# 3 4.2094 24.5889 84.4828 6.1852 0.7376 -11.5784
# 4 4.5668 -9.5118 6.1852 35.6453 -2.7350 1.1690
# 5 5.7068 -1.1913 0.7376 -2.7350 20.4765 -6.7449
# 6 -11.9179 1.8140 -11.5784 1.1690 -6.7449 32.5986
#
#
#
# Elastic Compliance Matrix: (Units=1/GPa)
#
#
# Indices 1 2 3 4 5 6 
#
# 1 0.015858 -0.002773 0.001089 -0.003393 -0.003161 0.005806
# 2 -0.002773 0.006381 -0.002197 0.002575 0.000889 -0.002058
# 3 0.001089 -0.002197 0.013405 -0.003196 0.000468 0.005493
# 4 -0.003393 0.002575 -0.003196 0.030153 0.004349 -0.002701
# 5 -0.003161 0.000889 0.000468 0.004349 0.053592 0.009894
# 6 0.005806 -0.002058 0.005493 -0.002701 0.009894 0.037008
#
#
# Mechanical properties :
#
#
# Convention : Reuss Voigt Hill
#
# Bulk Modulus (GPa) = 35.86644 50.20633 43.03639
# Shear Modulus (GPa) = 28.82604 36.68454 32.75529
#
# Velocity S-wave (km/s) = 3.22271 3.63555 3.43534
# Velocity P-wave (km/s) = 5.17400 5.97595 5.58938
#
# Compressibility (1/GPa) = 0.02788121
#
# Stress axis : x y z
#
# Youngs Moduli (GPa) = 63.05881 156.71086 74.60045
#
# Poissons Ratio (x) = 0.43452 -0.08122
# Poissons Ratio (y) = 0.17485 0.16393
# Poissons Ratio (z) = -0.06865 0.34435
#
# Static dielectric constant tensor:
#      x y z
#    x 2.366600 -0.029070 -0.010020 
#    y -0.029070 2.154710 -0.068600 
#    z -0.010020 -0.068600 2.244160 
# 
# From -- ./inp_files/566289.got.cif
#   From: 2010.05.17/outbox.cif.g08.bks.cpg/sg2_284_cif.got.tgz:566289.got - 2010.06.03 11:33:40.
