data_PCOD9004587
_publ_section_title
;
Structure prediction by ZEFSAII (Michael W. Deem and Ramdas Pophale) SiO2 
 PCOD9004587
Probable space group: P -1
;
_chemical_formula_sum "Si O2"
_cell_formula_units_Z 16
_cell_length_a 17.095209
_cell_length_b 11.308891
_cell_length_c 5.525957
_cell_angle_alpha 114.346822
_cell_angle_beta 48.297485
_cell_angle_gamma 128.569201
_cell_volume 623.616737
_symmetry_space_group_name_H-M "P -1"
_symmetry_group_IT_number 2
_symmetry_cell_setting 'triclinic'
loop_
_space_group_symop_operation_xyz
x,y,z
-x,-y,-z
loop_
_atom_site_type_symbol
_atom_site_label
_atom_site_fract_x
_atom_site_fract_y
_atom_site_fract_z
Si Si1 0.026869 0.256778 0.774361
Si Si2 0.860155 0.941309 0.297031
Si Si3 0.150280 0.633042 0.663745
Si Si4 0.205606 0.082436 0.082904
Si Si5 0.146903 0.400549 0.159332
Si Si6 0.451227 0.108156 0.776249
Si Si7 0.711581 0.103302 0.726253
Si Si8 0.682477 0.353394 0.282828
O O1 0.918898 0.080930 0.825787
O O2 0.106742 0.299719 0.400077
O O3 0.079895 0.301980 0.977292
O O4 0.951516 0.344143 0.987800
O O5 0.818921 0.856255 0.566798
O O6 0.822082 0.070592 0.510182
O O7 0.781437 0.847175 0.148811
O O8 0.000000 0.000000 0.000000
O O9 0.112180 0.526380 0.417611
O O10 0.256370 0.801949 0.505070
O O11 0.213224 0.573969 0.667339
O O12 0.326108 0.075039 0.880303
O O13 0.285141 0.519087 0.879416
O O14 0.554724 0.274245 0.619809
O O15 0.500000 0.000000 0.500000
O O16 0.409566 0.058356 0.100560
O O17 0.700886 0.219721 0.024263
#
# Coordination Sequence:
#
# PCOD9004587 Si02
#       8
#     2   2   2   2   2   2   2   2
#     4  12  22  35  57  74 121 153 196 234 277 341
#     4  11  22  40  61  83 117 148 190 250 304 356
#     4  11  20  33  52  79 120 153 203 225 280 331
#     4  11  23  41  59  92 116 157 193 237 299 349
#     4  11  24  34  51  81 110 166 198 227 271 327
#     4   9  19  37  56  81 120 162 200 231 272 347
#     4   9  20  33  54  82 115 152 195 229 294 337
#     4  10  21  38  52  84 121 165 200 227 267 339
#
# _framework density 25.656780999999999
#
# number of rings (size 3 to 8) (size 9 to 14) (size 15 to 20)
#    0.000    1.500    2.500    4.125    5.250    0.500 
#   11.250    0.000    0.000    0.000    0.000    0.000 
#    0.000   46.000    0.000    1.125    0.000    0.000 
#
# Total GULP energy -89288.266448 kJ/mol
# GULP energy per Si atom -5580.516653 kJ/mol
# Density = 2.559839 g / cm^3
# Si number density = 25.656781 Si / 1000 Ang^3
#
#
#
# Elastic Constant Matrix: (Units=GPa)
#
#
# Indices 1 2 3 4 5 6 
#
# 1 114.4826 16.7109 64.7796 -12.1779 25.9967 -2.9026
# 2 16.7109 96.6062 61.7051 -24.2960 11.8283 0.0892
# 3 64.7796 61.7051 182.5068 -22.3465 20.8141 5.1191
# 4 -12.1779 -24.2960 -22.3465 61.4070 -8.0265 14.2216
# 5 25.9967 11.8283 20.8141 -8.0265 51.1594 -7.6942
# 6 -2.9026 0.0892 5.1191 14.2216 -7.6942 28.3750
#
#
#
# Elastic Compliance Matrix: (Units=1/GPa)
#
#
# Indices 1 2 3 4 5 6 
#
# 1 0.011981 0.001275 -0.004087 0.000713 -0.004553 0.000367
# 2 0.001275 0.014349 -0.004510 0.004486 -0.001699 -0.001810
# 3 -0.004087 -0.004510 0.008747 0.001133 -0.000672 -0.002732
# 4 0.000713 0.004486 0.001133 0.021083 -0.000171 -0.010759
# 5 -0.004553 -0.001699 -0.000672 -0.000171 0.023417 0.006096
# 6 0.000367 -0.001810 -0.002732 -0.010759 0.006096 0.042824
#
#
# Mechanical properties :
#
#
# Convention : Reuss Voigt Hill
#
# Bulk Modulus (GPa) = 48.94433 75.55408 62.24920
# Shear Modulus (GPa) = 34.75709 44.88160 39.81935
#
# Velocity S-wave (km/s) = 3.68461 4.18701 3.94382
# Velocity P-wave (km/s) = 6.10080 7.27232 6.71217
#
# Compressibility (1/GPa) = 0.02043138
#
# Stress axis : x y z
#
# Youngs Moduli (GPa) = 83.46851 69.68904 114.32748
#
# Poissons Ratio (x) = -0.08882 0.46727
# Poissons Ratio (y) = -0.10638 0.51563
# Poissons Ratio (z) = 0.34115 0.31430
#
# Static dielectric constant tensor:
#      x y z
#    x 2.106650 -0.075240 0.038540 
#    y -0.075240 2.165290 -0.040750 
#    z 0.038540 -0.040750 2.062620 
# 
# From -- ./inp_files/119170.got.cif
#   From: 2010.05.17/outbox.cif.g08.bks.cpg/sg2_60_cif.got.tgz:119170.got - 2010.06.03 11:33:40.
