data_PCOD9004778
_publ_section_title
;
Structure prediction by ZEFSAII (Michael W. Deem and Ramdas Pophale) SiO2 
 PCOD9004778
Probable space group: P -1
;
_chemical_formula_sum "Si O2"
_cell_formula_units_Z 16
_cell_length_a 13.452142
_cell_length_b 9.171443
_cell_length_c 13.925996
_cell_angle_alpha 48.169218
_cell_angle_beta 28.736713
_cell_angle_gamma 59.837831
_cell_volume 599.025072
_symmetry_space_group_name_H-M "P -1"
_symmetry_group_IT_number 2
_symmetry_cell_setting 'triclinic'
loop_
_space_group_symop_operation_xyz
x,y,z
-x,-y,-z
loop_
_atom_site_type_symbol
_atom_site_label
_atom_site_fract_x
_atom_site_fract_y
_atom_site_fract_z
Si Si1 0.807665 0.888518 0.583624
Si Si2 0.744719 0.966045 0.074138
Si Si3 0.586352 0.157908 0.944293
Si Si4 0.169854 0.733925 0.977766
Si Si5 0.013356 0.707849 0.640618
Si Si6 0.709879 0.535785 0.245914
Si Si7 0.274838 0.877006 0.612568
Si Si8 0.566987 0.547488 0.146078
O O1 0.575963 0.780031 0.865643
O O2 0.978461 0.771087 0.531938
O O3 0.814421 0.950768 0.440205
O O4 0.832284 0.106032 0.521413
O O5 0.715097 0.054676 0.955594
O O6 0.885777 0.125024 0.955733
O O7 0.819966 0.761773 0.082066
O O8 0.518827 0.917433 0.346781
O O9 0.633361 0.368523 0.751635
O O10 0.500000 0.000000 0.000000
O O11 0.239816 0.852319 0.767281
O O12 0.376026 0.642911 0.870955
O O13 0.990662 0.521105 0.225141
O O14 0.780828 0.722730 0.870955
O O15 0.500000 0.500000 0.500000
O O16 0.820002 0.350810 0.246431
O O17 0.604437 0.512350 0.240226
#
# Coordination Sequence:
#
# PCOD9004778 Si02
#       8
#     2   2   2   2   2   2   2   2
#     4   9  17  32  51  73  94 123 164 202 236 267
#     4  10  18  28  49  70 101 131 147 197 248 282
#     4  10  17  28  48  74  95 120 162 194 236 284
#     4   9  18  31  47  72  98 126 159 191 243 285
#     4   8  17  32  51  71  95 123 160 205 231 277
#     4   9  16  28  44  67  98 127 159 191 234 282
#     4   9  18  30  48  73  94 124 162 199 230 284
#     4   8  16  30  44  70  95 120 160 195 229 279
#
# _framework density 26.710066999999999
#
# number of rings (size 3 to 8) (size 9 to 14) (size 15 to 20)
#    0.750    2.250    1.250    0.375    0.000    1.000 
#    0.000    0.000    0.000    1.500    0.000    0.000 
#    0.000    0.000    0.000    0.000    0.000    0.000 
#
# Total GULP energy -89115.331239 kJ/mol
# GULP energy per Si atom -5569.708202 kJ/mol
# Density = 2.664927 g / cm^3
# Si number density = 26.710067 Si / 1000 Ang^3
#
#
#
# Elastic Constant Matrix: (Units=GPa)
#
#
# Indices 1 2 3 4 5 6 
#
# 1 102.4140 48.8227 29.1152 -1.9269 40.8927 -4.3781
# 2 48.8227 133.8825 11.2954 -8.8291 10.0303 1.1156
# 3 29.1152 11.2954 78.8604 11.8276 30.3882 10.4013
# 4 -1.9269 -8.8291 11.8276 30.2117 6.3818 4.0655
# 5 40.8927 10.0303 30.3882 6.3818 48.7751 3.4122
# 6 -4.3781 1.1156 10.4013 4.0655 3.4122 45.0582
#
#
#
# Elastic Compliance Matrix: (Units=1/GPa)
#
#
# Indices 1 2 3 4 5 6 
#
# 1 0.018610 -0.005449 -0.001458 0.002736 -0.014149 0.003104
# 2 -0.005449 0.009453 -0.000611 0.002204 0.002789 -0.001032
# 3 -0.001458 -0.000611 0.017911 -0.004973 -0.008941 -0.003135
# 4 0.002736 0.002204 -0.004973 0.037012 -0.004376 -0.001649
# 5 -0.014149 0.002789 -0.008941 -0.004376 0.038065 -0.001868
# 6 0.003104 -0.001032 -0.003135 -0.001649 -0.001868 0.023535
#
#
# Mechanical properties :
#
#
# Convention : Reuss Voigt Hill
#
# Bulk Modulus (GPa) = 32.32326 54.84705 43.58516
# Shear Modulus (GPa) = 29.42310 39.87057 34.64684
#
# Velocity S-wave (km/s) = 3.32260 3.86776 3.60550
# Velocity P-wave (km/s) = 5.18144 6.36592 5.80397
#
# Compressibility (1/GPa) = 0.03093747
#
# Stress axis : x y z
#
# Youngs Moduli (GPa) = 53.73448 105.78829 55.83062
#
# Poissons Ratio (x) = 0.57643 0.08141
# Poissons Ratio (y) = 0.29279 0.03414
# Poissons Ratio (z) = 0.07835 0.06468
#
# Static dielectric constant tensor:
#      x y z
#    x 2.570680 0.159480 0.065410 
#    y 0.159480 2.159460 0.060280 
#    z 0.065410 0.060280 2.213270 
# 
# From -- ./inp_files/345165.got.cif
#   From: 2010.05.17/outbox.cif.g08.bks.cpg/sg2_173_cif.got.tgz:345165.got - 2010.06.03 11:33:40.
