data_PCOD9004713
_publ_section_title
;
Structure prediction by ZEFSAII (Michael W. Deem and Ramdas Pophale) SiO2 
 PCOD9004713
Probable space group: P -1
;
_chemical_formula_sum "Si O2"
_cell_formula_units_Z 12
_cell_length_a 8.578624
_cell_length_b 9.695669
_cell_length_c 9.889255
_cell_angle_alpha 98.156020
_cell_angle_beta 44.573099
_cell_angle_gamma 112.302964
_cell_volume 523.531868
_symmetry_space_group_name_H-M "P -1"
_symmetry_group_IT_number 2
_symmetry_cell_setting 'triclinic'
loop_
_space_group_symop_operation_xyz
x,y,z
-x,-y,-z
loop_
_atom_site_type_symbol
_atom_site_label
_atom_site_fract_x
_atom_site_fract_y
_atom_site_fract_z
Si Si1 0.112959 0.887611 0.465462
Si Si2 0.633314 0.413043 0.597840
Si Si3 0.385796 0.069722 0.753019
Si Si4 0.159525 0.618789 0.246109
Si Si5 0.767318 0.502558 0.069081
Si Si6 0.925666 0.821929 0.860725
O O1 0.390518 0.971124 0.353389
O O2 0.121450 0.768682 0.332325
O O3 0.959402 0.802520 0.679553
O O4 0.000000 0.000000 0.500000
O O5 0.495904 0.232971 0.630370
O O6 0.714073 0.420733 0.707754
O O7 0.888057 0.490861 0.376495
O O8 0.457177 0.500759 0.702736
O O9 0.180931 0.940519 0.778201
O O10 0.262834 0.104783 0.968562
O O11 0.304553 0.624126 0.021342
O O12 0.844333 0.663848 0.967173
O O13 0.000000 0.500000 0.000000
#
# Coordination Sequence:
#
# PCOD9004713 Si02
#       6
#     2   2   2   2   2   2
#     4  11  24  38  60  88 114 151 194 237 286 338
#     4   9  19  38  62  85 113 154 189 233 288 337
#     4   9  20  38  62  85 117 154 189 233 284 341
#     4  10  21  38  58  83 117 151 192 237 283 339
#     4  11  23  37  60  89 115 150 192 236 287 339
#     4  10  21  40  60  84 118 154 190 232 285 340
#
# _framework density 22.921241999999999
#
# number of rings (size 3 to 8) (size 9 to 14) (size 15 to 20)
#    0.000    2.000    0.000    4.000    0.000    9.333 
#    0.000    0.000    0.000    0.000    0.000    0.000 
#    0.000    0.000    0.000    0.000    0.000    0.000 
#
# Total GULP energy -67126.101166 kJ/mol
# GULP energy per Si atom -5593.841764 kJ/mol
# Density = 2.286907 g / cm^3
# Si number density = 22.921242 Si / 1000 Ang^3
#
#
#
# Elastic Constant Matrix: (Units=GPa)
#
#
# Indices 1 2 3 4 5 6 
#
# 1 50.5377 19.4952 34.1501 20.4498 -17.5806 -24.2516
# 2 19.4952 75.2823 30.3235 19.7517 -6.0828 5.0853
# 3 34.1501 30.3235 87.7979 17.0346 -26.6623 -4.5214
# 4 20.4498 19.7517 17.0346 43.4906 0.7091 -12.1366
# 5 -17.5806 -6.0828 -26.6623 0.7091 41.1495 12.7090
# 6 -24.2516 5.0853 -4.5214 -12.1366 12.7090 36.8020
#
#
#
# Elastic Compliance Matrix: (Units=1/GPa)
#
#
# Indices 1 2 3 4 5 6 
#
# 1 0.048377 -0.007362 -0.012706 -0.006600 0.002748 0.028210
# 2 -0.007362 0.018859 -0.002337 -0.007184 0.001540 -0.010645
# 3 -0.012706 -0.002337 0.020782 -0.004280 0.011081 -0.010735
# 4 -0.006600 -0.007184 -0.004280 0.034314 -0.010682 0.011123
# 5 0.002748 0.001540 0.011081 -0.010682 0.037210 -0.013413
# 6 0.028210 -0.010645 -0.010735 0.011123 -0.013413 0.054214
#
#
# Mechanical properties :
#
#
# Convention : Reuss Voigt Hill
#
# Bulk Modulus (GPa) = 23.14377 42.39505 32.76941
# Shear Modulus (GPa) = 18.31716 32.93168 25.62442
#
# Velocity S-wave (km/s) = 2.82996 3.79454 3.34718
# Velocity P-wave (km/s) = 4.56040 6.14281 5.40978
#
# Compressibility (1/GPa) = 0.04320817
#
# Stress axis : x y z
#
# Youngs Moduli (GPa) = 20.67106 53.02392 48.11910
#
# Poissons Ratio (x) = 0.39034 0.61142
# Poissons Ratio (y) = 0.15217 0.11245
# Poissons Ratio (z) = 0.26266 0.12391
#
# Static dielectric constant tensor:
#      x y z
#    x 1.847220 0.022290 0.000110 
#    y 0.022290 1.852520 0.008470 
#    z 0.000110 0.008470 1.895650 
# 
# From -- ./inp_files/174350.got.cif
#   From: 2010.05.17/outbox.cif.g08.bks.cpg/sg2_88_cif.got.tgz:174350.got - 2010.06.03 11:33:40.
