data_PCOD9004815
_publ_section_title
;
Structure prediction by ZEFSAII (Michael W. Deem and Ramdas Pophale) SiO2 
 PCOD9004815
Probable space group: P -1
;
_chemical_formula_sum "Si O2"
_cell_formula_units_Z 16
_cell_length_a 15.986172
_cell_length_b 30.525533
_cell_length_c 9.548157
_cell_angle_alpha 44.626801
_cell_angle_beta 36.137199
_cell_angle_gamma 19.104050
_cell_volume 866.772818
_symmetry_space_group_name_H-M "P -1"
_symmetry_group_IT_number 2
_symmetry_cell_setting 'triclinic'
loop_
_space_group_symop_operation_xyz
x,y,z
-x,-y,-z
loop_
_atom_site_type_symbol
_atom_site_label
_atom_site_fract_x
_atom_site_fract_y
_atom_site_fract_z
Si Si1 0.689223 0.106794 0.266303
Si Si2 0.698597 0.854325 0.952427
Si Si3 0.319065 0.880026 0.426618
Si Si4 0.319496 0.530198 0.789607
Si Si5 0.906486 0.620217 0.725185
Si Si6 0.622424 0.905728 0.258814
Si Si7 0.135679 0.393417 0.870057
Si Si8 0.740260 0.391427 0.794641
O O1 0.719322 0.116944 0.363197
O O2 0.390837 0.255779 0.256528
O O3 0.591590 0.071768 0.480887
O O4 0.000000 0.000000 0.000000
O O5 0.428951 0.908257 0.198839
O O6 0.732303 0.866112 0.038080
O O7 0.014534 0.692364 0.864358
O O8 0.597265 0.946937 0.768278
O O9 0.589715 0.731776 0.325400
O O10 0.000000 0.000000 0.500000
O O11 0.500000 0.500000 0.500000
O O12 0.539931 0.437867 0.837365
O O13 0.181129 0.518680 0.950048
O O14 0.083666 0.487218 0.746021
O O15 0.127947 0.593499 0.470015
O O16 0.792678 0.660303 0.948633
O O17 0.945475 0.770405 0.217148
O O18 0.500000 0.500000 0.000000
#
# Coordination Sequence:
#
# PCOD9004815 Si02
#       8
#     2   2   2   2   2   2   2   2
#     4  10  21  38  60  84 118 156 190 239 293 350
#     4   9  19  37  60  84 113 150 196 234 286 344
#     4  10  21  38  59  84 117 154 192 242 294 340
#     4  11  21  38  60  89 120 152 192 245 294 346
#     4  10  22  40  61  86 115 158 200 239 295 348
#     4   9  19  37  60  85 111 151 195 238 279 348
#     4  10  22  40  61  85 118 154 199 246 287 349
#     4  11  21  38  61  89 120 154 194 239 298 352
#
# _framework density 18.459278000000001
#
# number of rings (size 3 to 8) (size 9 to 14) (size 15 to 20)
#    0.000    2.000    2.500    0.750    1.750    2.500 
#    4.500    0.625    0.000    0.000    0.000    0.000 
#    0.000    0.000    0.000    0.000    0.000    0.000 
#
# Total GULP energy -89235.859894 kJ/mol
# GULP energy per Si atom -5577.241243 kJ/mol
# Density = 1.841726 g / cm^3
# Si number density = 18.459278 Si / 1000 Ang^3
#
#
#
# Elastic Constant Matrix: (Units=GPa)
#
#
# Indices 1 2 3 4 5 6 
#
# 1 106.1754 41.9944 28.9311 0.1659 9.0456 -31.6964
# 2 41.9944 87.9433 36.4749 -16.3184 -4.2276 -21.7458
# 3 28.9311 36.4749 83.4250 3.3249 16.1426 -13.3218
# 4 0.1659 -16.3184 3.3249 26.1857 -3.7235 -3.5291
# 5 9.0456 -4.2276 16.1426 -3.7235 24.3880 2.8506
# 6 -31.6964 -21.7458 -13.3218 -3.5291 2.8506 35.5885
#
#
#
# Elastic Compliance Matrix: (Units=1/GPa)
#
#
# Indices 1 2 3 4 5 6 
#
# 1 0.015768 -0.006625 0.001204 -0.004308 -0.009714 0.010797
# 2 -0.006625 0.025858 -0.012296 0.021023 0.017590 0.005972
# 3 0.001204 -0.012296 0.021407 -0.012834 -0.018919 0.001815
# 4 -0.004308 0.021023 -0.012834 0.057102 0.021503 0.008146
# 5 -0.009714 0.017590 -0.018919 0.021503 0.064398 -0.008011
# 6 0.010797 0.005972 0.001815 0.008146 -0.008011 0.043494
#
#
# Mechanical properties :
#
#
# Convention : Reuss Voigt Hill
#
# Bulk Modulus (GPa) = 36.23321 54.70495 45.46908
# Shear Modulus (GPa) = 18.33775 28.57531 23.45653
#
# Velocity S-wave (km/s) = 3.15527 3.93876 3.56858
# Velocity P-wave (km/s) = 5.73983 7.09823 6.45486
#
# Compressibility (1/GPa) = 0.02759899
#
# Stress axis : x y z
#
# Youngs Moduli (GPa) = 63.41819 38.67313 46.71277
#
# Poissons Ratio (x) = 0.25622 -0.05623
# Poissons Ratio (y) = 0.42017 0.57436
# Poissons Ratio (z) = -0.07634 0.47551
#
# Static dielectric constant tensor:
#      x y z
#    x 1.621880 0.011150 0.021990 
#    y 0.011150 1.666330 -0.006300 
#    z 0.021990 -0.006300 1.626100 
# 
# From -- ./inp_files/209547.got.cif
#   From: 2010.05.17/outbox.cif.g08.bks.cpg/sg2_105_cif.got.tgz:209547.got - 2010.06.03 11:33:40.
