data_PCOD9004848
_publ_section_title
;
Structure prediction by ZEFSAII (Michael W. Deem and Ramdas Pophale) SiO2 
 PCOD9004848
Probable space group: P -1
;
_chemical_formula_sum "Si O2"
_cell_formula_units_Z 16
_cell_length_a 13.917238
_cell_length_b 4.931408
_cell_length_c 11.875231
_cell_angle_alpha 78.080943
_cell_angle_beta 119.063626
_cell_angle_gamma 95.829493
_cell_volume 697.030096
_symmetry_space_group_name_H-M "P -1"
_symmetry_group_IT_number 2
_symmetry_cell_setting 'triclinic'
loop_
_space_group_symop_operation_xyz
x,y,z
-x,-y,-z
loop_
_atom_site_type_symbol
_atom_site_label
_atom_site_fract_x
_atom_site_fract_y
_atom_site_fract_z
Si Si1 0.578817 0.303473 0.989049
Si Si2 0.857870 0.246363 0.905773
Si Si3 0.622317 0.975372 0.238423
Si Si4 0.941514 0.273229 0.335451
Si Si5 0.148215 0.289375 0.594385
Si Si6 0.358223 0.502200 0.226108
Si Si7 0.923751 0.697444 0.085740
Si Si8 0.481094 0.976151 0.359833
O O1 0.489307 0.127991 0.880220
O O2 0.648205 0.430983 0.916305
O O3 0.500000 0.500000 0.000000
O O4 0.658524 0.179731 0.140524
O O5 0.744911 0.362101 0.783481
O O6 0.950842 0.195728 0.869499
O O7 0.894597 0.503795 0.980777
O O8 0.851062 0.973895 0.004573
O O9 0.722200 0.768332 0.336403
O O10 0.577089 0.089432 0.321355
O O11 0.878436 0.413180 0.393259
O O12 0.918686 0.487224 0.204392
O O13 0.071251 0.266514 0.441978
O O14 0.900304 0.957425 0.331877
O O15 0.458944 0.666174 0.328715
O O16 0.377637 0.177961 0.266811
O O17 0.500000 0.000000 0.500000
#
# Coordination Sequence:
#
# PCOD9004848 Si02
#       8
#     2   2   2   2   2   2   2   2
#     4  10  21  38  61  91 128 153 201 259 299 370
#     4  10  22  38  60  90 117 156 199 248 305 358
#     4  10  23  39  60  93 122 162 202 250 312 359
#     4  10  22  40  58  89 121 156 203 248 292 369
#     4  10  23  39  60  88 121 158 203 246 300 361
#     4  11  23  40  62  92 122 157 208 247 306 368
#     4  10  21  38  59  86 122 153 198 249 299 359
#     4  11  24  43  62  87 125 161 205 252 296 367
#
# _framework density 22.954530999999999
#
# number of rings (size 3 to 8) (size 9 to 14) (size 15 to 20)
#    0.000    1.750    1.250    1.875    5.250    1.000 
#    0.000    3.750    0.000    0.000    0.000    0.000 
#    0.000    0.000    0.000    0.000    0.000    0.000 
#
# Total GULP energy -89187.558285 kJ/mol
# GULP energy per Si atom -5574.222393 kJ/mol
# Density = 2.290229 g / cm^3
# Si number density = 22.954531 Si / 1000 Ang^3
#
#
#
# Elastic Constant Matrix: (Units=GPa)
#
#
# Indices 1 2 3 4 5 6 
#
# 1 54.4120 1.1460 33.3519 -1.0266 11.0323 -13.6679
# 2 1.1460 85.4210 3.8857 -10.1367 0.1742 -8.4462
# 3 33.3519 3.8857 70.2984 -2.4734 -0.1841 -6.6843
# 4 -1.0266 -10.1367 -2.4734 31.6406 -13.1594 2.3930
# 5 11.0323 0.1742 -0.1841 -13.1594 38.6398 -8.4036
# 6 -13.6679 -8.4462 -6.6843 2.3930 -8.4036 30.7552
#
#
#
# Elastic Compliance Matrix: (Units=1/GPa)
#
#
# Indices 1 2 3 4 5 6 
#
# 1 0.030736 0.000639 -0.013938 -0.004002 -0.008282 0.008854
# 2 0.000639 0.012652 -0.000463 0.004654 0.002190 0.003894
# 3 -0.013938 -0.000463 0.020927 0.003173 0.005021 -0.000648
# 4 -0.004002 0.004654 0.003173 0.039266 0.014763 0.001168
# 5 -0.008282 0.002190 0.005021 0.014763 0.034665 0.006335
# 6 0.008854 0.003894 -0.000648 0.001168 0.006335 0.039018
#
#
# Mechanical properties :
#
#
# Convention : Reuss Voigt Hill
#
# Bulk Modulus (GPa) = 27.18046 31.87762 29.52904
# Shear Modulus (GPa) = 23.03608 31.65700 27.34654
#
# Velocity S-wave (km/s) = 3.17133 3.71768 3.45532
# Velocity P-wave (km/s) = 5.02757 5.68732 5.36759
#
# Compressibility (1/GPa) = 0.03679114
#
# Stress axis : x y z
#
# Youngs Moduli (GPa) = 32.53511 79.03809 47.78624
#
# Poissons Ratio (x) = -0.05052 0.66605
# Poissons Ratio (y) = -0.02079 0.02211
# Poissons Ratio (z) = 0.45348 0.03658
#
# Static dielectric constant tensor:
#      x y z
#    x 2.000810 0.102060 0.029710 
#    y 0.102060 1.874630 -0.030080 
#    z 0.029710 -0.030080 1.840830 
# 
# From -- ./inp_files/109807.got.cif
#   From: 2010.05.17/outbox.cif.g08.bks.cpg/sg2_55_cif.got.tgz:109807.got - 2010.06.03 11:33:40.
