data_PCOD9004329
_publ_section_title
;
Structure prediction by ZEFSAII (Michael W. Deem and Ramdas Pophale) SiO2 
 PCOD9004329
Probable space group: P -1
;
_chemical_formula_sum "Si O2"
_cell_formula_units_Z 14
_cell_length_a 14.700704
_cell_length_b 6.946576
_cell_length_c 14.219212
_cell_angle_alpha 100.520738
_cell_angle_beta 149.859807
_cell_angle_gamma 63.738584
_cell_volume 585.777061
_symmetry_space_group_name_H-M "P -1"
_symmetry_group_IT_number 2
_symmetry_cell_setting 'triclinic'
loop_
_space_group_symop_operation_xyz
x,y,z
-x,-y,-z
loop_
_atom_site_type_symbol
_atom_site_label
_atom_site_fract_x
_atom_site_fract_y
_atom_site_fract_z
Si Si1 0.565937 0.632432 0.347885
Si Si2 0.904369 0.623885 0.527116
Si Si3 0.295309 0.479240 0.332382
Si Si4 0.795877 0.835930 0.895060
Si Si5 0.452305 0.685044 0.835669
Si Si6 0.171053 0.801531 0.764356
Si Si7 0.757143 0.806112 0.072090
O O1 0.668228 0.693544 0.357574
O O2 0.713341 0.540116 0.564664
O O3 0.547532 0.426502 0.272727
O O4 0.338631 0.878383 0.196268
O O5 0.000000 0.500000 0.500000
O O6 0.941826 0.833638 0.581463
O O7 0.062615 0.423456 0.727221
O O8 0.500000 0.500000 0.500000
O O9 0.312222 0.253494 0.280553
O O10 0.058022 0.702509 0.101484
O O11 0.774472 0.757169 0.972925
O O12 0.232924 0.784877 0.708701
O O13 0.644303 0.454307 0.046488
O O14 0.524318 0.864483 0.906685
O O15 0.198403 0.995229 0.851210
#
# Coordination Sequence:
#
# PCOD9004329 Si02
#       7
#     2   2   2   2   2   2   2
#     4  12  23  46  72 104 147 189 239 300 366 424
#     4  11  24  42  65 101 151 188 239 295 341 437
#     4  11  26  49  74 107 140 182 249 305 372 443
#     4  11  25  46  73 105 143 186 242 304 368 435
#     4  10  21  37  65  97 141 184 242 292 339 422
#     4  10  21  39  62  96 139 195 238 286 348 415
#     4  11  22  42  66  96 142 191 234 296 357 417
#
# _framework density 23.899878999999999
#
# number of rings (size 3 to 8) (size 9 to 14) (size 15 to 20)
#    0.000    1.143    4.286    1.714    0.000    3.429 
#    2.571    0.000    0.000    0.000    0.000    0.000 
#    0.000    0.000    0.000    0.000    0.000    0.000 
#
# Total GULP energy -78344.235084 kJ/mol
# GULP energy per Si atom -5596.016792 kJ/mol
# Density = 2.384548 g / cm^3
# Si number density = 23.899879 Si / 1000 Ang^3
#
#
#
# Elastic Constant Matrix: (Units=GPa)
#
#
# Indices 1 2 3 4 5 6 
#
# 1 95.5881 36.0064 27.5716 28.5871 1.3839 3.2445
# 2 36.0064 100.6201 41.1319 38.5481 16.3108 8.1167
# 3 27.5716 41.1319 91.3802 16.0648 9.2630 -0.0079
# 4 28.5871 38.5481 16.0648 45.7508 0.8618 -0.8226
# 5 1.3839 16.3108 9.2630 0.8618 57.6355 10.4204
# 6 3.2445 8.1167 -0.0079 -0.8226 10.4204 40.1156
#
#
#
# Elastic Compliance Matrix: (Units=1/GPa)
#
#
# Indices 1 2 3 4 5 6 
#
# 1 0.013678 -0.001445 -0.002409 -0.006518 0.000773 -0.001149
# 2 -0.001445 0.018221 -0.005186 -0.012613 -0.003575 -0.002901
# 3 -0.002409 -0.005186 0.013925 0.001032 -0.001004 0.001529
# 4 -0.006518 -0.012613 0.001032 0.036207 0.002443 0.003187
# 5 0.000773 -0.003575 -0.001004 0.002443 0.019244 -0.004288
# 6 -0.001149 -0.002901 0.001529 0.003187 -0.004288 0.026787
#
#
# Mechanical properties :
#
#
# Convention : Reuss Voigt Hill
#
# Bulk Modulus (GPa) = 36.04419 55.22314 45.63366
# Shear Modulus (GPa) = 32.17684 40.89229 36.53457
#
# Velocity S-wave (km/s) = 3.67320 4.14089 3.91404
# Velocity P-wave (km/s) = 5.75360 6.78372 6.28978
#
# Compressibility (1/GPa) = 0.02774373
#
# Stress axis : x y z
#
# Youngs Moduli (GPa) = 73.11018 54.88047 71.81309
#
# Poissons Ratio (x) = 0.07932 0.17299
# Poissons Ratio (y) = 0.10567 0.37243
# Poissons Ratio (z) = 0.17612 0.28461
#
# Static dielectric constant tensor:
#      x y z
#    x 1.903520 0.006830 0.038690 
#    y 0.006830 1.901810 -0.022620 
#    z 0.038690 -0.022620 1.971620 
# 
# From -- ./inp_files/525884.got.cif
#   From: 2010.05.17/outbox.cif.g08.bks.cpg/sg2_263_cif.got.tgz:525884.got - 2010.06.03 11:33:40.
