data_PCOD9004024
_publ_section_title
;
Structure prediction by ZEFSAII (Michael W. Deem and Ramdas Pophale) SiO2 
 PCOD9004024
Probable space group: P -1
;
_chemical_formula_sum "Si O2"
_cell_formula_units_Z 16
_cell_length_a 24.489968
_cell_length_b 8.950112
_cell_length_c 9.184158
_cell_angle_alpha 85.565466
_cell_angle_beta 127.906760
_cell_angle_gamma 136.972133
_cell_volume 783.853427
_symmetry_space_group_name_H-M "P -1"
_symmetry_group_IT_number 2
_symmetry_cell_setting 'triclinic'
loop_
_space_group_symop_operation_xyz
x,y,z
-x,-y,-z
loop_
_atom_site_type_symbol
_atom_site_label
_atom_site_fract_x
_atom_site_fract_y
_atom_site_fract_z
Si Si1 0.871161 0.684522 0.227398
Si Si2 0.903887 0.620367 0.975039
Si Si3 0.672254 0.326480 0.425809
Si Si4 0.348227 0.264841 0.822823
Si Si5 0.922246 0.316232 0.037310
Si Si6 0.362900 0.616220 0.954972
Si Si7 0.888850 0.392128 0.414232
Si Si8 0.785659 0.838452 0.666937
O O1 0.735432 0.521944 0.063590
O O2 0.862018 0.499710 0.289169
O O3 0.892448 0.708728 0.087871
O O4 0.000000 0.000000 0.500000
O O5 0.789684 0.442338 0.679194
O O6 0.881159 0.406663 0.011598
O O7 0.941365 0.074964 0.862149
O O8 0.693166 0.408686 0.283742
O O9 0.684517 0.505549 0.521813
O O10 0.520172 0.967121 0.212206
O O11 0.359121 0.433365 0.926798
O O12 0.262205 0.148559 0.546719
O O13 0.256826 0.967876 0.775389
O O14 0.500000 0.500000 0.000000
O O15 0.800801 0.970665 0.823504
O O16 0.000000 0.500000 0.000000
O O17 0.031988 0.445456 0.314198
O O18 0.000000 0.500000 0.500000
#
# Coordination Sequence:
#
# PCOD9004024 Si02
#       8
#     2   2   2   2   2   2   2   2
#     4  12  26  41  66  95 134 174 218 269 333 396
#     4  11  22  41  62  95 130 170 216 277 322 387
#     4  10  23  40  66  90 131 167 216 267 328 384
#     4  11  24  42  69  97 133 172 222 276 328 398
#     4  10  21  37  63  95 127 163 219 275 318 386
#     4  10  25  43  63  97 128 169 223 265 332 396
#     4  12  23  43  67  97 135 171 216 275 335 388
#     4  10  21  39  62 100 126 159 227 269 323 389
#
# _framework density 20.41198
#
# number of rings (size 3 to 8) (size 9 to 14) (size 15 to 20)
#    0.000    1.250    3.750    2.625   12.250    0.500 
#    0.000    0.000    0.000    2.250    0.000    0.000 
#    0.000    0.000    0.000    0.000    0.000    0.000 
#
# Total GULP energy -89416.265541 kJ/mol
# GULP energy per Si atom -5588.516596 kJ/mol
# Density = 2.036552 g / cm^3
# Si number density = 20.411980 Si / 1000 Ang^3
#
#
#
# Elastic Constant Matrix: (Units=GPa)
#
#
# Indices 1 2 3 4 5 6 
#
# 1 114.8660 22.2614 31.5264 15.1299 -5.0589 -2.0399
# 2 22.2614 78.6453 33.2684 17.9802 -1.4139 -17.6123
# 3 31.5264 33.2684 117.2017 7.9423 -5.8374 -3.2616
# 4 15.1299 17.9802 7.9423 34.7076 -7.7545 -4.9711
# 5 -5.0589 -1.4139 -5.8374 -7.7545 37.9796 7.1850
# 6 -2.0399 -17.6123 -3.2616 -4.9711 7.1850 29.4153
#
#
#
# Elastic Compliance Matrix: (Units=1/GPa)
#
#
# Indices 1 2 3 4 5 6 
#
# 1 0.009973 -0.001461 -0.002058 -0.003158 0.000516 -0.001071
# 2 -0.001461 0.018957 -0.004372 -0.007513 -0.003660 0.010388
# 3 -0.002058 -0.004372 0.010297 0.000914 0.001687 -0.001876
# 4 -0.003158 -0.007513 0.000914 0.035330 0.006707 -0.000284
# 5 0.000516 -0.003660 0.001687 0.006707 0.029408 -0.008018
# 6 -0.001071 0.010388 -0.001876 -0.000284 -0.008018 0.041844
#
#
# Mechanical properties :
#
#
# Convention : Reuss Voigt Hill
#
# Bulk Modulus (GPa) = 42.65398 53.86948 48.26173
# Shear Modulus (GPa) = 29.51486 35.33095 32.42291
#
# Velocity S-wave (km/s) = 3.80670 4.16491 3.98983
# Velocity P-wave (km/s) = 6.34533 7.04110 6.70225
#
# Compressibility (1/GPa) = 0.02344447
#
# Stress axis : x y z
#
# Youngs Moduli (GPa) = 100.26574 52.75209 97.11722
#
# Poissons Ratio (x) = 0.07707 0.19989
# Poissons Ratio (y) = 0.14649 0.42460
# Poissons Ratio (z) = 0.20637 0.23063
#
# Static dielectric constant tensor:
#      x y z
#    x 1.764910 -0.042570 -0.031980 
#    y -0.042570 1.736290 -0.019460 
#    z -0.031980 -0.019460 1.696750 
# 
# From -- ./inp_files/352214.got.cif
#   From: 2010.05.17/outbox.cif.g08.bks.cpg/sg2_177_cif.got.tgz:352214.got - 2010.06.03 11:33:40.
