data_PCOD9004927
_publ_section_title
;
Structure prediction by ZEFSAII (Michael W. Deem and Ramdas Pophale) SiO2 
 PCOD9004927
Probable space group: P -1
;
_chemical_formula_sum "Si O2"
_cell_formula_units_Z 15
_cell_length_a 11.906015
_cell_length_b 15.387633
_cell_length_c 19.847029
_cell_angle_alpha 162.194173
_cell_angle_beta 143.358773
_cell_angle_gamma 39.858166
_cell_volume 663.440928
_symmetry_space_group_name_H-M "P -1"
_symmetry_group_IT_number 2
_symmetry_cell_setting 'triclinic'
loop_
_space_group_symop_operation_xyz
x,y,z
-x,-y,-z
loop_
_atom_site_type_symbol
_atom_site_label
_atom_site_fract_x
_atom_site_fract_y
_atom_site_fract_z
Si Si1 0.743540 0.653319 0.854408
Si Si2 0.500000 0.500000 0.500000
Si Si3 0.307925 0.963692 0.756344
Si Si4 0.304823 0.294899 0.466514
Si Si5 0.914248 0.138198 0.209677
Si Si6 0.661010 0.089209 0.931188
Si Si7 0.925113 0.605891 0.113729
Si Si8 0.544603 0.306360 0.715595
O O1 0.569601 0.571170 0.665140
O O2 0.889525 0.401675 0.758154
O O3 0.687864 0.830891 0.026308
O O4 0.866663 0.866548 0.028019
O O5 0.282431 0.634511 0.512824
O O6 0.520476 0.929613 0.800091
O O7 0.179737 0.101736 0.739487
O O8 0.222496 0.608071 0.641511
O O9 0.493104 0.294180 0.601928
O O10 0.134739 0.193737 0.358333
O O11 0.326040 0.090367 0.262422
O O12 0.851675 0.112316 0.082278
O O13 0.577060 0.407166 0.111312
O O14 0.759113 0.392673 0.896765
O O15 0.000000 0.500000 0.000000
O O16 0.500000 0.000000 0.500000
#
# Coordination Sequence:
#
# PCOD9004927 Si02
#       8
#     2   1   2   2   2   2   2   2
#     4  11  23  41  64  92 129 166 218 270 314 390
#     4  12  24  36  64  94 120 172 210 258 324 384
#     4  10  23  40  63  94 127 168 212 266 321 382
#     4  10  22  38  63  88 127 169 210 267 325 383
#     4  10  21  38  59  92 125 165 211 270 322 375
#     4  10  21  38  60  92 129 166 209 265 324 383
#     4   9  21  43  63  87 133 169 207 268 325 378
#     4  10  21  40  65  93 121 172 221 262 322 381
#
# _framework density 22.609399
#
# number of rings (size 3 to 8) (size 9 to 14) (size 15 to 20)
#    0.000    1.867    1.333    1.600    1.867    4.267 
#    0.000    6.667    0.000    0.000    0.000    0.000 
#    0.000    0.000    0.000    0.000    0.000    0.000 
#
# Total GULP energy -83556.247857 kJ/mol
# GULP energy per Si atom -5570.416524 kJ/mol
# Density = 2.255794 g / cm^3
# Si number density = 22.609399 Si / 1000 Ang^3
#
#
#
# Elastic Constant Matrix: (Units=GPa)
#
#
# Indices 1 2 3 4 5 6 
#
# 1 46.0333 31.7298 30.0386 -4.7340 -9.8035 -0.8734
# 2 31.7298 136.0317 46.6921 12.4480 -19.5705 1.6390
# 3 30.0386 46.6921 122.2013 0.3331 -45.2736 7.8169
# 4 -4.7340 12.4480 0.3331 17.6883 3.2961 2.8920
# 5 -9.8035 -19.5705 -45.2736 3.2961 39.7158 -4.4632
# 6 -0.8734 1.6390 7.8169 2.8920 -4.4632 22.5975
#
#
#
# Elastic Compliance Matrix: (Units=1/GPa)
#
#
# Indices 1 2 3 4 5 6 
#
# 1 0.031516 -0.006936 -0.006895 0.014053 -0.004505 0.001418
# 2 -0.006936 0.010789 -0.001332 -0.010215 0.003082 0.001326
# 3 -0.006895 -0.001332 0.016784 -0.004019 0.016868 -0.002130
# 4 0.014053 -0.010215 -0.004019 0.071482 -0.013096 -0.009061
# 5 -0.004505 0.003082 0.016868 -0.013096 0.046419 0.004612
# 6 0.001418 0.001326 -0.002130 -0.009061 0.004612 0.047018
#
#
# Mechanical properties :
#
#
# Convention : Reuss Voigt Hill
#
# Bulk Modulus (GPa) = 34.76826 57.90970 46.33898
# Shear Modulus (GPa) = 18.94504 29.05404 23.99954
#
# Velocity S-wave (km/s) = 2.89784 3.58864 3.26158
# Velocity P-wave (km/s) = 5.15827 6.54521 5.89269
#
# Compressibility (1/GPa) = 0.02876186
#
# Stress axis : x y z
#
# Youngs Moduli (GPa) = 31.72991 92.69115 59.58133
#
# Poissons Ratio (x) = 0.64288 0.41081
# Poissons Ratio (y) = 0.22007 0.07939
# Poissons Ratio (z) = 0.21878 0.12351
#
# Static dielectric constant tensor:
#      x y z
#    x 1.809340 -0.102200 -0.127290 
#    y -0.102200 1.606400 -0.275970 
#    z -0.127290 -0.275970 1.422790 
# 
# From -- ./inp_files/569895.got.cif
#   From: 2010.05.17/outbox.cif.g08.bks.cpg/sg2_285_cif.got.tgz:569895.got - 2010.06.03 11:33:40.
