data_PCOD9004138
_publ_section_title
;
Structure prediction by ZEFSAII (Michael W. Deem and Ramdas Pophale) SiO2 
 PCOD9004138
Probable space group: P -1
;
_chemical_formula_sum "Si O2"
_cell_formula_units_Z 16
_cell_length_a 10.088605
_cell_length_b 11.765223
_cell_length_c 22.020791
_cell_angle_alpha 45.054282
_cell_angle_beta 153.241191
_cell_angle_gamma 141.925231
_cell_volume 725.663712
_symmetry_space_group_name_H-M "P -1"
_symmetry_group_IT_number 2
_symmetry_cell_setting 'triclinic'
loop_
_space_group_symop_operation_xyz
x,y,z
-x,-y,-z
loop_
_atom_site_type_symbol
_atom_site_label
_atom_site_fract_x
_atom_site_fract_y
_atom_site_fract_z
Si Si1 0.767443 0.435717 0.653542
Si Si2 0.729262 0.929479 0.469607
Si Si3 0.815209 0.050280 0.695382
Si Si4 0.090850 0.989241 0.710691
Si Si5 0.986861 0.780010 0.927708
Si Si6 0.705815 0.554615 0.215066
Si Si7 0.259555 0.642110 0.187916
Si Si8 0.743269 0.282382 0.055205
O O1 0.500000 0.500000 0.500000
O O2 0.593120 0.227847 0.636434
O O3 0.811535 0.426480 0.746352
O O4 0.111279 0.527762 0.721322
O O5 0.560718 0.030156 0.400505
O O6 0.000000 0.000000 0.500000
O O7 0.896988 0.878486 0.613158
O O8 0.996994 0.968396 0.843953
O O9 0.845252 0.985311 0.664968
O O10 0.024740 0.274595 0.698198
O O11 0.350761 0.200430 0.718999
O O12 0.290874 0.892026 0.857126
O O13 0.611041 0.616887 0.818920
O O14 0.242264 0.755263 0.996240
O O15 0.063098 0.743482 0.040814
O O16 0.524959 0.649943 0.067285
O O17 0.106628 0.455856 0.156369
#
# Coordination Sequence:
#
# PCOD9004138 Si02
#       8
#     2   2   2   2   2   2   2   2
#     4  11  25  42  59  84 121 164 209 243 300 359
#     4  11  23  42  58  84 123 162 203 252 290 348
#     4  10  22  39  62  94 118 158 205 243 302 362
#     4  11  21  39  66  88 122 161 197 251 301 352
#     4  10  21  37  64  93 121 152 195 250 308 357
#     4  10  21  39  59  88 126 156 192 257 295 352
#     4  11  21  38  61  89 119 162 197 243 305 358
#     4  10  21  38  61  96 121 149 198 251 303 360
#
# _framework density 22.048780000000001
#
# number of rings (size 3 to 8) (size 9 to 14) (size 15 to 20)
#    0.000    1.500    1.250    4.875    1.750    4.000 
#    2.250    1.875    0.000   12.000    0.000    0.000 
#    0.000    0.000    0.000    0.000    0.000    0.000 
#
# Total GULP energy -89189.319272 kJ/mol
# GULP energy per Si atom -5574.332454 kJ/mol
# Density = 2.199860 g / cm^3
# Si number density = 22.048780 Si / 1000 Ang^3
#
#
#
# Elastic Constant Matrix: (Units=GPa)
#
#
# Indices 1 2 3 4 5 6 
#
# 1 109.3038 1.4173 45.0903 -12.5424 4.5401 11.3868
# 2 1.4173 65.8676 -14.4511 5.1883 1.2480 4.8438
# 3 45.0903 -14.4511 68.7511 -10.9483 2.8068 3.4320
# 4 -12.5424 5.1883 -10.9483 33.1718 1.2319 1.5292
# 5 4.5401 1.2480 2.8068 1.2319 47.8578 3.0436
# 6 11.3868 4.8438 3.4320 1.5292 3.0436 19.4376
#
#
#
# Elastic Compliance Matrix: (Units=1/GPa)
#
#
# Indices 1 2 3 4 5 6 
#
# 1 0.013733 -0.001955 -0.008620 0.002955 -0.000428 -0.006201
# 2 -0.001955 0.016662 0.004722 -0.001608 -0.000251 -0.003675
# 3 -0.008620 0.004722 0.021734 0.003205 -0.000655 -0.000114
# 4 0.002955 -0.001608 0.003205 0.032809 -0.000996 -0.004322
# 5 -0.000428 -0.000251 -0.000655 -0.000996 0.021185 -0.002810
# 6 -0.006201 -0.003675 -0.000114 -0.004322 -0.002810 0.056795
#
#
# Mechanical properties :
#
#
# Convention : Reuss Voigt Hill
#
# Bulk Modulus (GPa) = 24.73884 34.22616 29.48250
# Shear Modulus (GPa) = 26.58171 34.21784 30.39977
#
# Velocity S-wave (km/s) = 3.47592 3.94371 3.71718
# Velocity P-wave (km/s) = 5.23008 6.02443 5.64126
#
# Compressibility (1/GPa) = 0.04042227
#
# Stress axis : x y z
#
# Youngs Moduli (GPa) = 72.81685 60.01779 46.01046
#
# Poissons Ratio (x) = 0.11736 0.39662
# Poissons Ratio (y) = 0.14238 -0.21727
# Poissons Ratio (z) = 0.62770 -0.28342
#
# Static dielectric constant tensor:
#      x y z
#    x 1.875530 -0.007630 0.058990 
#    y -0.007630 1.867000 0.045740 
#    z 0.058990 0.045740 1.884500 
# 
# From -- ./inp_files/187622.got.cif
#   From: 2010.05.17/outbox.cif.g08.bks.cpg/sg2_94_cif.got.tgz:187622.got - 2010.06.03 11:33:40.
