data_PCOD9004247
_publ_section_title
;
Structure prediction by ZEFSAII (Michael W. Deem and Ramdas Pophale) SiO2 
 PCOD9004247
Probable space group: P -1
;
_chemical_formula_sum "Si O2"
_cell_formula_units_Z 16
_cell_length_a 8.055553
_cell_length_b 7.534070
_cell_length_c 16.876237
_cell_angle_alpha 68.003239
_cell_angle_beta 81.396900
_cell_angle_gamma 131.142766
_cell_volume 589.023979
_symmetry_space_group_name_H-M "P -1"
_symmetry_group_IT_number 2
_symmetry_cell_setting 'triclinic'
loop_
_space_group_symop_operation_xyz
x,y,z
-x,-y,-z
loop_
_atom_site_type_symbol
_atom_site_label
_atom_site_fract_x
_atom_site_fract_y
_atom_site_fract_z
Si Si1 0.898593 0.771672 0.472517
Si Si2 0.321739 0.082322 0.843141
Si Si3 0.639686 0.666557 0.356132
Si Si4 0.940208 0.498350 0.130984
Si Si5 0.461625 0.706237 0.054667
Si Si6 0.697167 0.020313 0.513358
Si Si7 0.099662 0.578169 0.277023
Si Si8 0.423702 0.240377 0.148204
O O1 0.848555 0.841054 0.383538
O O2 0.611437 0.430204 0.576203
O O3 0.150796 0.855932 0.434354
O O4 0.000000 0.000000 0.500000
O O5 0.275499 0.199694 0.759957
O O6 0.278655 0.064208 0.943044
O O7 0.634359 0.305802 0.782894
O O8 0.169040 0.765226 0.874359
O O9 0.494053 0.333851 0.419187
O O10 0.717500 0.462945 0.129142
O O11 0.254762 0.701089 0.072830
O O12 0.909249 0.444808 0.237048
O O13 0.339525 0.387483 0.139658
O O14 0.548771 0.764673 0.947773
O O15 0.948464 0.308254 0.393302
O O16 0.500000 0.000000 0.500000
O O17 0.212569 0.885856 0.244974
#
# Coordination Sequence:
#
# PCOD9004247 Si02
#       8
#     2   2   2   2   2   2   2   2
#     4   9  20  37  61  86 116 161 218 256 310 374
#     4  10  22  40  66  98 129 172 220 269 326 395
#     4  10  21  37  65  88 121 171 215 261 313 383
#     4  10  23  38  67  99 133 171 215 270 334 397
#     4  10  23  43  68  98 130 171 222 270 334 402
#     4  11  24  39  60  94 130 172 214 269 327 386
#     4  10  23  42  64  94 133 172 218 271 331 392
#     4  10  23  44  68  95 133 173 216 278 330 397
#
# _framework density 27.163578999999999
#
# number of rings (size 3 to 8) (size 9 to 14) (size 15 to 20)
#    0.000    2.000    1.250    0.375    5.250   10.000 
#    0.000    2.500    0.000    0.000    0.000    0.000 
#    0.000    0.000    0.000    0.000    0.000    0.000 
#
# Total GULP energy -89202.661761 kJ/mol
# GULP energy per Si atom -5575.166360 kJ/mol
# Density = 2.710175 g / cm^3
# Si number density = 27.163579 Si / 1000 Ang^3
#
#
#
# Elastic Constant Matrix: (Units=GPa)
#
#
# Indices 1 2 3 4 5 6 
#
# 1 105.1572 59.9344 50.7886 4.9473 41.4001 31.0178
# 2 59.9344 134.9145 57.9698 30.3564 27.2356 47.4368
# 3 50.7886 57.9698 88.3329 19.3328 30.3999 19.4308
# 4 4.9473 30.3564 19.3328 56.4873 8.8195 20.3475
# 5 41.4001 27.2356 30.3999 8.8195 38.6232 -0.7765
# 6 31.0178 47.4368 19.4308 20.3475 -0.7765 61.2937
#
#
#
# Elastic Compliance Matrix: (Units=1/GPa)
#
#
# Indices 1 2 3 4 5 6 
#
# 1 0.026727 -0.001926 -0.003816 0.009302 -0.026697 -0.014251
# 2 -0.001926 0.014454 -0.004702 -0.002502 -0.004015 -0.007941
# 3 -0.003816 -0.004702 0.019766 -0.002778 -0.007514 0.000131
# 4 0.009302 -0.002502 -0.002778 0.024730 -0.011873 -0.010250
# 5 -0.026697 -0.004015 -0.007514 -0.011873 0.066443 0.023783
# 6 -0.014251 -0.007941 0.000131 -0.010250 0.023783 0.033335
#
#
# Mechanical properties :
#
#
# Convention : Reuss Voigt Hill
#
# Bulk Modulus (GPa) = 24.96372 73.97669 49.47021
# Shear Modulus (GPa) = 22.75874 41.92829 32.34352
#
# Velocity S-wave (km/s) = 2.89769 3.93306 3.45439
# Velocity P-wave (km/s) = 4.51725 6.92230 5.84482
#
# Compressibility (1/GPa) = 0.04005813
#
# Stress axis : x y z
#
# Youngs Moduli (GPa) = 37.41501 69.18634 50.59225
#
# Poissons Ratio (x) = 0.13328 0.19308
# Poissons Ratio (y) = 0.07208 0.23787
# Poissons Ratio (z) = 0.14279 0.32529
#
# Static dielectric constant tensor:
#      x y z
#    x 2.640110 -0.035200 -0.079130 
#    y -0.035200 2.143520 0.018800 
#    z -0.079130 0.018800 2.190040 
# 
# From -- ./inp_files/557016.got.cif
#   From: 2010.05.17/outbox.cif.g08.bks.cpg/sg2_279_cif.got.tgz:557016.got - 2010.06.03 11:33:40.
