data_PCOD9004452
_publ_section_title
;
Structure prediction by ZEFSAII (Michael W. Deem and Ramdas Pophale) SiO2 
 PCOD9004452
Probable space group: P -1
;
_chemical_formula_sum "Si O2"
_cell_formula_units_Z 16
_cell_length_a 10.856061
_cell_length_b 7.859864
_cell_length_c 13.721534
_cell_angle_alpha 71.871087
_cell_angle_beta 56.250354
_cell_angle_gamma 114.056532
_cell_volume 627.701414
_symmetry_space_group_name_H-M "P -1"
_symmetry_group_IT_number 2
_symmetry_cell_setting 'triclinic'
loop_
_space_group_symop_operation_xyz
x,y,z
-x,-y,-z
loop_
_atom_site_type_symbol
_atom_site_label
_atom_site_fract_x
_atom_site_fract_y
_atom_site_fract_z
Si Si1 0.591509 0.606281 0.170290
Si Si2 0.072272 0.825737 0.406364
Si Si3 0.239810 0.508405 0.562914
Si Si4 0.877049 0.173915 0.926483
Si Si5 0.459080 0.848079 0.946764
Si Si6 0.172981 0.316112 0.282709
Si Si7 0.920340 0.630152 0.002496
Si Si8 0.319245 0.190588 0.680029
O O1 0.352306 0.422420 0.267353
O O2 0.622628 0.690255 0.255177
O O3 0.675780 0.483828 0.125888
O O4 0.745610 0.886785 0.996338
O O5 0.870668 0.565926 0.479865
O O6 0.014576 0.752397 0.559027
O O7 0.077370 0.042393 0.340032
O O8 0.309412 0.973596 0.238452
O O9 0.284605 0.338702 0.604602
O O10 0.487734 0.785669 0.423665
O O11 0.049527 0.407481 0.734937
O O12 0.701689 0.163736 0.039250
O O13 0.019989 0.235523 0.941831
O O14 0.310756 0.548839 0.100931
O O15 0.500000 0.000000 0.000000
O O16 0.094464 0.886421 0.814656
O O17 0.000000 0.500000 0.000000
#
# Coordination Sequence:
#
# PCOD9004452 Si02
#       8
#     2   2   2   2   2   2   2   2
#     4  11  19  42  66  89 126 165 215 256 319 392
#     4  11  25  43  66  96 135 177 213 272 328 387
#     4  11  19  39  66  91 123 162 221 255 317 387
#     4  11  22  41  63  93 126 169 216 264 316 388
#     4  12  24  41  65  97 130 174 221 269 317 385
#     4  11  25  44  65  99 134 175 218 267 332 387
#     4  11  24  40  63  95 127 163 206 271 326 377
#     4  10  21  37  67  92 115 167 210 262 314 380
#
# _framework density 25.489823000000001
#
# number of rings (size 3 to 8) (size 9 to 14) (size 15 to 20)
#    0.000    1.000    6.250    1.125    1.750    1.500 
#    4.500    0.625    0.000    0.000    0.000    0.000 
#    0.000    0.000    0.000    0.000    0.000    0.000 
#
# Total GULP energy -89333.087894 kJ/mol
# GULP energy per Si atom -5583.317993 kJ/mol
# Density = 2.543181 g / cm^3
# Si number density = 25.489823 Si / 1000 Ang^3
#
#
#
# Elastic Constant Matrix: (Units=GPa)
#
#
# Indices 1 2 3 4 5 6 
#
# 1 64.0650 6.7003 32.6225 4.9299 -13.4542 -7.5897
# 2 6.7003 44.4456 12.8756 3.4530 -6.7993 -14.5033
# 3 32.6225 12.8756 153.4272 24.0234 -27.6570 -9.7435
# 4 4.9299 3.4530 24.0234 34.8169 -9.3924 -5.1080
# 5 -13.4542 -6.7993 -27.6570 -9.3924 39.8203 -0.2878
# 6 -7.5897 -14.5033 -9.7435 -5.1080 -0.2878 38.1187
#
#
#
# Elastic Compliance Matrix: (Units=1/GPa)
#
#
# Indices 1 2 3 4 5 6 
#
# 1 0.018383 -0.000353 -0.003101 0.001158 0.004291 0.002921
# 2 -0.000353 0.026624 -0.000894 0.000566 0.004011 0.009937
# 3 -0.003101 -0.000894 0.008658 -0.004318 0.003800 0.000706
# 4 0.001158 0.000566 -0.004318 0.033512 0.005422 0.003874
# 5 0.004291 0.004011 0.003800 0.005422 0.031196 0.004314
# 6 0.002921 0.009937 0.000706 0.003874 0.004314 0.031328
#
#
# Mechanical properties :
#
#
# Convention : Reuss Voigt Hill
#
# Bulk Modulus (GPa) = 22.23789 40.70386 31.47087
# Shear Modulus (GPa) = 28.83705 36.53380 32.68543
#
# Velocity S-wave (km/s) = 3.36715 3.78996 3.58480
# Velocity P-wave (km/s) = 4.88468 5.92917 5.43209
#
# Compressibility (1/GPa) = 0.04496830
#
# Stress axis : x y z
#
# Youngs Moduli (GPa) = 54.39676 37.56031 115.50052
#
# Poissons Ratio (x) = 0.01327 0.35822
# Poissons Ratio (y) = 0.01922 0.10322
# Poissons Ratio (z) = 0.16871 0.03357
#
# Static dielectric constant tensor:
#      x y z
#    x 2.026880 0.047940 0.040360 
#    y 0.047940 2.136910 0.001820 
#    z 0.040360 0.001820 2.195920 
# 
# From -- ./inp_files/177708.got.cif
#   From: 2010.05.17/outbox.cif.g08.bks.cpg/sg2_89_cif.got.tgz:177708.got - 2010.06.03 11:33:40.
