data_PCOD9004545
_publ_section_title
;
Structure prediction by ZEFSAII (Michael W. Deem and Ramdas Pophale) SiO2 
 PCOD9004545
Probable space group: P -1
;
_chemical_formula_sum "Si O2"
_cell_formula_units_Z 14
_cell_length_a 6.694082
_cell_length_b 11.288823
_cell_length_c 12.645779
_cell_angle_alpha 125.890929
_cell_angle_beta 107.643355
_cell_angle_gamma 109.186608
_cell_volume 556.934213
_symmetry_space_group_name_H-M "P -1"
_symmetry_group_IT_number 2
_symmetry_cell_setting 'triclinic'
loop_
_space_group_symop_operation_xyz
x,y,z
-x,-y,-z
loop_
_atom_site_type_symbol
_atom_site_label
_atom_site_fract_x
_atom_site_fract_y
_atom_site_fract_z
Si Si1 0.158229 0.394724 0.064897
Si Si2 0.388644 0.788869 0.242049
Si Si3 0.268773 0.128586 0.033418
Si Si4 0.641192 0.353937 0.389864
Si Si5 0.100116 0.234655 0.341102
Si Si6 0.177704 0.657714 0.360830
Si Si7 0.988332 0.131649 0.491284
O O1 0.355354 0.595560 0.133924
O O2 0.092150 0.461181 0.195412
O O3 0.266220 0.285439 0.057081
O O4 0.877579 0.261414 0.882101
O O5 0.373366 0.803581 0.373707
O O6 0.660840 0.976287 0.331569
O O7 0.546210 0.236022 0.203609
O O8 0.183634 0.962754 0.851272
O O9 0.000000 0.000000 0.000000
O O10 0.353787 0.312526 0.345784
O O11 0.884836 0.585757 0.541252
O O12 0.692376 0.299502 0.480824
O O13 0.157961 0.192466 0.443539
O O14 0.952256 0.684058 0.350508
O O15 0.000000 0.000000 0.500000
#
# Coordination Sequence:
#
# PCOD9004545 Si02
#       7
#     2   2   2   2   2   2   2
#     4   9  20  40  67  93 119 171 225 251 318 382
#     4   9  22  41  65  93 124 172 215 259 315 393
#     4  10  21  37  69  98 120 163 222 269 309 380
#     4  10  21  43  69  89 127 177 220 258 318 386
#     4  10  23  40  63 100 128 165 212 271 320 380
#     4  10  21  41  67  89 123 173 216 258 313 391
#     4  12  26  38  61  99 135 164 211 271 332 376
#
# _framework density 25.137616999999999
#
# number of rings (size 3 to 8) (size 9 to 14) (size 15 to 20)
#    0.857    1.143    0.000    3.857    8.000    0.571 
#    2.571    2.143    0.000    0.000    0.000    0.000 
#    0.000    0.000    0.000    0.000    0.000    0.000 
#
# Total GULP energy -78128.356778 kJ/mol
# GULP energy per Si atom -5580.596913 kJ/mol
# Density = 2.508040 g / cm^3
# Si number density = 25.137617 Si / 1000 Ang^3
#
#
#
# Elastic Constant Matrix: (Units=GPa)
#
#
# Indices 1 2 3 4 5 6 
#
# 1 40.1933 24.4657 34.6669 4.4241 -1.5704 -11.8153
# 2 24.4657 113.8630 73.8324 -1.7042 6.8074 -23.1028
# 3 34.6669 73.8324 154.8816 2.7029 6.4668 -29.0899
# 4 4.4241 -1.7042 2.7029 35.2577 -6.0874 1.7334
# 5 -1.5704 6.8074 6.4668 -6.0874 28.3916 -4.0706
# 6 -11.8153 -23.1028 -29.0899 1.7334 -4.0706 46.1694
#
#
#
# Elastic Compliance Matrix: (Units=1/GPa)
#
#
# Indices 1 2 3 4 5 6 
#
# 1 0.033009 -0.003161 -0.005215 -0.003471 0.003605 0.004028
# 2 -0.003161 0.013437 -0.005185 0.001039 -0.001640 0.002465
# 3 -0.005215 -0.005185 0.010670 -0.000764 -0.001250 0.002713
# 4 -0.003471 0.001039 -0.000764 0.030007 0.005959 -0.001450
# 5 0.003605 -0.001640 -0.001250 0.005959 0.037723 0.002416
# 6 0.004028 0.002465 0.002713 -0.001450 0.002416 0.025900
#
#
# Mechanical properties :
#
#
# Convention : Reuss Voigt Hill
#
# Bulk Modulus (GPa) = 33.33925 63.87420 48.60673
# Shear Modulus (GPa) = 26.61467 33.69527 30.15497
#
# Velocity S-wave (km/s) = 3.25739 3.66516 3.46727
# Velocity P-wave (km/s) = 5.23822 6.58606 5.95042
#
# Compressibility (1/GPa) = 0.02999468
#
# Stress axis : x y z
#
# Youngs Moduli (GPa) = 30.29508 74.41909 93.71764
#
# Poissons Ratio (x) = 0.23527 0.48870
# Poissons Ratio (y) = 0.09578 0.48591
# Poissons Ratio (z) = 0.15798 0.38585
#
# Static dielectric constant tensor:
#      x y z
#    x 2.089890 -0.037100 -0.007890 
#    y -0.037100 1.958370 0.031270 
#    z -0.007890 0.031270 2.062990 
# 
# From -- ./inp_files/391106.got.cif
#   From: 2010.05.17/outbox.cif.g08.bks.cpg/sg2_196_cif.got.tgz:391106.got - 2010.06.03 11:33:40.
