data_PCOD9004262
_publ_section_title
;
Structure prediction by ZEFSAII (Michael W. Deem and Ramdas Pophale) SiO2 
 PCOD9004262
Probable space group: P -1
;
_chemical_formula_sum "Si O2"
_cell_formula_units_Z 14
_cell_length_a 16.723169
_cell_length_b 9.018360
_cell_length_c 9.466062
_cell_angle_alpha 78.855956
_cell_angle_beta 144.129316
_cell_angle_gamma 125.403576
_cell_volume 556.290125
_symmetry_space_group_name_H-M "P -1"
_symmetry_group_IT_number 2
_symmetry_cell_setting 'triclinic'
loop_
_space_group_symop_operation_xyz
x,y,z
-x,-y,-z
loop_
_atom_site_type_symbol
_atom_site_label
_atom_site_fract_x
_atom_site_fract_y
_atom_site_fract_z
Si Si1 0.034451 0.306238 0.970786
Si Si2 0.308201 0.132972 0.613738
Si Si3 0.507252 0.852706 0.877447
Si Si4 0.362607 0.495550 0.203971
Si Si5 0.188623 0.353854 0.489898
Si Si6 0.364319 0.957429 0.438733
Si Si7 0.241564 0.091901 0.013334
O O1 0.862342 0.277001 0.793965
O O2 0.889490 0.068558 0.724180
O O3 0.215809 0.485162 0.086758
O O4 0.148916 0.341284 0.266800
O O5 0.491761 0.309164 0.736170
O O6 0.290462 0.272246 0.653556
O O7 0.350555 0.035716 0.804596
O O8 0.306910 0.593459 0.674847
O O9 0.478017 0.988599 0.734583
O O10 0.599200 0.822765 0.891269
O O11 0.500000 0.500000 0.500000
O O12 0.226918 0.259158 0.975119
O O13 0.969706 0.156241 0.280342
O O14 0.500000 0.000000 0.500000
O O15 0.310078 0.072403 0.264080
#
# Coordination Sequence:
#
# PCOD9004262 Si02
#       7
#     2   2   2   2   2   2   2
#     4  11  23  41  66  94 126 165 214 264 307 374
#     4  12  24  38  64  96 133 160 205 266 324 364
#     4  11  24  42  59  94 133 169 203 258 311 379
#     4  12  21  37  64  98 123 159 211 265 316 362
#     4  11  21  38  64  93 122 164 212 258 314 367
#     4   9  22  43  66  90 125 172 214 250 309 382
#     4  10  21  37  65  90 121 164 215 257 306 371
#
# _framework density 25.166723999999999
#
# number of rings (size 3 to 8) (size 9 to 14) (size 15 to 20)
#    0.000    1.143    4.286    2.571    0.000    5.714 
#    0.000    3.571    0.000    0.000    0.000    0.000 
#    0.000    0.000    0.000    0.000    0.000    0.000 
#
# Total GULP energy -78126.882019 kJ/mol
# GULP energy per Si atom -5580.491573 kJ/mol
# Density = 2.510944 g / cm^3
# Si number density = 25.166724 Si / 1000 Ang^3
#
#
#
# Elastic Constant Matrix: (Units=GPa)
#
#
# Indices 1 2 3 4 5 6 
#
# 1 65.3420 12.9786 24.6281 -4.2113 23.8776 5.5469
# 2 12.9786 73.7021 18.6998 -3.1200 7.6592 -5.4476
# 3 24.6281 18.6998 59.7923 -11.7144 -0.6170 4.0511
# 4 -4.2113 -3.1200 -11.7144 54.9098 7.3140 -9.8733
# 5 23.8776 7.6592 -0.6170 7.3140 44.8320 11.5062
# 6 5.5469 -5.4476 4.0511 -9.8733 11.5062 31.3169
#
#
#
# Elastic Compliance Matrix: (Units=1/GPa)
#
#
# Indices 1 2 3 4 5 6 
#
# 1 0.024013 0.000016 -0.009817 0.002123 -0.014001 0.002833
# 2 0.000016 0.015773 -0.005084 0.001378 -0.004396 0.005448
# 3 -0.009817 -0.005084 0.023141 0.002224 0.007090 -0.004043
# 4 0.002123 0.001378 0.002224 0.021493 -0.007146 0.008978
# 5 -0.014001 -0.004396 0.007090 -0.007146 0.035498 -0.014497
# 6 0.002833 0.005448 -0.004043 0.008978 -0.014497 0.041058
#
#
# Mechanical properties :
#
#
# Convention : Reuss Voigt Hill
#
# Bulk Modulus (GPa) = 30.15841 34.60548 32.38194
# Shear Modulus (GPa) = 24.77731 35.71377 30.24554
#
# Velocity S-wave (km/s) = 3.14112 3.77116 3.47047
# Velocity P-wave (km/s) = 5.01647 5.72211 5.38087
#
# Compressibility (1/GPa) = 0.03315825
#
# Stress axis : x y z
#
# Youngs Moduli (GPa) = 41.64344 63.39884 43.21382
#
# Poissons Ratio (x) = -0.00103 0.42421
# Poissons Ratio (y) = -0.00068 0.21971
# Poissons Ratio (z) = 0.40880 0.32233
#
# Static dielectric constant tensor:
#      x y z
#    x 2.058210 -0.094930 -0.034420 
#    y -0.094930 1.980630 0.054000 
#    z -0.034420 0.054000 2.038790 
# 
# From -- ./inp_files/333300.got.cif
#   From: 2010.05.17/outbox.cif.g08.bks.cpg/sg2_167_cif.got.tgz:333300.got - 2010.06.03 11:33:40.
