data_PCOD9004859
_publ_section_title
;
Structure prediction by ZEFSAII (Michael W. Deem and Ramdas Pophale) SiO2 
 PCOD9004859
Probable space group: P -1
;
_chemical_formula_sum "Si O2"
_cell_formula_units_Z 10
_cell_length_a 18.109207
_cell_length_b 11.881618
_cell_length_c 15.096254
_cell_angle_alpha 28.848545
_cell_angle_beta 21.309487
_cell_angle_gamma 19.889737
_cell_volume 401.590877
_symmetry_space_group_name_H-M "P -1"
_symmetry_group_IT_number 2
_symmetry_cell_setting 'triclinic'
loop_
_space_group_symop_operation_xyz
x,y,z
-x,-y,-z
loop_
_atom_site_type_symbol
_atom_site_label
_atom_site_fract_x
_atom_site_fract_y
_atom_site_fract_z
Si Si1 0.151002 0.220941 0.950579
Si Si2 0.307913 0.134113 0.324413
Si Si3 0.390919 0.329261 0.852452
Si Si4 0.328635 0.643095 0.871355
Si Si5 0.269102 0.613736 0.252547
O O1 0.485872 0.020672 0.713481
O O2 0.000000 0.500000 0.000000
O O3 0.954951 0.400169 0.959949
O O4 0.121137 0.982098 0.184058
O O5 0.973413 0.345126 0.550350
O O6 0.453766 0.821144 0.312201
O O7 0.330093 0.377243 0.092190
O O8 0.437808 0.508410 0.741856
O O9 0.500000 0.000000 0.000000
O O10 0.552417 0.604389 0.709410
O O11 0.000000 0.000000 0.000000
O O12 0.500000 0.500000 0.000000
#
# Coordination Sequence:
#
# PCOD9004859 Si02
#       5
#     2   2   2   2   2
#     4   9  19  37  59  83 112 147 193 235 277 341
#     4   9  21  39  60  83 114 155 190 232 286 335
#     4   9  18  37  60  85 115 144 185 237 287 341
#     4  10  21  38  59  87 117 146 188 239 288 342
#     4  11  23  39  57  82 117 156 196 233 278 339
#
# _framework density 24.900963999999998
#
# number of rings (size 3 to 8) (size 9 to 14) (size 15 to 20)
#    0.000    2.400    0.000    2.400    0.000    8.000 
#    0.000   10.000    0.000    0.000    0.000    0.000 
#    0.000    0.000    0.000    0.000    0.000    0.000 
#
# Total GULP energy -55812.115477 kJ/mol
# GULP energy per Si atom -5581.211548 kJ/mol
# Density = 2.484429 g / cm^3
# Si number density = 24.900964 Si / 1000 Ang^3
#
#
#
# Elastic Constant Matrix: (Units=GPa)
#
#
# Indices 1 2 3 4 5 6 
#
# 1 98.7659 21.4351 28.8909 32.9103 -34.9748 -13.4517
# 2 21.4351 118.1596 15.4401 22.5905 -16.8921 -9.3685
# 3 28.8909 15.4401 138.0712 38.8028 -43.4444 -23.2801
# 4 32.9103 22.5905 38.8028 48.1264 -13.8674 -12.0599
# 5 -34.9748 -16.8921 -43.4444 -13.8674 38.3812 20.3844
# 6 -13.4517 -9.3685 -23.2801 -12.0599 20.3844 49.3624
#
#
#
# Elastic Compliance Matrix: (Units=1/GPa)
#
#
# Indices 1 2 3 4 5 6 
#
# 1 0.020284 0.001113 0.006029 -0.013664 0.023154 -0.004318
# 2 0.001113 0.009837 0.001944 -0.005402 0.005960 -0.000694
# 3 0.006029 0.001944 0.015152 -0.011932 0.020332 -0.002154
# 4 -0.013664 -0.005402 -0.011932 0.038778 -0.017736 0.006421
# 5 0.023154 0.005960 0.020332 -0.017736 0.076395 -0.018851
# 6 -0.004318 -0.000694 -0.002154 0.006421 -0.018851 0.027287
#
#
# Mechanical properties :
#
#
# Convention : Reuss Voigt Hill
#
# Bulk Modulus (GPa) = 15.76208 54.05875 34.91041
# Shear Modulus (GPa) = 26.21766 46.45605 36.33685
#
# Velocity S-wave (km/s) = 3.24833 4.32398 3.82416
# Velocity P-wave (km/s) = 4.51802 6.83270 5.79216
#
# Compressibility (1/GPa) = 0.06344342
#
# Stress axis : x y z
#
# Youngs Moduli (GPa) = 49.29921 101.65541 65.99938
#
# Poissons Ratio (x) = -0.11311 -0.39790
# Poissons Ratio (y) = -0.05485 -0.12828
# Poissons Ratio (z) = -0.29721 -0.19759
#
# Static dielectric constant tensor:
#      x y z
#    x 2.057030 0.013390 -0.022500 
#    y 0.013390 1.907550 0.026760 
#    z -0.022500 0.026760 2.017730 
# 
# From -- ./inp_files/15175.got.cif
#   From: 2010.05.17/outbox.cif.g08.bks.cpg/sg2_8_cif.got.tgz:15175.got - 2010.06.03 11:33:40.
