data_PCOD9004161
_publ_section_title
;
Structure prediction by ZEFSAII (Michael W. Deem and Ramdas Pophale) SiO2 
 PCOD9004161
Probable space group: P -1
;
_chemical_formula_sum "Si O2"
_cell_formula_units_Z 14
_cell_length_a 12.042901
_cell_length_b 9.106742
_cell_length_c 9.310991
_cell_angle_alpha 110.215650
_cell_angle_beta 109.939974
_cell_angle_gamma 45.015049
_cell_volume 670.520617
_symmetry_space_group_name_H-M "P -1"
_symmetry_group_IT_number 2
_symmetry_cell_setting 'triclinic'
loop_
_space_group_symop_operation_xyz
x,y,z
-x,-y,-z
loop_
_atom_site_type_symbol
_atom_site_label
_atom_site_fract_x
_atom_site_fract_y
_atom_site_fract_z
Si Si1 0.918202 0.982788 0.324081
Si Si2 0.207258 0.546120 0.295141
Si Si3 0.206734 0.526438 0.864889
Si Si4 0.687665 0.814343 0.002891
Si Si5 0.325884 0.552901 0.641123
Si Si6 0.668570 0.326439 0.832133
Si Si7 0.877086 0.929003 0.988641
O O1 0.933041 0.998056 0.162543
O O2 0.016650 0.731525 0.295953
O O3 0.740257 0.211850 0.338508
O O4 0.000000 0.000000 0.500000
O O5 0.260143 0.355831 0.155161
O O6 0.303526 0.473945 0.460039
O O7 0.251288 0.664477 0.267106
O O8 0.221809 0.555023 0.715598
O O9 0.251226 0.314182 0.864659
O O10 0.331116 0.532487 0.003842
O O11 0.033580 0.716371 0.917261
O O12 0.770882 0.900024 0.020142
O O13 0.500000 0.000000 0.000000
O O14 0.500353 0.413800 0.734882
O O15 0.770455 0.104297 0.881010
#
# Coordination Sequence:
#
# PCOD9004161 Si02
#       7
#     2   2   2   2   2   2   2
#     4  10  21  37  64  94 126 158 202 258 317 359
#     4  10  23  43  62  92 131 163 209 256 313 371
#     4  11  22  39  63  92 123 167 212 252 307 375
#     4  11  25  42  64  91 123 169 213 253 310 371
#     4  11  22  38  66  97 130 156 208 265 313 361
#     4  11  21  37  64  96 123 166 208 259 305 362
#     4  12  22  41  67  91 129 165 212 256 305 378
#
# _framework density 20.879297000000001
#
# number of rings (size 3 to 8) (size 9 to 14) (size 15 to 20)
#    0.000    1.143    4.286    3.429    4.000    0.000 
#    0.000    3.571    0.000    0.000    0.000    0.000 
#    0.000    0.000    0.000    0.000    0.000    0.000 
#
# Total GULP energy -77989.763701 kJ/mol
# GULP energy per Si atom -5570.697407 kJ/mol
# Density = 2.083177 g / cm^3
# Si number density = 20.879297 Si / 1000 Ang^3
#
#
#
# Elastic Constant Matrix: (Units=GPa)
#
#
# Indices 1 2 3 4 5 6 
#
# 1 102.0071 36.1662 29.2273 -13.4187 -9.9107 5.5647
# 2 36.1662 116.5154 43.7498 -18.4286 8.2727 -4.8815
# 3 29.2273 43.7498 120.0811 -20.6088 -8.7552 -8.7271
# 4 -13.4187 -18.4286 -20.6088 40.4332 -2.8729 1.7517
# 5 -9.9107 8.2727 -8.7552 -2.8729 16.0501 -13.0564
# 6 5.5647 -4.8815 -8.7271 1.7517 -13.0564 28.3767
#
#
#
# Elastic Compliance Matrix: (Units=1/GPa)
#
#
# Indices 1 2 3 4 5 6 
#
# 1 0.012827 -0.004326 0.000101 0.003137 0.012758 0.002448
# 2 -0.004326 0.013020 -0.005314 0.000831 -0.017567 -0.006680
# 3 0.000101 -0.005314 0.013745 0.005609 0.021895 0.013021
# 4 0.003137 0.000831 0.005609 0.029806 0.015064 0.006344
# 5 0.012758 -0.017567 0.021895 0.015064 0.150399 0.069480
# 6 0.002448 -0.006680 0.013021 0.006344 0.069480 0.069193
#
#
# Mechanical properties :
#
#
# Convention : Reuss Voigt Hill
#
# Bulk Modulus (GPa) = 48.75319 61.87669 55.31494
# Shear Modulus (GPa) = 15.87777 32.26935 24.07356
#
# Velocity S-wave (km/s) = 2.76063 3.93557 3.39925
# Velocity P-wave (km/s) = 5.79328 7.09587 6.47740
#
# Compressibility (1/GPa) = 0.02051148
#
# Stress axis : x y z
#
# Youngs Moduli (GPa) = 77.96085 76.80688 72.75560
#
# Poissons Ratio (x) = 0.33230 -0.00733
# Poissons Ratio (y) = 0.33729 0.38663
# Poissons Ratio (z) = -0.00785 0.40816
#
# Static dielectric constant tensor:
#      x y z
#    x 1.813240 0.004370 -0.000680 
#    y 0.004370 1.794910 0.019300 
#    z -0.000680 0.019300 1.751780 
# 
# From -- ./inp_files/185160.got.cif
#   From: 2010.05.17/outbox.cif.g08.bks.cpg/sg2_93_cif.got.tgz:185160.got - 2010.06.03 11:33:40.
