data_PCOD9004707
_publ_section_title
;
Structure prediction by ZEFSAII (Michael W. Deem and Ramdas Pophale) SiO2 
 PCOD9004707
Probable space group: P -1
;
_chemical_formula_sum "Si O2"
_cell_formula_units_Z 14
_cell_length_a 13.159347
_cell_length_b 9.700047
_cell_length_c 10.947390
_cell_angle_alpha 55.492700
_cell_angle_beta 33.737197
_cell_angle_gamma 45.467031
_cell_volume 552.741409
_symmetry_space_group_name_H-M "P -1"
_symmetry_group_IT_number 2
_symmetry_cell_setting 'triclinic'
loop_
_space_group_symop_operation_xyz
x,y,z
-x,-y,-z
loop_
_atom_site_type_symbol
_atom_site_label
_atom_site_fract_x
_atom_site_fract_y
_atom_site_fract_z
Si Si1 0.238882 0.666932 0.385562
Si Si2 0.708343 0.570395 0.930844
Si Si3 0.494180 0.012811 0.144985
Si Si4 0.152815 0.837869 0.127371
Si Si5 0.426315 0.246017 0.378620
Si Si6 0.068256 0.342028 0.117549
Si Si7 0.302402 0.935497 0.586026
O O1 0.477466 0.622226 0.186239
O O2 0.144037 0.819173 0.292312
O O3 0.268329 0.468145 0.399780
O O4 0.104958 0.698758 0.625227
O O5 0.810855 0.364955 0.864551
O O6 0.847541 0.578509 0.896739
O O7 0.645105 0.755033 0.813789
O O8 0.369341 0.926684 0.383848
O O9 0.736311 0.865020 0.014165
O O10 0.500000 0.000000 0.000000
O O11 0.938005 0.012888 0.199653
O O12 0.360700 0.837434 0.872503
O O13 0.320795 0.114461 0.535581
O O14 0.519725 0.237454 0.425976
O O15 0.000000 0.500000 0.000000
#
# Coordination Sequence:
#
# PCOD9004707 Si02
#       7
#     2   2   2   2   2   2   2
#     4  11  22  39  63  86 115 153 192 239 292 340
#     4  10  22  40  60  87 118 148 191 244 287 338
#     4  10  21  38  58  82 115 153 195 234 274 337
#     4  11  21  37  63  90 114 148 194 237 292 352
#     4  10  22  37  58  89 118 147 187 240 296 346
#     4  11  24  41  60  85 116 156 199 233 280 344
#     4  11  21  37  59  84 120 154 185 238 294 334
#
# _framework density 25.328299999999999
#
# number of rings (size 3 to 8) (size 9 to 14) (size 15 to 20)
#    0.000    1.429    0.000    7.286    0.000    4.000 
#    0.000    7.143    0.000    0.000    0.000    0.000 
#    0.000    0.000    0.000    0.000    0.000    0.000 
#
# Total GULP energy -78307.601554 kJ/mol
# GULP energy per Si atom -5593.400111 kJ/mol
# Density = 2.527065 g / cm^3
# Si number density = 25.328300 Si / 1000 Ang^3
#
#
#
# Elastic Constant Matrix: (Units=GPa)
#
#
# Indices 1 2 3 4 5 6 
#
# 1 86.2077 12.5721 26.2742 -8.7989 2.5139 -22.4157
# 2 12.5721 74.1952 1.7179 -3.3658 9.9569 -0.4229
# 3 26.2742 1.7179 110.8514 3.1280 13.2789 -24.5915
# 4 -8.7989 -3.3658 3.1280 38.1150 -6.6804 6.1439
# 5 2.5139 9.9569 13.2789 -6.6804 37.8671 0.3674
# 6 -22.4157 -0.4229 -24.5915 6.1439 0.3674 41.3610
#
#
#
# Elastic Compliance Matrix: (Units=1/GPa)
#
#
# Indices 1 2 3 4 5 6 
#
# 1 0.014430 -0.002356 -0.002192 0.002457 0.000804 0.006121
# 2 -0.002356 0.014376 0.000624 0.000126 -0.003813 -0.000744
# 3 -0.002192 0.000624 0.011564 -0.003226 -0.004703 0.006215
# 4 0.002457 0.000126 -0.003226 0.028943 0.006089 -0.004938
# 5 0.000804 -0.003813 -0.004703 0.006089 0.030115 -0.003571
# 6 0.006121 -0.000744 0.006215 -0.004938 -0.003571 0.031948
#
#
# Mechanical properties :
#
#
# Convention : Reuss Voigt Hill
#
# Bulk Modulus (GPa) = 30.74741 39.15362 34.95051
# Shear Modulus (GPa) = 33.31896 38.84797 36.08347
#
# Velocity S-wave (km/s) = 3.63089 3.92060 3.77852
# Velocity P-wave (km/s) = 5.45378 5.99890 5.73282
#
# Compressibility (1/GPa) = 0.03252307
#
# Stress axis : x y z
#
# Youngs Moduli (GPa) = 69.29792 69.56088 86.47480
#
# Poissons Ratio (x) = 0.16388 0.18951
# Poissons Ratio (y) = 0.16327 -0.05395
# Poissons Ratio (z) = 0.15187 -0.04339
#
# Static dielectric constant tensor:
#      x y z
#    x 2.133370 0.025110 0.012430 
#    y 0.025110 2.020880 -0.023940 
#    z 0.012430 -0.023940 2.017700 
# 
# From -- ./inp_files/175800.got.cif
#   From: 2010.05.17/outbox.cif.g08.bks.cpg/sg2_88_cif.got.tgz:175800.got - 2010.06.03 11:33:40.
