data_PCOD9004473
_publ_section_title
;
Structure prediction by ZEFSAII (Michael W. Deem and Ramdas Pophale) SiO2 
 PCOD9004473
Probable space group: P -1
;
_chemical_formula_sum "Si O2"
_cell_formula_units_Z 14
_cell_length_a 8.241942
_cell_length_b 11.993945
_cell_length_c 6.993545
_cell_angle_alpha 120.264784
_cell_angle_beta 54.961248
_cell_angle_gamma 96.346662
_cell_volume 473.004719
_symmetry_space_group_name_H-M "P -1"
_symmetry_group_IT_number 2
_symmetry_cell_setting 'triclinic'
loop_
_space_group_symop_operation_xyz
x,y,z
-x,-y,-z
loop_
_atom_site_type_symbol
_atom_site_label
_atom_site_fract_x
_atom_site_fract_y
_atom_site_fract_z
Si Si1 0.345583 0.142533 0.761314
Si Si2 0.249380 0.431190 0.062957
Si Si3 0.455267 0.709771 0.663803
Si Si4 0.210110 0.719931 0.230199
Si Si5 0.210411 0.523746 0.592202
Si Si6 0.242391 0.148656 0.290035
Si Si7 0.947153 0.005018 0.263682
O O1 0.787058 0.146726 0.537653
O O2 0.500000 0.000000 0.500000
O O3 0.147973 0.119717 0.758260
O O4 0.297972 0.153471 0.031333
O O5 0.306425 0.566916 0.088591
O O6 0.224817 0.441232 0.316683
O O7 0.021867 0.434215 0.146883
O O8 0.384868 0.283834 0.795511
O O9 0.293700 0.653933 0.599891
O O10 0.643716 0.577291 0.448318
O O11 0.566981 0.831212 0.698726
O O12 0.320660 0.731193 0.967829
O O13 0.964102 0.736803 0.424386
O O14 0.147413 0.019270 0.257160
O O15 0.000000 0.000000 0.000000
#
# Coordination Sequence:
#
# PCOD9004473 Si02
#       7
#     2   2   2   2   2   2   2
#     4  11  20  36  64  93 126 176 210 259 326 391
#     4  11  21  41  62  99 135 155 212 291 308 361
#     4  11  20  39  64  96 127 175 210 252 330 399
#     4  10  21  37  67  98 126 165 214 269 316 377
#     4  10  22  38  62  93 133 170 203 269 329 372
#     4   9  18  38  58  90 126 158 213 264 297 384
#     4   8  18  34  57  94 123 170 202 256 321 372
#
# _framework density 29.598012000000001
#
# number of rings (size 3 to 8) (size 9 to 14) (size 15 to 20)
#    0.857    1.143    2.857    1.714    0.000    1.143 
#    0.000    0.000    0.000    4.286    0.000    1.000 
#    0.000    0.000    0.000    0.000    0.000    0.000 
#
# Total GULP energy -78363.949651 kJ/mol
# GULP energy per Si atom -5597.424975 kJ/mol
# Density = 2.953065 g / cm^3
# Si number density = 29.598012 Si / 1000 Ang^3
#
#
#
# Elastic Constant Matrix: (Units=GPa)
#
#
# Indices 1 2 3 4 5 6 
#
# 1 94.8123 47.5488 44.6777 23.6522 -4.6545 24.2700
# 2 47.5488 223.0374 40.2222 37.3943 -0.6589 30.3933
# 3 44.6777 40.2222 174.7714 39.4396 1.4720 4.9843
# 4 23.6522 37.3943 39.4396 52.2144 7.8346 -2.1951
# 5 -4.6545 -0.6589 1.4720 7.8346 58.0279 11.4738
# 6 24.2700 30.3933 4.9843 -2.1951 11.4738 61.5153
#
#
#
# Elastic Compliance Matrix: (Units=1/GPa)
#
#
# Indices 1 2 3 4 5 6 
#
# 1 0.015156 -0.001147 -0.002338 -0.004997 0.003120 -0.005984
# 2 -0.001147 0.005755 -0.000108 -0.003788 0.001023 -0.002708
# 3 -0.002338 -0.000108 0.007336 -0.004424 0.000185 0.000189
# 4 -0.004997 -0.003788 -0.004424 0.028545 -0.005418 0.006231
# 5 0.003120 0.001023 0.000185 -0.005418 0.019319 -0.005548
# 6 -0.005984 -0.002708 0.000189 0.006231 -0.005548 0.021197
#
#
# Mechanical properties :
#
#
# Convention : Reuss Voigt Hill
#
# Bulk Modulus (GPa) = 47.48330 84.16874 65.82602
# Shear Modulus (GPa) = 44.83818 58.36301 51.60059
#
# Velocity S-wave (km/s) = 3.89640 4.44538 4.17991
# Velocity P-wave (km/s) = 6.02662 7.40591 6.75158
#
# Compressibility (1/GPa) = 0.02106004
#
# Stress axis : x y z
#
# Youngs Moduli (GPa) = 65.98201 173.77542 136.31771
#
# Poissons Ratio (x) = 0.19930 0.31875
# Poissons Ratio (y) = 0.07567 0.01470
# Poissons Ratio (z) = 0.15428 0.01874
#
# Static dielectric constant tensor:
#      x y z
#    x 2.354550 -0.003440 0.021680 
#    y -0.003440 2.364070 -0.125890 
#    z 0.021680 -0.125890 2.299560 
# 
# From -- ./inp_files/215686.got.cif
#   From: 2010.05.17/outbox.cif.g08.bks.cpg/sg2_108_cif.got.tgz:215686.got - 2010.06.03 11:33:40.
