data_PCOD9004615
_publ_section_title
;
Structure prediction by ZEFSAII (Michael W. Deem and Ramdas Pophale) SiO2 
 PCOD9004615
Probable space group: P -1
;
_chemical_formula_sum "Si O2"
_cell_formula_units_Z 16
_cell_length_a 5.358288
_cell_length_b 11.814056
_cell_length_c 16.867279
_cell_angle_alpha 129.218357
_cell_angle_beta 105.060189
_cell_angle_gamma 103.262920
_cell_volume 679.258296
_symmetry_space_group_name_H-M "P -1"
_symmetry_group_IT_number 2
_symmetry_cell_setting 'triclinic'
loop_
_space_group_symop_operation_xyz
x,y,z
-x,-y,-z
loop_
_atom_site_type_symbol
_atom_site_label
_atom_site_fract_x
_atom_site_fract_y
_atom_site_fract_z
Si Si1 0.534848 0.986434 0.590942
Si Si2 0.919295 0.145094 0.061038
Si Si3 0.389641 0.931596 0.825988
Si Si4 0.441579 0.405425 0.870384
Si Si5 0.172120 0.558028 0.622058
Si Si6 0.145184 0.626651 0.216441
Si Si7 0.102849 0.989282 0.674910
Si Si8 0.667861 0.489400 0.681191
O O1 0.734288 0.184700 0.722929
O O2 0.228804 0.917609 0.585283
O O3 0.744941 0.912695 0.599562
O O4 0.500000 0.000000 0.500000
O O5 0.757997 0.114459 0.119424
O O6 0.191094 0.338846 0.176515
O O7 0.706894 0.105281 0.948938
O O8 0.000000 0.000000 0.000000
O O9 0.404750 0.765306 0.730550
O O10 0.195272 0.952891 0.751823
O O11 0.758615 0.465611 0.880067
O O12 0.274589 0.197556 0.771520
O O13 0.205813 0.445861 0.824755
O O14 0.500000 0.500000 0.000000
O O15 0.363561 0.468900 0.613415
O O16 0.000000 0.500000 0.500000
O O17 0.915106 0.517123 0.648166
O O18 0.341990 0.646503 0.318813
#
# Coordination Sequence:
#
# PCOD9004615 Si02
#       8
#     2   2   2   2   2   2   2   2
#     4  10  22  41  60  85 119 153 196 247 291 345
#     4  10  21  39  61  85 125 159 196 252 289 356
#     4  10  23  39  59  91 122 157 203 243 300 354
#     4  10  21  38  55  85 119 149 185 238 284 339
#     4  11  24  41  60  88 122 153 200 252 291 350
#     4  10  22  38  58  85 115 148 196 235 281 350
#     4  10  23  37  61  89 114 154 199 238 292 355
#     4  11  23  40  62  89 116 161 200 236 305 353
#
# _framework density 23.555105999999999
#
# number of rings (size 3 to 8) (size 9 to 14) (size 15 to 20)
#    0.000    1.750    1.250    1.875    3.500    3.000 
#    0.000    0.000    0.000    0.000    0.000    0.000 
#    0.000    0.000    0.000    0.000    0.000    0.000 
#
# Total GULP energy -89345.263789 kJ/mol
# GULP energy per Si atom -5584.078987 kJ/mol
# Density = 2.350149 g / cm^3
# Si number density = 23.555106 Si / 1000 Ang^3
#
#
#
# Elastic Constant Matrix: (Units=GPa)
#
#
# Indices 1 2 3 4 5 6 
#
# 1 143.3033 41.9608 45.6121 -16.0304 4.9921 -38.6795
# 2 41.9608 72.7445 22.4029 -14.6663 6.3847 -25.8551
# 3 45.6121 22.4029 100.7147 -27.2576 -0.7921 -16.9744
# 4 -16.0304 -14.6663 -27.2576 42.0186 -9.4088 14.2260
# 5 4.9921 6.3847 -0.7921 -9.4088 33.8446 -10.4373
# 6 -38.6795 -25.8551 -16.9744 14.2260 -10.4373 33.3625
#
#
#
# Elastic Compliance Matrix: (Units=1/GPa)
#
#
# Indices 1 2 3 4 5 6 
#
# 1 0.011412 -0.002098 -0.003337 -0.002004 0.001545 0.011245
# 2 -0.002098 0.019756 -0.001011 0.001557 0.000664 0.011908
# 3 -0.003337 -0.001011 0.013883 0.008120 0.003255 -0.000033
# 4 -0.002004 0.001557 0.008120 0.033438 0.006663 -0.009160
# 5 0.001545 0.000664 0.003255 0.006663 0.034828 0.012016
# 6 0.011245 0.011908 -0.000033 -0.009160 0.012016 0.059887
#
#
# Mechanical properties :
#
#
# Convention : Reuss Voigt Hill
#
# Bulk Modulus (GPa) = 31.09518 59.63490 45.36504
# Shear Modulus (GPa) = 25.40462 35.63093 30.51778
#
# Velocity S-wave (km/s) = 3.28764 3.89352 3.60334
# Velocity P-wave (km/s) = 5.25749 6.75165 6.05086
#
# Compressibility (1/GPa) = 0.03215933
#
# Stress axis : x y z
#
# Youngs Moduli (GPa) = 87.63002 50.61738 72.03212
#
# Poissons Ratio (x) = 0.10619 0.24034
# Poissons Ratio (y) = 0.18385 0.07282
# Poissons Ratio (z) = 0.29238 0.05117
#
# Static dielectric constant tensor:
#      x y z
#    x 2.087660 0.065050 -0.009120 
#    y 0.065050 1.939760 0.031090 
#    z -0.009120 0.031090 1.907610 
# 
# From -- ./inp_files/68589.got.cif
#   From: 2010.05.17/outbox.cif.g08.bks.cpg/sg2_35_cif.got.tgz:68589.got - 2010.06.03 11:33:40.
