data_PCOD9004588
_publ_section_title
;
Structure prediction by ZEFSAII (Michael W. Deem and Ramdas Pophale) SiO2 
 PCOD9004588
Probable space group: P -1
;
_chemical_formula_sum "Si O2"
_cell_formula_units_Z 16
_cell_length_a 7.158544
_cell_length_b 5.337656
_cell_length_c 20.314192
_cell_angle_alpha 113.675294
_cell_angle_beta 97.423108
_cell_angle_gamma 76.407238
_cell_volume 690.433764
_symmetry_space_group_name_H-M "P -1"
_symmetry_group_IT_number 2
_symmetry_cell_setting 'triclinic'
loop_
_space_group_symop_operation_xyz
x,y,z
-x,-y,-z
loop_
_atom_site_type_symbol
_atom_site_label
_atom_site_fract_x
_atom_site_fract_y
_atom_site_fract_z
Si Si1 0.694464 0.509326 0.549480
Si Si2 0.732465 0.905107 0.490029
Si Si3 0.743828 0.642687 0.709413
Si Si4 0.238554 0.041839 0.756273
Si Si5 0.799150 0.565150 0.322338
Si Si6 0.346408 0.347154 0.065589
Si Si7 0.791384 0.244215 0.785549
Si Si8 0.589707 0.797569 0.084046
O O1 0.500000 0.500000 0.500000
O O2 0.801210 0.715296 0.536344
O O3 0.649245 0.615076 0.631948
O O4 0.807364 0.191867 0.522976
O O5 0.767953 0.735101 0.406495
O O6 0.500000 0.000000 0.500000
O O7 0.694885 0.439891 0.742225
O O8 0.972519 0.536729 0.693020
O O9 0.707966 0.965522 0.764240
O O10 0.289421 0.236352 0.720997
O O11 0.317687 0.095234 0.836872
O O12 0.008922 0.130729 0.762132
O O13 0.283281 0.716018 0.707064
O O14 0.212994 0.557847 0.130499
O O15 0.512336 0.523442 0.074801
O O16 0.427472 0.054889 0.075607
O O17 0.275917 0.282902 0.982848
#
# Coordination Sequence:
#
# PCOD9004588 Si02
#       8
#     2   2   2   2   2   2   2   2
#     4  10  21  38  53  78 112 144 185 242 280 346
#     4  10  21  38  53  78 112 144 185 242 280 346
#     4  10  21  38  59  82 114 150 191 240 290 341
#     4  10  21  39  60  88 118 152 197 238 284 345
#     4  10  21  38  59  82 114 150 191 240 290 341
#     4  10  21  39  59  88 124 156 193 236 284 338
#     4  10  21  39  60  88 118 152 197 238 284 345
#     4  10  21  39  59  88 124 156 193 236 284 338
#
# _framework density 23.173838
#
# number of rings (size 3 to 8) (size 9 to 14) (size 15 to 20)
#    0.000    2.000    0.000    3.000    0.000    1.500 
#   27.000    0.000    0.000    9.000    0.000    0.000 
#    0.000    0.000    0.000    0.000    0.000    0.000 
#
# Total GULP energy -89487.109307 kJ/mol
# GULP energy per Si atom -5592.944332 kJ/mol
# Density = 2.312109 g / cm^3
# Si number density = 23.173838 Si / 1000 Ang^3
#
#
#
# Elastic Constant Matrix: (Units=GPa)
#
#
# Indices 1 2 3 4 5 6 
#
# 1 37.9593 40.5849 15.7489 -5.0464 -1.6268 -0.3599
# 2 40.5849 167.2419 68.8798 4.0907 -13.1285 35.6668
# 3 15.7489 68.8798 166.4076 7.1238 -8.1287 11.9275
# 4 -5.0464 4.0907 7.1238 47.2587 -1.6911 -2.3686
# 5 -1.6268 -13.1285 -8.1287 -1.6911 30.7338 2.6874
# 6 -0.3599 35.6668 11.9275 -2.3686 2.6874 33.8037
#
#
#
# Elastic Compliance Matrix: (Units=1/GPa)
#
#
# Indices 1 2 3 4 5 6 
#
# 1 0.042524 -0.014497 0.000278 0.006403 -0.004958 0.016494
# 2 -0.014497 0.014525 -0.003159 -0.002876 0.005757 -0.015024
# 3 0.000278 -0.003159 0.007299 -0.000746 0.000496 0.000669
# 4 0.006403 -0.002876 -0.000746 0.022444 -0.000286 0.004961
# 5 -0.004958 0.005757 0.000496 -0.000286 0.035650 -0.009157
# 6 0.016494 -0.015024 0.000669 0.004961 -0.009157 0.046450
#
#
# Mechanical properties :
#
#
# Convention : Reuss Voigt Hill
#
# Bulk Modulus (GPa) = 33.79428 69.11513 51.45470
# Shear Modulus (GPa) = 23.41791 38.78559 31.10175
#
# Velocity S-wave (km/s) = 3.18234 4.09550 3.66745
# Velocity P-wave (km/s) = 5.30260 7.22866 6.33921
#
# Compressibility (1/GPa) = 0.02959081
#
# Stress axis : x y z
#
# Youngs Moduli (GPa) = 23.51635 68.84745 137.00814
#
# Poissons Ratio (x) = 0.99808 -0.03804
# Poissons Ratio (y) = 0.34092 0.43280
# Poissons Ratio (z) = -0.00653 0.21748
#
# Static dielectric constant tensor:
#      x y z
#    x 1.893700 0.018400 -0.017390 
#    y 0.018400 1.934470 -0.004420 
#    z -0.017390 -0.004420 1.830560 
# 
# From -- ./inp_files/124886.got.cif
#   From: 2010.05.17/outbox.cif.g08.bks.cpg/sg2_63_cif.got.tgz:124886.got - 2010.06.03 11:33:40.
