data_PCOD9004293
_publ_section_title
;
Structure prediction by ZEFSAII (Michael W. Deem and Ramdas Pophale) SiO2 
 PCOD9004293
Probable space group: P -1
;
_chemical_formula_sum "Si O2"
_cell_formula_units_Z 14
_cell_length_a 9.244773
_cell_length_b 14.922238
_cell_length_c 7.608656
_cell_angle_alpha 122.744401
_cell_angle_beta 109.884511
_cell_angle_gamma 111.917370
_cell_volume 589.179871
_symmetry_space_group_name_H-M "P -1"
_symmetry_group_IT_number 2
_symmetry_cell_setting 'triclinic'
loop_
_space_group_symop_operation_xyz
x,y,z
-x,-y,-z
loop_
_atom_site_type_symbol
_atom_site_label
_atom_site_fract_x
_atom_site_fract_y
_atom_site_fract_z
Si Si1 0.162262 0.188021 0.362464
Si Si2 0.802158 0.601865 0.180984
Si Si3 0.625954 0.310104 0.650262
Si Si4 0.031905 0.931445 0.206968
Si Si5 0.164411 0.787616 0.246641
Si Si6 0.427549 0.381460 0.193309
Si Si7 0.856043 0.486991 0.573240
O O1 0.184749 0.322650 0.559761
O O2 0.386567 0.241412 0.452709
O O3 0.986830 0.097006 0.040024
O O4 0.093455 0.085822 0.398024
O O5 0.028814 0.723119 0.302383
O O6 0.737107 0.447322 0.977635
O O7 0.633346 0.582852 0.966857
O O8 0.643370 0.201313 0.624345
O O9 0.762849 0.384661 0.604295
O O10 0.792120 0.787399 0.024860
O O11 0.193725 0.924347 0.349226
O O12 0.000109 0.653702 0.893185
O O13 0.500000 0.500000 0.500000
O O14 0.634400 0.408240 0.298425
O O15 0.000000 0.500000 0.500000
#
# Coordination Sequence:
#
# PCOD9004293 Si02
#       7
#     2   2   2   2   2   2   2
#     4  11  23  39  69  92 125 168 213 257 311 375
#     4  10  21  37  65  94 121 161 214 263 310 364
#     4  11  22  41  60  98 130 160 205 266 310 375
#     4  10  22  42  65  90 128 168 212 254 314 373
#     4  10  23  39  61  92 132 162 206 259 316 367
#     4  11  18  39  64  91 123 162 210 267 303 365
#     4  11  22  36  62  93 127 164 205 260 318 368
#
# _framework density 23.761845999999998
#
# number of rings (size 3 to 8) (size 9 to 14) (size 15 to 20)
#    0.000    1.429    5.714    2.143    2.000    5.143 
#    0.000    0.000    3.143    2.571    0.000    0.000 
#    0.000    0.000    0.000    0.000    0.000    0.000 
#
# Total GULP energy -78251.066402 kJ/mol
# GULP energy per Si atom -5589.361886 kJ/mol
# Density = 2.370776 g / cm^3
# Si number density = 23.761846 Si / 1000 Ang^3
#
#
#
# Elastic Constant Matrix: (Units=GPa)
#
#
# Indices 1 2 3 4 5 6 
#
# 1 143.7364 36.3109 19.5907 2.8843 -0.6075 -5.1432
# 2 36.3109 104.4605 8.8529 9.4780 1.5336 -10.3204
# 3 19.5907 8.8529 41.7046 -5.4815 -10.9944 10.0276
# 4 2.8843 9.4780 -5.4815 36.6362 2.8143 9.5621
# 5 -0.6075 1.5336 -10.9944 2.8143 24.3380 -2.4346
# 6 -5.1432 -10.3204 10.0276 9.5621 -2.4346 43.4180
#
#
#
# Elastic Compliance Matrix: (Units=1/GPa)
#
#
# Indices 1 2 3 4 5 6 
#
# 1 0.008161 -0.002215 -0.004211 -0.001009 -0.001286 0.001563
# 2 -0.002215 0.011426 -0.003277 -0.004228 -0.001360 0.004065
# 3 -0.004211 -0.003277 0.033609 0.007791 0.013382 -0.010005
# 4 -0.001009 -0.004228 0.007791 0.032348 -0.000990 -0.010104
# 5 -0.001286 -0.001360 0.013382 -0.000990 0.047231 -0.000700
# 6 0.001563 0.004065 -0.010005 -0.010104 -0.000700 0.028680
#
#
# Mechanical properties :
#
#
# Convention : Reuss Voigt Hill
#
# Bulk Modulus (GPa) = 29.59334 46.60118 38.09726
# Shear Modulus (GPa) = 26.02469 35.88824 30.95646
#
# Velocity S-wave (km/s) = 3.31302 3.89051 3.61332
# Velocity P-wave (km/s) = 5.20730 6.31156 5.78583
#
# Compressibility (1/GPa) = 0.03379139
#
# Stress axis : x y z
#
# Youngs Moduli (GPa) = 122.52702 87.51979 29.75352
#
# Poissons Ratio (x) = 0.19388 0.12529
# Poissons Ratio (y) = 0.27143 0.09749
# Poissons Ratio (z) = 0.51595 0.28676
#
# Static dielectric constant tensor:
#      x y z
#    x 1.945500 0.001680 -0.007600 
#    y 0.001680 2.019160 0.035450 
#    z -0.007600 0.035450 1.886480 
# 
# From -- ./inp_files/204460.got.cif
#   From: 2010.05.17/outbox.cif.g08.bks.cpg/sg2_103_cif.got.tgz:204460.got - 2010.06.03 11:33:40.
