data_PCOD9004364
_publ_section_title
;
Structure prediction by ZEFSAII (Michael W. Deem and Ramdas Pophale) SiO2 
 PCOD9004364
Probable space group: P -1
;
_chemical_formula_sum "Si O2"
_cell_formula_units_Z 14
_cell_length_a 11.409205
_cell_length_b 7.415959
_cell_length_c 16.735495
_cell_angle_alpha 77.180026
_cell_angle_beta 149.567410
_cell_angle_gamma 122.289273
_cell_volume 503.366954
_symmetry_space_group_name_H-M "P -1"
_symmetry_group_IT_number 2
_symmetry_cell_setting 'triclinic'
loop_
_space_group_symop_operation_xyz
x,y,z
-x,-y,-z
loop_
_atom_site_type_symbol
_atom_site_label
_atom_site_fract_x
_atom_site_fract_y
_atom_site_fract_z
Si Si1 0.780022 0.628320 0.351618
Si Si2 0.376807 0.252496 0.291733
Si Si3 0.159406 0.744311 0.983074
Si Si4 0.515526 0.965378 0.320271
Si Si5 0.473275 0.720105 0.912581
Si Si6 0.117170 0.507763 0.311108
Si Si7 0.988280 0.006433 0.316962
O O1 0.630755 0.508084 0.361405
O O2 0.561385 0.404592 0.178851
O O3 0.151174 0.768459 0.548777
O O4 0.813520 0.855344 0.313239
O O5 0.319906 0.030084 0.233166
O O6 0.539104 0.277169 0.467162
O O7 0.086337 0.227323 0.140712
O O8 0.988433 0.518985 0.839972
O O9 0.314883 0.753908 0.154226
O O10 0.439656 0.016758 0.077251
O O11 0.678844 0.919029 0.483936
O O12 0.135468 0.528226 0.778012
O O13 0.752388 0.807875 0.127644
O O14 0.059471 0.256440 0.315311
#
# Coordination Sequence:
#
# PCOD9004364 Si02
#       7
#     2   2   2   2   2   2   2
#     4  10  21  37  66  89 121 150 212 243 297 346
#     4  12  22  40  64  91 121 163 196 249 299 363
#     4  11  23  38  65  90 121 159 204 241 304 359
#     4  10  21  40  64  90 118 157 207 247 287 356
#     4  11  20  42  66  88 117 163 204 246 293 361
#     4  11  23  43  64  87 121 163 201 246 299 360
#     4   9  22  37  64  90 122 150 208 251 293 345
#
# _framework density 27.812714
#
# number of rings (size 3 to 8) (size 9 to 14) (size 15 to 20)
#    0.857    0.571    2.857    4.286    0.000    0.571 
#    2.571    3.571    6.286    0.000    0.000    0.000 
#    0.000    0.000    0.000    0.000    0.000    0.000 
#
# Total GULP energy -78481.701415 kJ/mol
# GULP energy per Si atom -5605.835815 kJ/mol
# Density = 2.774941 g / cm^3
# Si number density = 27.812714 Si / 1000 Ang^3
#
#
#
# Elastic Constant Matrix: (Units=GPa)
#
#
# Indices 1 2 3 4 5 6 
#
# 1 126.2074 10.4342 48.8917 -17.9219 -22.2858 14.5247
# 2 10.4342 74.9845 -3.7533 -15.8234 -3.4935 2.7796
# 3 48.8917 -3.7533 177.0192 -11.6174 -37.1158 0.1533
# 4 -17.9219 -15.8234 -11.6174 42.4368 -0.4775 -2.5240
# 5 -22.2858 -3.4935 -37.1158 -0.4775 55.2832 -14.8223
# 6 14.5247 2.7796 0.1533 -2.5240 -14.8223 40.8976
#
#
#
# Elastic Compliance Matrix: (Units=1/GPa)
#
#
# Indices 1 2 3 4 5 6 
#
# 1 0.009887 -0.000621 -0.002145 0.003223 0.001838 -0.002596
# 2 -0.000621 0.014725 0.001174 0.005574 0.001549 0.000121
# 3 -0.002145 0.001174 0.007401 0.001764 0.004872 0.002529
# 4 0.003223 0.005574 0.001764 0.027611 0.003456 0.001427
# 5 0.001838 0.001549 0.004872 0.003456 0.024454 0.008299
# 6 -0.002596 0.000121 0.002529 0.001427 0.008299 0.028451
#
#
# Mechanical properties :
#
#
# Convention : Reuss Voigt Hill
#
# Bulk Modulus (GPa) = 34.68546 54.37291 44.52918
# Shear Modulus (GPa) = 39.89722 49.23278 44.56500
#
# Velocity S-wave (km/s) = 3.79158 4.21188 4.00725
# Velocity P-wave (km/s) = 5.62728 6.57612 6.12012
#
# Compressibility (1/GPa) = 0.02883052
#
# Stress axis : x y z
#
# Youngs Moduli (GPa) = 101.14668 67.91025 135.10967
#
# Poissons Ratio (x) = 0.04218 0.28976
# Poissons Ratio (y) = 0.06282 -0.15866
# Poissons Ratio (z) = 0.21692 -0.07975
#
# Static dielectric constant tensor:
#      x y z
#    x 2.157430 0.069620 0.010210 
#    y 0.069620 2.183960 0.014720 
#    z 0.010210 0.014720 2.132460 
# 
# From -- ./inp_files/565985.got.cif
#   From: 2010.05.17/outbox.cif.g08.bks.cpg/sg2_283_cif.got.tgz:565985.got - 2010.06.03 11:33:40.
