data_PCOD9004305
_publ_section_title
;
Structure prediction by ZEFSAII (Michael W. Deem and Ramdas Pophale) SiO2 
 PCOD9004305
Probable space group: P -1
;
_chemical_formula_sum "Si O2"
_cell_formula_units_Z 14
_cell_length_a 7.342226
_cell_length_b 23.824974
_cell_length_c 11.445722
_cell_angle_alpha 30.974406
_cell_angle_beta 37.815122
_cell_angle_gamma 29.416691
_cell_volume 498.680046
_symmetry_space_group_name_H-M "P -1"
_symmetry_group_IT_number 2
_symmetry_cell_setting 'triclinic'
loop_
_space_group_symop_operation_xyz
x,y,z
-x,-y,-z
loop_
_atom_site_type_symbol
_atom_site_label
_atom_site_fract_x
_atom_site_fract_y
_atom_site_fract_z
Si Si1 0.640379 0.514777 0.779165
Si Si2 0.599498 0.642376 0.912052
Si Si3 0.720879 0.204804 0.959491
Si Si4 0.303057 0.085867 0.293012
Si Si5 0.043738 0.815061 0.474233
Si Si6 0.508995 0.098082 0.929791
Si Si7 0.086362 0.333816 0.527686
O O1 0.936268 0.543624 0.610980
O O2 0.292426 0.652514 0.645496
O O3 0.500000 0.500000 0.000000
O O4 0.695889 0.390573 0.903163
O O5 0.693160 0.687042 0.666292
O O6 0.444460 0.741960 0.922529
O O7 0.000000 0.500000 0.000000
O O8 0.752751 0.322975 0.684715
O O9 0.448024 0.174754 0.096163
O O10 0.137756 0.056058 0.012060
O O11 0.987840 0.139302 0.454764
O O12 0.624503 0.924803 0.445034
O O13 0.263234 0.093549 0.160576
O O14 0.265855 0.850762 0.218747
O O15 0.298259 0.210427 0.734864
#
# Coordination Sequence:
#
# PCOD9004305 Si02
#       7
#     2   2   2   2   2   2   2
#     4   9  20  41  61  85 122 163 207 246 296 363
#     4  11  25  43  64  90 124 164 212 257 294 362
#     4  11  23  39  63  96 125 159 203 253 313 366
#     4  10  21  37  65  95 121 157 204 255 310 369
#     4   9  18  36  62  89 117 158 201 248 305 351
#     4  10  22  40  64  95 126 157 202 255 313 376
#     4  10  24  42  63  90 125 164 202 255 312 363
#
# _framework density 28.074112
#
# number of rings (size 3 to 8) (size 9 to 14) (size 15 to 20)
#    0.000    2.000    0.000    3.000    0.000   13.143 
#    0.000    4.286    0.000    0.000    0.000    0.000 
#    0.000    0.000    0.000    0.000    0.000    0.000 
#
# Total GULP energy -78252.316648 kJ/mol
# GULP energy per Si atom -5589.451189 kJ/mol
# Density = 2.801021 g / cm^3
# Si number density = 28.074112 Si / 1000 Ang^3
#
#
#
# Elastic Constant Matrix: (Units=GPa)
#
#
# Indices 1 2 3 4 5 6 
#
# 1 80.0899 47.1613 55.8526 -8.6453 0.9712 6.4975
# 2 47.1613 98.1571 39.2450 8.3649 30.1374 19.7871
# 3 55.8526 39.2450 185.6097 14.0927 -7.7787 17.2239
# 4 -8.6453 8.3649 14.0927 50.6870 16.1986 2.1235
# 5 0.9712 30.1374 -7.7787 16.1986 78.4242 -4.5769
# 6 6.4975 19.7871 17.2239 2.1235 -4.5769 41.4111
#
#
#
# Elastic Compliance Matrix: (Units=1/GPa)
#
#
# Indices 1 2 3 4 5 6 
#
# 1 0.022982 -0.010905 -0.005342 0.006315 0.002291 0.003756
# 2 -0.010905 0.019688 -0.000249 -0.002307 -0.007463 -0.008299
# 3 -0.005342 -0.000249 0.007537 -0.003367 0.001497 -0.001840
# 4 0.006315 -0.002307 -0.003367 0.023536 -0.004398 -0.000181
# 5 0.002291 -0.007463 0.001497 -0.004398 0.016921 0.004679
# 6 0.003756 -0.008299 -0.001840 -0.000181 0.004679 0.028816
#
#
# Mechanical properties :
#
#
# Convention : Reuss Voigt Hill
#
# Bulk Modulus (GPa) = 58.08798 72.04161 65.06480
# Shear Modulus (GPa) = 31.60382 48.87764 40.24073
#
# Velocity S-wave (km/s) = 3.35883 4.17708 3.79010
# Velocity P-wave (km/s) = 5.98148 6.99864 6.50996
#
# Compressibility (1/GPa) = 0.01721526
#
# Stress axis : x y z
#
# Youngs Moduli (GPa) = 43.51251 50.79295 132.68248
#
# Poissons Ratio (x) = 0.55390 0.70877
# Poissons Ratio (y) = 0.47450 0.03300
# Poissons Ratio (z) = 0.23244 0.01263
#
# Static dielectric constant tensor:
#      x y z
#    x 2.469470 0.014310 -0.110530 
#    y 0.014310 2.112010 -0.009740 
#    z -0.110530 -0.009740 2.129840 
# 
# From -- ./inp_files/406865.got.cif
#   From: 2010.05.17/outbox.cif.g08.bks.cpg/sg2_204_cif.got.tgz:406865.got - 2010.06.03 11:33:40.
