data_PCOD9004486
_publ_section_title
;
Structure prediction by ZEFSAII (Michael W. Deem and Ramdas Pophale) SiO2 
 PCOD9004486
Probable space group: P -1
;
_chemical_formula_sum "Si O2"
_cell_formula_units_Z 16
_cell_length_a 12.901781
_cell_length_b 18.972622
_cell_length_c 9.503093
_cell_angle_alpha 66.978526
_cell_angle_beta 139.116103
_cell_angle_gamma 143.038931
_cell_volume 769.745568
_symmetry_space_group_name_H-M "P -1"
_symmetry_group_IT_number 2
_symmetry_cell_setting 'triclinic'
loop_
_space_group_symop_operation_xyz
x,y,z
-x,-y,-z
loop_
_atom_site_type_symbol
_atom_site_label
_atom_site_fract_x
_atom_site_fract_y
_atom_site_fract_z
Si Si1 0.712767 0.653908 0.259373
Si Si2 0.672398 0.349628 0.117443
Si Si3 0.248661 0.047939 0.286909
Si Si4 0.742140 0.942610 0.208716
Si Si5 0.726425 0.044648 0.362753
Si Si6 0.681469 0.645516 0.902920
Si Si7 0.225340 0.929909 0.099287
Si Si8 0.311424 0.650355 0.534539
O O1 0.533257 0.508773 0.240353
O O2 0.018581 0.793108 0.535814
O O3 0.518401 0.650748 0.081119
O O4 0.766878 0.664389 0.138892
O O5 0.704046 0.338264 0.322735
O O6 0.991134 0.500143 0.274129
O O7 0.508439 0.216075 0.972881
O O8 0.524744 0.212084 0.473302
O O9 0.141901 0.963320 0.383932
O O10 0.323532 0.013393 0.276150
O O11 0.000000 0.000000 0.000000
O O12 0.633777 0.960868 0.196478
O O13 0.000000 0.000000 0.500000
O O14 0.860228 0.037362 0.122319
O O15 0.472886 0.983141 0.234202
O O16 0.511600 0.656969 0.718131
O O17 0.961428 0.769618 0.998553
#
# Coordination Sequence:
#
# PCOD9004486 Si02
#       8
#     2   2   2   2   2   2   2   2
#     4  10  21  39  63 100 136 169 212 269 342 392
#     4  10  21  40  66  97 127 176 220 272 331 394
#     4  12  21  41  70 100 131 169 229 279 323 390
#     4  12  25  46  70  92 134 184 227 274 334 405
#     4  12  26  41  68 100 134 179 220 279 338 397
#     4  10  22  38  65  98 136 166 212 279 336 389
#     4  12  25  42  68 101 132 174 232 275 332 394
#     4  10  21  37  68 100 129 164 224 281 326 386
#
# _framework density 20.786089
#
# number of rings (size 3 to 8) (size 9 to 14) (size 15 to 20)
#    0.000    1.000    5.000    2.250    3.500    1.000 
#    0.000    1.250    0.000    0.000    0.000    0.000 
#    0.000    0.000    0.000    0.000    0.000    0.000 
#
# Total GULP energy -89522.290287 kJ/mol
# GULP energy per Si atom -5595.143143 kJ/mol
# Density = 2.073878 g / cm^3
# Si number density = 20.786089 Si / 1000 Ang^3
#
#
#
# Elastic Constant Matrix: (Units=GPa)
#
#
# Indices 1 2 3 4 5 6 
#
# 1 73.8166 21.2294 26.5354 23.8123 -8.6919 -16.3998
# 2 21.2294 140.4444 43.9695 41.7094 -8.9010 -9.3061
# 3 26.5354 43.9695 85.0416 31.3286 -2.7348 -4.2685
# 4 23.8123 41.7094 31.3286 50.4523 1.3886 -6.0523
# 5 -8.6919 -8.9010 -2.7348 1.3886 32.5078 11.0829
# 6 -16.3998 -9.3061 -4.2685 -6.0523 11.0829 20.4348
#
#
#
# Elastic Compliance Matrix: (Units=1/GPa)
#
#
# Indices 1 2 3 4 5 6 
#
# 1 0.019603 0.000957 -0.003617 -0.006267 0.001037 0.012994
# 2 0.000957 0.010212 -0.002828 -0.007057 0.002677 0.001286
# 3 -0.003617 -0.002828 0.016707 -0.006752 0.001071 -0.003282
# 4 -0.006267 -0.007057 -0.006752 0.033484 -0.006988 0.004054
# 5 0.001037 0.002677 0.001071 -0.006988 0.039371 -0.021148
# 6 0.012994 0.001286 -0.003282 0.004054 -0.021148 0.071935
#
#
# Mechanical properties :
#
#
# Convention : Reuss Voigt Hill
#
# Bulk Modulus (GPa) = 28.13312 53.64124 40.88718
# Shear Modulus (GPa) = 23.34968 34.51685 28.93327
#
# Velocity S-wave (km/s) = 3.35525 4.07944 3.73494
# Velocity P-wave (km/s) = 5.34549 6.93191 6.18974
#
# Compressibility (1/GPa) = 0.03554529
#
# Stress axis : x y z
#
# Youngs Moduli (GPa) = 51.01340 97.92702 59.85501
#
# Poissons Ratio (x) = -0.09374 0.21651
# Poissons Ratio (y) = -0.04883 0.16927
# Poissons Ratio (z) = 0.18453 0.27694
#
# Static dielectric constant tensor:
#      x y z
#    x 1.734490 -0.015780 0.011410 
#    y -0.015780 1.747220 -0.020960 
#    z 0.011410 -0.020960 1.763480 
# 
# From -- ./inp_files/261479.got.cif
#   From: 2010.05.17/outbox.cif.g08.bks.cpg/sg2_131_cif.got.tgz:261479.got - 2010.06.03 11:33:40.
