data_PCOD9004955
_publ_section_title
;
Structure prediction by ZEFSAII (Michael W. Deem and Ramdas Pophale) SiO2 
 PCOD9004955
Probable space group: P -1
;
_chemical_formula_sum "Si O2"
_cell_formula_units_Z 12
_cell_length_a 4.992217
_cell_length_b 21.133111
_cell_length_c 5.261399
_cell_angle_alpha 84.862173
_cell_angle_beta 62.910895
_cell_angle_gamma 80.497135
_cell_volume 487.343414
_symmetry_space_group_name_H-M "P -1"
_symmetry_group_IT_number 2
_symmetry_cell_setting 'triclinic'
loop_
_space_group_symop_operation_xyz
x,y,z
-x,-y,-z
loop_
_atom_site_type_symbol
_atom_site_label
_atom_site_fract_x
_atom_site_fract_y
_atom_site_fract_z
Si Si1 0.291209 0.383388 0.843517
Si Si2 0.959571 0.191538 0.235619
Si Si3 0.683975 0.077152 0.202575
Si Si4 0.930887 0.428822 0.494473
Si Si5 0.405456 0.760903 0.123125
Si Si6 0.093449 0.052288 0.630276
O O1 0.427100 0.576412 0.333486
O O2 0.446983 0.312225 0.870346
O O3 0.101166 0.385607 0.663085
O O4 0.073038 0.408774 0.164193
O O5 0.769793 0.228251 0.071923
O O6 0.305242 0.200679 0.034187
O O7 0.891349 0.117969 0.262419
O O8 0.820026 0.219289 0.550955
O O9 0.342328 0.095501 0.429884
O O10 0.731026 0.998929 0.221490
O O11 0.794993 0.089386 0.869745
O O12 0.000000 0.500000 0.500000
O O13 0.000000 0.000000 0.500000
#
# Coordination Sequence:
#
# PCOD9004955 Si02
#       6
#     2   2   2   2   2   2
#     4  12  24  44  67  96 139 173 221 268 326 383
#     4  12  26  44  69  96 132 168 229 266 328 381
#     4  10  23  37  58  89 114 161 200 268 308 395
#     4  12  24  42  69 101 134 175 219 270 324 385
#     4  12  26  45  68  98 130 180 217 272 322 387
#     4  10  21  38  60  83 119 152 205 247 340 372
#
# _framework density 24.623291999999999
#
# number of rings (size 3 to 8) (size 9 to 14) (size 15 to 20)
#    0.000    0.667    0.000    8.000    4.667    0.000 
#    0.000    0.000    0.000    0.000    0.000    0.000 
#    0.000    0.000    0.000    0.000    0.000    0.000 
#
# Total GULP energy -67203.434885 kJ/mol
# GULP energy per Si atom -5600.286240 kJ/mol
# Density = 2.456725 g / cm^3
# Si number density = 24.623292 Si / 1000 Ang^3
#
#
#
# Elastic Constant Matrix: (Units=GPa)
#
#
# Indices 1 2 3 4 5 6 
#
# 1 102.0340 -28.6002 48.6233 -18.7984 -12.3397 1.0950
# 2 -28.6002 77.6540 10.2628 -7.2566 -9.5892 -6.7591
# 3 48.6233 10.2628 207.1155 9.1620 -26.1855 17.1525
# 4 -18.7984 -7.2566 9.1620 40.0724 1.6967 -0.4151
# 5 -12.3397 -9.5892 -26.1855 1.6967 41.3724 -12.0524
# 6 1.0950 -6.7591 17.1525 -0.4151 -12.0524 40.7361
#
#
#
# Elastic Compliance Matrix: (Units=1/GPa)
#
#
# Indices 1 2 3 4 5 6 
#
# 1 0.016988 0.008875 -0.004625 0.010465 0.005101 0.004579
# 2 0.008875 0.018636 -0.003049 0.008023 0.006496 0.006141
# 3 -0.004625 -0.003049 0.006679 -0.004342 0.001505 -0.002793
# 4 0.010465 0.008023 -0.004342 0.032264 0.002018 0.003804
# 5 0.005101 0.006496 0.001505 0.002018 0.030820 0.009446
# 6 0.004579 0.006141 -0.002793 0.003804 0.009446 0.029454
#
#
# Mechanical properties :
#
#
# Convention : Reuss Voigt Hill
#
# Bulk Modulus (GPa) = 22.36976 49.70837 36.03906
# Shear Modulus (GPa) = 33.93511 48.20402 41.06957
#
# Velocity S-wave (km/s) = 3.71640 4.42934 4.08844
# Velocity P-wave (km/s) = 5.24595 6.81103 6.07907
#
# Compressibility (1/GPa) = 0.04470322
#
# Stress axis : x y z
#
# Youngs Moduli (GPa) = 58.86460 53.66060 149.72750
#
# Poissons Ratio (x) = -0.47621 0.69252
# Poissons Ratio (y) = -0.52239 0.45652
# Poissons Ratio (z) = 0.27226 0.16361
#
# Static dielectric constant tensor:
#      x y z
#    x 2.019740 -0.093920 0.068640 
#    y -0.093920 2.013190 -0.081870 
#    z 0.068640 -0.081870 2.040180 
# 
# From -- ./inp_files/9579.got.cif
#   From: 2010.05.17/outbox.cif.g08.bks.cpg/sg2_5_cif.got.tgz:9579.got - 2010.06.03 11:33:40.
