data_PCOD9004112
_publ_section_title
;
Structure prediction by ZEFSAII (Michael W. Deem and Ramdas Pophale) SiO2 
 PCOD9004112
Probable space group: P -1
;
_chemical_formula_sum "Si O2"
_cell_formula_units_Z 16
_cell_length_a 11.645969
_cell_length_b 14.208959
_cell_length_c 15.031780
_cell_angle_alpha 140.855893
_cell_angle_beta 133.680614
_cell_angle_gamma 30.794750
_cell_volume 801.606443
_symmetry_space_group_name_H-M "P -1"
_symmetry_group_IT_number 2
_symmetry_cell_setting 'triclinic'
loop_
_space_group_symop_operation_xyz
x,y,z
-x,-y,-z
loop_
_atom_site_type_symbol
_atom_site_label
_atom_site_fract_x
_atom_site_fract_y
_atom_site_fract_z
Si Si1 0.417987 0.880840 0.931915
Si Si2 0.029324 0.001849 0.910331
Si Si3 0.707876 0.479581 0.091167
Si Si4 0.729849 0.734465 0.153518
Si Si5 0.753812 0.953987 0.612295
Si Si6 0.026660 0.480980 0.357905
Si Si7 0.525358 0.896208 0.579111
Si Si8 0.777402 0.666220 0.842335
O O1 0.275892 0.856281 0.894313
O O2 0.551559 0.739136 0.812123
O O3 0.609168 0.805375 0.047517
O O4 0.272298 0.125843 0.012960
O O5 0.901400 0.964099 0.757708
O O6 0.000000 0.000000 0.000000
O O7 0.909442 0.236482 0.996327
O O8 0.668711 0.630781 0.106199
O O9 0.824325 0.493089 0.246724
O O10 0.500000 0.500000 0.000000
O O11 0.997738 0.549577 0.151624
O O12 0.627716 0.944173 0.305088
O O13 0.575169 0.006478 0.624821
O O14 0.908594 0.716588 0.485233
O O15 0.619361 0.109592 0.569797
O O16 0.225346 0.319245 0.416290
O O17 0.161426 0.389720 0.269790
#
# Coordination Sequence:
#
# PCOD9004112 Si02
#       8
#     2   2   2   2   2   2   2   2
#     4  11  21  39  62  92 121 161 208 254 314 359
#     4  12  24  42  62  92 129 160 200 261 321 367
#     4  11  21  35  60  90 127 160 199 254 307 366
#     4  11  19  38  61  91 124 157 203 257 309 361
#     4  11  24  38  60  88 125 165 205 252 311 377
#     4  11  21  42  61  89 122 164 216 250 308 368
#     4  11  21  37  62  87 123 166 207 247 306 375
#     4  10  21  37  64  91 118 161 211 260 293 372
#
# _framework density 19.959917999999998
#
# number of rings (size 3 to 8) (size 9 to 14) (size 15 to 20)
#    0.000    1.000    6.250    3.750    1.750    0.000 
#    2.250    0.625    0.000    0.750    0.000    0.000 
#    0.000    0.000    0.000    0.000    0.000    0.000 
#
# Total GULP energy -89149.857212 kJ/mol
# GULP energy per Si atom -5571.866076 kJ/mol
# Density = 1.991449 g / cm^3
# Si number density = 19.959918 Si / 1000 Ang^3
#
#
#
# Elastic Constant Matrix: (Units=GPa)
#
#
# Indices 1 2 3 4 5 6 
#
# 1 88.9007 19.7315 22.3587 -7.3465 -13.4652 -21.6844
# 2 19.7315 126.6951 37.9657 -14.2160 -2.7332 -7.9504
# 3 22.3587 37.9657 104.8371 -13.0001 -1.2299 -10.7983
# 4 -7.3465 -14.2160 -13.0001 38.7448 -4.9252 -6.8082
# 5 -13.4652 -2.7332 -1.2299 -4.9252 24.7680 3.5467
# 6 -21.6844 -7.9504 -10.7983 -6.8082 3.5467 26.7726
#
#
#
# Elastic Compliance Matrix: (Units=1/GPa)
#
#
# Indices 1 2 3 4 5 6 
#
# 1 0.016630 -0.000573 -0.001141 0.005933 0.008202 0.013261
# 2 -0.000573 0.009231 -0.002678 0.002807 0.000875 0.001795
# 3 -0.001141 -0.002678 0.011553 0.003319 -0.000228 0.003815
# 4 0.005933 0.002807 0.003319 0.032608 0.008152 0.014190
# 5 0.008202 0.000875 -0.000228 0.008152 0.046143 0.002771
# 6 0.013261 0.001795 0.003815 0.014190 0.002771 0.053405
#
#
# Mechanical properties :
#
#
# Convention : Reuss Voigt Hill
#
# Bulk Modulus (GPa) = 34.92792 53.39386 44.16089
# Shear Modulus (GPa) = 26.61018 34.08221 30.34619
#
# Velocity S-wave (km/s) = 3.65524 4.13671 3.90341
# Velocity P-wave (km/s) = 5.94570 7.04451 6.51830
#
# Compressibility (1/GPa) = 0.02863039
#
# Stress axis : x y z
#
# Youngs Moduli (GPa) = 60.13277 108.33062 86.55424
#
# Poissons Ratio (x) = 0.06209 0.09879
# Poissons Ratio (y) = 0.03446 0.23175
# Poissons Ratio (z) = 0.06863 0.29006
#
# Static dielectric constant tensor:
#      x y z
#    x 1.772730 -0.034130 0.001970 
#    y -0.034130 1.787090 -0.037460 
#    z 0.001970 -0.037460 1.756880 
# 
# From -- ./inp_files/522525.got.cif
#   From: 2010.05.17/outbox.cif.g08.bks.cpg/sg2_262_cif.got.tgz:522525.got - 2010.06.03 11:33:40.
