data_PCOD9004617
_publ_section_title
;
Structure prediction by ZEFSAII (Michael W. Deem and Ramdas Pophale) SiO2 
 PCOD9004617
Probable space group: P -1
;
_chemical_formula_sum "Si O2"
_cell_formula_units_Z 16
_cell_length_a 6.235383
_cell_length_b 17.332597
_cell_length_c 19.967834
_cell_angle_alpha 159.390028
_cell_angle_beta 114.885905
_cell_angle_gamma 74.140567
_cell_volume 638.064329
_symmetry_space_group_name_H-M "P -1"
_symmetry_group_IT_number 2
_symmetry_cell_setting 'triclinic'
loop_
_space_group_symop_operation_xyz
x,y,z
-x,-y,-z
loop_
_atom_site_type_symbol
_atom_site_label
_atom_site_fract_x
_atom_site_fract_y
_atom_site_fract_z
Si Si1 0.288437 0.008482 0.680108
Si Si2 0.647630 0.247496 0.798063
Si Si3 0.080933 0.292600 0.972106
Si Si4 0.182573 0.125349 0.563889
Si Si5 0.217262 0.485239 0.427277
Si Si6 0.861845 0.107824 0.167964
Si Si7 0.641460 0.604628 0.767599
Si Si8 0.724538 0.875568 0.671566
O O1 0.465520 0.922255 0.679459
O O2 0.009091 0.822896 0.470916
O O3 0.454037 0.094302 0.704645
O O4 0.256674 0.230875 0.892154
O O5 0.904013 0.407391 0.002530
O O6 0.452155 0.316019 0.781016
O O7 0.744286 0.077402 0.627976
O O8 0.888785 0.033468 0.761576
O O9 0.230189 0.397180 0.144784
O O10 0.000000 0.000000 0.500000
O O11 0.500000 0.500000 0.500000
O O12 0.984799 0.255527 0.238328
O O13 0.219024 0.470246 0.335711
O O14 0.188291 0.712653 0.641267
O O15 0.098595 0.047294 0.178498
O O16 0.636626 0.852923 0.941051
O O17 0.361229 0.404044 0.574433
#
# Coordination Sequence:
#
# PCOD9004617 Si02
#       8
#     2   2   2   2   2   2   2   2
#     4   9  17  32  55  80 122 158 198 251 291 349
#     4   8  14  28  49  84 120 155 207 243 292 357
#     4   9  20  36  53  85 121 156 202 250 294 355
#     4   8  13  24  51  85 117 161 201 242 300 346
#     4  11  23  45  65  88 120 150 196 251 297 361
#     4  10  24  44  62  89 120 150 197 250 297 361
#     4  11  23  40  63  88 117 162 195 243 305 354
#     4  10  21  38  55  86 118 153 201 244 292 359
#
# _framework density 25.075839999999999
#
# number of rings (size 3 to 8) (size 9 to 14) (size 15 to 20)
#    0.000    2.500    1.250    0.375    3.500    0.500 
#    9.000    0.000    0.000    0.750    0.000   78.750 
#    0.000    0.000    0.000    0.000    0.000    0.000 
#
# Total GULP energy -89269.575239 kJ/mol
# GULP energy per Si atom -5579.348452 kJ/mol
# Density = 2.501877 g / cm^3
# Si number density = 25.075840 Si / 1000 Ang^3
#
#
#
# Elastic Constant Matrix: (Units=GPa)
#
#
# Indices 1 2 3 4 5 6 
#
# 1 118.9799 36.5544 28.8118 -10.1210 -9.9851 0.9976
# 2 36.5544 51.1285 19.8034 -6.2950 -5.0693 2.8737
# 3 28.8118 19.8034 79.1625 -3.1071 5.2853 17.3750
# 4 -10.1210 -6.2950 -3.1071 53.6439 10.1364 0.8717
# 5 -9.9851 -5.0693 5.2853 10.1364 28.3324 -7.9737
# 6 0.9976 2.8737 17.3750 0.8717 -7.9737 38.6104
#
#
#
# Elastic Compliance Matrix: (Units=1/GPa)
#
#
# Indices 1 2 3 4 5 6 
#
# 1 0.011639 -0.006699 -0.003381 0.000395 0.004113 0.002560
# 2 -0.006699 0.026492 -0.004551 0.000977 0.003124 0.000872
# 3 -0.003381 -0.004551 0.017678 0.001610 -0.008503 -0.009322
# 4 0.000395 0.000977 0.001610 0.020513 -0.008157 -0.002955
# 5 0.004113 0.003124 -0.008503 -0.008157 0.045486 0.013066
# 6 0.002560 0.000872 -0.009322 -0.002955 0.013066 0.032729
#
#
# Mechanical properties :
#
#
# Convention : Reuss Voigt Hill
#
# Bulk Modulus (GPa) = 37.66936 46.62336 42.14636
# Shear Modulus (GPa) = 25.95414 35.05741 30.50578
#
# Velocity S-wave (km/s) = 3.22067 3.74311 3.49168
# Velocity P-wave (km/s) = 5.37448 6.10856 5.75324
#
# Compressibility (1/GPa) = 0.02654677
#
# Stress axis : x y z
#
# Youngs Moduli (GPa) = 85.91708 37.74766 56.56687
#
# Poissons Ratio (x) = 0.25288 0.19127
# Poissons Ratio (y) = 0.57557 0.25742
# Poissons Ratio (z) = 0.29051 0.17178
#
# Static dielectric constant tensor:
#      x y z
#    x 1.954760 -0.064040 0.028520 
#    y -0.064040 2.062810 0.004320 
#    z 0.028520 0.004320 2.064040 
# 
# From -- ./inp_files/584346.got.cif
#   From: 2010.05.17/outbox.cif.g08.bks.cpg/sg2_293_cif.got.tgz:584346.got - 2010.06.03 11:33:40.
