data_PCOD9004591
_publ_section_title
;
Structure prediction by ZEFSAII (Michael W. Deem and Ramdas Pophale) SiO2 
 PCOD9004591
Probable space group: P -1
;
_chemical_formula_sum "Si O2"
_cell_formula_units_Z 14
_cell_length_a 11.229155
_cell_length_b 28.595231
_cell_length_c 5.405169
_cell_angle_alpha 58.984979
_cell_angle_beta 58.092998
_cell_angle_gamma 29.640726
_cell_volume 722.182608
_symmetry_space_group_name_H-M "P -1"
_symmetry_group_IT_number 2
_symmetry_cell_setting 'triclinic'
loop_
_space_group_symop_operation_xyz
x,y,z
-x,-y,-z
loop_
_atom_site_type_symbol
_atom_site_label
_atom_site_fract_x
_atom_site_fract_y
_atom_site_fract_z
Si Si1 0.270836 0.811050 0.284851
Si Si2 0.954794 0.479801 0.356654
Si Si3 0.884696 0.350058 0.089798
Si Si4 0.832607 0.104598 0.333793
Si Si5 0.534822 0.536809 0.157513
Si Si6 0.679960 0.732793 0.345800
Si Si7 0.405171 0.650379 0.373899
O O1 0.142738 0.859402 0.563692
O O2 0.536540 0.752831 0.213548
O O3 0.320860 0.734979 0.334660
O O4 0.131773 0.885516 0.010324
O O5 0.140865 0.369491 0.454402
O O6 0.000000 0.500000 0.500000
O O7 0.667726 0.553329 0.477281
O O8 0.000000 0.500000 0.000000
O O9 0.808782 0.433449 0.056709
O O10 0.816474 0.321581 0.418021
O O11 0.680800 0.406092 0.951661
O O12 0.154492 0.269461 0.910942
O O13 0.544367 0.181199 0.462950
O O14 0.000000 0.000000 0.500000
O O15 0.500000 0.500000 0.500000
O O16 0.486490 0.612734 0.105054
#
# Coordination Sequence:
#
# PCOD9004591 Si02
#       7
#     2   2   2   2   2   2   2
#     4  10  23  39  67  95 117 155 206 249 315 360
#     4  12  24  36  56  87 127 161 201 249 291 345
#     4  10  21  38  53  85 121 169 205 242 291 361
#     4  10  22  43  68  91 119 152 202 261 315 369
#     4   9  19  32  52  74 120 168 206 227 284 342
#     4  10  23  37  61  91 121 159 212 248 301 369
#     4  11  23  36  59  88 128 166 199 252 292 359
#
# _framework density 19.385679
#
# number of rings (size 3 to 8) (size 9 to 14) (size 15 to 20)
#    0.857    0.857    1.429    3.857    6.000    2.286 
#    0.000    0.000    0.000    1.714    0.000    0.000 
#    0.000    0.000    0.000    0.000    0.000    0.000 
#
# Total GULP energy -77939.236691 kJ/mol
# GULP energy per Si atom -5567.088335 kJ/mol
# Density = 1.934156 g / cm^3
# Si number density = 19.385679 Si / 1000 Ang^3
#
#
#
# Elastic Constant Matrix: (Units=GPa)
#
#
# Indices 1 2 3 4 5 6 
#
# 1 59.5940 7.3675 8.6784 1.9536 0.5205 15.0811
# 2 7.3675 68.4959 2.4387 -15.5469 0.6674 3.8366
# 3 8.6784 2.4387 64.3608 -3.5929 9.0892 -9.4780
# 4 1.9536 -15.5469 -3.5929 29.1815 -3.0640 3.2987
# 5 0.5205 0.6674 9.0892 -3.0640 30.7124 8.0499
# 6 15.0811 3.8366 -9.4780 3.2987 8.0499 19.3920
#
#
#
# Elastic Compliance Matrix: (Units=1/GPa)
#
#
# Indices 1 2 3 4 5 6 
#
# 1 0.025038 -0.000691 -0.008725 0.001019 0.009544 -0.027735
# 2 -0.000691 0.017353 -0.001323 0.010136 0.002713 -0.006393
# 3 -0.008725 -0.001323 0.021863 -0.001358 -0.012497 0.023152
# 4 0.001019 0.010136 -0.001358 0.041841 0.007980 -0.013891
# 5 0.009544 0.002713 -0.012497 0.007980 0.045868 -0.034465
# 6 -0.027735 -0.006393 0.023152 -0.013891 -0.034465 0.102388
#
#
# Mechanical properties :
#
#
# Convention : Reuss Voigt Hill
#
# Bulk Modulus (GPa) = 23.37794 25.49110 24.43452
# Shear Modulus (GPa) = 17.23619 27.45491 22.34555
#
# Velocity S-wave (km/s) = 2.98505 3.76739 3.39880
# Velocity P-wave (km/s) = 4.89553 5.66589 5.29474
#
# Compressibility (1/GPa) = 0.04277536
#
# Stress axis : x y z
#
# Youngs Moduli (GPa) = 39.93886 57.62663 45.74037
#
# Poissons Ratio (x) = 0.03981 0.39910
# Poissons Ratio (y) = 0.02759 0.06052
# Poissons Ratio (z) = 0.34848 0.07625
#
# Static dielectric constant tensor:
#      x y z
#    x 1.727440 0.044650 0.025870 
#    y 0.044650 1.674740 0.047650 
#    z 0.025870 0.047650 1.814090 
# 
# From -- ./inp_files/84766.got.cif
#   From: 2010.05.17/outbox.cif.g08.bks.cpg/sg2_43_cif.got.tgz:84766.got - 2010.06.03 11:33:40.
