data_PCOD9004961
_publ_section_title
;
Structure prediction by ZEFSAII (Michael W. Deem and Ramdas Pophale) SiO2 
 PCOD9004961
Probable space group: P -1
;
_chemical_formula_sum "Si O2"
_cell_formula_units_Z 16
_cell_length_a 9.021457
_cell_length_b 7.622967
_cell_length_c 24.868907
_cell_angle_alpha 45.308351
_cell_angle_beta 137.706525
_cell_angle_gamma 146.309118
_cell_volume 620.481031
_symmetry_space_group_name_H-M "P -1"
_symmetry_group_IT_number 2
_symmetry_cell_setting 'triclinic'
loop_
_space_group_symop_operation_xyz
x,y,z
-x,-y,-z
loop_
_atom_site_type_symbol
_atom_site_label
_atom_site_fract_x
_atom_site_fract_y
_atom_site_fract_z
Si Si1 0.747214 0.982425 0.001892
Si Si2 0.681888 0.313432 0.667835
Si Si3 0.555343 0.806206 0.157565
Si Si4 0.303505 0.626582 0.745561
Si Si5 0.632525 0.443335 0.459586
Si Si6 0.132588 0.350027 0.238313
Si Si7 0.058852 0.804777 0.400467
Si Si8 0.650101 0.748929 0.908281
O O1 0.752161 0.971537 0.940132
O O2 0.643987 0.185222 0.939057
O O3 0.514692 0.614933 0.038142
O O4 0.062235 0.121012 0.075122
O O5 0.453629 0.359195 0.580309
O O6 0.767537 0.438945 0.726057
O O7 0.994084 0.527530 0.678673
O O8 0.528554 0.938797 0.702011
O O9 0.690906 0.660883 0.199303
O O10 0.367218 0.570136 0.207961
O O11 0.816839 0.178197 0.165737
O O12 0.432097 0.745940 0.814260
O O13 0.860479 0.411329 0.550269
O O14 0.768159 0.594975 0.403565
O O15 0.323863 0.078418 0.451755
O O16 0.078866 0.028018 0.312811
#
# Coordination Sequence:
#
# PCOD9004961 Si02
#       8
#     2   2   2   2   2   2   2   2
#     4  10  21  38  60  84 110 145 192 241 288 343
#     4  11  21  38  62  86 115 155 200 240 286 346
#     4  12  25  39  58  87 123 156 190 239 294 348
#     4  12  25  39  58  87 123 156 190 239 294 348
#     4   9  17  31  55  88 117 143 189 249 293 328
#     4  11  21  38  62  86 115 155 200 240 286 346
#     4   9  17  31  55  88 117 143 189 249 293 328
#     4  10  21  38  60  84 110 145 192 241 288 343
#
# _framework density 25.786442999999998
#
# number of rings (size 3 to 8) (size 9 to 14) (size 15 to 20)
#    0.000    1.500    0.000    7.500    0.000    3.000 
#    0.000    0.000    0.000    4.500    0.000    0.000 
#    0.000    0.000    0.000    0.000    0.000    0.000 
#
# Total GULP energy -89538.899135 kJ/mol
# GULP energy per Si atom -5596.181196 kJ/mol
# Density = 2.572775 g / cm^3
# Si number density = 25.786443 Si / 1000 Ang^3
#
#
#
# Elastic Constant Matrix: (Units=GPa)
#
#
# Indices 1 2 3 4 5 6 
#
# 1 67.0651 33.3756 24.4507 9.6805 12.1268 4.0703
# 2 33.3756 96.9108 14.8448 -7.5288 9.5377 24.8037
# 3 24.4507 14.8448 88.6325 -13.6218 23.1743 4.7215
# 4 9.6805 -7.5288 -13.6218 33.0412 1.7639 10.8672
# 5 12.1268 9.5377 23.1743 1.7639 46.0279 -1.5540
# 6 4.0703 24.8037 4.7215 10.8672 -1.5540 33.9382
#
#
#
# Elastic Compliance Matrix: (Units=1/GPa)
#
#
# Indices 1 2 3 4 5 6 
#
# 1 0.026165 -0.012679 -0.009095 -0.018820 0.001489 0.013488
# 2 -0.012679 0.020960 0.005044 0.017520 -0.004901 -0.020334
# 3 -0.009095 0.005044 0.018099 0.015148 -0.008692 -0.010362
# 4 -0.018820 0.017520 0.015148 0.056814 -0.009532 -0.031283
# 5 0.001489 -0.004901 -0.008692 -0.009532 0.027392 0.008919
# 6 0.013488 -0.020334 -0.010362 -0.031283 0.008919 0.054576
#
#
# Mechanical properties :
#
#
# Convention : Reuss Voigt Hill
#
# Bulk Modulus (GPa) = 31.48026 44.21671 37.84849
# Shear Modulus (GPa) = 20.15683 34.59729 27.37706
#
# Velocity S-wave (km/s) = 2.79889 3.66688 3.26188
# Velocity P-wave (km/s) = 4.76231 5.92558 5.37551
#
# Compressibility (1/GPa) = 0.03176593
#
# Stress axis : x y z
#
# Youngs Moduli (GPa) = 38.21886 47.70884 55.25031
#
# Poissons Ratio (x) = 0.60489 0.50250
# Poissons Ratio (y) = 0.48457 -0.27869
# Poissons Ratio (z) = 0.34760 -0.24065
#
# Static dielectric constant tensor:
#      x y z
#    x 2.084820 -0.042020 0.023620 
#    y -0.042020 1.965730 0.044860 
#    z 0.023620 0.044860 2.074600 
# 
# From -- ./inp_files/329737.got.cif
#   From: 2010.05.17/outbox.cif.g08.bks.cpg/sg2_165_cif.got.tgz:329737.got - 2010.06.03 11:33:40.
