data_PCOD9004526
_publ_section_title
;
Structure prediction by ZEFSAII (Michael W. Deem and Ramdas Pophale) SiO2 
 PCOD9004526
Probable space group: P -1
;
_chemical_formula_sum "Si O2"
_cell_formula_units_Z 14
_cell_length_a 9.215842
_cell_length_b 9.082283
_cell_length_c 15.289404
_cell_angle_alpha 70.094092
_cell_angle_beta 32.854497
_cell_angle_gamma 77.571752
_cell_volume 646.467720
_symmetry_space_group_name_H-M "P -1"
_symmetry_group_IT_number 2
_symmetry_cell_setting 'triclinic'
loop_
_space_group_symop_operation_xyz
x,y,z
-x,-y,-z
loop_
_atom_site_type_symbol
_atom_site_label
_atom_site_fract_x
_atom_site_fract_y
_atom_site_fract_z
Si Si1 0.851423 0.837151 0.069503
Si Si2 0.297084 0.641540 0.810019
Si Si3 0.170693 0.454936 0.068229
Si Si4 0.546803 0.828303 0.045358
Si Si5 0.406389 0.633701 0.456470
Si Si6 0.561720 0.825271 0.489022
Si Si7 0.970337 0.367198 0.722341
O O1 0.680366 0.860708 0.065294
O O2 0.634845 0.726334 0.261172
O O3 0.102984 0.751313 0.931130
O O4 0.000000 0.000000 0.000000
O O5 0.528493 0.740556 0.617228
O O6 0.107689 0.560127 0.843805
O O7 0.371033 0.531738 0.873414
O O8 0.150715 0.565992 0.139852
O O9 0.254743 0.282874 0.080443
O O10 0.262288 0.715563 0.205073
O O11 0.500000 0.000000 0.000000
O O12 0.500000 0.500000 0.500000
O O13 0.350196 0.758975 0.533288
O O14 0.155133 0.525886 0.560510
O O15 0.844787 0.772940 0.323802
O O16 0.500000 0.000000 0.500000
#
# Coordination Sequence:
#
# PCOD9004526 Si02
#       7
#     2   2   2   2   2   2   2
#     4  11  25  45  72 104 140 182 237 291 345 422
#     4  10  21  37  69 101 132 173 245 281 327 414
#     4  10  22  42  69  98 132 185 234 284 337 422
#     4  11  28  44  70 104 142 186 231 293 363 408
#     4  10  22  39  70 100 133 183 229 283 347 402
#     4  11  23  38  67 105 140 179 226 291 348 404
#     4  11  24  43  67  97 144 182 232 282 351 419
#
# _framework density 21.656148999999999
#
# number of rings (size 3 to 8) (size 9 to 14) (size 15 to 20)
#    0.000    1.429    1.429    3.000   20.000    0.571 
#    0.000    0.000    0.000    2.571    0.000    0.000 
#    0.000    0.000    0.000    0.000    0.000    0.000 
#
# Total GULP energy -77976.194060 kJ/mol
# GULP energy per Si atom -5569.728147 kJ/mol
# Density = 2.160686 g / cm^3
# Si number density = 21.656149 Si / 1000 Ang^3
#
#
#
# Elastic Constant Matrix: (Units=GPa)
#
#
# Indices 1 2 3 4 5 6 
#
# 1 78.9080 68.5122 35.9570 -3.6148 -11.9271 3.9044
# 2 68.5122 199.7530 52.7962 2.2967 -4.8243 10.2158
# 3 35.9570 52.7962 101.7814 -1.6830 8.8735 5.4420
# 4 -3.6148 2.2967 -1.6830 28.6471 9.1835 -8.9752
# 5 -11.9271 -4.8243 8.8735 9.1835 35.4184 -10.8619
# 6 3.9044 10.2158 5.4420 -8.9752 -10.8619 45.1455
#
#
#
# Elastic Compliance Matrix: (Units=1/GPa)
#
#
# Indices 1 2 3 4 5 6 
#
# 1 0.021338 -0.005840 -0.005328 0.000938 0.008179 0.002273
# 2 -0.005840 0.007559 -0.001766 -0.001747 -0.000489 -0.001457
# 3 -0.005328 -0.001766 0.013314 0.001695 -0.006408 -0.001949
# 4 0.000938 -0.001747 0.001695 0.039971 -0.008896 0.005916
# 5 0.008179 -0.000489 -0.006408 -0.008896 0.037081 0.007329
# 6 0.002273 -0.001457 -0.001949 0.005916 0.007329 0.025458
#
#
# Mechanical properties :
#
#
# Convention : Reuss Voigt Hill
#
# Bulk Modulus (GPa) = 61.18825 77.21926 69.20375
# Shear Modulus (GPa) = 28.40306 36.72066 32.56186
#
# Velocity S-wave (km/s) = 3.62546 4.12226 3.88182
# Velocity P-wave (km/s) = 6.77060 7.64145 7.21917
#
# Compressibility (1/GPa) = 0.01634301
#
# Stress axis : x y z
#
# Youngs Moduli (GPa) = 46.86445 132.29596 75.10732
#
# Poissons Ratio (x) = 0.77259 0.40017
# Poissons Ratio (y) = 0.27368 0.13265
# Poissons Ratio (z) = 0.24969 0.23366
#
# Static dielectric constant tensor:
#      x y z
#    x 1.849910 -0.005960 -0.032020 
#    y -0.005960 1.863680 -0.034400 
#    z -0.032020 -0.034400 1.964810 
# 
# From -- ./inp_files/494796.got.cif
#   From: 2010.05.17/outbox.cif.g08.bks.cpg/sg2_248_cif.got.tgz:494796.got - 2010.06.03 11:33:40.
