data_PCOD9004009
_publ_section_title
;
Structure prediction by ZEFSAII (Michael W. Deem and Ramdas Pophale) SiO2 
 PCOD9004009
Probable space group: P -1
;
_chemical_formula_sum "Si O2"
_cell_formula_units_Z 12
_cell_length_a 11.276675
_cell_length_b 17.583564
_cell_length_c 14.839055
_cell_angle_alpha 157.389071
_cell_angle_beta 29.728851
_cell_angle_gamma 148.632502
_cell_volume 539.537644
_symmetry_space_group_name_H-M "P -1"
_symmetry_group_IT_number 2
_symmetry_cell_setting 'triclinic'
loop_
_space_group_symop_operation_xyz
x,y,z
-x,-y,-z
loop_
_atom_site_type_symbol
_atom_site_label
_atom_site_fract_x
_atom_site_fract_y
_atom_site_fract_z
Si Si1 0.982466 0.557597 0.288945
Si Si2 0.264229 0.826701 0.094338
Si Si3 0.510134 0.233505 0.723615
Si Si4 0.137236 0.197415 0.519261
Si Si5 0.562578 0.581461 0.721845
Si Si6 0.737245 0.522340 0.735660
O O1 0.938685 0.746588 0.467083
O O2 0.791240 0.524859 0.461421
O O3 0.257958 0.623550 0.216893
O O4 0.899002 0.362445 0.064590
O O5 0.108957 0.859224 0.319920
O O6 0.285512 0.027443 0.240788
O O7 0.504974 0.772974 0.917237
O O8 0.583429 0.311241 0.657428
O O9 0.500000 0.000000 0.500000
O O10 0.271202 0.301014 0.991794
O O11 0.315976 0.401437 0.667542
O O12 0.610149 0.589241 0.804476
O O13 0.000000 0.500000 0.500000
#
# Coordination Sequence:
#
# PCOD9004009 Si02
#       6
#     2   2   2   2   2   2
#     4  11  22  40  62  91 131 167 211 271 325 383
#     4  10  21  38  62  93 126 166 212 264 325 387
#     4  11  26  46  70  98 131 176 227 274 327 392
#     4  10  21  37  63  94 123 166 213 263 324 389
#     4  11  22  39  63  92 130 167 212 267 326 386
#     4  11  24  47  69  95 133 177 221 275 331 385
#
# _framework density 22.241266
#
# number of rings (size 3 to 8) (size 9 to 14) (size 15 to 20)
#    0.000    1.333    1.667    6.000    0.000   10.000 
#    3.000    0.000    0.000    0.000    0.000    0.000 
#    0.000    0.000    0.000    0.000    0.000    0.000 
#
# Total GULP energy -66988.812386 kJ/mol
# GULP energy per Si atom -5582.401032 kJ/mol
# Density = 2.219064 g / cm^3
# Si number density = 22.241266 Si / 1000 Ang^3
#
#
#
# Elastic Constant Matrix: (Units=GPa)
#
#
# Indices 1 2 3 4 5 6 
#
# 1 149.1377 84.6458 52.9569 26.5853 -30.9349 1.2589
# 2 84.6458 189.6335 93.3360 26.4746 -48.4641 24.3177
# 3 52.9569 93.3360 132.6147 11.3238 -41.7477 -0.4496
# 4 26.5853 26.4746 11.3238 57.4970 -24.7757 0.2007
# 5 -30.9349 -48.4641 -41.7477 -24.7757 44.5410 -14.4175
# 6 1.2589 24.3177 -0.4496 0.2007 -14.4175 46.9271
#
#
#
# Elastic Compliance Matrix: (Units=1/GPa)
#
#
# Indices 1 2 3 4 5 6 
#
# 1 0.009640 -0.003534 -0.000572 -0.001872 0.001979 0.002184
# 2 -0.003534 0.010917 -0.005655 -0.001576 0.001589 -0.005122
# 3 -0.000572 -0.005655 0.015526 0.005573 0.013432 0.007197
# 4 -0.001872 -0.001576 0.005573 0.025952 0.018773 0.006577
# 5 0.001979 0.001589 0.013432 0.018773 0.053655 0.015656
# 6 0.002184 -0.005122 0.007197 0.006577 0.015656 0.028756
#
#
# Mechanical properties :
#
#
# Convention : Reuss Voigt Hill
#
# Bulk Modulus (GPa) = 60.38146 103.69595 82.03870
# Shear Modulus (GPa) = 29.50050 45.82283 37.66166
#
# Velocity S-wave (km/s) = 3.64591 4.54393 4.11947
# Velocity P-wave (km/s) = 6.70305 8.61709 7.71962
#
# Compressibility (1/GPa) = 0.01656138
#
# Stress axis : x y z
#
# Youngs Moduli (GPa) = 103.73368 91.59864 64.40912
#
# Poissons Ratio (x) = 0.32375 0.03682
# Poissons Ratio (y) = 0.36664 0.36421
# Poissons Ratio (z) = 0.05930 0.51796
#
# Static dielectric constant tensor:
#      x y z
#    x 1.847990 -0.011930 -0.060640 
#    y -0.011930 1.826830 -0.009070 
#    z -0.060640 -0.009070 1.861330 
# 
# From -- ./inp_files/251407.got.cif
#   From: 2010.05.17/outbox.cif.g08.bks.cpg/sg2_126_cif.got.tgz:251407.got - 2010.06.03 11:33:40.
