data_PCOD9004343
_publ_section_title
;
Structure prediction by ZEFSAII (Michael W. Deem and Ramdas Pophale) SiO2 
 PCOD9004343
Probable space group: P -1
;
_chemical_formula_sum "Si O2"
_cell_formula_units_Z 16
_cell_length_a 8.585450
_cell_length_b 11.053634
_cell_length_c 21.349414
_cell_angle_alpha 22.501287
_cell_angle_beta 59.869465
_cell_angle_gamma 61.142298
_cell_volume 669.526263
_symmetry_space_group_name_H-M "P -1"
_symmetry_group_IT_number 2
_symmetry_cell_setting 'triclinic'
loop_
_space_group_symop_operation_xyz
x,y,z
-x,-y,-z
loop_
_atom_site_type_symbol
_atom_site_label
_atom_site_fract_x
_atom_site_fract_y
_atom_site_fract_z
Si Si1 0.565371 0.827029 0.240561
Si Si2 0.136405 0.157360 0.444525
Si Si3 0.889078 0.591098 0.542462
Si Si4 0.594570 0.219603 0.157651
Si Si5 0.860551 0.278913 0.915220
Si Si6 0.819787 0.937236 0.847743
Si Si7 0.957993 0.527441 0.909433
Si Si8 0.518912 0.142083 0.532370
O O1 0.597654 0.460656 0.393091
O O2 0.577808 0.892258 0.280512
O O3 0.373616 0.952078 0.192246
O O4 0.697054 0.077175 0.066526
O O5 0.048946 0.217469 0.501426
O O6 0.173952 0.490941 0.245828
O O7 0.331399 0.965487 0.497906
O O8 0.000000 0.000000 0.500000
O O9 0.688540 0.747717 0.494265
O O10 0.000000 0.500000 0.500000
O O11 0.874829 0.226701 0.740817
O O12 0.801417 0.311027 0.073712
O O13 0.499768 0.148431 0.276060
O O14 0.500000 0.500000 0.000000
O O15 0.926175 0.489274 0.860446
O O16 0.000000 0.000000 0.000000
O O17 0.851158 0.634267 0.030792
O O18 0.926974 0.843396 0.806210
#
# Coordination Sequence:
#
# PCOD9004343 Si02
#       8
#     2   2   2   2   2   2   2   2
#     4  10  22  40  66 102 140 185 236 282 353 420
#     4  12  28  47  72 104 142 186 238 297 363 424
#     4  11  26  48  71 100 144 186 240 289 359 426
#     4  11  20  38  65 102 143 184 234 285 344 418
#     4  11  24  44  68  96 143 185 234 295 352 421
#     4  10  21  39  65 100 135 177 238 285 337 419
#     4  10  21  37  65  99 138 180 237 284 349 406
#     4  11  24  43  71 103 142 188 232 297 355 422
#
# _framework density 23.897494999999999
#
# number of rings (size 3 to 8) (size 9 to 14) (size 15 to 20)
#    0.000    1.250    1.250    4.500    1.750    4.000 
#    0.000    6.875    0.000    0.000    0.000    0.000 
#    0.000    0.000    0.000    0.000    0.000    0.000 
#
# Total GULP energy -89301.564844 kJ/mol
# GULP energy per Si atom -5581.347803 kJ/mol
# Density = 2.384310 g / cm^3
# Si number density = 23.897495 Si / 1000 Ang^3
#
#
#
# Elastic Constant Matrix: (Units=GPa)
#
#
# Indices 1 2 3 4 5 6 
#
# 1 64.8808 51.4991 12.1308 -15.9985 -0.8359 11.8931
# 2 51.4991 161.5034 39.6061 -19.7744 -1.0976 12.6212
# 3 12.1308 39.6061 82.9912 -9.8989 7.6057 5.7477
# 4 -15.9985 -19.7744 -9.8989 41.4510 0.4022 0.9741
# 5 -0.8359 -1.0976 7.6057 0.4022 25.6131 -15.0708
# 6 11.8931 12.6212 5.7477 0.9741 -15.0708 43.0542
#
#
#
# Elastic Compliance Matrix: (Units=1/GPa)
#
#
# Indices 1 2 3 4 5 6 
#
# 1 0.022826 -0.006362 0.001174 0.006229 -0.003478 -0.005956
# 2 -0.006362 0.009215 -0.003429 0.001114 0.001117 -0.000120
# 3 0.001174 -0.003429 0.014674 0.002472 -0.006662 -0.003666
# 4 0.006229 0.001114 0.002472 0.027782 -0.003385 -0.004191
# 5 -0.003478 0.001117 -0.006662 -0.003385 0.052831 0.020092
# 6 -0.005956 -0.000120 -0.003666 -0.004191 0.020092 0.032524
#
#
# Mechanical properties :
#
#
# Convention : Reuss Voigt Hill
#
# Bulk Modulus (GPa) = 33.92093 57.31637 45.61865
# Shear Modulus (GPa) = 26.75054 35.76628 31.25841
#
# Velocity S-wave (km/s) = 3.34935 3.87286 3.62058
# Velocity P-wave (km/s) = 5.40210 6.63589 6.05053
#
# Compressibility (1/GPa) = 0.02948032
#
# Stress axis : x y z
#
# Youngs Moduli (GPa) = 43.80941 108.52199 68.14991
#
# Poissons Ratio (x) = 0.69042 -0.08000
# Poissons Ratio (y) = 0.27872 0.23368
# Poissons Ratio (z) = -0.05143 0.37211
#
# Static dielectric constant tensor:
#      x y z
#    x 1.848230 0.149620 0.066800 
#    y 0.149620 1.697010 -0.126660 
#    z 0.066800 -0.126660 1.880640 
# 
# From -- ./inp_files/607726.got.cif
#   From: 2010.05.17/outbox.cif.g08.bks.cpg/sg2_304_cif.got.tgz:607726.got - 2010.06.03 11:33:40.
