data_PCOD9004210
_publ_section_title
;
Structure prediction by ZEFSAII (Michael W. Deem and Ramdas Pophale) SiO2 
 PCOD9004210
Probable space group: P -1
;
_chemical_formula_sum "Si O2"
_cell_formula_units_Z 10
_cell_length_a 12.188272
_cell_length_b 9.474748
_cell_length_c 14.330585
_cell_angle_alpha 132.539295
_cell_angle_beta 20.862794
_cell_angle_gamma 131.058931
_cell_volume 432.265836
_symmetry_space_group_name_H-M "P -1"
_symmetry_group_IT_number 2
_symmetry_cell_setting 'triclinic'
loop_
_space_group_symop_operation_xyz
x,y,z
-x,-y,-z
loop_
_atom_site_type_symbol
_atom_site_label
_atom_site_fract_x
_atom_site_fract_y
_atom_site_fract_z
Si Si1 0.130180 0.218460 0.518023
Si Si2 0.126489 0.703675 0.038775
Si Si3 0.983515 0.226310 0.127638
Si Si4 0.867299 0.512143 0.713675
Si Si5 0.354061 0.184391 0.655051
O O1 0.504147 0.250712 0.237716
O O2 0.000609 0.351883 0.601009
O O3 0.000000 0.000000 0.500000
O O4 0.994973 0.277039 0.751210
O O5 0.000000 0.500000 0.000000
O O6 0.949322 0.852526 0.182998
O O7 0.634670 0.277185 0.409081
O O8 0.037799 0.291288 0.218620
O O9 0.248826 0.309270 0.882152
O O10 0.000000 0.000000 0.000000
O O11 0.000000 0.500000 0.500000
O O12 0.500000 0.500000 0.000000
O O13 0.500000 0.000000 0.500000
#
# Coordination Sequence:
#
# PCOD9004210 Si02
#       5
#     2   2   2   2   2
#     4  12  28  47  68 105 148 188 231 288 364 428
#     4  12  24  45  72 100 138 186 233 291 350 417
#     4  10  21  39  64  98 129 165 226 289 336 394
#     4  12  26  46  70  99 137 186 236 289 346 420
#     4  10  21  37  64  98 128 165 221 279 333 397
#
# _framework density 23.133911000000001
#
# number of rings (size 3 to 8) (size 9 to 14) (size 15 to 20)
#    0.000    0.800    0.000    7.200    0.000    9.600 
#    0.000    0.000    0.000    0.000    0.000    0.000 
#    0.000    0.000    0.000    0.000    0.000    0.000 
#
# Total GULP energy -55897.194340 kJ/mol
# GULP energy per Si atom -5589.719434 kJ/mol
# Density = 2.308126 g / cm^3
# Si number density = 23.133911 Si / 1000 Ang^3
#
#
#
# Elastic Constant Matrix: (Units=GPa)
#
#
# Indices 1 2 3 4 5 6 
#
# 1 201.1248 74.6155 111.6429 18.6493 5.3813 8.1857
# 2 74.6155 163.4495 76.0560 7.5889 -1.0756 22.7144
# 3 111.6429 76.0560 279.9828 -21.9283 12.0196 21.6549
# 4 18.6493 7.5889 -21.9283 38.5537 12.8676 -2.4258
# 5 5.3813 -1.0756 12.0196 12.8676 73.2773 11.1209
# 6 8.1857 22.7144 21.6549 -2.4258 11.1209 39.2457
#
#
#
# Elastic Compliance Matrix: (Units=1/GPa)
#
#
# Indices 1 2 3 4 5 6 
#
# 1 0.007893 -0.001993 -0.003114 -0.005404 0.000748 0.000679
# 2 -0.001993 0.008383 -0.001398 -0.002262 0.001539 -0.004241
# 3 -0.003114 -0.001398 0.005765 0.005524 -0.001565 -0.000938
# 4 -0.005404 -0.002262 0.005524 0.034763 -0.007189 0.003574
# 5 0.000748 0.001539 -0.001565 -0.007189 0.015913 -0.005137
# 6 0.000679 -0.004241 -0.000938 0.003574 -0.005137 0.029987
#
#
# Mechanical properties :
#
#
# Convention : Reuss Voigt Hill
#
# Bulk Modulus (GPa) = 110.71390 129.90956 120.31173
# Shear Modulus (GPa) = 42.11407 55.69820 48.90614
#
# Velocity S-wave (km/s) = 4.27130 4.91210 4.60286
# Velocity P-wave (km/s) = 8.50218 9.40473 8.96482
#
# Compressibility (1/GPa) = 0.00903229
#
# Stress axis : x y z
#
# Youngs Moduli (GPa) = 126.68855 119.29290 173.44937
#
# Poissons Ratio (x) = 0.23775 0.54012
# Poissons Ratio (y) = 0.25249 0.24242
# Poissons Ratio (z) = 0.39450 0.16673
#
# Static dielectric constant tensor:
#      x y z
#    x 1.928250 -0.110130 0.037720 
#    y -0.110130 2.079140 -0.114370 
#    z 0.037720 -0.114370 1.975360 
# 
# From -- ./inp_files/26199.got.cif
#   From: 2010.05.17/outbox.cif.g08.bks.cpg/sg2_14_cif.got.tgz:26199.got - 2010.06.03 11:33:40.
