data_PCOD9004594
_publ_section_title
;
Structure prediction by ZEFSAII (Michael W. Deem and Ramdas Pophale) SiO2 
 PCOD9004594
Probable space group: P -1
;
_chemical_formula_sum "Si O2"
_cell_formula_units_Z 14
_cell_length_a 10.665168
_cell_length_b 12.020800
_cell_length_c 5.329578
_cell_angle_alpha 57.618903
_cell_angle_beta 102.331371
_cell_angle_gamma 106.728719
_cell_volume 551.112915
_symmetry_space_group_name_H-M "P -1"
_symmetry_group_IT_number 2
_symmetry_cell_setting 'triclinic'
loop_
_space_group_symop_operation_xyz
x,y,z
-x,-y,-z
loop_
_atom_site_type_symbol
_atom_site_label
_atom_site_fract_x
_atom_site_fract_y
_atom_site_fract_z
Si Si1 0.657035 0.040325 0.540206
Si Si2 0.041189 0.668825 0.524850
Si Si3 0.716988 0.743086 0.895685
Si Si4 0.076920 0.136121 0.484596
Si Si5 0.165134 0.584772 0.182233
Si Si6 0.640907 0.763716 0.338167
Si Si7 0.638767 0.188491 0.861052
O O1 0.683732 0.136275 0.679299
O O2 0.500000 0.000000 0.500000
O O3 0.704903 0.900272 0.737487
O O4 0.696388 0.117342 0.202990
O O5 0.091261 0.653024 0.287110
O O6 0.019249 0.812439 0.427673
O O7 0.897321 0.571188 0.614331
O O8 0.129036 0.618397 0.841602
O O9 0.865454 0.757651 0.844118
O O10 0.627259 0.686609 0.689332
O O11 0.660187 0.679194 0.205573
O O12 0.215171 0.137729 0.680469
O O13 0.000000 0.000000 0.500000
O O14 0.312304 0.653726 0.239042
O O15 0.519584 0.836931 0.175325
#
# Coordination Sequence:
#
# PCOD9004594 Si02
#       7
#     2   2   2   2   2   2   2
#     4  12  20  34  55  88 127 165 188 255 299 360
#     4  10  23  47  62  91 125 154 214 259 304 354
#     4  10  22  35  52  84 123 156 194 233 308 349
#     4  10  25  40  62  88 124 167 196 248 309 380
#     4  10  24  41  70  90 115 165 209 264 299 356
#     4  10  21  38  53  86 124 155 197 244 294 371
#     4  12  22  36  62  88 123 158 212 246 309 360
#
# _framework density 25.403143
#
# number of rings (size 3 to 8) (size 9 to 14) (size 15 to 20)
#    0.857    0.571    2.857    2.143    6.000    0.571 
#    0.000    0.714    0.000    0.857    0.000    0.000 
#    0.000    0.000    0.000    0.000    0.000    0.000 
#
# Total GULP energy -78174.507665 kJ/mol
# GULP energy per Si atom -5583.893405 kJ/mol
# Density = 2.534532 g / cm^3
# Si number density = 25.403143 Si / 1000 Ang^3
#
#
#
# Elastic Constant Matrix: (Units=GPa)
#
#
# Indices 1 2 3 4 5 6 
#
# 1 75.1613 -0.3980 23.4836 9.9871 2.1029 -8.7623
# 2 -0.3980 83.4051 25.1946 23.1454 -3.2961 3.6795
# 3 23.4836 25.1946 129.3687 53.4271 -15.1065 -11.6907
# 4 9.9871 23.1454 53.4271 39.3142 -11.6772 -10.0413
# 5 2.1029 -3.2961 -15.1065 -11.6772 35.1291 14.6782
# 6 -8.7623 3.6795 -11.6907 -10.0413 14.6782 35.7350
#
#
#
# Elastic Compliance Matrix: (Units=1/GPa)
#
#
# Indices 1 2 3 4 5 6 
#
# 1 0.014809 0.000738 -0.002593 -0.000788 -0.003902 0.004089
# 2 0.000738 0.015147 0.001691 -0.012576 -0.000307 -0.004233
# 3 -0.002593 0.001691 0.018326 -0.025638 0.000623 -0.002274
# 4 -0.000788 -0.012576 -0.025638 0.072756 0.007881 0.009921
# 5 -0.003902 -0.000307 0.000623 0.007881 0.037344 -0.013846
# 6 0.004089 -0.004233 -0.002274 0.009921 -0.013846 0.037153
#
#
# Mechanical properties :
#
#
# Convention : Reuss Voigt Hill
#
# Bulk Modulus (GPa) = 20.85286 42.72172 31.78729
# Shear Modulus (GPa) = 23.60180 38.01267 30.80723
#
# Velocity S-wave (km/s) = 3.05140 3.87250 3.48621
# Velocity P-wave (km/s) = 4.54327 6.07034 5.36145
#
# Compressibility (1/GPa) = 0.04795506
#
# Stress axis : x y z
#
# Youngs Moduli (GPa) = 67.52542 66.02114 54.56593
#
# Poissons Ratio (x) = -0.04872 0.14148
# Poissons Ratio (y) = -0.04983 -0.09229
# Poissons Ratio (z) = 0.17509 -0.11167
#
# Static dielectric constant tensor:
#      x y z
#    x 2.024900 0.006600 -0.025020 
#    y 0.006600 2.000540 -0.003180 
#    z -0.025020 -0.003180 2.167430 
# 
# From -- ./inp_files/69255.got.cif
#   From: 2010.05.17/outbox.cif.g08.bks.cpg/sg2_35_cif.got.tgz:69255.got - 2010.06.03 11:33:40.
