data_PCOD9004888
_publ_section_title
;
Structure prediction by ZEFSAII (Michael W. Deem and Ramdas Pophale) SiO2 
 PCOD9004888
Probable space group: P -1
;
_chemical_formula_sum "Si O2"
_cell_formula_units_Z 14
_cell_length_a 10.698222
_cell_length_b 13.205322
_cell_length_c 21.653405
_cell_angle_alpha 34.398441
_cell_angle_beta 21.049152
_cell_angle_gamma 45.593374
_cell_volume 582.242326
_symmetry_space_group_name_H-M "P -1"
_symmetry_group_IT_number 2
_symmetry_cell_setting 'triclinic'
loop_
_space_group_symop_operation_xyz
x,y,z
-x,-y,-z
loop_
_atom_site_type_symbol
_atom_site_label
_atom_site_fract_x
_atom_site_fract_y
_atom_site_fract_z
Si Si1 0.755845 0.378177 0.425797
Si Si2 0.846879 0.821485 0.577707
Si Si3 0.215796 0.177814 0.589546
Si Si4 0.778512 0.232780 0.019156
Si Si5 0.591988 0.463016 0.178548
Si Si6 0.970952 0.863235 0.758289
Si Si7 0.046709 0.090134 0.845653
O O1 0.500000 0.500000 0.500000
O O2 0.483337 0.201446 0.603213
O O3 0.903106 0.300870 0.456248
O O4 0.078871 0.537250 0.159950
O O5 0.633084 0.838792 0.729145
O O6 0.536841 0.700942 0.731720
O O7 0.059536 0.018537 0.346997
O O8 0.304225 0.374705 0.411509
O O9 0.626551 0.163884 0.417782
O O10 0.004409 0.148953 0.766200
O O11 0.002308 0.002466 0.731792
O O12 0.007537 0.132107 0.006892
O O13 0.836068 0.161497 0.960280
O O14 0.000000 0.500000 0.000000
O O15 0.647068 0.663502 0.019945
#
# Coordination Sequence:
#
# PCOD9004888 Si02
#       7
#     2   2   2   2   2   2   2
#     4  10  24  41  58  87 125 167 204 255 313 358
#     4  11  21  37  62  94 127 153 212 256 292 378
#     4   9  17  33  56  88 125 161 204 245 299 370
#     4  10  22  37  57  91 123 164 206 243 300 370
#     4   9  20  33  59  93 126 161 198 255 312 353
#     4   9  18  33  56  91 124 158 204 256 304 356
#     4  10  21  38  59  88 128 167 199 245 308 365
#
# _framework density 24.044971
#
# number of rings (size 3 to 8) (size 9 to 14) (size 15 to 20)
#    0.000    2.286    1.429    1.286    4.000    1.714 
#    0.000    0.000    0.000   13.714    0.000   28.000 
#    0.000    0.000    0.000    0.143    0.000    0.000 
#
# Total GULP energy -78255.006860 kJ/mol
# GULP energy per Si atom -5589.643347 kJ/mol
# Density = 2.399024 g / cm^3
# Si number density = 24.044971 Si / 1000 Ang^3
#
#
#
# Elastic Constant Matrix: (Units=GPa)
#
#
# Indices 1 2 3 4 5 6 
#
# 1 102.5647 35.1684 66.0115 2.8515 37.0743 7.2464
# 2 35.1684 79.4213 51.0118 -13.6480 20.3151 -21.0784
# 3 66.0115 51.0118 130.1028 -37.3315 41.3612 -3.8449
# 4 2.8515 -13.6480 -37.3315 45.4909 -5.6248 11.0061
# 5 37.0743 20.3151 41.3612 -5.6248 56.9953 -0.8117
# 6 7.2464 -21.0784 -3.8449 11.0061 -0.8117 25.5978
#
#
#
# Elastic Compliance Matrix: (Units=1/GPa)
#
#
# Indices 1 2 3 4 5 6 
#
# 1 0.020489 -0.005142 -0.009556 -0.009537 -0.005609 -0.007548
# 2 -0.005142 0.025198 -0.007694 -0.003949 -0.000119 0.022743
# 3 -0.009556 -0.007694 0.022146 0.017749 -0.005477 -0.008109
# 4 -0.009537 -0.003949 0.017749 0.039359 -0.001597 -0.014860
# 5 -0.005609 -0.000119 -0.005477 -0.001597 0.025084 0.002149
# 6 -0.007548 0.022743 -0.008109 -0.014860 0.002149 0.065170
#
#
# Mechanical properties :
#
#
# Convention : Reuss Voigt Hill
#
# Bulk Modulus (GPa) = 43.38675 68.49690 55.94182
# Shear Modulus (GPa) = 20.00708 36.27659 28.14184
#
# Velocity S-wave (km/s) = 2.88769 3.88841 3.42480
# Velocity P-wave (km/s) = 5.40384 6.97915 6.24139
#
# Compressibility (1/GPa) = 0.02304851
#
# Stress axis : x y z
#
# Youngs Moduli (GPa) = 48.80588 39.68618 45.15548
#
# Poissons Ratio (x) = 0.20408 0.43150
# Poissons Ratio (y) = 0.25098 0.34742
# Poissons Ratio (z) = 0.46639 0.30534
#
# Static dielectric constant tensor:
#      x y z
#    x 1.902100 -0.023970 0.011830 
#    y -0.023970 1.942470 -0.025180 
#    z 0.011830 -0.025180 2.008580 
# 
# From -- ./inp_files/422331.got.cif
#   From: 2010.05.17/outbox.cif.g08.bks.cpg/sg2_212_cif.got.tgz:422331.got - 2010.06.03 11:33:40.
