data_PCOD9004390
_publ_section_title
;
Structure prediction by ZEFSAII (Michael W. Deem and Ramdas Pophale) SiO2 
 PCOD9004390
Probable space group: P -1
;
_chemical_formula_sum "Si O2"
_cell_formula_units_Z 14
_cell_length_a 9.566556
_cell_length_b 17.431686
_cell_length_c 6.374673
_cell_angle_alpha 67.974507
_cell_angle_beta 131.011529
_cell_angle_gamma 132.531564
_cell_volume 586.597454
_symmetry_space_group_name_H-M "P -1"
_symmetry_group_IT_number 2
_symmetry_cell_setting 'triclinic'
loop_
_space_group_symop_operation_xyz
x,y,z
-x,-y,-z
loop_
_atom_site_type_symbol
_atom_site_label
_atom_site_fract_x
_atom_site_fract_y
_atom_site_fract_z
Si Si1 0.326088 0.185064 0.575417
Si Si2 0.946851 0.284293 0.658867
Si Si3 0.841048 0.105547 0.043199
Si Si4 0.636610 0.647216 0.285625
Si Si5 0.575913 0.111304 0.148516
Si Si6 0.195407 0.463052 0.227548
Si Si7 0.770880 0.380767 0.631450
O O1 0.321536 0.249238 0.698204
O O2 0.512005 0.273297 0.502998
O O3 0.073025 0.114455 0.292077
O O4 0.433908 0.131697 0.829024
O O5 0.748810 0.207934 0.371136
O O6 0.904133 0.367866 0.595109
O O7 0.205075 0.333379 0.775388
O O8 0.899272 0.207416 0.880573
O O9 0.741965 0.099766 0.181458
O O10 0.629428 0.998519 0.832949
O O11 0.359791 0.550004 0.121322
O O12 0.732335 0.611265 0.596749
O O13 0.241911 0.525619 0.425722
O O14 0.925062 0.394943 0.971285
#
# Coordination Sequence:
#
# PCOD9004390 Si02
#       7
#     2   2   2   2   2   2   2
#     4  11  21  44  69  98 130 186 211 268 331 403
#     4  12  23  42  68 104 130 174 220 282 319 394
#     4  11  24  44  68  98 137 174 217 274 333 391
#     4  10  21  37  66  93 134 169 221 267 328 382
#     4  11  24  44  68  98 137 174 217 274 333 391
#     4   9  20  42  61  94 134 180 211 272 328 395
#     4  10  21  37  66  93 134 169 221 267 328 382
#
# _framework density 23.866451999999999
#
# number of rings (size 3 to 8) (size 9 to 14) (size 15 to 20)
#    0.000    1.429    2.857    2.571    0.000    2.286 
#    0.000    1.429    0.000    0.000    0.000    0.000 
#    0.000    0.000    0.000    0.000    0.000    0.000 
#
# Total GULP energy -78253.827229 kJ/mol
# GULP energy per Si atom -5589.559088 kJ/mol
# Density = 2.381213 g / cm^3
# Si number density = 23.866452 Si / 1000 Ang^3
#
#
#
# Elastic Constant Matrix: (Units=GPa)
#
#
# Indices 1 2 3 4 5 6 
#
# 1 137.7262 34.0728 3.7493 12.6265 5.4329 12.0746
# 2 34.0728 71.8235 15.4986 8.8171 -3.7273 13.9001
# 3 3.7493 15.4986 60.8532 15.5169 17.9133 6.8741
# 4 12.6265 8.8171 15.5169 22.5060 -4.2999 3.7386
# 5 5.4329 -3.7273 17.9133 -4.2999 36.5489 4.8118
# 6 12.0746 13.9001 6.8741 3.7386 4.8118 46.5793
#
#
#
# Elastic Compliance Matrix: (Units=1/GPa)
#
#
# Indices 1 2 3 4 5 6 
#
# 1 0.009058 -0.004357 0.003512 -0.006496 -0.004196 -0.000611
# 2 -0.004357 0.018265 -0.006085 0.001362 0.006203 -0.004173
# 3 0.003512 -0.006085 0.028922 -0.023039 -0.018075 0.000354
# 4 -0.006496 0.001362 -0.023039 0.067880 0.020766 -0.002916
# 5 -0.004196 0.006203 -0.018075 0.020766 0.040438 -0.003940
# 6 -0.000611 -0.004173 0.000354 -0.002916 -0.003940 0.023461
#
#
# Mechanical properties :
#
#
# Convention : Reuss Voigt Hill
#
# Bulk Modulus (GPa) = 23.59313 41.89382 32.74348
# Shear Modulus (GPa) = 23.14688 35.59898 29.37293
#
# Velocity S-wave (km/s) = 3.11762 3.86630 3.51197
# Velocity P-wave (km/s) = 4.78188 6.12557 5.49495
#
# Compressibility (1/GPa) = 0.04238523
#
# Stress axis : x y z
#
# Youngs Moduli (GPa) = 110.40319 54.74863 34.57593
#
# Poissons Ratio (x) = 0.23853 -0.12144
# Poissons Ratio (y) = 0.48100 0.21041
# Poissons Ratio (z) = -0.38777 0.33316
#
# Static dielectric constant tensor:
#      x y z
#    x 1.928170 0.016680 -0.015110 
#    y 0.016680 1.956840 -0.006130 
#    z -0.015110 -0.006130 1.891280 
# 
# From -- ./inp_files/47609.got.cif
#   From: 2010.05.17/outbox.cif.g08.bks.cpg/sg2_24_cif.got.tgz:47609.got - 2010.06.03 11:33:40.
