data_PCOD9004653
_publ_section_title
;
Structure prediction by ZEFSAII (Michael W. Deem and Ramdas Pophale) SiO2 
 PCOD9004653
Probable space group: P -1
;
_chemical_formula_sum "Si O2"
_cell_formula_units_Z 16
_cell_length_a 13.219447
_cell_length_b 9.598849
_cell_length_c 13.831609
_cell_angle_alpha 134.411450
_cell_angle_beta 58.967386
_cell_angle_gamma 84.718891
_cell_volume 722.844238
_symmetry_space_group_name_H-M "P -1"
_symmetry_group_IT_number 2
_symmetry_cell_setting 'triclinic'
loop_
_space_group_symop_operation_xyz
x,y,z
-x,-y,-z
loop_
_atom_site_type_symbol
_atom_site_label
_atom_site_fract_x
_atom_site_fract_y
_atom_site_fract_z
Si Si1 0.121754 0.666186 0.159568
Si Si2 0.959467 0.822044 0.916408
Si Si3 0.321027 0.206263 0.408640
Si Si4 0.942983 0.778877 0.127118
Si Si5 0.437962 0.726066 0.729719
Si Si6 0.586948 0.369522 0.679812
Si Si7 0.229577 0.892732 0.346365
Si Si8 0.468434 0.113612 0.675542
O O1 0.173404 0.801096 0.253014
O O2 0.070611 0.761803 0.118965
O O3 0.280124 0.316947 0.915739
O O4 0.946457 0.809522 0.370782
O O5 0.126831 0.520736 0.635202
O O6 0.955129 0.761127 0.999352
O O7 0.772103 0.011663 0.051867
O O8 0.000000 0.000000 0.000000
O O9 0.461957 0.186275 0.285248
O O10 0.324024 0.964390 0.284053
O O11 0.372783 0.161583 0.474073
O O12 0.749204 0.072241 0.398729
O O13 0.000000 0.500000 0.000000
O O14 0.500000 0.500000 0.500000
O O15 0.487493 0.597803 0.752458
O O16 0.672657 0.338905 0.724521
O O17 0.472116 0.339861 0.768247
O O18 0.500000 0.000000 0.500000
#
# Coordination Sequence:
#
# PCOD9004653 Si02
#       8
#     2   2   2   2   2   2   2   2
#     4  10  21  39  70 100 131 172 216 280 336 388
#     4  12  24  39  62  94 137 175 214 271 346 390
#     4  11  24  39  62  97 130 170 227 269 324 401
#     4  11  21  36  63  97 125 162 214 277 334 388
#     4  12  23  40  61  94 138 179 216 274 339 393
#     4  10  21  38  56  90 134 166 217 265 324 399
#     4   9  22  44  67  95 129 179 229 269 321 392
#     4  11  22  35  65 101 127 157 216 279 335 385
#
# _framework density 22.134782999999999
#
# number of rings (size 3 to 8) (size 9 to 14) (size 15 to 20)
#    0.000    1.250    2.500    4.500    5.250    2.000 
#    0.000    0.000    0.000   16.500    0.000    0.000 
#    0.000    0.000    0.000    0.000    0.000    0.000 
#
# Total GULP energy -89176.356840 kJ/mol
# GULP energy per Si atom -5573.522303 kJ/mol
# Density = 2.208440 g / cm^3
# Si number density = 22.134783 Si / 1000 Ang^3
#
#
#
# Elastic Constant Matrix: (Units=GPa)
#
#
# Indices 1 2 3 4 5 6 
#
# 1 127.4555 57.2747 29.3088 6.3013 -24.8546 -13.4069
# 2 57.2747 132.4648 0.4387 14.4799 -24.9316 -8.2396
# 3 29.3088 0.4387 107.0346 16.0255 -34.7224 -10.6000
# 4 6.3013 14.4799 16.0255 17.2736 -3.5494 -11.7698
# 5 -24.8546 -24.9316 -34.7224 -3.5494 35.8568 3.3051
# 6 -13.4069 -8.2396 -10.6000 -11.7698 3.3051 31.4133
#
#
#
# Elastic Compliance Matrix: (Units=1/GPa)
#
#
# Indices 1 2 3 4 5 6 
#
# 1 0.011270 -0.004964 -0.003031 0.006409 0.001625 0.004715
# 2 -0.004964 0.013342 0.007043 -0.015875 0.011397 -0.003390
# 3 -0.003031 0.007043 0.019362 -0.020530 0.019761 -0.002684
# 4 0.006409 -0.015875 -0.020530 0.106985 -0.018994 0.033727
# 5 0.001625 0.011397 0.019761 -0.018994 0.054424 -0.002492
# 6 0.004715 -0.003390 -0.002684 0.033727 -0.002492 0.044950
#
#
# Mechanical properties :
#
#
# Convention : Reuss Voigt Hill
#
# Bulk Modulus (GPa) = 23.77057 60.11102 41.94079
# Shear Modulus (GPa) = 18.77855 35.57091 27.17473
#
# Velocity S-wave (km/s) = 2.91584 4.01311 3.50765
# Velocity P-wave (km/s) = 4.70091 6.97776 5.94927
#
# Compressibility (1/GPa) = 0.04206884
#
# Stress axis : x y z
#
# Youngs Moduli (GPa) = 88.73441 74.95300 51.64654
#
# Poissons Ratio (x) = 0.37208 0.15655
# Poissons Ratio (y) = 0.44049 -0.36374
# Poissons Ratio (z) = 0.26897 -0.52789
#
# Static dielectric constant tensor:
#      x y z
#    x 1.821880 0.030280 -0.005770 
#    y 0.030280 1.929690 -0.007190 
#    z -0.005770 -0.007190 1.881980 
# 
# From -- ./inp_files/530141.got.cif
#   From: 2010.05.17/outbox.cif.g08.bks.cpg/sg2_266_cif.got.tgz:530141.got - 2010.06.03 11:33:40.
