data_PCOD9004530
_publ_section_title
;
Structure prediction by ZEFSAII (Michael W. Deem and Ramdas Pophale) SiO2 
 PCOD9004530
Probable space group: P -1
;
_chemical_formula_sum "Si O2"
_cell_formula_units_Z 16
_cell_length_a 5.673015
_cell_length_b 7.924935
_cell_length_c 20.032355
_cell_angle_alpha 68.080994
_cell_angle_beta 121.023034
_cell_angle_gamma 100.632833
_cell_volume 715.969260
_symmetry_space_group_name_H-M "P -1"
_symmetry_group_IT_number 2
_symmetry_cell_setting 'triclinic'
loop_
_space_group_symop_operation_xyz
x,y,z
-x,-y,-z
loop_
_atom_site_type_symbol
_atom_site_label
_atom_site_fract_x
_atom_site_fract_y
_atom_site_fract_z
Si Si1 0.023937 0.396434 0.747864
Si Si2 0.644332 0.648530 0.452183
Si Si3 0.370355 0.624939 0.112778
Si Si4 0.299012 0.327503 0.250905
Si Si5 0.655164 0.996610 0.865802
Si Si6 0.290014 0.864739 0.950017
Si Si7 0.317553 0.937890 0.281491
Si Si8 0.830333 0.410348 0.389129
O O1 0.305000 0.396652 0.828251
O O2 0.052579 0.448594 0.667709
O O3 0.833609 0.545240 0.731994
O O4 0.906908 0.197498 0.759799
O O5 0.500000 0.500000 0.500000
O O6 0.478041 0.826069 0.378127
O O7 0.702233 0.533862 0.410456
O O8 0.925499 0.700055 0.523463
O O9 0.263661 0.443505 0.160448
O O10 0.303406 0.806014 0.121193
O O11 0.307151 0.672674 0.020273
O O12 0.612050 0.305140 0.327136
O O13 0.190726 0.126291 0.259631
O O14 0.444188 0.878886 0.898357
O O15 0.967909 0.920689 0.908474
O O16 0.517210 0.018841 0.769096
O O17 0.500000 0.000000 0.000000
#
# Coordination Sequence:
#
# PCOD9004530 Si02
#       8
#     2   2   2   2   2   2   2   2
#     4  11  21  44  66  92 137 173 221 275 333 402
#     4  11  21  41  72  92 128 171 221 270 341 399
#     4  10  21  40  68  95 135 177 220 280 332 398
#     4  11  24  41  64 101 131 173 226 267 340 400
#     4  11  22  40  66 101 134 179 232 279 340 411
#     4  10  21  37  69 102 130 179 237 275 340 410
#     4  12  23  42  68  95 133 177 220 277 338 403
#     4  10  21  42  66  96 126 174 217 275 337 401
#
# _framework density 22.347327
#
# number of rings (size 3 to 8) (size 9 to 14) (size 15 to 20)
#    0.000    1.250    3.750    3.750    1.750    0.500 
#   13.500    3.750    0.000    0.000    0.000    0.000 
#    0.000    0.000    0.000    0.000    0.000    0.000 
#
# Total GULP energy -89248.619477 kJ/mol
# GULP energy per Si atom -5578.038717 kJ/mol
# Density = 2.229646 g / cm^3
# Si number density = 22.347327 Si / 1000 Ang^3
#
#
#
# Elastic Constant Matrix: (Units=GPa)
#
#
# Indices 1 2 3 4 5 6 
#
# 1 25.3564 -1.6074 -2.1211 -3.5753 27.3533 118.1916
# 2 -1.6074 67.8207 7.3442 -16.5794 4.3607 41.3174
# 3 -2.1211 7.3442 98.6545 -20.0163 17.5217 83.0900
# 4 -3.5753 -16.5794 -20.0163 28.0636 -5.2034 -17.6500
# 5 27.3533 4.3607 17.5217 -5.2034 24.3613 -55.0380
# 6 118.1916 41.3174 83.0900 -17.6500 -55.0380 -164.3720
#
#
#
# Elastic Compliance Matrix: (Units=1/GPa)
#
#
# Indices 1 2 3 4 5 6 
#
# 1 0.012209 -0.002413 -0.004206 0.000828 0.001927 0.005312
# 2 -0.002413 0.016800 -0.000042 0.010367 0.002849 0.000400
# 3 -0.004206 -0.000042 0.010542 0.007842 0.001198 0.001051
# 4 0.000828 0.010367 0.007842 0.048591 0.003617 0.000737
# 5 0.001927 0.002849 0.001198 0.003617 0.024780 -0.005979
# 6 0.005312 0.000400 0.001051 0.000737 -0.005979 0.000291
#
#
# Mechanical properties :
#
#
# Convention : Reuss Voigt Hill
#
# Bulk Modulus (GPa) = 38.12440 22.11811 30.12126
# Shear Modulus (GPa) = 36.96114 -9.84168 13.55973
#
# Velocity S-wave (km/s) = 4.07128 -2.10084 2.46595
# Velocity P-wave (km/s) = 6.26078 2.00854 4.64928
#
# Compressibility (1/GPa) = 0.02622992
#
# Stress axis : x y z
#
# Youngs Moduli (GPa) = 81.90403 59.52431 94.85738
#
# Poissons Ratio (x) = 0.14363 0.39899
# Poissons Ratio (y) = 0.19763 0.00395
# Poissons Ratio (z) = 0.34451 0.00248
#
# Static dielectric constant tensor:
#      x y z
#    x 1.898510 0.037990 0.010860 
#    y 0.037990 1.929060 -0.007270 
#    z 0.010860 -0.007270 1.897000 
# 
# From -- ./inp_files/582359.got.cif
#   From: 2010.05.17/outbox.cif.g08.bks.cpg/sg2_292_cif.got.tgz:582359.got - 2010.06.03 11:33:40.
