data_PCOD9004829
_publ_section_title
;
Structure prediction by ZEFSAII (Michael W. Deem and Ramdas Pophale) SiO2 
 PCOD9004829
Probable space group: P -1
;
_chemical_formula_sum "Si O2"
_cell_formula_units_Z 16
_cell_length_a 8.397352
_cell_length_b 17.115706
_cell_length_c 6.268919
_cell_angle_alpha 76.764906
_cell_angle_beta 93.625299
_cell_angle_gamma 120.902418
_cell_volume 750.976369
_symmetry_space_group_name_H-M "P -1"
_symmetry_group_IT_number 2
_symmetry_cell_setting 'triclinic'
loop_
_space_group_symop_operation_xyz
x,y,z
-x,-y,-z
loop_
_atom_site_type_symbol
_atom_site_label
_atom_site_fract_x
_atom_site_fract_y
_atom_site_fract_z
Si Si1 0.978140 0.246321 0.130924
Si Si2 0.650212 0.704223 0.616935
Si Si3 0.906617 0.024111 0.784676
Si Si4 0.268326 0.102094 0.519335
Si Si5 0.016425 0.416144 0.273503
Si Si6 0.707744 0.463700 0.130115
Si Si7 0.301068 0.951996 0.906777
Si Si8 0.202715 0.366000 0.691058
O O1 0.066655 0.280046 0.883517
O O2 0.795729 0.143452 0.176631
O O3 0.149070 0.254146 0.277925
O O4 0.939604 0.325004 0.171365
O O5 0.608431 0.787096 0.517425
O O6 0.491141 0.628844 0.804659
O O7 0.668605 0.656805 0.431815
O O8 0.065712 0.081079 0.592396
O O9 0.752012 0.933127 0.703034
O O10 0.823780 0.075691 0.872455
O O11 0.000000 0.000000 0.000000
O O12 0.304132 0.033604 0.711317
O O13 0.079647 0.389364 0.509682
O O14 0.862899 0.445547 0.262773
O O15 0.201110 0.497026 0.118014
O O16 0.693950 0.544942 0.200423
O O17 0.500000 0.000000 0.000000
#
# Coordination Sequence:
#
# PCOD9004829 Si02
#       8
#     2   2   2   2   2   2   2   2
#     4  10  22  39  58  85 118 154 196 244 291 347
#     4  11  22  36  60  89 117 152 199 243 289 347
#     4   9  18  36  59  80 111 151 193 237 288 343
#     4  10  21  38  59  85 118 156 195 243 294 346
#     4   9  21  40  60  85 121 155 189 237 295 351
#     4  10  21  38  60  89 119 152 193 239 289 348
#     4  11  24  40  60  87 120 157 199 246 298 353
#     4  10  21  38  61  86 118 155 191 239 293 347
#
# _framework density 21.305599000000001
#
# number of rings (size 3 to 8) (size 9 to 14) (size 15 to 20)
#    0.000    2.000    0.000    3.750    0.000   10.000 
#    0.000    0.000    0.000    0.000    0.000    0.000 
#    0.000    0.000    0.000    0.000    0.000    0.000 
#
# Total GULP energy -89258.828425 kJ/mol
# GULP energy per Si atom -5578.676777 kJ/mol
# Density = 2.125711 g / cm^3
# Si number density = 21.305599 Si / 1000 Ang^3
#
#
#
# Elastic Constant Matrix: (Units=GPa)
#
#
# Indices 1 2 3 4 5 6 
#
# 1 33.7844 45.6240 13.9500 -1.6752 3.7888 -2.9454
# 2 45.6240 146.8904 22.3828 -16.5625 -0.6913 -2.7050
# 3 13.9500 22.3828 67.6797 -5.7535 2.3503 -9.5706
# 4 -1.6752 -16.5625 -5.7535 25.5220 -9.6873 4.1786
# 5 3.7888 -0.6913 2.3503 -9.6873 16.6279 4.4680
# 6 -2.9454 -2.7050 -9.5706 4.1786 4.4680 26.3252
#
#
#
# Elastic Compliance Matrix: (Units=1/GPa)
#
#
# Indices 1 2 3 4 5 6 
#
# 1 0.066066 -0.022644 -0.005343 -0.026779 -0.034391 0.013210
# 2 -0.022644 0.015724 -0.000693 0.016136 0.017094 -0.006632
# 3 -0.005343 -0.000693 0.017091 0.001393 -0.001934 0.005652
# 4 -0.026779 0.016136 0.001393 0.072472 0.054602 -0.021602
# 5 -0.034391 0.017094 -0.001934 0.054602 0.108813 -0.029929
# 6 0.013210 -0.006632 0.005652 -0.021602 -0.029929 0.049346
#
#
# Mechanical properties :
#
#
# Convention : Reuss Voigt Hill
#
# Bulk Modulus (GPa) = 24.08376 45.80756 34.94566
# Shear Modulus (GPa) = 12.47784 24.78818 18.63301
#
# Velocity S-wave (km/s) = 2.42267 3.41465 2.96050
# Velocity P-wave (km/s) = 4.37656 6.09043 5.30319
#
# Compressibility (1/GPa) = 0.04152176
#
# Stress axis : x y z
#
# Youngs Moduli (GPa) = 15.13648 63.59611 58.51171
#
# Poissons Ratio (x) = 1.44006 0.31261
# Poissons Ratio (y) = 0.34275 0.04053
# Poissons Ratio (z) = 0.08087 0.04405
#
# Static dielectric constant tensor:
#      x y z
#    x 1.741150 -0.058440 0.019310 
#    y -0.058440 1.789460 0.033140 
#    z 0.019310 0.033140 1.754010 
# 
# From -- ./inp_files/47515.got.cif
#   From: 2010.05.17/outbox.cif.g08.bks.cpg/sg2_24_cif.got.tgz:47515.got - 2010.06.03 11:33:40.
