data_PCOD9004735
_publ_section_title
;
Structure prediction by ZEFSAII (Michael W. Deem and Ramdas Pophale) SiO2 
 PCOD9004735
Probable space group: P -1
;
_chemical_formula_sum "Si O2"
_cell_formula_units_Z 14
_cell_length_a 17.675653
_cell_length_b 10.894510
_cell_length_c 13.874097
_cell_angle_alpha 148.365373
_cell_angle_beta 150.904107
_cell_angle_gamma 25.826880
_cell_volume 538.790141
_symmetry_space_group_name_H-M "P -1"
_symmetry_group_IT_number 2
_symmetry_cell_setting 'triclinic'
loop_
_space_group_symop_operation_xyz
x,y,z
-x,-y,-z
loop_
_atom_site_type_symbol
_atom_site_label
_atom_site_fract_x
_atom_site_fract_y
_atom_site_fract_z
Si Si1 0.813286 0.716132 0.505414
Si Si2 0.206861 0.175253 0.933054
Si Si3 0.674462 0.238741 0.581220
Si Si4 0.100194 0.855269 0.741266
Si Si5 0.230414 0.406685 0.311405
Si Si6 0.253203 0.955791 0.161922
Si Si7 0.500369 0.584850 0.791502
O O1 0.773457 0.496412 0.355057
O O2 0.849911 0.845496 0.724935
O O3 0.000000 0.500000 0.500000
O O4 0.659012 0.999775 0.457499
O O5 0.005185 0.390760 0.793136
O O6 0.169011 0.976701 0.821705
O O7 0.402233 0.925465 0.927037
O O8 0.231654 0.347832 0.158714
O O9 0.500000 0.500000 0.500000
O O10 0.669733 0.421257 0.789098
O O11 0.867386 0.033704 0.594125
O O12 0.122055 0.942556 0.930162
O O13 0.327879 0.112624 0.288720
O O14 0.330183 0.560631 0.549759
O O15 0.407355 0.623665 0.151325
#
# Coordination Sequence:
#
# PCOD9004735 Si02
#       7
#     2   2   2   2   2   2   2
#     4   9  20  36  58  81 111 153 190 228 281 342
#     4  10  22  38  62  87 114 155 193 234 287 340
#     4  10  22  39  60  87 117 151 191 240 291 338
#     4  10  21  41  61  82 118 156 192 232 285 349
#     4  10  21  38  58  86 120 150 190 237 287 342
#     4  10  22  37  59  87 116 151 193 240 285 336
#     4  11  22  36  60  88 116 149 191 242 286 337
#
# _framework density 25.984143
#
# number of rings (size 3 to 8) (size 9 to 14) (size 15 to 20)
#    0.000    2.000    0.000    2.571    0.000   13.143 
#    0.000    1.429    0.000   18.857    0.000    0.000 
#    0.000    0.000    0.000    0.000    0.000    0.000 
#
# Total GULP energy -78338.645259 kJ/mol
# GULP energy per Si atom -5595.617519 kJ/mol
# Density = 2.592500 g / cm^3
# Si number density = 25.984143 Si / 1000 Ang^3
#
#
#
# Elastic Constant Matrix: (Units=GPa)
#
#
# Indices 1 2 3 4 5 6 
#
# 1 59.1878 36.1964 -16.3774 -3.8312 -1.8781 0.9680
# 2 36.1964 162.2055 31.4855 13.3248 -11.9564 16.4472
# 3 -16.3774 31.4855 41.5562 5.8803 -5.9546 5.6315
# 4 -3.8312 13.3248 5.8803 43.4431 1.5120 -10.1606
# 5 -1.8781 -11.9564 -5.9546 1.5120 17.9467 7.7875
# 6 0.9680 16.4472 5.6315 -10.1606 7.7875 50.9146
#
#
#
# Elastic Compliance Matrix: (Units=1/GPa)
#
#
# Indices 1 2 3 4 5 6 
#
# 1 0.028586 -0.010276 0.018642 0.003364 0.001549 0.001149
# 2 -0.010276 0.011728 -0.011080 -0.004111 0.005132 -0.003973
# 3 0.018642 -0.011080 0.041945 -0.001759 0.010069 -0.003306
# 4 0.003364 -0.004111 -0.001759 0.027039 -0.008808 0.008202
# 5 0.001549 0.005132 0.010069 -0.008808 0.070009 -0.015267
# 6 0.001149 -0.003973 -0.003306 0.008202 -0.015267 0.025240
#
#
# Mechanical properties :
#
#
# Convention : Reuss Voigt Hill
#
# Bulk Modulus (GPa) = 13.01562 40.61762 26.81662
# Shear Modulus (GPa) = 21.22362 36.57055 28.89709
#
# Velocity S-wave (km/s) = 2.86106 3.75563 3.33844
# Velocity P-wave (km/s) = 3.99176 5.87128 5.02026
#
# Compressibility (1/GPa) = 0.07683074
#
# Stress axis : x y z
#
# Youngs Moduli (GPa) = 34.98170 85.26707 23.84056
#
# Poissons Ratio (x) = 0.87624 -0.44444
# Poissons Ratio (y) = 0.35949 0.26416
# Poissons Ratio (z) = -0.65213 0.94477
#
# Static dielectric constant tensor:
#      x y z
#    x 2.139230 -0.032720 0.038160 
#    y -0.032720 2.040570 0.008680 
#    z 0.038160 0.008680 2.039170 
# 
# From -- ./inp_files/253034.got.cif
#   From: 2010.05.17/outbox.cif.g08.bks.cpg/sg2_127_cif.got.tgz:253034.got - 2010.06.03 11:33:40.
