data_PCOD9004181
_publ_section_title
;
Structure prediction by ZEFSAII (Michael W. Deem and Ramdas Pophale) SiO2 
 PCOD9004181
Probable space group: P -1
;
_chemical_formula_sum "Si O2"
_cell_formula_units_Z 16
_cell_length_a 9.101190
_cell_length_b 11.286224
_cell_length_c 7.312471
_cell_angle_alpha 82.733224
_cell_angle_beta 76.006389
_cell_angle_gamma 65.891955
_cell_volume 664.934727
_symmetry_space_group_name_H-M "P -1"
_symmetry_group_IT_number 2
_symmetry_cell_setting 'triclinic'
loop_
_space_group_symop_operation_xyz
x,y,z
-x,-y,-z
loop_
_atom_site_type_symbol
_atom_site_label
_atom_site_fract_x
_atom_site_fract_y
_atom_site_fract_z
Si Si1 0.143834 0.439718 0.322863
Si Si2 0.180329 0.835184 0.826445
Si Si3 0.251367 0.648894 0.351162
Si Si4 0.462047 0.218395 0.279741
Si Si5 0.586135 0.679910 0.148077
Si Si6 0.458193 0.960025 0.220674
Si Si7 0.863367 0.410257 0.212444
Si Si8 0.127868 0.933401 0.235512
O O1 0.212237 0.551269 0.246506
O O2 0.293491 0.320573 0.389848
O O3 0.000000 0.500000 0.500000
O O4 0.047848 0.397957 0.202467
O O5 0.364754 0.785131 0.703190
O O6 0.131692 0.712143 0.882738
O O7 0.177240 0.900649 0.012309
O O8 0.045081 0.946270 0.727051
O O9 0.431794 0.645066 0.258852
O O10 0.223233 0.605986 0.569335
O O11 0.129918 0.798697 0.335945
O O12 0.472530 0.072925 0.315767
O O13 0.442207 0.271964 0.064125
O O14 0.573173 0.808336 0.238836
O O15 0.748938 0.552503 0.149697
O O16 0.273192 0.966071 0.273336
O O17 0.500000 0.000000 0.000000
#
# Coordination Sequence:
#
# PCOD9004181 Si02
#       8
#     2   2   2   2   2   2   2   2
#     4  10  24  42  60  86 128 169 203 256 313 366
#     4  11  22  37  62  97 122 157 214 254 306 371
#     4  10  21  43  63  84 128 168 198 260 311 366
#     4  11  21  39  66  93 128 162 205 260 311 367
#     4  10  21  37  64  96 121 163 205 257 308 366
#     4   9  17  37  58  93 128 160 194 255 312 360
#     4  11  24  39  60  90 126 165 212 252 306 372
#     4  10  21  39  64  91 127 161 206 260 309 366
#
# _framework density 24.062512999999999
#
# number of rings (size 3 to 8) (size 9 to 14) (size 15 to 20)
#    0.000    1.750    3.750    1.875    1.750    4.000 
#    2.250    1.250    0.000    9.000    0.000    0.000 
#    0.000    0.000    0.000    0.000    0.000    0.000 
#
# Total GULP energy -89531.617443 kJ/mol
# GULP energy per Si atom -5595.726090 kJ/mol
# Density = 2.400775 g / cm^3
# Si number density = 24.062513 Si / 1000 Ang^3
#
#
#
# Elastic Constant Matrix: (Units=GPa)
#
#
# Indices 1 2 3 4 5 6 
#
# 1 119.5604 91.4154 9.1870 -7.7782 -8.9155 1.4333
# 2 91.4154 184.0729 11.5684 -16.8409 -6.5108 -5.8587
# 3 9.1870 11.5684 72.5178 -14.0322 -10.5962 -6.7204
# 4 -7.7782 -16.8409 -14.0322 35.9427 -6.4129 -2.0656
# 5 -8.9155 -6.5108 -10.5962 -6.4129 21.0523 -1.4381
# 6 1.4333 -5.8587 -6.7204 -2.0656 -1.4381 61.9261
#
#
#
# Elastic Compliance Matrix: (Units=1/GPa)
#
#
# Indices 1 2 3 4 5 6 
#
# 1 0.013827 -0.006714 -0.000126 0.000423 0.003785 -0.000867
# 2 -0.006714 0.009123 0.000303 0.003220 0.001192 0.001186
# 3 -0.000126 0.000303 0.017497 0.009199 0.011821 0.002512
# 4 0.000423 0.003220 0.009199 0.036220 0.017036 0.002897
# 5 0.003785 0.001192 0.011821 0.017036 0.060836 0.003289
# 6 -0.000867 0.001186 0.002512 0.002897 0.003289 0.016726
#
#
# Mechanical properties :
#
#
# Convention : Reuss Voigt Hill
#
# Bulk Modulus (GPa) = 36.53332 66.72141 51.62737
# Shear Modulus (GPa) = 28.33996 41.38292 34.86144
#
# Velocity S-wave (km/s) = 3.43558 4.15156 3.81042
# Velocity P-wave (km/s) = 5.56356 7.12525 6.39228
#
# Compressibility (1/GPa) = 0.02737227
#
# Stress axis : x y z
#
# Youngs Moduli (GPa) = 72.31985 109.61761 57.15122
#
# Poissons Ratio (x) = 0.73599 0.00721
# Poissons Ratio (y) = 0.48557 -0.01730
# Poissons Ratio (z) = 0.00912 -0.03317
#
# Static dielectric constant tensor:
#      x y z
#    x 1.888420 0.014810 0.053040 
#    y 0.014810 1.912840 0.051930 
#    z 0.053040 0.051930 2.036310 
# 
# From -- ./inp_files/177551.got.cif
#   From: 2010.05.17/outbox.cif.g08.bks.cpg/sg2_89_cif.got.tgz:177551.got - 2010.06.03 11:33:40.
