data_PCOD9004501
_publ_section_title
;
Structure prediction by ZEFSAII (Michael W. Deem and Ramdas Pophale) SiO2 
 PCOD9004501
Probable space group: P -1
;
_chemical_formula_sum "Si O2"
_cell_formula_units_Z 16
_cell_length_a 15.966446
_cell_length_b 10.029786
_cell_length_c 9.367867
_cell_angle_alpha 63.228631
_cell_angle_beta 131.966213
_cell_angle_gamma 84.850693
_cell_volume 804.853155
_symmetry_space_group_name_H-M "P -1"
_symmetry_group_IT_number 2
_symmetry_cell_setting 'triclinic'
loop_
_space_group_symop_operation_xyz
x,y,z
-x,-y,-z
loop_
_atom_site_type_symbol
_atom_site_label
_atom_site_fract_x
_atom_site_fract_y
_atom_site_fract_z
Si Si1 0.896083 0.670809 0.198430
Si Si2 0.100265 0.754864 0.866803
Si Si3 0.613373 0.784120 0.700692
Si Si4 0.103415 0.089608 0.683042
Si Si5 0.578838 0.481514 0.746751
Si Si6 0.348668 0.175879 0.598744
Si Si7 0.392798 0.854199 0.958197
Si Si8 0.075923 0.542353 0.182096
O O1 0.873416 0.838771 0.180995
O O2 0.000000 0.500000 0.500000
O O3 0.978914 0.634219 0.163988
O O4 0.749298 0.701169 0.993783
O O5 0.004118 0.759361 0.629725
O O6 0.051613 0.964000 0.722000
O O7 0.258191 0.630737 0.052285
O O8 0.096411 0.678669 0.051541
O O9 0.544994 0.672214 0.677273
O O10 0.671525 0.766303 0.615923
O O11 0.500000 0.000000 0.500000
O O12 0.250676 0.963945 0.832416
O O13 0.500000 0.500000 0.500000
O O14 0.561826 0.354479 0.896358
O O15 0.224046 0.343954 0.469909
O O16 0.362816 0.986554 0.726683
O O17 0.489500 0.147593 0.821013
O O18 0.000000 0.500000 0.000000
#
# Coordination Sequence:
#
# PCOD9004501 Si02
#       8
#     2   2   2   2   2   2   2   2
#     4  12  25  40  64  93 133 174 214 271 328 386
#     4  10  21  39  67  92 123 168 220 262 318 401
#     4  12  25  41  66  97 133 167 220 273 326 389
#     4  10  22  40  63  96 126 166 215 268 327 378
#     4  11  20  40  65  93 123 171 218 260 320 390
#     4  11  21  39  61  99 121 169 220 263 324 389
#     4  10  21  37  68  90 127 162 221 267 315 393
#     4  12  21  38  63  89 127 168 217 260 320 390
#
# _framework density 19.879404000000001
#
# number of rings (size 3 to 8) (size 9 to 14) (size 15 to 20)
#    0.000    1.000    3.750    3.750    1.750    1.500 
#    0.000    0.625    2.750    0.000    0.000    0.000 
#    0.000    0.000    0.000    0.000    0.000    0.000 
#
# Total GULP energy -89309.553476 kJ/mol
# GULP energy per Si atom -5581.847092 kJ/mol
# Density = 1.983416 g / cm^3
# Si number density = 19.879404 Si / 1000 Ang^3
#
#
#
# Elastic Constant Matrix: (Units=GPa)
#
#
# Indices 1 2 3 4 5 6 
#
# 1 67.5368 25.6880 16.3720 -5.1378 -8.9495 26.3958
# 2 25.6880 108.5063 27.8526 0.3606 -9.5332 25.7502
# 3 16.3720 27.8526 105.5357 3.6855 10.8569 14.0482
# 4 -5.1378 0.3606 3.6855 32.7001 8.7555 -7.9051
# 5 -8.9495 -9.5332 10.8569 8.7555 41.8455 -11.6625
# 6 26.3958 25.7502 14.0482 -7.9051 -11.6625 32.1010
#
#
#
# Elastic Compliance Matrix: (Units=1/GPa)
#
#
# Indices 1 2 3 4 5 6 
#
# 1 0.022019 -0.000919 -0.000887 -0.000586 0.000089 -0.017092
# 2 -0.000919 0.011989 -0.001993 -0.002355 0.001287 -0.008101
# 3 -0.000887 -0.001993 0.011263 -0.001268 -0.004576 -0.004576
# 4 -0.000586 -0.002355 -0.001268 0.034273 -0.004825 0.009613
# 5 0.000089 0.001287 -0.004576 -0.004825 0.029291 0.010351
# 6 -0.017092 -0.008101 -0.004576 0.009613 0.010351 0.059835
#
#
# Mechanical properties :
#
#
# Convention : Reuss Voigt Hill
#
# Bulk Modulus (GPa) = 26.54466 46.82268 36.68367
# Shear Modulus (GPa) = 26.47948 35.44041 30.95995
#
# Velocity S-wave (km/s) = 3.65362 4.22687 3.95066
# Velocity P-wave (km/s) = 5.58395 6.88668 6.26924
#
# Compressibility (1/GPa) = 0.03767236
#
# Stress axis : x y z
#
# Youngs Moduli (GPa) = 45.41605 83.41173 88.78493
#
# Poissons Ratio (x) = 0.07667 0.07873
# Poissons Ratio (y) = 0.04175 0.17696
# Poissons Ratio (z) = 0.04027 0.16625
#
# Static dielectric constant tensor:
#      x y z
#    x 1.706810 0.042330 -0.022130 
#    y 0.042330 1.757620 -0.048530 
#    z -0.022130 -0.048530 1.761510 
# 
# From -- ./inp_files/243186.got.cif
#   From: 2010.05.17/outbox.cif.g08.bks.cpg/sg2_122_cif.got.tgz:243186.got - 2010.06.03 11:33:40.
