data_PCOD9004636
_publ_section_title
;
Structure prediction by ZEFSAII (Michael W. Deem and Ramdas Pophale) SiO2 
 PCOD9004636
Probable space group: P -1
;
_chemical_formula_sum "Si O2"
_cell_formula_units_Z 16
_cell_length_a 22.207123
_cell_length_b 20.346387
_cell_length_c 13.406551
_cell_angle_alpha 141.200414
_cell_angle_beta 142.568867
_cell_angle_gamma 12.576425
_cell_volume 801.260411
_symmetry_space_group_name_H-M "P -1"
_symmetry_group_IT_number 2
_symmetry_cell_setting 'triclinic'
loop_
_space_group_symop_operation_xyz
x,y,z
-x,-y,-z
loop_
_atom_site_type_symbol
_atom_site_label
_atom_site_fract_x
_atom_site_fract_y
_atom_site_fract_z
Si Si1 0.375909 0.041460 0.091619
Si Si2 0.221862 0.349209 0.549266
Si Si3 0.543014 0.712373 0.074357
Si Si4 0.340737 0.722342 0.465542
Si Si5 0.879424 0.313517 0.668133
Si Si6 0.465683 0.907079 0.837964
Si Si7 0.922622 0.636256 0.288108
Si Si8 0.981126 0.161125 0.856459
O O1 0.130147 0.370697 0.170001
O O2 0.361823 0.981890 0.098028
O O3 0.680391 0.797270 0.200656
O O4 0.362658 0.987102 0.909390
O O5 0.301386 0.380373 0.742409
O O6 0.000000 0.500000 0.500000
O O7 0.102897 0.488313 0.446588
O O8 0.500000 0.000000 0.500000
O O9 0.775002 0.440370 0.979534
O O10 0.307590 0.857583 0.958564
O O11 0.500000 0.500000 0.500000
O O12 0.603879 0.516460 0.513956
O O13 0.141603 0.833882 0.283643
O O14 0.139352 0.011418 0.588752
O O15 0.751307 0.557897 0.782366
O O16 0.950195 0.218495 0.765401
O O17 0.245982 0.110438 0.698948
O O18 0.500000 0.000000 0.000000
#
# Coordination Sequence:
#
# PCOD9004636 Si02
#       8
#     2   2   2   2   2   2   2   2
#     4  11  21  36  54  79 115 156 188 226 279 334
#     4  12  22  37  55  78 112 155 199 233 284 335
#     4  12  21  32  57  81 110 150 186 230 294 328
#     4  10  21  38  56  83 114 150 187 236 292 348
#     4  11  21  36  58  81 118 156 183 226 293 344
#     4  10  24  37  57  87 120 157 194 225 273 350
#     4  11  22  39  53  76 115 158 196 234 264 334
#     4  11  21  35  55  84 112 141 190 240 285 342
#
# _framework density 19.968540999999998
#
# number of rings (size 3 to 8) (size 9 to 14) (size 15 to 20)
#    0.000    1.000    3.750    5.625    1.750    2.000 
#    0.000    0.000    0.000    0.000    0.000    5.250 
#    0.000    0.000    0.000    0.000    0.000    0.000 
#
# Total GULP energy -89382.379309 kJ/mol
# GULP energy per Si atom -5586.398707 kJ/mol
# Density = 1.992309 g / cm^3
# Si number density = 19.968541 Si / 1000 Ang^3
#
#
#
# Elastic Constant Matrix: (Units=GPa)
#
#
# Indices 1 2 3 4 5 6 
#
# 1 26.0455 15.6951 20.1999 -12.4136 -0.4526 2.4617
# 2 15.6951 103.4002 28.5547 -3.2992 -8.6982 -10.7037
# 3 20.1999 28.5547 113.2204 -24.5341 0.1707 3.5556
# 4 -12.4136 -3.2992 -24.5341 42.3972 -0.0243 3.8278
# 5 -0.4526 -8.6982 0.1707 -0.0243 29.6998 -7.1294
# 6 2.4617 -10.7037 3.5556 3.8278 -7.1294 38.7160
#
#
#
# Elastic Compliance Matrix: (Units=1/GPa)
#
#
# Indices 1 2 3 4 5 6 
#
# 1 0.053145 -0.007331 -0.004612 0.012934 -0.002933 -0.006801
# 2 -0.007331 0.012380 -0.002686 -0.003217 0.004809 0.005339
# 3 -0.004612 -0.002686 0.011565 0.005341 -0.001474 -0.002311
# 4 0.012934 -0.003217 0.005341 0.030720 -0.002101 -0.005626
# 5 -0.002933 0.004809 -0.001474 -0.002101 0.037128 0.008696
# 6 -0.006801 0.005339 -0.002311 -0.005626 0.008696 0.030107
#
#
# Mechanical properties :
#
#
# Convention : Reuss Voigt Hill
#
# Bulk Modulus (GPa) = 20.90704 41.28504 31.09604
# Shear Modulus (GPa) = 22.70152 34.04369 28.37260
#
# Velocity S-wave (km/s) = 3.37540 4.13348 3.77353
# Velocity P-wave (km/s) = 5.06792 6.59552 5.88152
#
# Compressibility (1/GPa) = 0.04783079
#
# Stress axis : x y z
#
# Youngs Moduli (GPa) = 18.81631 80.77277 86.46941
#
# Poissons Ratio (x) = 0.59217 0.39881
# Poissons Ratio (y) = 0.13795 0.23229
# Poissons Ratio (z) = 0.08678 0.21699
#
# Static dielectric constant tensor:
#      x y z
#    x 1.738540 -0.012090 0.045180 
#    y -0.012090 1.704170 -0.033110 
#    z 0.045180 -0.033110 1.776690 
# 
# From -- ./inp_files/534677.got.cif
#   From: 2010.05.17/outbox.cif.g08.bks.cpg/sg2_268_cif.got.tgz:534677.got - 2010.06.03 11:33:40.
