data_PCOD9004313
_publ_section_title
;
Structure prediction by ZEFSAII (Michael W. Deem and Ramdas Pophale) SiO2 
 PCOD9004313
Probable space group: P -1
;
_chemical_formula_sum "Si O2"
_cell_formula_units_Z 16
_cell_length_a 8.430768
_cell_length_b 18.889200
_cell_length_c 21.397466
_cell_angle_alpha 21.567712
_cell_angle_beta 144.430157
_cell_angle_gamma 146.974157
_cell_volume 672.980390
_symmetry_space_group_name_H-M "P -1"
_symmetry_group_IT_number 2
_symmetry_cell_setting 'triclinic'
loop_
_space_group_symop_operation_xyz
x,y,z
-x,-y,-z
loop_
_atom_site_type_symbol
_atom_site_label
_atom_site_fract_x
_atom_site_fract_y
_atom_site_fract_z
Si Si1 0.710708 0.493973 0.518027
Si Si2 0.924413 0.954111 0.160962
Si Si3 0.900152 0.262168 0.369817
Si Si4 0.260118 0.219456 0.409226
Si Si5 0.733486 0.554413 0.898537
Si Si6 0.209275 0.106301 0.263513
Si Si7 0.932143 0.625222 0.173180
Si Si8 0.239277 0.740303 0.375436
O O1 0.500000 0.500000 0.500000
O O2 0.583091 0.287310 0.604466
O O3 0.751476 0.708443 0.319789
O O4 0.993792 0.467223 0.663228
O O5 0.113151 0.919002 0.191168
O O6 0.058133 0.036871 0.204862
O O7 0.834250 0.139462 0.955467
O O8 0.560484 0.172067 0.311942
O O9 0.954933 0.469208 0.256277
O O10 0.125276 0.322916 0.334002
O O11 0.903680 0.083901 0.566328
O O12 0.317860 0.307224 0.286784
O O13 0.551608 0.209500 0.539341
O O14 0.000000 0.000000 0.500000
O O15 0.817415 0.693031 0.874662
O O16 0.400890 0.378140 0.939909
O O17 0.000000 0.500000 0.000000
O O18 0.000000 0.500000 0.500000
#
# Coordination Sequence:
#
# PCOD9004313 Si02
#       8
#     2   2   2   2   2   2   2   2
#     4  11  24  48  73  98 133 176 239 294 348 410
#     4  11  24  42  70  96 137 182 231 278 357 415
#     4  10  21  37  65  95 133 181 231 279 349 407
#     4  12  23  40  71 100 131 179 239 288 348 418
#     4  11  26  40  60 105 146 177 231 291 353 412
#     4  10  21  40  63  94 137 188 221 282 348 422
#     4  11  25  44  68  99 138 183 230 287 347 427
#     4  10  24  43  69  97 135 185 229 285 350 417
#
# _framework density 23.774837999999999
#
# number of rings (size 3 to 8) (size 9 to 14) (size 15 to 20)
#    0.000    1.250    2.500    3.000    7.000    2.000 
#    0.000    0.000    0.000    0.000    0.000    0.000 
#    0.000    0.000    0.000    0.000    0.000    0.000 
#
# Total GULP energy -89224.441334 kJ/mol
# GULP energy per Si atom -5576.527583 kJ/mol
# Density = 2.372073 g / cm^3
# Si number density = 23.774838 Si / 1000 Ang^3
#
#
#
# Elastic Constant Matrix: (Units=GPa)
#
#
# Indices 1 2 3 4 5 6 
#
# 1 61.7646 -3.2905 9.7750 -12.3128 4.8977 -18.5642
# 2 -3.2905 63.6255 8.3881 -5.5608 8.4120 -12.0395
# 3 9.7750 8.3881 74.4953 -22.6224 5.0171 -1.0168
# 4 -12.3128 -5.5608 -22.6224 32.9563 -1.6515 3.4472
# 5 4.8977 8.4120 5.0171 -1.6515 34.1130 -3.3870
# 6 -18.5642 -12.0395 -1.0168 3.4472 -3.3870 39.0649
#
#
#
# Elastic Compliance Matrix: (Units=1/GPa)
#
#
# Indices 1 2 3 4 5 6 
#
# 1 0.021282 0.004147 -0.000871 0.006821 -0.002573 0.010544
# 2 0.004147 0.018206 -0.001396 0.002732 -0.004057 0.006953
# 3 -0.000871 -0.001396 0.017232 0.011345 -0.001669 -0.001541
# 4 0.006821 0.002732 0.011345 0.041009 -0.001272 0.000650
# 5 -0.002573 -0.004057 -0.001669 -0.001272 0.030895 0.000274
# 6 0.010544 0.006953 -0.001541 0.000650 0.000274 0.032678
#
#
# Mechanical properties :
#
#
# Convention : Reuss Voigt Hill
#
# Bulk Modulus (GPa) = 16.53438 25.51452 21.02445
# Shear Modulus (GPa) = 28.13688 33.56105 30.84896
#
# Velocity S-wave (km/s) = 3.44390 3.76123 3.60606
# Velocity P-wave (km/s) = 4.77321 5.44220 5.11865
#
# Compressibility (1/GPa) = 0.06048005
#
# Stress axis : x y z
#
# Youngs Moduli (GPa) = 46.98744 54.92604 58.03250
#
# Poissons Ratio (x) = -0.22778 0.05054
# Poissons Ratio (y) = -0.19486 0.08103
# Poissons Ratio (z) = 0.04092 0.07669
#
# Static dielectric constant tensor:
#      x y z
#    x 3.518050 0.028670 -0.305390 
#    y 0.028670 1.898560 0.024400 
#    z -0.305390 0.024400 1.969420 
# 
# From -- ./inp_files/579900.got.cif
#   From: 2010.05.17/outbox.cif.g08.bks.cpg/sg2_290_cif.got.tgz:579900.got - 2010.06.03 11:33:40.
