data_PCOD9004340
_publ_section_title
;
Structure prediction by ZEFSAII (Michael W. Deem and Ramdas Pophale) SiO2 
 PCOD9004340
Probable space group: P -1
;
_chemical_formula_sum "Si O2"
_cell_formula_units_Z 13
_cell_length_a 7.969988
_cell_length_b 11.141324
_cell_length_c 5.506472
_cell_angle_alpha 99.899147
_cell_angle_beta 69.721853
_cell_angle_gamma 88.605939
_cell_volume 449.954017
_symmetry_space_group_name_H-M "P -1"
_symmetry_group_IT_number 2
_symmetry_cell_setting 'triclinic'
loop_
_space_group_symop_operation_xyz
x,y,z
-x,-y,-z
loop_
_atom_site_type_symbol
_atom_site_label
_atom_site_fract_x
_atom_site_fract_y
_atom_site_fract_z
Si Si1 0.996172 0.422558 0.726572
Si Si2 0.690674 0.316671 0.567710
Si Si3 0.500000 0.500000 0.500000
Si Si4 0.430732 0.885855 0.750348
Si Si5 0.850795 0.842783 0.409134
Si Si6 0.587872 0.684922 0.940662
Si Si7 0.155569 0.113169 0.069287
O O1 0.819459 0.350334 0.726799
O O2 0.000000 0.500000 0.500000
O O3 0.137796 0.303825 0.641560
O O4 0.000000 0.500000 0.000000
O O5 0.688366 0.406423 0.371366
O O6 0.677645 0.182188 0.424527
O O7 0.485242 0.358949 0.779220
O O8 0.586279 0.581527 0.706308
O O9 0.636667 0.890028 0.550698
O O10 0.454450 0.796607 0.940009
O O11 0.321117 0.010320 0.926096
O O12 0.944093 0.885924 0.134908
O O13 0.935782 0.888118 0.627541
O O14 0.765090 0.753115 0.920033
#
# Coordination Sequence:
#
# PCOD9004340 Si02
#       7
#     2   2   1   2   2   2   2
#     4  12  31  48  69  96 146 193 229 277 348 424
#     4  11  25  41  68  95 140 175 236 283 349 398
#     4  10  24  38  64 102 130 176 234 294 336 394
#     4  10  23  41  72 102 134 173 233 291 337 404
#     4  11  23  44  67 104 132 185 228 279 342 408
#     4  10  21  37  65  99 133 169 225 287 346 391
#     4  11  23  41  75 102 137 176 231 285 344 402
#
# _framework density 28.891840999999999
#
# number of rings (size 3 to 8) (size 9 to 14) (size 15 to 20)
#    0.000    1.231    1.538    3.692   15.077    0.000 
#    0.000    1.538    0.000    0.000    0.000    0.000 
#    0.000    0.000    0.000    0.000    0.000    0.000 
#
# Total GULP energy -72551.117046 kJ/mol
# GULP energy per Si atom -5580.855157 kJ/mol
# Density = 2.882608 g / cm^3
# Si number density = 28.891841 Si / 1000 Ang^3
#
#
#
# Elastic Constant Matrix: (Units=GPa)
#
#
# Indices 1 2 3 4 5 6 
#
# 1 102.5930 0.2873 44.8726 4.4678 34.2900 5.2875
# 2 0.2873 115.0361 70.7988 21.0296 2.4533 -4.1428
# 3 44.8726 70.7988 240.4776 24.2726 46.4372 4.5110
# 4 4.4678 21.0296 24.2726 68.2265 11.1921 6.9878
# 5 34.2900 2.4533 46.4372 11.1921 51.2476 9.2529
# 6 5.2875 -4.1428 4.5110 6.9878 9.2529 45.0806
#
#
#
# Elastic Compliance Matrix: (Units=1/GPa)
#
#
# Indices 1 2 3 4 5 6 
#
# 1 0.012799 0.000764 -0.001193 0.000593 -0.007680 0.000173
# 2 0.000764 0.011542 -0.003817 -0.002833 0.002794 0.001219
# 3 -0.001193 -0.003817 0.006465 -0.000268 -0.004851 0.000179
# 4 0.000593 -0.002833 -0.000268 0.016334 -0.003192 -0.002180
# 5 -0.007680 0.002794 -0.004851 -0.003192 0.030350 -0.004092
# 6 0.000173 0.001219 0.000179 -0.002180 -0.004092 0.023434
#
#
# Mechanical properties :
#
#
# Convention : Reuss Voigt Hill
#
# Bulk Modulus (GPa) = 44.81457 76.66935 60.74196
# Shear Modulus (GPa) = 42.78795 55.72081 49.25438
#
# Velocity S-wave (km/s) = 3.85251 4.39635 4.13338
# Velocity P-wave (km/s) = 5.94424 7.23635 6.62189
#
# Compressibility (1/GPa) = 0.02231417
#
# Stress axis : x y z
#
# Youngs Moduli (GPa) = 78.12965 86.63646 154.67095
#
# Poissons Ratio (x) = -0.06619 0.18457
# Poissons Ratio (y) = -0.05969 0.59041
# Poissons Ratio (z) = 0.09323 0.33071
#
# Static dielectric constant tensor:
#      x y z
#    x 2.333580 -0.078440 0.005710 
#    y -0.078440 1.169670 0.585940 
#    z 0.005710 0.585940 1.809520 
# 
# From -- ./inp_files/25681.got.cif
#   From: 2010.05.17/outbox.cif.g08.bks.cpg/sg2_13_cif.got.tgz:25681.got - 2010.06.03 11:33:40.
