data_PCOD9004989
_publ_section_title
;
Structure prediction by ZEFSAII (Michael W. Deem and Ramdas Pophale) SiO2 
 PCOD9004989
Probable space group: P -1
;
_chemical_formula_sum "Si O2"
_cell_formula_units_Z 16
_cell_length_a 8.972147
_cell_length_b 22.382756
_cell_length_c 6.217262
_cell_angle_alpha 126.692017
_cell_angle_beta 97.477345
_cell_angle_gamma 115.457634
_cell_volume 764.002575
_symmetry_space_group_name_H-M "P -1"
_symmetry_group_IT_number 2
_symmetry_cell_setting 'triclinic'
loop_
_space_group_symop_operation_xyz
x,y,z
-x,-y,-z
loop_
_atom_site_type_symbol
_atom_site_label
_atom_site_fract_x
_atom_site_fract_y
_atom_site_fract_z
Si Si1 0.314401 0.040949 0.990994
Si Si2 0.700874 0.383269 0.625016
Si Si3 0.062910 0.464274 0.625613
Si Si4 0.095235 0.266777 0.677569
Si Si5 0.707404 0.534496 0.677449
Si Si6 0.716915 0.801523 0.709638
Si Si7 0.048542 0.870274 0.259731
Si Si8 0.295751 0.896109 0.987709
O O1 0.323124 0.985330 0.069192
O O2 0.288362 0.117904 0.219079
O O3 0.511842 0.090369 0.996277
O O4 0.135822 0.958323 0.629171
O O5 0.680109 0.446132 0.594060
O O6 0.494028 0.280125 0.402050
O O7 0.870237 0.385452 0.558210
O O8 0.789229 0.445457 0.995131
O O9 0.166735 0.432020 0.445319
O O10 0.000000 0.500000 0.500000
O O11 0.234426 0.249904 0.555306
O O12 0.053785 0.224586 0.818881
O O13 0.890301 0.200075 0.370801
O O14 0.188997 0.377237 0.947078
O O15 0.500000 0.500000 0.500000
O O16 0.891248 0.853056 0.027547
O O17 0.228470 0.890984 0.206150
#
# Coordination Sequence:
#
# PCOD9004989 Si02
#       8
#     2   2   2   2   2   2   2   2
#     4  10  21  38  60  86 115 149 190 241 290 344
#     4  10  22  40  60  86 119 157 197 241 294 345
#     4   9  21  40  60  83 116 154 197 243 289 344
#     4  10  23  38  56  85 118 152 195 240 284 343
#     4  11  22  38  61  88 121 158 196 242 291 345
#     4  11  23  37  58  86 117 151 193 238 288 346
#     4  10  21  39  59  84 115 150 192 237 290 350
#     4   9  21  40  60  85 115 149 192 238 293 349
#
# _framework density 20.942340000000002
#
# number of rings (size 3 to 8) (size 9 to 14) (size 15 to 20)
#    0.000    2.000    0.000    2.250    0.000   14.500 
#    0.000    0.000    0.000    0.000    0.000    0.000 
#    0.000    0.000    0.000    0.000    0.000    0.000 
#
# Total GULP energy -89418.984586 kJ/mol
# GULP energy per Si atom -5588.686537 kJ/mol
# Density = 2.089467 g / cm^3
# Si number density = 20.942340 Si / 1000 Ang^3
#
#
#
# Elastic Constant Matrix: (Units=GPa)
#
#
# Indices 1 2 3 4 5 6 
#
# 1 94.5564 18.4140 29.3582 5.7482 -3.8603 18.4882
# 2 18.4140 51.5568 9.3825 3.4257 -7.1791 10.2825
# 3 29.3582 9.3825 39.8648 3.0775 -8.6741 6.8775
# 4 5.7482 3.4257 3.0775 33.8456 2.9479 3.1332
# 5 -3.8603 -7.1791 -8.6741 2.9479 28.4276 -0.8788
# 6 18.4882 10.2825 6.8775 3.1332 -0.8788 25.8168
#
#
#
# Elastic Compliance Matrix: (Units=1/GPa)
#
#
# Indices 1 2 3 4 5 6 
#
# 1 0.015570 -0.002452 -0.009911 -0.000652 -0.001694 -0.007512
# 2 -0.002452 0.022594 -0.001174 -0.001589 0.004977 -0.006568
# 3 -0.009911 -0.001174 0.035035 -0.002076 0.009226 -0.001202
# 4 -0.000652 -0.001589 -0.002076 0.030591 -0.004364 -0.002208
# 5 -0.001694 0.004977 0.009226 -0.004364 0.039430 -0.001355
# 6 -0.007512 -0.006568 -0.001202 -0.002208 -0.001355 0.047272
#
#
# Mechanical properties :
#
#
# Convention : Reuss Voigt Hill
#
# Bulk Modulus (GPa) = 21.67987 33.36527 27.52257
# Shear Modulus (GPa) = 21.46482 26.20625 23.83553
#
# Velocity S-wave (km/s) = 3.20495 3.54128 3.37731
# Velocity P-wave (km/s) = 4.90615 5.71730 5.32718
#
# Compressibility (1/GPa) = 0.04612575
#
# Stress axis : x y z
#
# Youngs Moduli (GPa) = 64.22747 44.25997 28.54259
#
# Poissons Ratio (x) = 0.10850 0.28290
# Poissons Ratio (y) = 0.15745 0.03350
# Poissons Ratio (z) = 0.63659 0.05194
#
# Static dielectric constant tensor:
#      x y z
#    x 1.734370 -0.008430 0.009270 
#    y -0.008430 1.739100 0.006290 
#    z 0.009270 0.006290 1.718690 
# 
# From -- ./inp_files/55276.got.cif
#   From: 2010.05.17/outbox.cif.g08.bks.cpg/sg2_28_cif.got.tgz:55276.got - 2010.06.03 11:33:40.
