data_PCOD9004299
_publ_section_title
;
Structure prediction by ZEFSAII (Michael W. Deem and Ramdas Pophale) SiO2 
 PCOD9004299
Probable space group: P -1
;
_chemical_formula_sum "Si O2"
_cell_formula_units_Z 15
_cell_length_a 12.980306
_cell_length_b 7.895884
_cell_length_c 8.181457
_cell_angle_alpha 92.518938
_cell_angle_beta 98.875623
_cell_angle_gamma 42.672283
_cell_volume 558.518953
_symmetry_space_group_name_H-M "P -1"
_symmetry_group_IT_number 2
_symmetry_cell_setting 'triclinic'
loop_
_space_group_symop_operation_xyz
x,y,z
-x,-y,-z
loop_
_atom_site_type_symbol
_atom_site_label
_atom_site_fract_x
_atom_site_fract_y
_atom_site_fract_z
Si Si1 0.260594 0.228921 0.861783
Si Si2 0.520397 0.708221 0.060302
Si Si3 0.000000 0.500000 0.500000
Si Si4 0.857506 0.565196 0.815891
Si Si5 0.136168 0.611980 0.606597
Si Si6 0.962594 0.066398 0.807551
Si Si7 0.615266 0.393602 0.766402
Si Si8 0.590543 0.732783 0.585391
O O1 0.368516 0.266368 0.877883
O O2 0.167771 0.374220 0.673903
O O3 0.144331 0.375177 0.992051
O O4 0.373943 0.942785 0.925137
O O5 0.460858 0.695708 0.214121
O O6 0.614035 0.471309 0.954627
O O7 0.111120 0.364653 0.334922
O O8 0.982902 0.730309 0.488878
O O9 0.954178 0.278250 0.808762
O O10 0.679651 0.711080 0.759847
O O11 0.276090 0.479587 0.518334
O O12 0.089868 0.814613 0.723382
O O13 0.792334 0.188795 0.742967
O O14 0.000000 0.000000 0.000000
O O15 0.524309 0.636361 0.637497
O O16 0.500000 0.000000 0.500000
#
# Coordination Sequence:
#
# PCOD9004299 Si02
#       8
#     2   2   1   2   2   2   2   2
#     4  11  21  40  67  95 125 181 214 278 329 386
#     4  10  21  37  65  94 131 164 229 273 327 379
#     4  10  26  42  58  98 128 168 222 264 324 404
#     4  10  22  42  64  93 133 169 218 268 331 394
#     4  11  24  41  68  94 132 176 220 265 334 398
#     4  11  21  41  66  96 133 174 218 271 330 393
#     4  10  21  39  60  96 130 174 214 278 318 393
#     4  10  21  41  65  92 131 175 214 264 336 394
#
# _framework density 26.856743999999999
#
# number of rings (size 3 to 8) (size 9 to 14) (size 15 to 20)
#    0.000    1.600    4.000    0.800    3.733    6.400 
#    0.000    4.667    0.000    0.000    0.000    0.000 
#    0.000    0.000    0.000    0.000    0.000    0.000 
#
# Total GULP energy -83560.652011 kJ/mol
# GULP energy per Si atom -5570.710134 kJ/mol
# Density = 2.679562 g / cm^3
# Si number density = 26.856744 Si / 1000 Ang^3
#
#
#
# Elastic Constant Matrix: (Units=GPa)
#
#
# Indices 1 2 3 4 5 6 
#
# 1 102.4718 41.4829 48.8024 2.4233 -36.1378 -4.2971
# 2 41.4829 138.7706 55.9982 18.5312 -30.6935 -0.6855
# 3 48.8024 55.9982 164.7837 -0.6022 -46.8160 -1.6294
# 4 2.4233 18.5312 -0.6022 62.2509 0.6565 -9.7492
# 5 -36.1378 -30.6935 -46.8160 0.6565 46.0455 4.3745
# 6 -4.2971 -0.6855 -1.6294 -9.7492 4.3745 27.3337
#
#
#
# Elastic Compliance Matrix: (Units=1/GPa)
#
#
# Indices 1 2 3 4 5 6 
#
# 1 0.014114 -0.001866 -0.001075 0.000018 0.008671 0.000727
# 2 -0.001866 0.009641 -0.001802 -0.003134 0.003346 -0.001812
# 3 -0.001075 -0.001802 0.009041 0.000487 0.007202 -0.000654
# 4 0.000018 -0.003134 0.000487 0.018093 -0.002484 0.006804
# 5 0.008671 0.003346 0.007202 -0.002484 0.038604 -0.005188
# 6 0.000727 -0.001812 -0.000654 0.006804 -0.005188 0.039872
#
#
# Mechanical properties :
#
#
# Convention : Reuss Voigt Hill
#
# Bulk Modulus (GPa) = 42.90245 77.62145 60.26195
# Shear Modulus (GPa) = 34.10127 44.44219 39.27173
#
# Velocity S-wave (km/s) = 3.56722 4.07232 3.82811
# Velocity P-wave (km/s) = 5.74247 7.14678 6.48276
#
# Compressibility (1/GPa) = 0.02330869
#
# Stress axis : x y z
#
# Youngs Moduli (GPa) = 70.85033 103.72388 110.60779
#
# Poissons Ratio (x) = 0.19359 0.11892
# Poissons Ratio (y) = 0.13223 0.19934
# Poissons Ratio (z) = 0.07618 0.18693
#
# Static dielectric constant tensor:
#      x y z
#    x 2.309220 0.037240 0.095440 
#    y 0.037240 2.192980 -0.155610 
#    z 0.095440 -0.155610 2.497640 
# 
# From -- ./inp_files/298248.got.cif
#   From: 2010.05.17/outbox.cif.g08.bks.cpg/sg2_150_cif.got.tgz:298248.got - 2010.06.03 11:33:40.
