data_PCOD9004854
_publ_section_title
;
Structure prediction by ZEFSAII (Michael W. Deem and Ramdas Pophale) SiO2 
 PCOD9004854
Probable space group: P -1
;
_chemical_formula_sum "Si O2"
_cell_formula_units_Z 14
_cell_length_a 11.645542
_cell_length_b 14.932021
_cell_length_c 6.937271
_cell_angle_alpha 118.809941
_cell_angle_beta 59.398390
_cell_angle_gamma 140.640732
_cell_volume 649.811764
_symmetry_space_group_name_H-M "P -1"
_symmetry_group_IT_number 2
_symmetry_cell_setting 'triclinic'
loop_
_space_group_symop_operation_xyz
x,y,z
-x,-y,-z
loop_
_atom_site_type_symbol
_atom_site_label
_atom_site_fract_x
_atom_site_fract_y
_atom_site_fract_z
Si Si1 0.574935 0.191515 0.563046
Si Si2 0.249501 0.029627 0.368510
Si Si3 0.175187 0.197769 0.380819
Si Si4 0.376890 0.406796 0.729133
Si Si5 0.922687 0.787512 0.917088
Si Si6 0.332338 0.971231 0.862640
Si Si7 0.696261 0.477470 0.780153
O O1 0.391416 0.118358 0.515542
O O2 0.235353 0.124204 0.349569
O O3 0.503277 0.115860 0.754761
O O4 0.701519 0.359527 0.645716
O O5 0.040426 0.893366 0.477052
O O6 0.332783 0.854543 0.672073
O O7 0.326148 0.984822 0.110366
O O8 0.322281 0.359858 0.506214
O O9 0.169795 0.195457 0.152882
O O10 0.546440 0.436619 0.709389
O O11 0.192165 0.256950 0.835567
O O12 0.373108 0.516794 0.945052
O O13 0.878393 0.644270 0.758999
O O14 0.139526 0.917706 0.896239
#
# Coordination Sequence:
#
# PCOD9004854 Si02
#       7
#     2   2   2   2   2   2   2
#     4  11  23  42  57  86 115 154 200 237 276 340
#     4  11  22  36  60  90 114 152 189 242 285 343
#     4  11  21  34  63  89 118 145 189 238 294 345
#     4   9  19  38  57  86 117 149 182 245 287 341
#     4  10  21  38  59  87 114 155 187 231 295 343
#     4  11  24  39  63  78 118 160 194 237 277 333
#     4   9  20  39  60  83 120 145 192 238 291 338
#
# _framework density 21.544701
#
# number of rings (size 3 to 8) (size 9 to 14) (size 15 to 20)
#    0.857    0.857    4.286    0.429    2.000    1.714 
#    2.571    0.000    0.000    1.714    0.000    0.000 
#    0.000    0.000    0.000    0.000    0.000    0.000 
#
# Total GULP energy -78151.347060 kJ/mol
# GULP energy per Si atom -5582.239076 kJ/mol
# Density = 2.149566 g / cm^3
# Si number density = 21.544701 Si / 1000 Ang^3
#
#
#
# Elastic Constant Matrix: (Units=GPa)
#
#
# Indices 1 2 3 4 5 6 
#
# 1 44.8724 6.8860 1.4701 4.2863 -5.3007 -9.3163
# 2 6.8860 64.8238 -4.5162 15.2618 -7.1338 -13.1990
# 3 1.4701 -4.5162 44.2847 13.4298 -3.1807 -6.9349
# 4 4.2863 15.2618 13.4298 22.8235 6.1400 2.2997
# 5 -5.3007 -7.1338 -3.1807 6.1400 28.4578 8.5946
# 6 -9.3163 -13.1990 -6.9349 2.2997 8.5946 36.6212
#
#
#
# Elastic Compliance Matrix: (Units=1/GPa)
#
#
# Indices 1 2 3 4 5 6 
#
# 1 0.025096 0.002501 0.004470 -0.011382 0.006011 0.007436
# 2 0.002501 0.028075 0.015763 -0.033189 0.012536 0.012882
# 3 0.004470 0.015763 0.039073 -0.039382 0.013569 0.013506
# 4 -0.011382 -0.033189 -0.039382 0.101631 -0.030246 -0.021599
# 5 0.006011 0.012536 0.013569 -0.030246 0.047645 -0.000666
# 6 0.007436 0.012882 0.013506 -0.021599 -0.000666 0.037912
#
#
# Mechanical properties :
#
#
# Convention : Reuss Voigt Hill
#
# Bulk Modulus (GPa) = 7.26157 17.96230 12.61194
# Shear Modulus (GPa) = 17.86545 27.58989 22.72767
#
# Velocity S-wave (km/s) = 2.88275 3.58241 3.25146
# Velocity P-wave (km/s) = 3.80239 5.04647 4.46794
#
# Compressibility (1/GPa) = 0.13771124
#
# Stress axis : x y z
#
# Youngs Moduli (GPa) = 39.84632 35.61866 25.59319
#
# Poissons Ratio (x) = -0.08908 -0.11440
# Poissons Ratio (y) = -0.09965 -0.40341
# Poissons Ratio (z) = -0.17811 -0.56144
#
# Static dielectric constant tensor:
#      x y z
#    x 1.749680 -0.011160 -0.019590 
#    y -0.011160 1.822760 -0.005060 
#    z -0.019590 -0.005060 1.815910 
# 
# From -- ./inp_files/111804.got.cif
#   From: 2010.05.17/outbox.cif.g08.bks.cpg/sg2_56_cif.got.tgz:111804.got - 2010.06.03 11:33:40.
