data_PCOD9004573
_publ_section_title
;
Structure prediction by ZEFSAII (Michael W. Deem and Ramdas Pophale) SiO2 
 PCOD9004573
Probable space group: P -1
;
_chemical_formula_sum "Si O2"
_cell_formula_units_Z 16
_cell_length_a 11.647513
_cell_length_b 9.450573
_cell_length_c 14.239581
_cell_angle_alpha 73.547110
_cell_angle_beta 119.727148
_cell_angle_gamma 55.740742
_cell_volume 698.999121
_symmetry_space_group_name_H-M "P -1"
_symmetry_group_IT_number 2
_symmetry_cell_setting 'triclinic'
loop_
_space_group_symop_operation_xyz
x,y,z
-x,-y,-z
loop_
_atom_site_type_symbol
_atom_site_label
_atom_site_fract_x
_atom_site_fract_y
_atom_site_fract_z
Si Si1 0.474747 0.545916 0.367835
Si Si2 0.014383 0.812554 0.129828
Si Si3 0.350690 0.969951 0.201607
Si Si4 0.935252 0.992411 0.575786
Si Si5 0.997010 0.618266 0.602249
Si Si6 0.349802 0.068472 0.768429
Si Si7 0.697522 0.189782 0.108591
Si Si8 0.608118 0.779206 0.516410
O O1 0.500000 0.500000 0.500000
O O2 0.531622 0.654814 0.326517
O O3 0.647784 0.270353 0.433580
O O4 0.189549 0.785411 0.184404
O O5 0.220066 0.510208 0.317031
O O6 0.797382 0.064133 0.067333
O O7 0.894428 0.840097 0.989004
O O8 0.443645 0.038634 0.186073
O O9 0.369751 0.957741 0.324178
O O10 0.017356 0.745409 0.648087
O O11 0.000000 0.000000 0.500000
O O12 0.062102 0.974742 0.708729
O O13 0.875447 0.766644 0.423419
O O14 0.802244 0.685441 0.550054
O O15 0.247546 0.292762 0.752492
O O16 0.407297 0.865704 0.884412
O O17 0.500000 0.500000 0.000000
O O18 0.500000 0.000000 0.500000
#
# Coordination Sequence:
#
# PCOD9004573 Si02
#       8
#     2   2   2   2   2   2   2   2
#     4  12  24  47  75 105 152 199 252 307 383 451
#     4  12  26  48  73 108 151 195 254 309 376 456
#     4  11  26  44  74 105 145 203 245 307 375 446
#     4  12  24  43  74 109 140 196 253 304 375 449
#     4  10  21  37  71 101 137 185 240 303 359 442
#     4  10  22  45  68 104 145 188 243 299 379 441
#     4  12  27  45  70 112 153 190 251 317 374 446
#     4  11  23  44  71 103 143 193 244 302 373 442
#
# _framework density 22.889870999999999
#
# number of rings (size 3 to 8) (size 9 to 14) (size 15 to 20)
#    0.000    0.750    5.000    1.875    5.250    2.000 
#    0.000    0.000    0.000    0.000    0.000    0.000 
#    0.000    0.000    0.000    0.000    0.000    0.000 
#
# Total GULP energy -89282.158864 kJ/mol
# GULP energy per Si atom -5580.134929 kJ/mol
# Density = 2.283777 g / cm^3
# Si number density = 22.889871 Si / 1000 Ang^3
#
#
#
# Elastic Constant Matrix: (Units=GPa)
#
#
# Indices 1 2 3 4 5 6 
#
# 1 83.7501 10.8618 29.4758 -8.5411 -6.1715 18.3327
# 2 10.8618 111.5027 40.2338 -1.4230 -7.2591 7.6158
# 3 29.4758 40.2338 96.8791 16.7317 8.7588 2.4435
# 4 -8.5411 -1.4230 16.7317 46.7064 13.0079 5.4737
# 5 -6.1715 -7.2591 8.7588 13.0079 18.0636 -4.1776
# 6 18.3327 7.6158 2.4435 5.4737 -4.1776 44.1987
#
#
#
# Elastic Compliance Matrix: (Units=1/GPa)
#
#
# Indices 1 2 3 4 5 6 
#
# 1 0.016487 0.001673 -0.006809 0.005125 0.004303 -0.006978
# 2 0.001673 0.011601 -0.006104 0.001123 0.006960 -0.001837
# 3 -0.006809 -0.006104 0.016534 -0.005388 -0.008257 0.002849
# 4 0.005125 0.001123 -0.005388 0.030455 -0.018868 -0.007576
# 5 0.004303 0.006960 -0.008257 -0.018868 0.078898 0.007267
# 6 -0.006978 -0.001837 0.002849 -0.007576 0.007267 0.027304
#
#
# Mechanical properties :
#
#
# Convention : Reuss Voigt Hill
#
# Bulk Modulus (GPa) = 45.16247 50.36385 47.76316
# Shear Modulus (GPa) = 23.68116 35.89778 29.78947
#
# Velocity S-wave (km/s) = 3.21996 3.96445 3.61144
# Velocity P-wave (km/s) = 5.79632 6.55792 6.18885
#
# Compressibility (1/GPa) = 0.02214228
#
# Stress axis : x y z
#
# Youngs Moduli (GPa) = 60.65396 86.20193 60.48168
#
# Poissons Ratio (x) = -0.14422 0.41182
# Poissons Ratio (y) = -0.10148 0.36916
# Poissons Ratio (z) = 0.41300 0.52614
#
# Static dielectric constant tensor:
#      x y z
#    x 1.936690 0.054770 -0.041270 
#    y 0.054770 1.842660 0.023790 
#    z -0.041270 0.023790 1.956280 
# 
# From -- ./inp_files/515399.got.cif
#   From: 2010.05.17/outbox.cif.g08.bks.cpg/sg2_258_cif.got.tgz:515399.got - 2010.06.03 11:33:40.
