data_PCOD9004460
_publ_section_title
;
Structure prediction by ZEFSAII (Michael W. Deem and Ramdas Pophale) SiO2 
 PCOD9004460
Probable space group: P -1
;
_chemical_formula_sum "Si O2"
_cell_formula_units_Z 14
_cell_length_a 7.844841
_cell_length_b 10.481179
_cell_length_c 12.771150
_cell_angle_alpha 60.937749
_cell_angle_beta 46.265136
_cell_angle_gamma 81.047779
_cell_volume 635.635052
_symmetry_space_group_name_H-M "P -1"
_symmetry_group_IT_number 2
_symmetry_cell_setting 'triclinic'
loop_
_space_group_symop_operation_xyz
x,y,z
-x,-y,-z
loop_
_atom_site_type_symbol
_atom_site_label
_atom_site_fract_x
_atom_site_fract_y
_atom_site_fract_z
Si Si1 0.130924 0.461155 0.589590
Si Si2 0.083938 0.892167 0.691421
Si Si3 0.359280 0.290706 0.736149
Si Si4 0.845352 0.786893 0.478464
Si Si5 0.340501 0.437719 0.194991
Si Si6 0.821773 0.608155 0.024208
Si Si7 0.573084 0.919221 0.374399
O O1 0.238828 0.377631 0.668041
O O2 0.355265 0.611701 0.410978
O O3 0.067236 0.344631 0.564567
O O4 0.889348 0.495185 0.723882
O O5 0.288342 0.908380 0.508687
O O6 0.981902 0.038972 0.667795
O O7 0.250807 0.925581 0.714618
O O8 0.905350 0.725466 0.845614
O O9 0.203470 0.289956 0.906376
O O10 0.354311 0.131617 0.747583
O O11 0.765323 0.736144 0.650762
O O12 0.624772 0.803523 0.488137
O O13 0.546680 0.502125 0.169884
O O14 0.500000 0.500000 0.000000
O O15 0.000000 0.500000 0.000000
#
# Coordination Sequence:
#
# PCOD9004460 Si02
#       7
#     2   2   2   2   2   2   2
#     4  10  21  39  63  92 123 163 203 248 313 373
#     4   9  20  38  60  91 127 160 203 247 316 361
#     4  10  21  37  67  94 119 160 212 250 303 369
#     4   9  18  40  61  82 123 167 194 244 310 368
#     4  12  25  39  61  93 126 158 208 262 309 352
#     4  12  25  39  64  97 124 157 210 266 297 361
#     4   8  18  36  65  87 121 163 201 248 304 374
#
# _framework density 22.025217000000001
#
# number of rings (size 3 to 8) (size 9 to 14) (size 15 to 20)
#    0.857    1.143    1.429    2.143    6.000    0.571 
#    0.000    1.429    0.000    0.000    0.000    0.000 
#    0.000    0.000    0.000    0.000    0.000    0.000 
#
# Total GULP energy -77981.441549 kJ/mol
# GULP energy per Si atom -5570.102968 kJ/mol
# Density = 2.197509 g / cm^3
# Si number density = 22.025217 Si / 1000 Ang^3
#
#
#
# Elastic Constant Matrix: (Units=GPa)
#
#
# Indices 1 2 3 4 5 6 
#
# 1 49.4861 13.4492 14.2132 11.0887 -10.6603 -12.1485
# 2 13.4492 96.7169 34.3744 18.4790 -13.6441 -0.2706
# 3 14.2132 34.3744 99.6706 10.4980 -6.6055 -7.4729
# 4 11.0887 18.4790 10.4980 47.1805 1.6888 1.4024
# 5 -10.6603 -13.6441 -6.6055 1.6888 36.5053 6.7192
# 6 -12.1485 -0.2706 -7.4729 1.4024 6.7192 16.9752
#
#
#
# Elastic Compliance Matrix: (Units=1/GPa)
#
#
# Indices 1 2 3 4 5 6 
#
# 1 0.027766 -0.001611 -0.001089 -0.006346 0.004251 0.018207
# 2 -0.001611 0.013410 -0.003971 -0.004035 0.004792 -0.004251
# 3 -0.001089 -0.003971 0.011983 -0.000978 -0.000452 0.004693
# 4 -0.006346 -0.004035 -0.000978 0.024783 -0.003647 -0.005641
# 5 0.004251 0.004792 -0.000452 -0.003647 0.032271 -0.009553
# 6 0.018207 -0.004251 0.004693 -0.005641 -0.009553 0.078185
#
#
# Mechanical properties :
#
#
# Convention : Reuss Voigt Hill
#
# Bulk Modulus (GPa) = 25.11489 41.10523 33.11006
# Shear Modulus (GPa) = 23.25455 32.38797 27.82126
#
# Velocity S-wave (km/s) = 3.25286 3.83886 3.55794
# Velocity P-wave (km/s) = 5.05328 6.19294 5.65191
#
# Compressibility (1/GPa) = 0.03981702
#
# Stress axis : x y z
#
# Youngs Moduli (GPa) = 36.01556 74.57109 83.45313
#
# Poissons Ratio (x) = 0.12013 0.09085
# Poissons Ratio (y) = 0.05802 0.33141
# Poissons Ratio (z) = 0.03921 0.29614
#
# Static dielectric constant tensor:
#      x y z
#    x 1.890300 0.060690 0.051600 
#    y 0.060690 1.852540 0.010600 
#    z 0.051600 0.010600 1.790120 
# 
# From -- ./inp_files/497596.got.cif
#   From: 2010.05.17/outbox.cif.g08.bks.cpg/sg2_249_cif.got.tgz:497596.got - 2010.06.03 11:33:40.
