data_PCOD9004900
_publ_section_title
;
Structure prediction by ZEFSAII (Michael W. Deem and Ramdas Pophale) SiO2 
 PCOD9004900
Probable space group: P -1
;
_chemical_formula_sum "Si O2"
_cell_formula_units_Z 16
_cell_length_a 5.995906
_cell_length_b 25.947351
_cell_length_c 12.985310
_cell_angle_alpha 156.484859
_cell_angle_beta 58.447332
_cell_angle_gamma 120.254967
_cell_volume 685.169244
_symmetry_space_group_name_H-M "P -1"
_symmetry_group_IT_number 2
_symmetry_cell_setting 'triclinic'
loop_
_space_group_symop_operation_xyz
x,y,z
-x,-y,-z
loop_
_atom_site_type_symbol
_atom_site_label
_atom_site_fract_x
_atom_site_fract_y
_atom_site_fract_z
Si Si1 0.613916 0.137967 0.773410
Si Si2 0.902549 0.228148 0.666763
Si Si3 0.704058 0.188238 0.434904
Si Si4 0.776780 0.700433 0.568671
Si Si5 0.729347 0.620575 0.655324
Si Si6 0.288263 0.005825 0.154309
Si Si7 0.802709 0.218310 0.090598
Si Si8 0.355905 0.378373 0.764527
O O1 0.777338 0.197483 0.748082
O O2 0.500000 0.000000 0.500000
O O3 0.407557 0.245208 0.043589
O O4 0.785588 0.143369 0.847424
O O5 0.065905 0.104740 0.367413
O O6 0.114909 0.345383 0.837428
O O7 0.730033 0.260329 0.669577
O O8 0.507933 0.066568 0.292127
O O9 0.548725 0.264008 0.525597
O O10 0.994853 0.188770 0.315785
O O11 0.834310 0.623527 0.517526
O O12 0.492444 0.749072 0.750158
O O13 0.740236 0.617324 0.320967
O O14 0.500000 0.500000 0.500000
O O15 0.995096 0.653129 0.719479
O O16 0.500000 0.000000 0.000000
O O17 0.142909 0.881041 0.012446
O O18 0.500000 0.500000 0.000000
#
# Coordination Sequence:
#
# PCOD9004900 Si02
#       8
#     2   2   2   2   2   2   2   2
#     4  11  25  43  65  97 135 176 225 280 340 403
#     4  10  23  38  57  90 125 163 210 266 329 393
#     4  10  21  38  59  89 125 158 202 262 335 398
#     4  10  22  41  63  92 128 165 217 274 332 401
#     4  11  26  44  67  95 129 180 232 281 334 397
#     4  11  21  36  62  92 124 163 210 265 328 397
#     4  11  24  42  66  94 131 178 225 274 333 399
#     4  10  22  38  62  91 123 166 214 270 332 397
#
# _framework density 23.351896
#
# number of rings (size 3 to 8) (size 9 to 14) (size 15 to 20)
#    0.000    1.500    0.000    5.250    0.000   16.000 
#    0.000    0.000    0.000    0.000    0.000    0.000 
#    0.000    0.000    0.000    0.000    0.000    0.000 
#
# Total GULP energy -89094.244331 kJ/mol
# GULP energy per Si atom -5568.390271 kJ/mol
# Density = 2.329875 g / cm^3
# Si number density = 23.351896 Si / 1000 Ang^3
#
#
#
# Elastic Constant Matrix: (Units=GPa)
#
#
# Indices 1 2 3 4 5 6 
#
# 1 76.1767 40.4617 23.9018 -0.5126 30.9221 10.4024
# 2 40.4617 162.7738 42.7393 -16.7037 41.0788 14.7469
# 3 23.9018 42.7393 83.5500 2.2004 25.9726 7.3593
# 4 -0.5126 -16.7037 2.2004 41.6465 9.1272 14.6930
# 5 30.9221 41.0788 25.9726 9.1272 36.1293 2.6294
# 6 10.4024 14.7469 7.3593 14.6930 2.6294 39.2214
#
#
#
# Elastic Compliance Matrix: (Units=1/GPa)
#
#
# Indices 1 2 3 4 5 6 
#
# 1 0.022914 0.002001 0.000379 0.009415 -0.023894 -0.008826
# 2 0.002001 0.012163 -0.001069 0.011561 -0.017105 -0.008087
# 3 0.000379 -0.001069 0.015994 0.002099 -0.010937 -0.002753
# 4 0.009415 0.011561 0.002099 0.043185 -0.032074 -0.021265
# 5 -0.023894 -0.017105 -0.010937 -0.032074 0.081988 0.021339
# 6 -0.008826 -0.008087 -0.002753 -0.021265 0.021339 0.037930
#
#
# Mechanical properties :
#
#
# Convention : Reuss Voigt Hill
#
# Bulk Modulus (GPa) = 18.62494 59.63402 39.12948
# Shear Modulus (GPa) = 21.79117 37.75928 29.77523
#
# Velocity S-wave (km/s) = 3.05809 4.02552 3.57468
# Velocity P-wave (km/s) = 4.52353 6.87015 5.81641
#
# Compressibility (1/GPa) = 0.05369145
#
# Stress axis : x y z
#
# Youngs Moduli (GPa) = 43.64195 82.21909 62.52221
#
# Poissons Ratio (x) = -0.16448 -0.02368
# Poissons Ratio (y) = -0.08731 0.06683
# Poissons Ratio (z) = -0.01653 0.08789
#
# Static dielectric constant tensor:
#      x y z
#    x 2.013870 -0.026900 0.009600 
#    y -0.026900 1.861900 0.089760 
#    z 0.009600 0.089760 2.139420 
# 
# From -- ./inp_files/371091.got.cif
#   From: 2010.05.17/outbox.cif.g08.bks.cpg/sg2_186_cif.got.tgz:371091.got - 2010.06.03 11:33:40.
