data_PCOD9004035
_publ_section_title
;
Structure prediction by ZEFSAII (Michael W. Deem and Ramdas Pophale) SiO2 
 PCOD9004035
Probable space group: P -1
;
_chemical_formula_sum "Si O2"
_cell_formula_units_Z 16
_cell_length_a 15.488438
_cell_length_b 9.314598
_cell_length_c 9.464191
_cell_angle_alpha 128.127913
_cell_angle_beta 123.453596
_cell_angle_gamma 92.842269
_cell_volume 720.803228
_symmetry_space_group_name_H-M "P -1"
_symmetry_group_IT_number 2
_symmetry_cell_setting 'triclinic'
loop_
_space_group_symop_operation_xyz
x,y,z
-x,-y,-z
loop_
_atom_site_type_symbol
_atom_site_label
_atom_site_fract_x
_atom_site_fract_y
_atom_site_fract_z
Si Si1 0.364505 0.345804 0.865861
Si Si2 0.290632 0.508511 0.159716
Si Si3 0.764647 0.098907 0.338780
Si Si4 0.958662 0.511451 0.126694
Si Si5 0.405404 0.761358 0.690285
Si Si6 0.013802 0.226776 0.199672
Si Si7 0.800689 0.936481 0.017864
Si Si8 0.725747 0.651257 0.505314
O O1 0.273597 0.272230 0.603861
O O2 0.315956 0.114671 0.760416
O O3 0.500000 0.500000 0.000000
O O4 0.350392 0.486509 0.057856
O O5 0.402458 0.690948 0.481697
O O6 0.215638 0.267673 0.031868
O O7 0.180029 0.536808 0.033693
O O8 0.726701 0.260889 0.445349
O O9 0.918425 0.233702 0.565411
O O10 0.727593 0.008019 0.089307
O O11 0.960276 0.331955 0.117039
O O12 0.000000 0.500000 0.000000
O O13 0.395845 0.579372 0.676277
O O14 0.500000 0.000000 0.000000
O O15 0.166618 0.393754 0.437670
O O16 0.000000 0.000000 0.000000
O O17 0.943401 0.156141 0.243345
O O18 0.750432 0.834210 0.754457
#
# Coordination Sequence:
#
# PCOD9004035 Si02
#       8
#     2   2   2   2   2   2   2   2
#     4  11  26  45  67  96 135 181 232 278 328 396
#     4  10  24  44  67 100 135 178 221 278 342 395
#     4  11  24  40  66 100 131 176 224 269 346 390
#     4  12  22  39  68 103 142 170 218 280 342 405
#     4  11  22  43  66  91 129 178 228 274 325 399
#     4  10  21  37  63  96 133 175 213 265 337 404
#     4   9  22  39  62  94 132 170 216 266 331 405
#     4  10  21  41  62  91 130 174 224 270 331 388
#
# _framework density 22.197458999999998
#
# number of rings (size 3 to 8) (size 9 to 14) (size 15 to 20)
#    0.000    1.500    2.500    2.250    7.000    3.500 
#    0.000    6.250    0.000    0.000    0.000    0.000 
#    0.000    0.000    0.000    0.000    0.000    0.000 
#
# Total GULP energy -89105.771581 kJ/mol
# GULP energy per Si atom -5569.110724 kJ/mol
# Density = 2.214694 g / cm^3
# Si number density = 22.197459 Si / 1000 Ang^3
#
#
#
# Elastic Constant Matrix: (Units=GPa)
#
#
# Indices 1 2 3 4 5 6 
#
# 1 105.6786 61.4653 27.0412 -16.0554 -23.0628 30.5160
# 2 61.4653 100.0461 29.5379 -8.1319 -5.8809 26.2757
# 3 27.0412 29.5379 77.4578 -8.6693 -5.6193 24.0605
# 4 -16.0554 -8.1319 -8.6693 33.0669 11.2861 -3.3058
# 5 -23.0628 -5.8809 -5.6193 11.2861 34.9632 -11.0964
# 6 30.5160 26.2757 24.0605 -3.3058 -11.0964 35.6740
#
#
#
# Elastic Compliance Matrix: (Units=1/GPa)
#
#
# Indices 1 2 3 4 5 6 
#
# 1 0.018941 -0.009097 -0.000090 0.003658 0.007634 -0.006728
# 2 -0.009097 0.017292 -0.002161 0.000545 -0.005225 -0.005072
# 3 -0.000090 -0.002161 0.017202 0.003620 -0.002078 -0.010244
# 4 0.003658 0.000545 0.003620 0.036071 -0.010420 -0.005871
# 5 0.007634 -0.005225 -0.002078 -0.010420 0.038917 0.009860
# 6 -0.006728 -0.005072 -0.010244 -0.005871 0.009860 0.046954
#
#
# Mechanical properties :
#
#
# Convention : Reuss Voigt Hill
#
# Bulk Modulus (GPa) = 32.53258 57.69680 45.11469
# Shear Modulus (GPa) = 24.00151 31.75004 27.87578
#
# Velocity S-wave (km/s) = 3.29184 3.78609 3.54758
# Velocity P-wave (km/s) = 5.39778 6.72024 6.09499
#
# Compressibility (1/GPa) = 0.03073842
#
# Stress axis : x y z
#
# Youngs Moduli (GPa) = 52.79440 57.83147 58.13152
#
# Poissons Ratio (x) = 0.52611 0.00526
# Poissons Ratio (y) = 0.48029 0.12561
# Poissons Ratio (z) = 0.00477 0.12496
#
# Static dielectric constant tensor:
#      x y z
#    x 1.889020 0.001120 0.077120 
#    y 0.001120 1.862740 -0.006970 
#    z 0.077120 -0.006970 2.039780 
# 
# From -- ./inp_files/299588.got.cif
#   From: 2010.05.17/outbox.cif.g08.bks.cpg/sg2_150_cif.got.tgz:299588.got - 2010.06.03 11:33:40.
