data_PCOD9004739
_publ_section_title
;
Structure prediction by ZEFSAII (Michael W. Deem and Ramdas Pophale) SiO2 
 PCOD9004739
Probable space group: P -1
;
_chemical_formula_sum "Si O2"
_cell_formula_units_Z 14
_cell_length_a 15.874728
_cell_length_b 7.047245
_cell_length_c 7.214571
_cell_angle_alpha 119.297222
_cell_angle_beta 54.737712
_cell_angle_gamma 92.923216
_cell_volume 543.508231
_symmetry_space_group_name_H-M "P -1"
_symmetry_group_IT_number 2
_symmetry_cell_setting 'triclinic'
loop_
_space_group_symop_operation_xyz
x,y,z
-x,-y,-z
loop_
_atom_site_type_symbol
_atom_site_label
_atom_site_fract_x
_atom_site_fract_y
_atom_site_fract_z
Si Si1 0.100856 0.892107 0.054360
Si Si2 0.624886 0.664566 0.299531
Si Si3 0.545496 0.873679 0.106199
Si Si4 0.136911 0.962713 0.467460
Si Si5 0.626984 0.204118 0.961663
Si Si6 0.097427 0.472467 0.627941
Si Si7 0.150299 0.324694 0.077598
O O1 0.969481 0.027468 0.274941
O O2 0.123655 0.865817 0.233079
O O3 0.160980 0.060731 0.978016
O O4 0.129878 0.656838 0.795119
O O5 0.592017 0.729130 0.158158
O O6 0.544778 0.879747 0.611979
O O7 0.616506 0.411928 0.216619
O O8 0.748111 0.659852 0.158399
O O9 0.480605 0.747340 0.002743
O O10 0.635156 0.962479 0.934580
O O11 0.125545 0.227360 0.573216
O O12 0.260363 0.832572 0.309235
O O13 0.144266 0.439364 0.343609
O O14 0.966303 0.559782 0.812541
#
# Coordination Sequence:
#
# PCOD9004739 Si02
#       7
#     2   2   2   2   2   2   2
#     4  10  21  38  58  86 135 163 201 254 300 370
#     4  11  24  43  69  93 127 165 209 267 319 372
#     4  10  24  46  66  96 122 160 220 264 320 376
#     4  10  23  37  60  95 122 164 209 246 310 383
#     4  11  24  43  69  93 127 165 209 267 319 372
#     4  10  21  38  58  86 135 163 201 254 300 370
#     4  10  23  37  60  95 122 164 209 246 310 383
#
# _framework density 25.758579000000001
#
# number of rings (size 3 to 8) (size 9 to 14) (size 15 to 20)
#    0.000    1.714    0.000    3.429   10.000    2.286 
#    0.000    7.143    0.000    0.000    0.000    0.000 
#    0.000    0.000    0.000    0.000    0.000    0.000 
#
# Total GULP energy -78530.765748 kJ/mol
# GULP energy per Si atom -5609.340411 kJ/mol
# Density = 2.569995 g / cm^3
# Si number density = 25.758579 Si / 1000 Ang^3
#
#
#
# Elastic Constant Matrix: (Units=GPa)
#
#
# Indices 1 2 3 4 5 6 
#
# 1 78.7411 34.2989 43.0211 1.8433 0.8669 20.5732
# 2 34.2989 103.0153 22.5250 15.2490 10.8695 34.8094
# 3 43.0211 22.5250 75.8481 9.8147 5.6793 23.4226
# 4 1.8433 15.2490 9.8147 45.7086 17.8526 4.1470
# 5 0.8669 10.8695 5.6793 17.8526 44.4013 6.0484
# 6 20.5732 34.8094 23.4226 4.1470 6.0484 44.1999
#
#
#
# Elastic Compliance Matrix: (Units=1/GPa)
#
#
# Indices 1 2 3 4 5 6 
#
# 1 0.020653 -0.004891 -0.010507 0.002660 0.001150 -0.000600
# 2 -0.004891 0.014990 0.002025 -0.003988 -0.000852 -0.010111
# 3 -0.010507 0.002025 0.021451 -0.004017 -0.000378 -0.007643
# 4 0.002660 -0.003988 -0.004017 0.027636 -0.010057 0.002815
# 5 0.001150 -0.000852 -0.000378 -0.010057 0.027131 -0.002433
# 6 -0.000600 -0.010111 -0.007643 0.002815 -0.002433 0.034985
#
#
# Mechanical properties :
#
#
# Convention : Reuss Voigt Hill
#
# Bulk Modulus (GPa) = 32.95229 50.81052 41.88140
# Shear Modulus (GPa) = 27.21708 37.37924 32.29816
#
# Velocity S-wave (km/s) = 3.25410 3.81351 3.54486
# Velocity P-wave (km/s) = 5.19032 6.25772 5.74884
#
# Compressibility (1/GPa) = 0.03034691
#
# Stress axis : x y z
#
# Youngs Moduli (GPa) = 48.41955 66.71188 46.61877
#
# Poissons Ratio (x) = 0.32631 0.48981
# Poissons Ratio (y) = 0.23684 -0.09440
# Poissons Ratio (z) = 0.50873 -0.13509
#
# Static dielectric constant tensor:
#      x y z
#    x 2.006880 -0.010360 0.021960 
#    y -0.010360 1.998570 -0.008870 
#    z 0.021960 -0.008870 1.997670 
# 
# From -- ./inp_files/296576.got.cif
#   From: 2010.05.17/outbox.cif.g08.bks.cpg/sg2_149_cif.got.tgz:296576.got - 2010.06.03 11:33:40.
