data_PCOD9004066
_publ_section_title
;
Structure prediction by ZEFSAII (Michael W. Deem and Ramdas Pophale) SiO2 
 PCOD9004066
Probable space group: P -1
;
_chemical_formula_sum "Si O2"
_cell_formula_units_Z 16
_cell_length_a 7.919977
_cell_length_b 21.943570
_cell_length_c 17.439832
_cell_angle_alpha 32.676888
_cell_angle_beta 137.301273
_cell_angle_gamma 148.730009
_cell_volume 848.108242
_symmetry_space_group_name_H-M "P -1"
_symmetry_group_IT_number 2
_symmetry_cell_setting 'triclinic'
loop_
_space_group_symop_operation_xyz
x,y,z
-x,-y,-z
loop_
_atom_site_type_symbol
_atom_site_label
_atom_site_fract_x
_atom_site_fract_y
_atom_site_fract_z
Si Si1 0.658147 0.474873 0.850596
Si Si2 0.976019 0.349987 0.470750
Si Si3 0.616220 0.669455 0.723791
Si Si4 0.613060 0.256098 0.166125
Si Si5 0.605154 0.062232 0.573620
Si Si6 0.776214 0.815702 0.455621
Si Si7 0.138053 0.120566 0.286433
Si Si8 0.583667 0.477926 0.427764
O O1 0.588453 0.529610 0.845335
O O2 0.444348 0.457183 0.727725
O O3 0.038696 0.615607 0.813952
O O4 0.611362 0.332260 0.009216
O O5 0.284149 0.429737 0.432956
O O6 0.099994 0.414022 0.529201
O O7 0.734338 0.376130 0.332352
O O8 0.781397 0.175072 0.583919
O O9 0.736249 0.756719 0.590479
O O10 0.852599 0.777663 0.756229
O O11 0.333463 0.209798 0.181204
O O12 0.550526 0.105703 0.287963
O O13 0.348136 0.080317 0.439420
O O14 0.891459 0.128380 0.535636
O O15 0.493432 0.673403 0.462679
O O16 0.809580 0.960058 0.322434
#
# Coordination Sequence:
#
# PCOD9004066 Si02
#       8
#     2   2   2   2   2   2   2   2
#     4  10  20  31  46  67  96 126 154 183 221 276
#     4   9  18  30  52  72  90 114 151 196 234 264
#     4  10  18  28  45  72  95 115 146 194 235 264
#     4  10  19  32  47  65  93 131 157 177 220 278
#     4   9  16  30  48  67  89 120 156 189 224 269
#     4   9  16  25  43  67  92 115 143 183 227 265
#     4  10  17  28  47  68  93 119 150 192 230 267
#     4   9  17  33  48  69  92 120 153 185 228 277
#
# _framework density 18.865517000000001
#
# number of rings (size 3 to 8) (size 9 to 14) (size 15 to 20)
#    0.000    2.500    0.000    6.375    0.000    3.500 
#    0.000    0.625    0.000    0.000    0.000   17.500 
#    0.000    0.000    0.000    0.000    0.000    0.000 
#
# Total GULP energy -89174.771162 kJ/mol
# GULP energy per Si atom -5573.423198 kJ/mol
# Density = 1.882258 g / cm^3
# Si number density = 18.865517 Si / 1000 Ang^3
#
#
#
# Elastic Constant Matrix: (Units=GPa)
#
#
# Indices 1 2 3 4 5 6 
#
# 1 56.0275 16.3928 -5.5370 -4.3184 -0.0328 -8.3422
# 2 16.3928 100.3609 26.7127 -6.6174 -6.4144 -33.5473
# 3 -5.5370 26.7127 61.2705 -17.6846 -4.4341 -5.4923
# 4 -4.3184 -6.6174 -17.6846 21.1869 1.1943 -5.0508
# 5 -0.0328 -6.4144 -4.4341 1.1943 13.8955 0.6244
# 6 -8.3422 -33.5473 -5.4923 -5.0508 0.6244 29.5344
#
#
#
# Elastic Compliance Matrix: (Units=1/GPa)
#
#
# Indices 1 2 3 4 5 6 
#
# 1 0.020911 -0.002406 0.006480 0.010397 -0.000164 0.006160
# 2 -0.002406 0.019704 -0.004423 0.006854 0.006105 0.021923
# 3 0.006480 -0.004423 0.026248 0.022932 0.004130 0.005522
# 4 0.010397 0.006854 0.022932 0.077158 0.002611 0.028126
# 5 -0.000164 0.006105 0.004130 0.002611 0.075585 0.006504
# 6 0.006160 0.021923 0.005522 0.028126 0.006504 0.066199
#
#
# Mechanical properties :
#
#
# Convention : Reuss Voigt Hill
#
# Bulk Modulus (GPa) = 15.11367 32.53286 23.82326
# Shear Modulus (GPa) = 16.20440 24.92940 20.56690
#
# Velocity S-wave (km/s) = 2.93395 3.63909 3.30538
# Velocity P-wave (km/s) = 4.41657 5.91095 5.21754
#
# Compressibility (1/GPa) = 0.06616526
#
# Stress axis : x y z
#
# Youngs Moduli (GPa) = 47.82102 50.75022 38.09866
#
# Poissons Ratio (x) = 0.12212 -0.24688
# Poissons Ratio (y) = 0.11507 0.16851
# Poissons Ratio (z) = -0.30989 0.22446
#
# Static dielectric constant tensor:
#      x y z
#    x 1.726080 -0.000030 0.015370 
#    y -0.000030 1.718600 -0.019320 
#    z 0.015370 -0.019320 1.631720 
# 
# From -- ./inp_files/217887.got.cif
#   From: 2010.05.17/outbox.cif.g08.bks.cpg/sg2_109_cif.got.tgz:217887.got - 2010.06.03 11:33:40.
