data_PCOD9004182
_publ_section_title
;
Structure prediction by ZEFSAII (Michael W. Deem and Ramdas Pophale) SiO2 
 PCOD9004182
Probable space group: P -1
;
_chemical_formula_sum "Si O2"
_cell_formula_units_Z 16
_cell_length_a 17.596722
_cell_length_b 16.512075
_cell_length_c 7.530288
_cell_angle_alpha 104.846672
_cell_angle_beta 90.468776
_cell_angle_gamma 23.955634
_cell_volume 702.098426
_symmetry_space_group_name_H-M "P -1"
_symmetry_group_IT_number 2
_symmetry_cell_setting 'triclinic'
loop_
_space_group_symop_operation_xyz
x,y,z
-x,-y,-z
loop_
_atom_site_type_symbol
_atom_site_label
_atom_site_fract_x
_atom_site_fract_y
_atom_site_fract_z
Si Si1 0.277775 0.702874 0.002290
Si Si2 0.109609 0.000910 0.884717
Si Si3 0.930069 0.476877 0.983940
Si Si4 0.423545 0.447608 0.520656
Si Si5 0.310501 0.961449 0.522759
Si Si6 0.104989 0.684838 0.431290
Si Si7 0.530928 0.787904 0.061723
Si Si8 0.037134 0.258751 0.183464
O O1 0.149971 0.913660 0.026148
O O2 0.358171 0.559065 0.763191
O O3 0.500000 0.500000 0.000000
O O4 0.075496 0.854264 0.158886
O O5 0.360107 0.732841 0.658781
O O6 0.046275 0.162453 0.017894
O O7 0.913295 0.455334 0.169348
O O8 0.682441 0.714799 0.026415
O O9 0.132579 0.214282 0.739608
O O10 0.000000 0.500000 0.000000
O O11 0.513965 0.259422 0.458087
O O12 0.214204 0.653900 0.499182
O O13 0.452541 0.845010 0.291011
O O14 0.145798 0.055234 0.513707
O O15 0.289566 0.462310 0.165522
O O16 0.064602 0.660407 0.580689
O O17 0.293481 0.027835 0.086743
#
# Coordination Sequence:
#
# PCOD9004182 Si02
#       8
#     2   2   2   2   2   2   2   2
#     4  11  28  41  62  95 132 168 208 267 319 373
#     4  11  24  43  63  93 128 164 216 258 317 383
#     4  11  24  42  64  98 132 164 212 265 319 379
#     4  12  22  40  67  89 127 167 211 263 318 372
#     4  10  23  38  65  98 121 169 216 256 316 383
#     4  10  21  37  64  96 121 164 217 258 314 377
#     4  10  22  40  65  94 128 164 215 262 315 379
#     4  11  21  41  68  91 124 169 213 260 315 385
#
# _framework density 22.788827000000001
#
# number of rings (size 3 to 8) (size 9 to 14) (size 15 to 20)
#    0.000    1.250    3.750    1.125    3.500    2.500 
#    0.000    5.625    0.000    0.000    0.000    0.000 
#    0.000    0.000    0.000    0.000    0.000    0.000 
#
# Total GULP energy -89408.894202 kJ/mol
# GULP energy per Si atom -5588.055888 kJ/mol
# Density = 2.273696 g / cm^3
# Si number density = 22.788827 Si / 1000 Ang^3
#
#
#
# Elastic Constant Matrix: (Units=GPa)
#
#
# Indices 1 2 3 4 5 6 
#
# 1 127.1781 51.7885 13.4061 18.7730 -16.5330 -30.1521
# 2 51.7885 98.6014 0.5718 17.1244 -10.0387 -31.8605
# 3 13.4061 0.5718 117.8287 13.0646 -10.8120 -9.9897
# 4 18.7730 17.1244 13.0646 29.0434 -8.4773 -14.5728
# 5 -16.5330 -10.0387 -10.8120 -8.4773 25.6340 9.6003
# 6 -30.1521 -31.8605 -9.9897 -14.5728 9.6003 45.7558
#
#
#
# Elastic Compliance Matrix: (Units=1/GPa)
#
#
# Indices 1 2 3 4 5 6 
#
# 1 0.011047 -0.004150 -0.000442 -0.001994 0.003564 0.002911
# 2 -0.004150 0.015181 0.001374 -0.003313 0.000109 0.007058
# 3 -0.000442 0.001374 0.009237 -0.003382 0.002637 0.001052
# 4 -0.001994 -0.003313 -0.003382 0.045808 0.007931 0.008566
# 5 0.003564 0.000109 0.002637 0.007931 0.046686 -0.004270
# 6 0.002911 0.007058 0.001052 0.008566 -0.004270 0.032541
#
#
# Mechanical properties :
#
#
# Convention : Reuss Voigt Hill
#
# Bulk Modulus (GPa) = 34.44806 52.79344 43.62075
# Shear Modulus (GPa) = 28.31075 38.60943 33.46009
#
# Velocity S-wave (km/s) = 3.52846 4.12056 3.83595
# Velocity P-wave (km/s) = 5.63463 6.77166 6.22914
#
# Compressibility (1/GPa) = 0.02902921
#
# Stress axis : x y z
#
# Youngs Moduli (GPa) = 90.51971 65.87333 108.26464
#
# Poissons Ratio (x) = 0.27338 0.04784
# Poissons Ratio (y) = 0.37566 -0.14878
# Poissons Ratio (z) = 0.04000 -0.09053
#
# Static dielectric constant tensor:
#      x y z
#    x 1.873530 -0.027590 -0.035480 
#    y -0.027590 1.859130 -0.018600 
#    z -0.035480 -0.018600 1.899630 
# 
# From -- ./inp_files/315426.got.cif
#   From: 2010.05.17/outbox.cif.g08.bks.cpg/sg2_158_cif.got.tgz:315426.got - 2010.06.03 11:33:40.
