data_PCOD9004151
_publ_section_title
;
Structure prediction by ZEFSAII (Michael W. Deem and Ramdas Pophale) SiO2 
 PCOD9004151
Probable space group: P -1
;
_chemical_formula_sum "Si O2"
_cell_formula_units_Z 16
_cell_length_a 9.347092
_cell_length_b 10.934962
_cell_length_c 11.982345
_cell_angle_alpha 48.105321
_cell_angle_beta 118.955266
_cell_angle_gamma 91.799834
_cell_volume 713.111356
_symmetry_space_group_name_H-M "P -1"
_symmetry_group_IT_number 2
_symmetry_cell_setting 'triclinic'
loop_
_space_group_symop_operation_xyz
x,y,z
-x,-y,-z
loop_
_atom_site_type_symbol
_atom_site_label
_atom_site_fract_x
_atom_site_fract_y
_atom_site_fract_z
Si Si1 0.969867 0.274520 0.136102
Si Si2 0.944686 0.199381 0.408507
Si Si3 0.548347 0.413561 0.194144
Si Si4 0.042692 0.347465 0.706142
Si Si5 0.650297 0.581533 0.507304
Si Si6 0.287474 0.328420 0.282902
Si Si7 0.564857 0.732898 0.136818
Si Si8 0.165251 0.029061 0.786858
O O1 0.184420 0.211720 0.273245
O O2 0.907031 0.326834 0.209660
O O3 0.913105 0.119574 0.168935
O O4 0.867692 0.457919 0.914502
O O5 0.760876 0.275309 0.361947
O O6 0.000000 0.000000 0.500000
O O7 0.105270 0.166133 0.574376
O O8 0.435774 0.311115 0.258034
O O9 0.510811 0.577967 0.165125
O O10 0.500000 0.500000 0.000000
O O11 0.253371 0.299736 0.845321
O O12 0.000000 0.500000 0.500000
O O13 0.864563 0.428904 0.667829
O O14 0.071389 0.156511 0.778644
O O15 0.500000 0.500000 0.500000
O O16 0.637038 0.690029 0.551609
O O17 0.609811 0.696130 0.307019
O O18 0.383002 0.921731 0.940111
#
# Coordination Sequence:
#
# PCOD9004151 Si02
#       8
#     2   2   2   2   2   2   2   2
#     4  10  22  41  64 101 133 178 220 285 338 397
#     4  10  21  37  64  93 132 174 222 283 332 390
#     4  12  21  40  70  97 132 178 231 280 339 408
#     4  10  24  40  69  99 127 181 230 277 336 414
#     4  11  22  42  68  97 138 180 226 277 341 411
#     4  11  23  40  68  99 137 176 230 275 343 413
#     4  11  23  41  65 104 132 177 233 280 338 404
#     4  11  21  43  66  99 143 172 232 287 342 392
#
# _framework density 22.436886000000001
#
# number of rings (size 3 to 8) (size 9 to 14) (size 15 to 20)
#    0.000    1.250    3.750    2.625    5.250    0.000 
#    0.000    5.000    0.000    0.000    0.000    0.000 
#    0.000    0.000    0.000    0.000    0.000    0.000 
#
# Total GULP energy -89303.138521 kJ/mol
# GULP energy per Si atom -5581.446158 kJ/mol
# Density = 2.238582 g / cm^3
# Si number density = 22.436886 Si / 1000 Ang^3
#
#
#
# Elastic Constant Matrix: (Units=GPa)
#
#
# Indices 1 2 3 4 5 6 
#
# 1 148.0168 27.7389 32.7677 5.1124 27.2629 6.2028
# 2 27.7389 66.1727 25.6169 2.0110 8.0769 14.6098
# 3 32.7677 25.6169 85.8200 12.1498 27.7759 -9.5591
# 4 5.1124 2.0110 12.1498 32.8199 -3.7440 6.7296
# 5 27.2629 8.0769 27.7759 -3.7440 30.1155 0.1668
# 6 6.2028 14.6098 -9.5591 6.7296 0.1668 40.1465
#
#
#
# Elastic Compliance Matrix: (Units=1/GPa)
#
#
# Indices 1 2 3 4 5 6 
#
# 1 0.008697 -0.002808 0.000350 -0.002227 -0.007721 0.000167
# 2 -0.002808 0.021209 -0.009093 0.005309 0.005958 -0.010364
# 3 0.000350 -0.009093 0.024674 -0.013542 -0.022383 0.011493
# 4 -0.002227 0.005309 -0.013542 0.039945 0.018112 -0.011583
# 5 -0.007721 0.005958 -0.022383 0.018112 0.061546 -0.009596
# 6 0.000167 -0.010364 0.011493 -0.011583 -0.009596 0.033373
#
#
# Mechanical properties :
#
#
# Convention : Reuss Voigt Hill
#
# Bulk Modulus (GPa) = 31.76709 52.47295 42.12002
# Shear Modulus (GPa) = 22.41777 34.87545 28.64661
#
# Velocity S-wave (km/s) = 3.16436 3.94684 3.57706
# Velocity P-wave (km/s) = 5.24786 6.64889 5.98948
#
# Compressibility (1/GPa) = 0.03147912
#
# Stress axis : x y z
#
# Youngs Moduli (GPa) = 114.98671 47.15043 40.52812
#
# Poissons Ratio (x) = 0.13240 -0.01420
# Poissons Ratio (y) = 0.32289 0.36851
# Poissons Ratio (z) = -0.04030 0.42872
#
# Static dielectric constant tensor:
#      x y z
#    x 1.908810 0.044700 0.022710 
#    y 0.044700 1.847260 0.032080 
#    z 0.022710 0.032080 1.859810 
# 
# From -- ./inp_files/392152.got.cif
#   From: 2010.05.17/outbox.cif.g08.bks.cpg/sg2_197_cif.got.tgz:392152.got - 2010.06.03 11:33:40.
