data_PCOD9004263
_publ_section_title
;
Structure prediction by ZEFSAII (Michael W. Deem and Ramdas Pophale) SiO2 
 PCOD9004263
Probable space group: P -1
;
_chemical_formula_sum "Si O2"
_cell_formula_units_Z 12
_cell_length_a 16.894319
_cell_length_b 20.549540
_cell_length_c 14.168975
_cell_angle_alpha 19.029673
_cell_angle_beta 24.074680
_cell_angle_gamma 19.782616
_cell_volume 530.438205
_symmetry_space_group_name_H-M "P -1"
_symmetry_group_IT_number 2
_symmetry_cell_setting 'triclinic'
loop_
_space_group_symop_operation_xyz
x,y,z
-x,-y,-z
loop_
_atom_site_type_symbol
_atom_site_label
_atom_site_fract_x
_atom_site_fract_y
_atom_site_fract_z
Si Si1 0.179236 0.660235 0.270214
Si Si2 0.986152 0.588341 0.760445
Si Si3 0.686435 0.041916 0.191160
Si Si4 0.169644 0.283339 0.689542
Si Si5 0.863470 0.896671 0.834480
Si Si6 0.384029 0.369617 0.767401
O O1 0.006259 0.691706 0.500112
O O2 0.292127 0.397849 0.455090
O O3 0.974302 0.863558 0.144097
O O4 0.360819 0.709921 0.051733
O O5 0.168361 0.571125 0.659651
O O6 0.091991 0.309104 0.002967
O O7 0.736321 0.697962 0.930651
O O8 0.685617 0.965750 0.188406
O O9 0.500000 0.000000 0.500000
O O10 0.000000 0.500000 0.500000
O O11 0.056397 0.228447 0.976422
O O12 0.587936 0.122563 0.832719
O O13 0.000000 0.000000 0.500000
O O14 0.500000 0.500000 0.500000
#
# Coordination Sequence:
#
# PCOD9004263 Si02
#       6
#     2   2   2   2   2   2
#     4   9  21  40  58  89 127 162 212 274 320 385
#     4  10  23  41  60  91 136 165 219 276 322 394
#     4  10  21  37  65  90 121 167 218 260 328 387
#     4   9  21  41  62  93 131 167 215 271 327 389
#     4  11  22  41  67  95 132 174 219 271 331 392
#     4  11  23  38  64  93 127 173 221 264 330 389
#
# _framework density 22.622803999999999
#
# number of rings (size 3 to 8) (size 9 to 14) (size 15 to 20)
#    0.000    2.000    1.667    0.500    4.667    0.667 
#    3.000    0.000    0.000    0.000    0.000    0.000 
#    0.000    0.000    0.000    0.000    0.000    0.000 
#
# Total GULP energy -66823.947479 kJ/mol
# GULP energy per Si atom -5568.662290 kJ/mol
# Density = 2.257131 g / cm^3
# Si number density = 22.622804 Si / 1000 Ang^3
#
#
#
# Elastic Constant Matrix: (Units=GPa)
#
#
# Indices 1 2 3 4 5 6 
#
# 1 120.4867 30.7195 45.1381 0.6042 -17.6412 22.2860
# 2 30.7195 75.8604 31.4385 15.7789 -17.7571 13.8480
# 3 45.1381 31.4385 119.9982 2.3779 -30.3605 22.5900
# 4 0.6042 15.7789 2.3779 33.1873 5.1407 1.8954
# 5 -17.6412 -17.7571 -30.3605 5.1407 39.7682 -13.9777
# 6 22.2860 13.8480 22.5900 1.8954 -13.9777 43.7492
#
#
#
# Elastic Compliance Matrix: (Units=1/GPa)
#
#
# Indices 1 2 3 4 5 6 
#
# 1 0.010627 -0.002939 -0.002646 0.001563 0.000068 -0.003163
# 2 -0.002939 0.018889 -0.001767 -0.009780 0.006692 -0.001008
# 3 -0.002646 -0.001767 0.011834 -0.000837 0.006439 -0.002110
# 4 0.001563 -0.009780 -0.000837 0.036428 -0.009705 -0.001948
# 5 0.000068 0.006692 0.006439 -0.009705 0.036675 0.006660
# 6 -0.003163 -0.001008 -0.002110 -0.001948 0.006660 0.028090
#
#
# Mechanical properties :
#
#
# Convention : Reuss Voigt Hill
#
# Bulk Modulus (GPa) = 37.52627 58.99305 48.25966
# Shear Modulus (GPa) = 30.09710 37.27756 33.68733
#
# Velocity S-wave (km/s) = 3.65141 4.06370 3.86306
# Velocity P-wave (km/s) = 5.86522 6.93914 6.42466
#
# Compressibility (1/GPa) = 0.02664800
#
# Stress axis : x y z
#
# Youngs Moduli (GPa) = 94.09629 52.94136 84.49885
#
# Poissons Ratio (x) = 0.15559 0.22357
# Poissons Ratio (y) = 0.27653 0.14928
# Poissons Ratio (z) = 0.24897 0.09353
#
# Static dielectric constant tensor:
#      x y z
#    x 1.856260 0.043360 0.017800 
#    y 0.043360 1.820860 -0.086800 
#    z 0.017800 -0.086800 1.884500 
# 
# From -- ./inp_files/26602.got.cif
#   From: 2010.05.17/outbox.cif.g08.bks.cpg/sg2_14_cif.got.tgz:26602.got - 2010.06.03 11:33:40.
