data_PCOD9004337
_publ_section_title
;
Structure prediction by ZEFSAII (Michael W. Deem and Ramdas Pophale) SiO2 
 PCOD9004337
Probable space group: P -1
;
_chemical_formula_sum "Si O2"
_cell_formula_units_Z 16
_cell_length_a 14.885998
_cell_length_b 15.815373
_cell_length_c 11.813873
_cell_angle_alpha 48.573732
_cell_angle_beta 65.920042
_cell_angle_gamma 26.939610
_cell_volume 798.044894
_symmetry_space_group_name_H-M "P -1"
_symmetry_group_IT_number 2
_symmetry_cell_setting 'triclinic'
loop_
_space_group_symop_operation_xyz
x,y,z
-x,-y,-z
loop_
_atom_site_type_symbol
_atom_site_label
_atom_site_fract_x
_atom_site_fract_y
_atom_site_fract_z
Si Si1 0.189734 0.901654 0.820843
Si Si2 0.411545 0.770471 0.282559
Si Si3 0.491387 0.814685 0.431920
Si Si4 0.992676 0.671534 0.402948
Si Si5 0.342694 0.516116 0.167442
Si Si6 0.960887 0.722721 0.124385
Si Si7 0.741631 0.792053 0.618340
Si Si8 0.875439 0.148741 0.553969
O O1 0.444202 0.687909 0.849231
O O2 0.040010 0.159781 0.717282
O O3 0.223760 0.762477 0.012244
O O4 0.066370 0.985472 0.695314
O O5 0.435178 0.829388 0.324243
O O6 0.664957 0.460358 0.386267
O O7 0.254179 0.829277 0.355064
O O8 0.266937 0.985480 0.070757
O O9 0.543289 0.651030 0.628932
O O10 0.730992 0.636437 0.462162
O O11 0.309225 0.081063 0.357287
O O12 0.859363 0.749868 0.502113
O O13 0.906833 0.730574 0.269898
O O14 0.157090 0.616173 0.133637
O O15 0.087498 0.490935 0.196948
O O16 0.500000 0.000000 0.500000
O O17 0.000000 0.000000 0.500000
#
# Coordination Sequence:
#
# PCOD9004337 Si02
#       8
#     2   2   2   2   2   2   2   2
#     4  11  20  38  66  97 131 165 227 263 328 388
#     4  11  25  45  62  99 139 175 218 261 338 394
#     4  11  23  41  68  91 133 176 215 270 329 387
#     4  11  23  40  69  96 125 171 219 275 327 386
#     4  10  21  37  65  99 125 170 215 275 319 383
#     4  11  24  43  65 100 136 171 222 282 321 389
#     4  12  23  44  71  96 126 170 227 278 330 375
#     4  11  24  41  67  94 139 183 211 264 333 405
#
# _framework density 20.048998000000001
#
# number of rings (size 3 to 8) (size 9 to 14) (size 15 to 20)
#    0.000    1.000    6.250    1.125    0.000    6.500 
#    2.250    0.625    0.000    0.000    0.000    0.000 
#    0.000    0.000    0.000    0.000    0.000    0.000 
#
# Total GULP energy -89423.593662 kJ/mol
# GULP energy per Si atom -5588.974604 kJ/mol
# Density = 2.000337 g / cm^3
# Si number density = 20.048998 Si / 1000 Ang^3
#
#
#
# Elastic Constant Matrix: (Units=GPa)
#
#
# Indices 1 2 3 4 5 6 
#
# 1 56.0563 34.1504 30.1799 7.9299 -3.2225 13.7751
# 2 34.1504 127.6473 16.8864 -4.7009 -7.8837 12.0225
# 3 30.1799 16.8864 40.2699 -17.4383 5.7479 0.1400
# 4 7.9299 -4.7009 -17.4383 11.2943 5.1644 -4.5229
# 5 -3.2225 -7.8837 5.7479 5.1644 31.2172 8.1926
# 6 13.7751 12.0225 0.1400 -4.5229 8.1926 29.5709
#
#
#
# Elastic Compliance Matrix: (Units=1/GPa)
#
#
# Indices 1 2 3 4 5 6 
#
# 1 0.000641 -0.003113 0.019245 0.038231 -0.013321 0.010414
# 2 -0.003113 0.009551 -0.002678 -0.001126 0.003721 -0.003623
# 3 0.019245 -0.002678 -0.010344 -0.045475 0.015764 -0.019150
# 4 0.038231 -0.001126 -0.045475 -0.031960 0.024914 -0.028927
# 5 -0.013321 0.003721 0.015764 0.024914 0.024115 0.001748
# 6 0.010414 -0.003623 -0.019150 -0.028927 0.001748 0.025621
#
#
# Mechanical properties :
#
#
# Convention : Reuss Voigt Hill
#
# Bulk Modulus (GPa) = 37.37337 42.93407 40.15372
# Shear Modulus (GPa) = -13686.99295 23.93360 -6831.52967
#
# Velocity S-wave (km/s) = -82.71391 3.45882 -58.43641
# Velocity P-wave (km/s) = 95.41195 6.11656 67.32766
#
# Compressibility (1/GPa) = 0.02675702
#
# Stress axis : x y z
#
# Youngs Moduli (GPa) = 1559.74856 104.70287 -96.67758
#
# Poissons Ratio (x) = 0.32596 1.86061
# Poissons Ratio (y) = 4.85573 -0.25890
# Poissons Ratio (z) = -30.01812 0.28039
#
# Static dielectric constant tensor:
#      x y z
#    x 1.708660 0.001490 -0.019880 
#    y 0.001490 1.721820 -0.013390 
#    z -0.019880 -0.013390 1.702840 
# 
# From -- ./inp_files/454839.got.cif
#   From: 2010.05.17/outbox.cif.g08.bks.cpg/sg2_228_cif.got.tgz:454839.got - 2010.06.03 11:33:40.
