data_PCOD9004918
_publ_section_title
;
Structure prediction by ZEFSAII (Michael W. Deem and Ramdas Pophale) SiO2 
 PCOD9004918
Probable space group: P -1
;
_chemical_formula_sum "Si O2"
_cell_formula_units_Z 16
_cell_length_a 9.360286
_cell_length_b 13.019625
_cell_length_c 10.786627
_cell_angle_alpha 32.660809
_cell_angle_beta 100.026798
_cell_angle_gamma 88.028131
_cell_volume 656.812657
_symmetry_space_group_name_H-M "P -1"
_symmetry_group_IT_number 2
_symmetry_cell_setting 'triclinic'
loop_
_space_group_symop_operation_xyz
x,y,z
-x,-y,-z
loop_
_atom_site_type_symbol
_atom_site_label
_atom_site_fract_x
_atom_site_fract_y
_atom_site_fract_z
Si Si1 0.279748 0.509556 0.169490
Si Si2 0.245292 0.757802 0.260817
Si Si3 0.122726 0.254517 0.546297
Si Si4 0.590886 0.345169 0.275603
Si Si5 0.917210 0.830031 0.082602
Si Si6 0.395505 0.839358 0.985312
Si Si7 0.892762 0.191469 0.368824
Si Si8 0.285452 0.385380 0.805519
O O1 0.179371 0.434915 0.326536
O O2 0.444250 0.331086 0.344242
O O3 0.336492 0.685799 0.053549
O O4 0.172739 0.612696 0.930800
O O5 0.391177 0.767081 0.199541
O O6 0.267050 0.535710 0.534505
O O7 0.088749 0.824393 0.087418
O O8 0.196424 0.937030 0.172758
O O9 0.084996 0.246657 0.695759
O O10 0.991180 0.232252 0.456929
O O11 0.272635 0.059074 0.741435
O O12 0.733231 0.164592 0.422575
O O13 0.676534 0.478370 0.224241
O O14 0.500000 0.500000 0.000000
O O15 0.858614 0.687895 0.132085
O O16 0.565614 0.810160 0.996924
O O17 0.000000 0.000000 0.500000
#
# Coordination Sequence:
#
# PCOD9004918 Si02
#       8
#     2   2   2   2   2   2   2   2
#     4  10  21  41  65  90 126 165 206 257 318 366
#     4  10  21  38  59  90 129 162 206 260 310 363
#     4  11  22  39  63  92 127 161 213 258 308 371
#     4   9  22  41  66  91 126 161 205 260 310 369
#     4  10  23  39  61  93 126 162 210 259 310 371
#     4  10  22  37  59  91 124 167 205 259 304 374
#     4  11  21  41  70  91 122 166 210 258 314 369
#     4  11  21  38  65  88 123 166 207 250 320 373
#
# _framework density 24.360067000000001
#
# number of rings (size 3 to 8) (size 9 to 14) (size 15 to 20)
#    0.000    1.750    1.250    2.625    0.000    6.000 
#    0.000    0.625    8.250    0.000    0.000    0.000 
#    0.000    0.000    0.000    0.000    0.000    0.000 
#
# Total GULP energy -89400.133297 kJ/mol
# GULP energy per Si atom -5587.508331 kJ/mol
# Density = 2.430462 g / cm^3
# Si number density = 24.360067 Si / 1000 Ang^3
#
#
#
# Elastic Constant Matrix: (Units=GPa)
#
#
# Indices 1 2 3 4 5 6 
#
# 1 133.9946 39.9781 26.6962 -11.5111 13.8514 -20.6699
# 2 39.9781 54.9743 15.7603 2.4170 11.4481 -4.8531
# 3 26.6962 15.7603 65.7476 -6.3365 7.6355 -1.4756
# 4 -11.5111 2.4170 -6.3365 21.9827 -9.0550 5.7543
# 5 13.8514 11.4481 7.6355 -9.0550 39.5765 -12.1651
# 6 -20.6699 -4.8531 -1.4756 5.7543 -12.1651 45.0700
#
#
#
# Elastic Compliance Matrix: (Units=1/GPa)
#
#
# Indices 1 2 3 4 5 6 
#
# 1 0.011109 -0.007592 -0.002211 0.005495 0.001165 0.003818
# 2 -0.007592 0.026548 -0.003492 -0.010502 -0.007160 -0.001329
# 3 -0.002211 -0.003492 0.017445 0.004226 -0.001126 -0.001662
# 4 0.005495 -0.010502 0.004226 0.056501 0.012517 -0.002307
# 5 0.001165 -0.007160 -0.001126 0.012517 0.032100 0.006793
# 6 0.003818 -0.001329 -0.001662 -0.002307 0.006793 0.025869
#
#
# Mechanical properties :
#
#
# Convention : Reuss Voigt Hill
#
# Bulk Modulus (GPa) = 35.07183 46.62064 40.84623
# Shear Modulus (GPa) = 24.31129 32.81130 28.56130
#
# Velocity S-wave (km/s) = 3.16254 3.67404 3.42784
# Velocity P-wave (km/s) = 5.26916 6.09736 5.69832
#
# Compressibility (1/GPa) = 0.02851292
#
# Stress axis : x y z
#
# Youngs Moduli (GPa) = 90.01516 37.66772 57.32269
#
# Poissons Ratio (x) = 0.28598 0.12674
# Poissons Ratio (y) = 0.68342 0.20014
# Poissons Ratio (z) = 0.19902 0.13152
#
# Static dielectric constant tensor:
#      x y z
#    x 1.967820 -0.006860 0.150360 
#    y -0.006860 2.103430 0.206460 
#    z 0.150360 0.206460 2.343630 
# 
# From -- ./inp_files/398208.got.cif
#   From: 2010.05.17/outbox.cif.g08.bks.cpg/sg2_200_cif.got.tgz:398208.got - 2010.06.03 11:33:40.
