data_PCOD9004099
_publ_section_title
;
Structure prediction by ZEFSAII (Michael W. Deem and Ramdas Pophale) SiO2 
 PCOD9004099
Probable space group: P -1
;
_chemical_formula_sum "Si O2"
_cell_formula_units_Z 16
_cell_length_a 18.065012
_cell_length_b 18.803322
_cell_length_c 7.645549
_cell_angle_alpha 39.215147
_cell_angle_beta 43.668390
_cell_angle_gamma 21.558757
_cell_volume 603.299396
_symmetry_space_group_name_H-M "P -1"
_symmetry_group_IT_number 2
_symmetry_cell_setting 'triclinic'
loop_
_space_group_symop_operation_xyz
x,y,z
-x,-y,-z
loop_
_atom_site_type_symbol
_atom_site_label
_atom_site_fract_x
_atom_site_fract_y
_atom_site_fract_z
Si Si1 0.079385 0.415866 0.323970
Si Si2 0.332209 0.889653 0.415343
Si Si3 0.236704 0.500419 0.747617
Si Si4 0.615202 0.498720 0.220641
Si Si5 0.332819 0.134731 0.879072
Si Si6 0.454969 0.241126 0.344325
Si Si7 0.094192 0.887314 0.743406
Si Si8 0.971486 0.284959 0.667619
O O1 0.876480 0.624305 0.162128
O O2 0.130427 0.240636 0.535092
O O3 0.000000 0.500000 0.500000
O O4 0.226266 0.383838 0.067847
O O5 0.543643 0.666938 0.388294
O O6 0.395563 0.869121 0.541224
O O7 0.168849 0.936551 0.606408
O O8 0.281051 0.051429 0.094262
O O9 0.210037 0.610501 0.742790
O O10 0.082577 0.655507 0.557520
O O11 0.500000 0.500000 0.500000
O O12 0.697983 0.364298 0.164870
O O13 0.490339 0.722209 0.971823
O O14 0.416001 0.143771 0.569190
O O15 0.500000 0.000000 0.000000
O O16 0.232212 0.487896 0.315580
O O17 0.978775 0.888546 0.037368
O O18 0.000000 0.000000 0.500000
#
# Coordination Sequence:
#
# PCOD9004099 Si02
#       8
#     2   2   2   2   2   2   2   2
#     4  11  22  40  68  93 122 164 208 254 305 369
#     4  10  21  37  64  90 120 159 199 255 308 364
#     4  11  22  39  64  94 119 160 207 254 304 364
#     4  11  22  39  60  86 120 155 208 251 298 368
#     4   9  19  38  60  91 121 155 198 247 310 360
#     4   8  18  37  61  86 114 158 200 242 302 366
#     4  11  24  41  59  86 125 162 204 251 311 363
#     4   9  21  38  62  89 121 159 204 246 301 368
#
# _framework density 26.520828999999999
#
# number of rings (size 3 to 8) (size 9 to 14) (size 15 to 20)
#    0.000    2.000    1.250    3.375    5.250    1.500 
#    0.000    6.875    0.000    0.000    0.000    0.000 
#    0.000    0.000    0.000    0.000    0.000    0.000 
#
# Total GULP energy -89383.111582 kJ/mol
# GULP energy per Si atom -5586.444474 kJ/mol
# Density = 2.646047 g / cm^3
# Si number density = 26.520829 Si / 1000 Ang^3
#
#
#
# Elastic Constant Matrix: (Units=GPa)
#
#
# Indices 1 2 3 4 5 6 
#
# 1 133.5089 6.2047 86.2690 6.8524 -31.8309 -3.7055
# 2 6.2047 59.1041 10.3543 5.5394 -11.0353 -6.8424
# 3 86.2690 10.3543 255.7200 10.5067 -44.7364 -13.5442
# 4 6.8524 5.5394 10.5067 27.9298 -2.3412 -4.7473
# 5 -31.8309 -11.0353 -44.7364 -2.3412 61.7749 3.9245
# 6 -3.7055 -6.8424 -13.5442 -4.7473 3.9245 34.4926
#
#
#
# Elastic Compliance Matrix: (Units=1/GPa)
#
#
# Indices 1 2 3 4 5 6 
#
# 1 0.010127 0.000080 -0.002844 -0.001258 0.003160 -0.000546
# 2 0.000080 0.018067 0.000037 -0.002877 0.003004 0.002869
# 3 -0.002844 0.000037 0.005386 -0.000899 0.002317 0.001430
# 4 -0.001258 -0.002877 -0.000899 0.037681 -0.000652 0.004201
# 5 0.003160 0.003004 0.002317 -0.000652 0.020039 -0.000524
# 6 -0.000546 0.002869 0.001430 0.004201 -0.000524 0.030702
#
#
# Mechanical properties :
#
#
# Convention : Reuss Voigt Hill
#
# Bulk Modulus (GPa) = 35.55331 72.66542 54.10937
# Shear Modulus (GPa) = 36.54119 47.87313 42.20716
#
# Velocity S-wave (km/s) = 3.71594 4.25327 3.99365
# Velocity P-wave (km/s) = 5.64321 7.18187 6.45853
#
# Compressibility (1/GPa) = 0.02812677
#
# Stress axis : x y z
#
# Youngs Moduli (GPa) = 98.74649 55.34899 185.64959
#
# Poissons Ratio (x) = -0.00442 0.52800
# Poissons Ratio (y) = -0.00788 -0.00692
# Poissons Ratio (z) = 0.28084 -0.00206
#
# Static dielectric constant tensor:
#      x y z
#    x 2.083150 0.002460 0.022460 
#    y 0.002460 2.268860 0.020690 
#    z 0.022460 0.020690 2.227170 
# 
# From -- ./inp_files/338033.got.cif
#   From: 2010.05.17/outbox.cif.g08.bks.cpg/sg2_170_cif.got.tgz:338033.got - 2010.06.03 11:33:40.
