data_PCOD9004041
_publ_section_title
;
Structure prediction by ZEFSAII (Michael W. Deem and Ramdas Pophale) SiO2 
 PCOD9004041
Probable space group: P -1
;
_chemical_formula_sum "Si O2"
_cell_formula_units_Z 16
_cell_length_a 12.243289
_cell_length_b 13.898647
_cell_length_c 5.770636
_cell_angle_alpha 63.357109
_cell_angle_beta 91.277799
_cell_angle_gamma 56.608616
_cell_volume 683.516132
_symmetry_space_group_name_H-M "P -1"
_symmetry_group_IT_number 2
_symmetry_cell_setting 'triclinic'
loop_
_space_group_symop_operation_xyz
x,y,z
-x,-y,-z
loop_
_atom_site_type_symbol
_atom_site_label
_atom_site_fract_x
_atom_site_fract_y
_atom_site_fract_z
Si Si1 0.384082 0.149483 0.434562
Si Si2 0.264401 0.045867 0.882748
Si Si3 0.763587 0.172389 0.383296
Si Si4 0.387504 0.745569 0.208226
Si Si5 0.343506 0.367277 0.459001
Si Si6 0.799200 0.720159 0.127541
Si Si7 0.047882 0.131268 0.452713
Si Si8 0.950407 0.420064 0.958624
O O1 0.303884 0.117417 0.633379
O O2 0.439555 0.226842 0.461899
O O3 0.500000 0.000000 0.500000
O O4 0.270111 0.267459 0.129409
O O5 0.257495 0.122681 0.023569
O O6 0.114644 0.089640 0.758368
O O7 0.373667 0.883831 0.039062
O O8 0.692957 0.230315 0.574691
O O9 0.900844 0.162343 0.392986
O O10 0.833027 0.009546 0.531812
O O11 0.673132 0.251467 0.053722
O O12 0.551932 0.622118 0.402039
O O13 0.259793 0.332384 0.647771
O O14 0.215003 0.497847 0.170750
O O15 0.965923 0.625106 0.232730
O O16 0.018162 0.272985 0.236364
O O17 0.000000 0.500000 0.000000
#
# Coordination Sequence:
#
# PCOD9004041 Si02
#       8
#     2   2   2   2   2   2   2   2
#     4  11  21  35  59  92 133 169 214 266 335 402
#     4  10  21  37  63  97 125 170 221 278 339 399
#     4  10  25  45  71 100 129 172 236 291 334 391
#     4  11  24  42  66  97 134 171 230 285 341 389
#     4  11  25  37  59  94 132 183 219 271 334 408
#     4  11  21  38  59  92 134 173 222 265 331 410
#     4  10  22  43  70  97 131 174 223 286 340 388
#     4  12  22  42  65  96 137 175 221 270 339 416
#
# _framework density 23.408370999999999
#
# number of rings (size 3 to 8) (size 9 to 14) (size 15 to 20)
#    0.000    1.250    2.500    3.375    7.000    7.500 
#    0.000    1.250    0.000    0.000    0.000    0.000 
#    0.000    0.000    0.000    0.000    0.000    0.000 
#
# Total GULP energy -89075.414555 kJ/mol
# GULP energy per Si atom -5567.213410 kJ/mol
# Density = 2.335509 g / cm^3
# Si number density = 23.408371 Si / 1000 Ang^3
#
#
#
# Elastic Constant Matrix: (Units=GPa)
#
#
# Indices 1 2 3 4 5 6 
#
# 1 73.9769 12.3087 27.2664 -2.7187 28.8083 -0.0489
# 2 12.3087 29.2522 16.2685 -3.3790 0.7848 -11.0753
# 3 27.2664 16.2685 83.8545 -0.1138 26.7675 -3.7159
# 4 -2.7187 -3.3790 -0.1138 27.7954 -4.7555 6.4321
# 5 28.8083 0.7848 26.7675 -4.7555 44.6266 -1.1773
# 6 -0.0489 -11.0753 -3.7159 6.4321 -1.1773 29.9709
#
#
#
# Elastic Compliance Matrix: (Units=1/GPa)
#
#
# Indices 1 2 3 4 5 6 
#
# 1 0.020237 -0.009129 -0.001011 -0.000366 -0.012438 -0.003876
# 2 -0.009129 0.049887 -0.009653 0.003183 0.011594 0.016996
# 3 -0.001011 -0.009653 0.017196 -0.002586 -0.009801 -0.001267
# 4 -0.000366 0.003183 -0.002586 0.038978 0.005692 -0.007286
# 5 -0.012438 0.011594 -0.009801 0.005692 0.036805 0.003273
# 6 -0.003876 0.016996 -0.001267 -0.007286 0.003273 0.041175
#
#
# Mechanical properties :
#
#
# Convention : Reuss Voigt Hill
#
# Bulk Modulus (GPa) = 20.95000 33.19677 27.07338
# Shear Modulus (GPa) = 19.24738 29.22791 24.23765
#
# Velocity S-wave (km/s) = 2.87059 3.53740 3.22130
# Velocity P-wave (km/s) = 4.46724 5.55847 5.04246
#
# Compressibility (1/GPa) = 0.04773271
#
# Stress axis : x y z
#
# Youngs Moduli (GPa) = 49.41453 20.04534 58.15334
#
# Poissons Ratio (x) = 0.18299 0.05880
# Poissons Ratio (y) = 0.45110 0.56138
# Poissons Ratio (z) = 0.04996 0.19351
#
# Static dielectric constant tensor:
#      x y z
#    x 1.894210 -0.076140 0.019870 
#    y -0.076140 2.077220 0.095870 
#    z 0.019870 0.095870 1.974030 
# 
# From -- ./inp_files/70783.got.cif
#   From: 2010.05.17/outbox.cif.g08.bks.cpg/sg2_36_cif.got.tgz:70783.got - 2010.06.03 11:33:40.
