data_PCOD9004484
_publ_section_title
;
Structure prediction by ZEFSAII (Michael W. Deem and Ramdas Pophale) SiO2 
 PCOD9004484
Probable space group: P -1
;
_chemical_formula_sum "Si O2"
_cell_formula_units_Z 16
_cell_length_a 9.616981
_cell_length_b 12.162942
_cell_length_c 14.650141
_cell_angle_alpha 29.312469
_cell_angle_beta 74.480966
_cell_angle_gamma 85.481963
_cell_volume 763.759749
_symmetry_space_group_name_H-M "P -1"
_symmetry_group_IT_number 2
_symmetry_cell_setting 'triclinic'
loop_
_space_group_symop_operation_xyz
x,y,z
-x,-y,-z
loop_
_atom_site_type_symbol
_atom_site_label
_atom_site_fract_x
_atom_site_fract_y
_atom_site_fract_z
Si Si1 0.829907 0.906195 0.958811
Si Si2 0.911444 0.719322 0.470037
Si Si3 0.168327 0.592944 0.617044
Si Si4 0.358078 0.183116 0.458322
Si Si5 0.371388 0.093434 0.842086
Si Si6 0.467993 0.266303 0.988816
Si Si7 0.599713 0.957896 0.648735
Si Si8 0.323962 0.531963 0.443597
O O1 0.860552 0.659129 0.147773
O O2 0.771994 0.973013 0.017422
O O3 0.689066 0.855592 0.949729
O O4 0.974352 0.104524 0.748548
O O5 0.804066 0.843238 0.449867
O O6 0.800615 0.505118 0.585259
O O7 0.013416 0.635154 0.584248
O O8 0.260704 0.587020 0.511475
O O9 0.273785 0.806261 0.505145
O O10 0.346593 0.122617 0.396958
O O11 0.448343 0.025468 0.603773
O O12 0.460149 0.460229 0.249427
O O13 0.352662 0.279981 0.634644
O O14 0.518197 0.260660 0.752376
O O15 0.417077 0.879619 0.947788
O O16 0.433092 0.234280 0.125782
#
# Coordination Sequence:
#
# PCOD9004484 Si02
#       8
#     2   2   2   2   2   2   2   2
#     4  11  24  40  63  98 138 176 209 261 330 396
#     4  12  25  42  63  99 138 172 215 266 325 390
#     4  11  23  42  67  94 139 172 210 270 332 384
#     4  11  27  43  72  98 128 166 231 276 317 385
#     4  10  21  37  67  99 133 173 217 265 320 392
#     4  12  21  42  70  98 125 174 225 267 325 388
#     4  11  23  48  71  96 126 172 222 280 324 379
#     4  10  21  39  66  98 134 176 214 265 323 390
#
# _framework density 20.948996999999999
#
# number of rings (size 3 to 8) (size 9 to 14) (size 15 to 20)
#    0.000    1.000    3.750    2.625    1.750    6.500 
#    0.000    0.625    0.000    0.000    0.000    0.000 
#    0.000    0.000    0.000    0.000    0.000    0.000 
#
# Total GULP energy -89638.233871 kJ/mol
# GULP energy per Si atom -5602.389617 kJ/mol
# Density = 2.090132 g / cm^3
# Si number density = 20.948997 Si / 1000 Ang^3
#
#
#
# Elastic Constant Matrix: (Units=GPa)
#
#
# Indices 1 2 3 4 5 6 
#
# 1 78.0106 6.9495 14.7873 6.1138 -1.6582 -6.0045
# 2 6.9495 70.1068 1.7261 4.1496 -6.7334 -6.2298
# 3 14.7873 1.7261 76.1912 14.0878 1.0058 -15.5919
# 4 6.1138 4.1496 14.0878 27.9735 -0.3000 2.1864
# 5 -1.6582 -6.7334 1.0058 -0.3000 22.3641 3.6607
# 6 -6.0045 -6.2298 -15.5919 2.1864 3.6607 29.8724
#
#
#
# Elastic Compliance Matrix: (Units=1/GPa)
#
#
# Indices 1 2 3 4 5 6 
#
# 1 0.013560 -0.000990 -0.001926 -0.001966 0.000506 0.001596
# 2 -0.000990 0.015156 0.000951 -0.002717 0.003890 0.003180
# 3 -0.001926 0.000951 0.017198 -0.009168 -0.002348 0.009746
# 4 -0.001966 -0.002717 -0.009168 0.041917 0.001483 -0.008997
# 5 0.000506 0.003890 -0.002348 0.001483 0.047062 -0.006188
# 6 0.001596 0.003180 0.009746 -0.008997 -0.006188 0.040964
#
#
# Mechanical properties :
#
#
# Convention : Reuss Voigt Hill
#
# Bulk Modulus (GPa) = 23.81913 30.13715 26.97814
# Shear Modulus (GPa) = 25.80240 29.43171 27.61706
#
# Velocity S-wave (km/s) = 3.51333 3.75230 3.63478
# Velocity P-wave (km/s) = 5.27757 5.76109 5.52462
#
# Compressibility (1/GPa) = 0.04198306
#
# Stress axis : x y z
#
# Youngs Moduli (GPa) = 73.74803 65.98171 58.14694
#
# Poissons Ratio (x) = 0.06532 0.11198
# Poissons Ratio (y) = 0.07300 -0.05528
# Poissons Ratio (z) = 0.14203 -0.06273
#
# Static dielectric constant tensor:
#      x y z
#    x 1.755640 -0.000170 0.023290 
#    y -0.000170 1.735750 0.008790 
#    z 0.023290 0.008790 1.758310 
# 
# From -- ./inp_files/187305.got.cif
#   From: 2010.05.17/outbox.cif.g08.bks.cpg/sg2_94_cif.got.tgz:187305.got - 2010.06.03 11:33:40.
