data_PCOD9004737
_publ_section_title
;
Structure prediction by ZEFSAII (Michael W. Deem and Ramdas Pophale) SiO2 
 PCOD9004737
Probable space group: P -1
;
_chemical_formula_sum "Si O2"
_cell_formula_units_Z 14
_cell_length_a 15.599611
_cell_length_b 12.921322
_cell_length_c 7.106378
_cell_angle_alpha 93.134186
_cell_angle_beta 68.078169
_cell_angle_gamma 37.434341
_cell_volume 632.041267
_symmetry_space_group_name_H-M "P -1"
_symmetry_group_IT_number 2
_symmetry_cell_setting 'triclinic'
loop_
_space_group_symop_operation_xyz
x,y,z
-x,-y,-z
loop_
_atom_site_type_symbol
_atom_site_label
_atom_site_fract_x
_atom_site_fract_y
_atom_site_fract_z
Si Si1 0.825289 0.615411 0.397644
Si Si2 0.570751 0.041204 0.783849
Si Si3 0.185807 0.060045 0.703111
Si Si4 0.851700 0.525478 0.940394
Si Si5 0.963668 0.974196 0.717598
Si Si6 0.136971 0.158032 0.185858
Si Si7 0.272207 0.739580 0.703813
O O1 0.993128 0.538436 0.243670
O O2 0.932233 0.418786 0.403374
O O3 0.638757 0.859044 0.651354
O O4 0.789213 0.610649 0.215739
O O5 0.652703 0.039776 0.558429
O O6 0.341847 0.279249 0.001443
O O7 0.307752 0.047426 0.141738
O O8 0.976575 0.296885 0.811892
O O9 0.223644 0.901415 0.676681
O O10 0.180135 0.111895 0.923571
O O11 0.880470 0.942753 0.742744
O O12 0.818672 0.173255 0.003921
O O13 0.000000 0.000000 0.500000
O O14 0.160254 0.771348 0.660976
O O15 0.500000 0.500000 0.500000
#
# Coordination Sequence:
#
# PCOD9004737 Si02
#       7
#     2   2   2   2   2   2   2
#     4   9  19  36  54  84 121 151 193 243 291 349
#     4  11  20  35  62  86 113 158 196 234 294 358
#     4   9  21  40  57  85 121 150 192 246 295 353
#     4   9  19  36  59  83 116 156 193 238 292 354
#     4  10  22  42  63  89 126 161 199 254 309 358
#     4  10  21  38  58  86 121 153 194 246 298 355
#     4  10  22  41  66  91 119 161 207 250 303 365
#
# _framework density 22.150452000000001
#
# number of rings (size 3 to 8) (size 9 to 14) (size 15 to 20)
#    0.000    2.286    0.000    2.571    0.000    5.714 
#    0.000   15.714    0.000    0.000    0.000    0.000 
#    0.000    0.000    0.000    0.000    0.000    0.000 
#
# Total GULP energy -78346.796400 kJ/mol
# GULP energy per Si atom -5596.199743 kJ/mol
# Density = 2.210004 g / cm^3
# Si number density = 22.150452 Si / 1000 Ang^3
#
#
#
# Elastic Constant Matrix: (Units=GPa)
#
#
# Indices 1 2 3 4 5 6 
#
# 1 50.5862 14.3327 23.3807 12.0880 4.4441 -3.5245
# 2 14.3327 99.2657 47.2527 7.1891 -1.5043 -0.6712
# 3 23.3807 47.2527 95.0495 3.7700 -11.7749 -16.2629
# 4 12.0880 7.1891 3.7700 48.0612 -7.2945 -6.5895
# 5 4.4441 -1.5043 -11.7749 -7.2945 21.3612 1.6105
# 6 -3.5245 -0.6712 -16.2629 -6.5895 1.6105 29.4622
#
#
#
# Elastic Compliance Matrix: (Units=1/GPa)
#
#
# Indices 1 2 3 4 5 6 
#
# 1 0.026492 0.000647 -0.008563 -0.008412 -0.012853 -0.002721
# 2 0.000647 0.014086 -0.008387 -0.002918 -0.004412 -0.004643
# 3 -0.008563 -0.008387 0.019984 0.005256 0.013227 0.010268
# 4 -0.008412 -0.002918 0.005256 0.025828 0.012741 0.006909
# 5 -0.012853 -0.004412 0.013227 0.012741 0.060426 0.005209
# 6 -0.002721 -0.004643 0.010268 0.006909 0.005209 0.040439
#
#
# Mechanical properties :
#
#
# Convention : Reuss Voigt Hill
#
# Bulk Modulus (GPa) = 35.76996 46.09262 40.93129
# Shear Modulus (GPa) = 21.81705 30.43928 26.12816
#
# Velocity S-wave (km/s) = 3.14179 3.71105 3.43822
# Velocity P-wave (km/s) = 5.41709 6.26231 5.85497
#
# Compressibility (1/GPa) = 0.02795642
#
# Stress axis : x y z
#
# Youngs Moduli (GPa) = 37.74689 70.99201 50.04117
#
# Poissons Ratio (x) = -0.04592 0.42848
# Poissons Ratio (y) = -0.02442 0.41970
# Poissons Ratio (z) = 0.32321 0.59542
#
# Static dielectric constant tensor:
#      x y z
#    x 1.811080 0.007980 0.027030 
#    y 0.007980 1.819320 -0.029070 
#    z 0.027030 -0.029070 1.818620 
# 
# From -- ./inp_files/333213.got.cif
#   From: 2010.05.17/outbox.cif.g08.bks.cpg/sg2_167_cif.got.tgz:333213.got - 2010.06.03 11:33:40.
