data_PCOD9004449
_publ_section_title
;
Structure prediction by ZEFSAII (Michael W. Deem and Ramdas Pophale) SiO2 
 PCOD9004449
Probable space group: P -1
;
_chemical_formula_sum "Si O2"
_cell_formula_units_Z 14
_cell_length_a 16.916900
_cell_length_b 10.414923
_cell_length_c 7.963903
_cell_angle_alpha 61.936755
_cell_angle_beta 80.849873
_cell_angle_gamma 28.240931
_cell_volume 463.472472
_symmetry_space_group_name_H-M "P -1"
_symmetry_group_IT_number 2
_symmetry_cell_setting 'triclinic'
loop_
_space_group_symop_operation_xyz
x,y,z
-x,-y,-z
loop_
_atom_site_type_symbol
_atom_site_label
_atom_site_fract_x
_atom_site_fract_y
_atom_site_fract_z
Si Si1 0.035881 0.844076 0.914191
Si Si2 0.570122 0.102072 0.878951
Si Si3 0.467350 0.039872 0.730791
Si Si4 0.360588 0.940773 0.661285
Si Si5 0.744148 0.033365 0.660788
Si Si6 0.886848 0.030060 0.400991
Si Si7 0.804488 0.021434 0.094611
O O1 0.283218 0.404644 0.083644
O O2 0.990100 0.029566 0.657440
O O3 0.927537 0.874383 0.982663
O O4 0.000000 0.000000 0.000000
O O5 0.756258 0.895828 0.889366
O O6 0.367102 0.512137 0.787598
O O7 0.466170 0.211171 0.674055
O O8 0.635618 0.862374 0.129024
O O9 0.383314 0.076476 0.589008
O O10 0.257381 0.059322 0.452670
O O11 0.247729 0.055952 0.789194
O O12 0.587642 0.478524 0.870422
O O13 0.500000 0.500000 0.500000
O O14 0.896616 0.909689 0.633614
O O15 0.918189 0.883909 0.311029
#
# Coordination Sequence:
#
# PCOD9004449 Si02
#       7
#     2   2   2   2   2   2   2
#     4   9  14  27  46  73  93 117 152 194 233 262
#     4   9  17  30  45  71  97 125 148 190 231 278
#     4  10  18  29  51  72  91 123 159 188 224 279
#     4  10  17  28  47  77  88 117 164 192 221 271
#     4   9  18  29  46  71  96 121 149 197 237 264
#     4   8  14  28  47  67  89 122 153 181 227 273
#     4   9  16  26  48  75  93 112 159 199 222 265
#
# _framework density 30.206752999999999
#
# number of rings (size 3 to 8) (size 9 to 14) (size 15 to 20)
#    0.000    2.857    4.286    0.000    2.000    0.571 
#    0.000    0.000    0.000   23.143    0.000    0.000 
#    0.000    0.000    0.000    0.000    0.000    0.000 
#
# Total GULP energy -78296.938306 kJ/mol
# GULP energy per Si atom -5592.638450 kJ/mol
# Density = 3.013800 g / cm^3
# Si number density = 30.206753 Si / 1000 Ang^3
#
#
#
# Elastic Constant Matrix: (Units=GPa)
#
#
# Indices 1 2 3 4 5 6 
#
# 1 212.1037 47.2593 34.7592 37.1151 -37.6327 -32.6745
# 2 47.2593 144.4441 65.1398 31.9365 -8.2369 -42.3222
# 3 34.7592 65.1398 134.7782 57.5435 -36.6411 -18.2622
# 4 37.1151 31.9365 57.5435 77.7313 -13.9382 -12.6510
# 5 -37.6327 -8.2369 -36.6411 -13.9382 53.3394 38.6219
# 6 -32.6745 -42.3222 -18.2622 -12.6510 38.6219 62.9884
#
#
#
# Elastic Compliance Matrix: (Units=1/GPa)
#
#
# Indices 1 2 3 4 5 6 
#
# 1 0.006296 -0.003132 0.002699 -0.002915 0.007315 -0.003126
# 2 -0.003132 0.017649 -0.012016 0.002559 -0.022174 0.020860
# 3 0.002699 -0.012016 0.021442 -0.010664 0.024951 -0.017898
# 4 -0.002915 0.002559 -0.010664 0.020662 -0.008101 0.006232
# 5 0.007315 -0.022174 0.024951 -0.008101 0.071019 -0.049044
# 6 -0.003126 0.020860 -0.017898 0.006232 -0.049044 0.054405
#
#
# Mechanical properties :
#
#
# Convention : Reuss Voigt Hill
#
# Bulk Modulus (GPa) = 48.80415 87.29363 68.04889
# Shear Modulus (GPa) = 22.40139 61.75632 42.07886
#
# Velocity S-wave (km/s) = 2.72619 4.52647 3.73638
# Velocity P-wave (km/s) = 5.10894 7.50200 6.41799
#
# Compressibility (1/GPa) = 0.02049006
#
# Stress axis : x y z
#
# Youngs Moduli (GPa) = 158.81901 56.66189 46.63659
#
# Poissons Ratio (x) = 0.17745 -0.12589
# Poissons Ratio (y) = 0.49737 0.56041
# Poissons Ratio (z) = -0.42872 0.68087
#
# Static dielectric constant tensor:
#      x y z
#    x 2.678620 0.152820 0.014750 
#    y 0.152820 2.334420 -0.019950 
#    z 0.014750 -0.019950 2.408940 
# 
# From -- ./inp_files/170736.got.cif
#   From: 2010.05.17/outbox.cif.g08.bks.cpg/sg2_86_cif.got.tgz:170736.got - 2010.06.03 11:33:40.
