data_PCOD9004887
_publ_section_title
;
Structure prediction by ZEFSAII (Michael W. Deem and Ramdas Pophale) SiO2 
 PCOD9004887
Probable space group: P -1
;
_chemical_formula_sum "Si O2"
_cell_formula_units_Z 16
_cell_length_a 11.735657
_cell_length_b 15.063609
_cell_length_c 10.192820
_cell_angle_alpha 155.190235
_cell_angle_beta 64.605802
_cell_angle_gamma 115.430615
_cell_volume 679.192366
_symmetry_space_group_name_H-M "P -1"
_symmetry_group_IT_number 2
_symmetry_cell_setting 'triclinic'
loop_
_space_group_symop_operation_xyz
x,y,z
-x,-y,-z
loop_
_atom_site_type_symbol
_atom_site_label
_atom_site_fract_x
_atom_site_fract_y
_atom_site_fract_z
Si Si1 0.794985 0.370384 0.664479
Si Si2 0.028779 0.964094 0.749494
Si Si3 0.373615 0.848094 0.328297
Si Si4 0.646973 0.948203 0.743589
Si Si5 0.192144 0.206086 0.194664
Si Si6 0.631097 0.074094 0.199997
Si Si7 0.368696 0.590603 0.718325
Si Si8 0.827535 0.870413 0.325367
O O1 0.677647 0.304065 0.731585
O O2 0.735884 0.276217 0.430487
O O3 0.903025 0.237292 0.496103
O O4 0.832957 0.619517 0.970021
O O5 0.047720 0.005798 0.640699
O O6 0.099056 0.170089 0.067735
O O7 0.889122 0.918667 0.816117
O O8 0.500000 0.000000 0.500000
O O9 0.275289 0.012609 0.550726
O O10 0.377952 0.681750 0.983225
O O11 0.510958 0.864388 0.634319
O O12 0.768113 0.889256 0.525774
O O13 0.634349 0.917030 0.862443
O O14 0.646171 0.200605 0.077336
O O15 0.247156 0.430871 0.524646
O O16 0.313757 0.082329 0.930695
O O17 0.500000 0.500000 0.500000
#
# Coordination Sequence:
#
# PCOD9004887 Si02
#       8
#     2   2   2   2   2   2   2   2
#     4  10  21  39  64  90 116 169 212 246 308 367
#     4   9  22  44  64  89 123 164 212 265 299 360
#     4  10  23  38  59  93 132 161 202 254 310 375
#     4  10  22  37  55  94 129 154 197 253 313 373
#     4  10  21  42  65  88 124 161 207 261 312 357
#     4  10  21  38  59  88 127 157 200 254 308 373
#     4  11  22  36  64  92 118 166 202 249 318 373
#     4  10  22  39  62  89 124 162 207 254 307 362
#
# _framework density 23.557390000000002
#
# number of rings (size 3 to 8) (size 9 to 14) (size 15 to 20)
#    0.000    2.000    1.250    1.500    7.000    2.000 
#    2.250    8.125    0.000    0.000    0.000    0.000 
#    0.000    0.000    0.000    0.000    0.000    0.000 
#
# Total GULP energy -89180.538458 kJ/mol
# GULP energy per Si atom -5573.783654 kJ/mol
# Density = 2.350377 g / cm^3
# Si number density = 23.557390 Si / 1000 Ang^3
#
#
#
# Elastic Constant Matrix: (Units=GPa)
#
#
# Indices 1 2 3 4 5 6 
#
# 1 71.4354 16.7508 31.1075 -2.1427 8.7331 25.3935
# 2 16.7508 105.1128 31.4684 -16.9774 -1.3910 10.7574
# 3 31.1075 31.4684 113.9394 10.9081 -1.4661 9.9640
# 4 -2.1427 -16.9774 10.9081 36.7230 0.4670 5.6091
# 5 8.7331 -1.3910 -1.4661 0.4670 18.2920 -3.0982
# 6 25.3935 10.7574 9.9640 5.6091 -3.0982 31.3067
#
#
#
# Elastic Compliance Matrix: (Units=1/GPa)
#
#
# Indices 1 2 3 4 5 6 
#
# 1 0.027545 0.001116 -0.006743 0.007984 -0.017837 -0.023775
# 2 0.001116 0.012325 -0.003998 0.007783 -0.001023 -0.005363
# 3 -0.006743 -0.003998 0.012005 -0.006584 0.004839 0.004681
# 4 0.007984 0.007783 -0.006584 0.035496 -0.007044 -0.014112
# 5 -0.017837 -0.001023 0.004839 -0.007044 0.067265 0.021198
# 6 -0.023775 -0.005363 0.004681 -0.014112 0.021198 0.056206
#
#
# Mechanical properties :
#
#
# Convention : Reuss Voigt Hill
#
# Bulk Modulus (GPa) = 30.65156 49.90454 40.27805
# Shear Modulus (GPa) = 20.74970 31.34173 26.04572
#
# Velocity S-wave (km/s) = 2.97107 3.65148 3.32871
# Velocity P-wave (km/s) = 4.98090 6.24564 5.64878
#
# Compressibility (1/GPa) = 0.03262476
#
# Stress axis : x y z
#
# Youngs Moduli (GPa) = 36.30413 81.13554 83.29840
#
# Poissons Ratio (x) = -0.09054 0.56170
# Poissons Ratio (y) = -0.04051 0.33302
# Poissons Ratio (z) = 0.24481 0.32437
#
# Static dielectric constant tensor:
#      x y z
#    x 2.010590 -0.105710 0.072500 
#    y -0.105710 2.035120 -0.093720 
#    z 0.072500 -0.093720 1.945400 
# 
# From -- ./inp_files/437464.got.cif
#   From: 2010.05.17/outbox.cif.g08.bks.cpg/sg2_219_cif.got.tgz:437464.got - 2010.06.03 11:33:40.
