data_PCOD9004440
_publ_section_title
;
Structure prediction by ZEFSAII (Michael W. Deem and Ramdas Pophale) SiO2 
 PCOD9004440
Probable space group: P -1
;
_chemical_formula_sum "Si O2"
_cell_formula_units_Z 14
_cell_length_a 11.495688
_cell_length_b 17.726343
_cell_length_c 8.876843
_cell_angle_alpha 46.673314
_cell_angle_beta 131.333676
_cell_angle_gamma 147.226804
_cell_volume 696.106359
_symmetry_space_group_name_H-M "P -1"
_symmetry_group_IT_number 2
_symmetry_cell_setting 'triclinic'
loop_
_space_group_symop_operation_xyz
x,y,z
-x,-y,-z
loop_
_atom_site_type_symbol
_atom_site_label
_atom_site_fract_x
_atom_site_fract_y
_atom_site_fract_z
Si Si1 0.077650 0.102030 0.067485
Si Si2 0.684862 0.841314 0.516380
Si Si3 0.178895 0.551722 0.457361
Si Si4 0.799734 0.247089 0.997522
Si Si5 0.325128 0.994572 0.975642
Si Si6 0.700484 0.618977 0.302253
Si Si7 0.211076 0.312376 0.371902
O O1 0.184929 0.088369 0.313449
O O2 0.248694 0.270543 0.929085
O O3 0.860327 0.054806 0.005622
O O4 0.000000 0.000000 0.000000
O O5 0.429373 0.693105 0.531223
O O6 0.693803 0.945210 0.274887
O O7 0.787396 0.794961 0.570632
O O8 0.150204 0.612746 0.203726
O O9 0.181011 0.432381 0.573386
O O10 0.000000 0.500000 0.500000
O O11 0.573766 0.130877 0.058162
O O12 0.007231 0.287934 0.188250
O O13 0.730708 0.148558 0.924465
O O14 0.441390 0.474320 0.297581
O O15 0.780799 0.695873 0.429653
#
# Coordination Sequence:
#
# PCOD9004440 Si02
#       7
#     2   2   2   2   2   2   2
#     4  12  24  38  63  93 122 155 201 252 296 357
#     4  10  22  39  66  87 117 165 200 243 301 354
#     4  10  22  39  60  91 125 153 199 249 301 357
#     4  10  21  37  67  84 119 165 196 243 299 355
#     4  10  21  40  60  92 120 158 205 238 298 365
#     4  10  24  40  62  93 121 154 204 252 292 352
#     4  10  21  42  66  87 119 158 207 245 297 355
#
# _framework density 20.111868000000001
#
# number of rings (size 3 to 8) (size 9 to 14) (size 15 to 20)
#    0.000    1.714    1.429    2.143    4.000    2.857 
#    2.571    0.714    0.000    0.000    0.000    0.000 
#    0.000    0.000    0.000    0.000    0.000    0.000 
#
# Total GULP energy -78221.253637 kJ/mol
# GULP energy per Si atom -5587.232403 kJ/mol
# Density = 2.006609 g / cm^3
# Si number density = 20.111868 Si / 1000 Ang^3
#
#
#
# Elastic Constant Matrix: (Units=GPa)
#
#
# Indices 1 2 3 4 5 6 
#
# 1 80.6638 25.9609 21.3633 10.0191 -10.2164 18.7225
# 2 25.9609 50.6149 31.0854 7.5764 -1.8805 3.6198
# 3 21.3633 31.0854 77.0594 6.7295 11.9270 2.3758
# 4 10.0191 7.5764 6.7295 36.0521 5.8318 5.1826
# 5 -10.2164 -1.8805 11.9270 5.8318 28.8246 1.8817
# 6 18.7225 3.6198 2.3758 5.1826 1.8817 41.1185
#
#
#
# Elastic Compliance Matrix: (Units=1/GPa)
#
#
# Indices 1 2 3 4 5 6 
#
# 1 0.018624 -0.005914 -0.003609 -0.003597 0.008940 -0.007707
# 2 -0.005914 0.030258 -0.011073 -0.003606 0.005131 0.000889
# 3 -0.003609 -0.011073 0.019934 0.001060 -0.010583 0.001817
# 4 -0.003597 -0.003606 0.001060 0.030838 -0.008082 -0.001623
# 5 0.008940 0.005131 -0.010583 -0.008082 0.044532 -0.004930
# 6 -0.007707 0.000889 0.001817 -0.001623 -0.004930 0.028076
#
#
# Mechanical properties :
#
#
# Convention : Reuss Voigt Hill
#
# Bulk Modulus (GPa) = 36.20167 40.57301 38.38734
# Shear Modulus (GPa) = 22.45555 29.86096 26.15825
#
# Velocity S-wave (km/s) = 3.34508 3.85742 3.61035
# Velocity P-wave (km/s) = 5.74096 6.32906 6.04217
#
# Compressibility (1/GPa) = 0.02762303
#
# Stress axis : x y z
#
# Youngs Moduli (GPa) = 53.69332 33.04937 50.16596
#
# Poissons Ratio (x) = 0.19546 0.18107
# Poissons Ratio (y) = 0.31754 0.55549
# Poissons Ratio (z) = 0.19380 0.36595
#
# Static dielectric constant tensor:
#      x y z
#    x 1.725650 0.003420 0.028300 
#    y 0.003420 1.739800 -0.012780 
#    z 0.028300 -0.012780 1.698220 
# 
# From -- ./inp_files/156879.got.cif
#   From: 2010.05.17/outbox.cif.g08.bks.cpg/sg2_79_cif.got.tgz:156879.got - 2010.06.03 11:33:40.
