data_PCOD9004381
_publ_section_title
;
Structure prediction by ZEFSAII (Michael W. Deem and Ramdas Pophale) SiO2 
 PCOD9004381
Probable space group: P -1
;
_chemical_formula_sum "Si O2"
_cell_formula_units_Z 16
_cell_length_a 14.223099
_cell_length_b 8.185974
_cell_length_c 9.033245
_cell_angle_alpha 89.279866
_cell_angle_beta 101.320829
_cell_angle_gamma 135.395226
_cell_volume 711.712283
_symmetry_space_group_name_H-M "P -1"
_symmetry_group_IT_number 2
_symmetry_cell_setting 'triclinic'
loop_
_space_group_symop_operation_xyz
x,y,z
-x,-y,-z
loop_
_atom_site_type_symbol
_atom_site_label
_atom_site_fract_x
_atom_site_fract_y
_atom_site_fract_z
Si Si1 0.382012 0.215347 0.448868
Si Si2 0.209453 0.608969 0.014101
Si Si3 0.663742 0.452275 0.190324
Si Si4 0.635831 0.879830 0.900198
Si Si5 0.673011 0.143068 0.389322
Si Si6 0.161760 0.162211 0.516063
Si Si7 0.139009 0.441228 0.327310
Si Si8 0.156467 0.824200 0.813026
O O1 0.500000 0.500000 0.500000
O O2 0.235277 0.090975 0.477725
O O3 0.354834 0.152491 0.268127
O O4 0.426714 0.103613 0.549450
O O5 0.214258 0.663155 0.455037
O O6 0.163241 0.498906 0.161558
O O7 0.337610 0.892640 0.072862
O O8 0.105134 0.600323 0.892290
O O9 0.519154 0.349027 0.095526
O O10 0.754304 0.685201 0.313165
O O11 0.747901 0.483258 0.079244
O O12 0.757165 0.963087 0.043719
O O13 0.627400 0.254606 0.293052
O O14 0.740689 0.123292 0.277125
O O15 0.194542 0.335595 0.396900
O O16 0.000000 0.000000 0.500000
O O17 0.026420 0.748906 0.700593
#
# Coordination Sequence:
#
# PCOD9004381 Si02
#       8
#     2   2   2   2   2   2   2   2
#     4  12  24  44  64  93 133 168 209 263 317 378
#     4   9  20  35  67  95 119 158 210 271 307 362
#     4  10  21  42  66  93 123 165 211 266 312 375
#     4  10  21  40  63  92 130 159 208 260 323 366
#     4  10  21  37  66  93 121 167 213 261 307 374
#     4  11  26  43  65  92 132 170 209 258 321 380
#     4  11  20  40  64  95 121 164 220 255 308 375
#     4   9  20  35  62  96 123 158 203 271 312 366
#
# _framework density 22.480993999999999
#
# number of rings (size 3 to 8) (size 9 to 14) (size 15 to 20)
#    0.750    1.000    2.500    1.875    0.000    4.500 
#    0.000    4.375    0.000    0.000    0.000    0.000 
#    0.000    0.000    0.000    0.000    0.000    0.000 
#
# Total GULP energy -89288.429095 kJ/mol
# GULP energy per Si atom -5580.526818 kJ/mol
# Density = 2.242983 g / cm^3
# Si number density = 22.480994 Si / 1000 Ang^3
#
#
#
# Elastic Constant Matrix: (Units=GPa)
#
#
# Indices 1 2 3 4 5 6 
#
# 1 56.4692 1.1782 19.1060 5.6207 -7.2222 6.8532
# 2 1.1782 38.6762 2.5865 -8.0660 13.5841 -7.6397
# 3 19.1060 2.5865 98.2813 -5.9864 -13.4653 -25.1862
# 4 5.6207 -8.0660 -5.9864 33.3940 -2.2036 1.7998
# 5 -7.2222 13.5841 -13.4653 -2.2036 27.2901 1.6571
# 6 6.8532 -7.6397 -25.1862 1.7998 1.6571 19.6618
#
#
#
# Elastic Compliance Matrix: (Units=1/GPa)
#
#
# Indices 1 2 3 4 5 6 
#
# 1 0.026772 -0.009519 -0.011478 -0.006888 0.007286 -0.027717
# 2 -0.009519 0.040368 0.005375 0.009499 -0.020819 0.026774
# 3 -0.011478 0.005375 0.021462 0.005530 0.003332 0.032795
# 4 -0.006888 0.009499 0.005530 0.033726 -0.001721 0.010234
# 5 0.007286 -0.020819 0.003332 -0.001721 0.051078 -0.010509
# 6 -0.027717 0.026774 0.032795 0.010234 -0.010509 0.112883
#
#
# Mechanical properties :
#
#
# Convention : Reuss Voigt Hill
#
# Bulk Modulus (GPa) = 17.43371 26.57426 22.00399
# Shear Modulus (GPa) = 14.85216 27.43957 21.14587
#
# Velocity S-wave (km/s) = 2.57311 3.49745 3.07027
# Velocity P-wave (km/s) = 4.07425 5.30622 4.73051
#
# Compressibility (1/GPa) = 0.05736013
#
# Stress axis : x y z
#
# Youngs Moduli (GPa) = 37.35213 24.77200 46.59319
#
# Poissons Ratio (x) = 0.23579 0.53481
# Poissons Ratio (y) = 0.35554 -0.25046
# Poissons Ratio (z) = 0.42874 -0.13316
#
# Static dielectric constant tensor:
#      x y z
#    x 1.832680 -0.016150 0.033000 
#    y -0.016150 1.900160 -0.056190 
#    z 0.033000 -0.056190 1.794030 
# 
# From -- ./inp_files/326300.got.cif
#   From: 2010.05.17/outbox.cif.g08.bks.cpg/sg2_164_cif.got.tgz:326300.got - 2010.06.03 11:33:40.
