data_PCOD9004722
_publ_section_title
;
Structure prediction by ZEFSAII (Michael W. Deem and Ramdas Pophale) SiO2 
 PCOD9004722
Probable space group: P -1
;
_chemical_formula_sum "Si O2"
_cell_formula_units_Z 16
_cell_length_a 8.166785
_cell_length_b 12.266835
_cell_length_c 10.379641
_cell_angle_alpha 55.986420
_cell_angle_beta 118.396221
_cell_angle_gamma 123.908692
_cell_volume 694.840571
_symmetry_space_group_name_H-M "P -1"
_symmetry_group_IT_number 2
_symmetry_cell_setting 'triclinic'
loop_
_space_group_symop_operation_xyz
x,y,z
-x,-y,-z
loop_
_atom_site_type_symbol
_atom_site_label
_atom_site_fract_x
_atom_site_fract_y
_atom_site_fract_z
Si Si1 0.534599 0.079587 0.265821
Si Si2 0.774718 0.727240 0.686389
Si Si3 0.751220 0.430438 0.578952
Si Si4 0.784591 0.932795 0.031576
Si Si5 0.292471 0.277574 0.618135
Si Si6 0.370900 0.780207 0.541989
Si Si7 0.200112 0.852012 0.903087
Si Si8 0.823182 0.444102 0.867419
O O1 0.672943 0.197424 0.341452
O O2 0.673648 0.050306 0.230540
O O3 0.407953 0.930747 0.388253
O O4 0.378451 0.129399 0.100906
O O5 0.827807 0.780369 0.522935
O O6 0.584860 0.761310 0.635433
O O7 0.714052 0.554581 0.766814
O O8 0.965285 0.792381 0.810620
O O9 0.528348 0.332960 0.623280
O O10 0.743721 0.582121 0.446665
O O11 0.776270 0.347670 0.517931
O O12 0.896606 0.451955 0.741709
O O13 0.766435 0.828470 0.213491
O O14 0.755157 0.065198 0.001849
O O15 0.000000 0.000000 0.000000
O O16 0.275604 0.723267 0.026824
O O17 0.000000 0.500000 0.000000
#
# Coordination Sequence:
#
# PCOD9004722 Si02
#       8
#     2   2   2   2   2   2   2   2
#     4  11  24  38  57  87 118 153 201 248 298 353
#     4   9  19  37  60  86 115 154 199 239 292 356
#     4   9  16  35  61  84 114 150 195 245 289 341
#     4  12  25  40  59  87 123 158 196 244 300 361
#     4   9  19  34  59  88 111 148 198 241 286 347
#     4  10  21  38  58  84 118 154 194 248 300 350
#     4  11  21  37  61  85 118 158 195 246 301 352
#     4   9  18  33  58  89 118 150 193 242 294 349
#
# _framework density 23.026865000000001
#
# number of rings (size 3 to 8) (size 9 to 14) (size 15 to 20)
#    0.000    2.000    0.000    4.875    0.000    4.000 
#    0.000    6.250    0.000    6.000    0.000    0.000 
#    0.000    0.000    0.000    0.000    0.000    0.000 
#
# Total GULP energy -89374.023910 kJ/mol
# GULP energy per Si atom -5585.876494 kJ/mol
# Density = 2.297445 g / cm^3
# Si number density = 23.026865 Si / 1000 Ang^3
#
#
#
# Elastic Constant Matrix: (Units=GPa)
#
#
# Indices 1 2 3 4 5 6 
#
# 1 56.9720 2.2439 26.4094 3.9855 -9.8908 -4.1927
# 2 2.2439 79.9372 37.0049 17.5436 -7.2755 -16.6819
# 3 26.4094 37.0049 118.3807 2.4154 8.8872 -6.9029
# 4 3.9855 17.5436 2.4154 52.6610 -2.5305 -6.3655
# 5 -9.8908 -7.2755 8.8872 -2.5305 26.9004 8.4643
# 6 -4.1927 -16.6819 -6.9029 -6.3655 8.4643 21.9450
#
#
#
# Elastic Compliance Matrix: (Units=1/GPa)
#
#
# Indices 1 2 3 4 5 6 
#
# 1 0.022988 0.004351 -0.007314 -0.002264 0.011768 0.000203
# 2 0.004351 0.019086 -0.006679 -0.004947 0.005450 0.009702
# 3 -0.007314 -0.006679 0.012907 0.001950 -0.009099 0.001660
# 4 -0.002264 -0.004947 0.001950 0.021021 -0.001854 0.003233
# 5 0.011768 0.005450 -0.009099 -0.001854 0.051063 -0.016704
# 6 0.000203 0.009702 0.001660 0.003233 -0.016704 0.060885
#
#
# Mechanical properties :
#
#
# Convention : Reuss Voigt Hill
#
# Bulk Modulus (GPa) = 28.01436 42.95625 35.48531
# Shear Modulus (GPa) = 22.81724 32.94339 27.88031
#
# Velocity S-wave (km/s) = 3.15127 3.78650 3.48339
# Velocity P-wave (km/s) = 5.04311 6.14915 5.62339
#
# Compressibility (1/GPa) = 0.03569597
#
# Stress axis : x y z
#
# Youngs Moduli (GPa) = 43.50140 52.39444 77.47782
#
# Poissons Ratio (x) = -0.22795 0.56665
# Poissons Ratio (y) = -0.18926 0.51749
# Poissons Ratio (z) = 0.31816 0.34996
#
# Static dielectric constant tensor:
#      x y z
#    x 1.854470 0.030660 0.007370 
#    y 0.030660 1.913490 0.011630 
#    z 0.007370 0.011630 1.890610 
# 
# From -- ./inp_files/185265.got.cif
#   From: 2010.05.17/outbox.cif.g08.bks.cpg/sg2_93_cif.got.tgz:185265.got - 2010.06.03 11:33:40.
