data_PCOD9004448
_publ_section_title
;
Structure prediction by ZEFSAII (Michael W. Deem and Ramdas Pophale) SiO2 
 PCOD9004448
Probable space group: P -1
;
_chemical_formula_sum "Si O2"
_cell_formula_units_Z 16
_cell_length_a 8.439509
_cell_length_b 14.292306
_cell_length_c 13.099926
_cell_angle_alpha 37.264257
_cell_angle_beta 71.319123
_cell_angle_gamma 57.375132
_cell_volume 787.244894
_symmetry_space_group_name_H-M "P -1"
_symmetry_group_IT_number 2
_symmetry_cell_setting 'triclinic'
loop_
_space_group_symop_operation_xyz
x,y,z
-x,-y,-z
loop_
_atom_site_type_symbol
_atom_site_label
_atom_site_fract_x
_atom_site_fract_y
_atom_site_fract_z
Si Si1 0.077096 0.808179 0.099781
Si Si2 0.882959 0.667835 0.735990
Si Si3 0.784496 0.704929 0.950338
Si Si4 0.921760 0.997822 0.403334
Si Si5 0.508163 0.342679 0.207362
Si Si6 0.618293 0.332909 0.689110
Si Si7 0.198884 0.033149 0.148262
Si Si8 0.480374 0.613928 0.119140
O O1 0.191043 0.680007 0.283032
O O2 0.255104 0.752041 0.033894
O O3 0.908356 0.830339 0.042293
O O4 0.000000 0.000000 0.000000
O O5 0.682836 0.675557 0.741163
O O6 0.053631 0.463885 0.874389
O O7 0.921831 0.812115 0.547490
O O8 0.876534 0.716666 0.815162
O O9 0.619248 0.662575 0.988726
O O10 0.699909 0.884077 0.876497
O O11 0.702304 0.160276 0.304134
O O12 0.049883 0.021138 0.269064
O O13 0.000000 0.000000 0.500000
O O14 0.519852 0.420107 0.249000
O O15 0.500000 0.500000 0.000000
O O16 0.500000 0.500000 0.500000
O O17 0.488224 0.359333 0.792193
O O18 0.677359 0.156271 0.766259
#
# Coordination Sequence:
#
# PCOD9004448 Si02
#       8
#     2   2   2   2   2   2   2   2
#     4   8  18  39  61  87 115 166 208 249 304 379
#     4  11  24  40  57  99 133 166 215 261 317 381
#     4  11  22  38  65  93 131 168 213 262 316 386
#     4  12  25  39  64  97 131 169 209 268 322 371
#     4  12  23  41  67  90 131 172 210 258 325 384
#     4   9  22  39  66  93 122 161 213 262 320 367
#     4  11  22  41  66  91 129 171 209 259 319 382
#     4  10  21  37  67  90 123 166 212 254 315 381
#
# _framework density 20.324043
#
# number of rings (size 3 to 8) (size 9 to 14) (size 15 to 20)
#    0.750    0.750    2.500    3.375    3.500    0.500 
#    0.000    0.000    0.000    1.500    0.000    0.000 
#    0.000    0.000    0.000    0.000    0.000    0.000 
#
# Total GULP energy -89070.536586 kJ/mol
# GULP energy per Si atom -5566.908537 kJ/mol
# Density = 2.027778 g / cm^3
# Si number density = 20.324043 Si / 1000 Ang^3
#
#
#
# Elastic Constant Matrix: (Units=GPa)
#
#
# Indices 1 2 3 4 5 6 
#
# 1 60.3053 5.0748 27.7845 -17.5152 -4.6598 15.1136
# 2 5.0748 96.2450 12.6166 -15.7986 -2.5658 19.2129
# 3 27.7845 12.6166 68.1975 -10.8564 6.7989 8.7998
# 4 -17.5152 -15.7986 -10.8564 19.1376 0.0947 0.1538
# 5 -4.6598 -2.5658 6.7989 0.0947 34.7184 -6.4409
# 6 15.1136 19.2129 8.7998 0.1538 -6.4409 31.2885
#
#
#
# Elastic Compliance Matrix: (Units=1/GPa)
#
#
# Indices 1 2 3 4 5 6 
#
# 1 0.034790 0.008911 -0.008092 0.034748 0.003198 -0.019514
# 2 0.008911 0.016348 -0.001525 0.020898 0.000047 -0.014007
# 3 -0.008092 -0.001525 0.019368 0.002362 -0.005315 -0.001708
# 4 0.034748 0.020898 0.002362 0.102896 -0.000257 -0.030840
# 5 0.003198 0.000047 -0.005315 -0.000257 0.031465 0.006400
# 6 -0.019514 -0.014007 -0.001708 -0.030840 0.006400 0.051937
#
#
# Mechanical properties :
#
#
# Convention : Reuss Voigt Hill
#
# Bulk Modulus (GPa) = 14.47303 35.07772 24.77538
# Shear Modulus (GPa) = 17.77787 28.98036 23.37912
#
# Velocity S-wave (km/s) = 2.96078 3.78023 3.39531
# Velocity P-wave (km/s) = 4.33876 6.02911 5.25238
#
# Compressibility (1/GPa) = 0.06909401
#
# Stress axis : x y z
#
# Youngs Moduli (GPa) = 28.74369 61.16932 51.63023
#
# Poissons Ratio (x) = -0.54506 0.41778
# Poissons Ratio (y) = -0.25613 0.07875
# Poissons Ratio (z) = 0.23259 0.09330
#
# Static dielectric constant tensor:
#      x y z
#    x 1.748260 0.031340 0.044220 
#    y 0.031340 1.787890 0.009740 
#    z 0.044220 0.009740 1.413060 
# 
# From -- ./inp_files/503603.got.cif
#   From: 2010.05.17/outbox.cif.g08.bks.cpg/sg2_252_cif.got.tgz:503603.got - 2010.06.03 11:33:40.
