data_PCOD9004994
_publ_section_title
;
Structure prediction by ZEFSAII (Michael W. Deem and Ramdas Pophale) SiO2 
 PCOD9004994
Probable space group: P -1
;
_chemical_formula_sum "Si O2"
_cell_formula_units_Z 16
_cell_length_a 5.260758
_cell_length_b 5.119663
_cell_length_c 23.945031
_cell_angle_alpha 97.081536
_cell_angle_beta 108.723845
_cell_angle_gamma 102.486973
_cell_volume 583.247991
_symmetry_space_group_name_H-M "P -1"
_symmetry_group_IT_number 2
_symmetry_cell_setting 'triclinic'
loop_
_space_group_symop_operation_xyz
x,y,z
-x,-y,-z
loop_
_atom_site_type_symbol
_atom_site_label
_atom_site_fract_x
_atom_site_fract_y
_atom_site_fract_z
Si Si1 0.555677 0.232944 0.760896
Si Si2 0.302000 0.695078 0.987294
Si Si3 0.312151 0.185006 0.513207
Si Si4 0.320212 0.825135 0.113878
Si Si5 0.059517 0.144465 0.262502
Si Si6 0.069221 0.227949 0.387074
Si Si7 0.302659 0.375872 0.637723
Si Si8 0.937862 0.201272 0.137947
O O1 0.472246 0.399838 0.708224
O O2 0.645104 0.348700 0.832904
O O3 0.770302 0.068472 0.749886
O O4 0.258707 0.011672 0.747782
O O5 0.184295 0.709401 0.041873
O O6 0.500000 0.500000 0.000000
O O7 0.131182 0.635857 0.915803
O O8 0.500000 0.000000 0.000000
O O9 0.252848 0.343055 0.457635
O O10 0.414051 0.302912 0.584273
O O11 0.500000 0.000000 0.500000
O O12 0.000000 0.000000 0.500000
O O13 0.638594 0.983502 0.124583
O O14 0.151705 0.035307 0.128000
O O15 0.185102 0.274246 0.333490
O O16 0.028794 0.319172 0.209656
O O17 0.816877 0.366740 0.373865
O O18 0.955468 0.898937 0.376325
#
# Coordination Sequence:
#
# PCOD9004994 Si02
#       8
#     2   2   2   2   2   2   2   2
#     4   9  18  35  58  85 116 153 194 240 291 347
#     4  10  21  38  60  86 118 154 196 242 294 350
#     4  10  21  40  62  88 120 156 198 244 294 350
#     4   9  18  35  58  84 116 152 194 240 291 347
#     4   9  18  35  58  85 116 153 194 240 291 347
#     4  10  21  39  61  88 120 156 197 243 294 350
#     4  10  21  39  61  88 120 156 197 243 294 350
#     4   9  18  35  58  84 116 152 194 240 291 347
#
# _framework density 27.432585
#
# number of rings (size 3 to 8) (size 9 to 14) (size 15 to 20)
#    0.000    2.500    0.000    1.500    0.000    1.000 
#    0.000   35.000    0.000   27.000    0.000    0.000 
#    0.000    0.000    0.000    0.000    0.000    0.000 
#
# Total GULP energy -89585.575867 kJ/mol
# GULP energy per Si atom -5599.098492 kJ/mol
# Density = 2.737015 g / cm^3
# Si number density = 27.432585 Si / 1000 Ang^3
#
#
#
# Elastic Constant Matrix: (Units=GPa)
#
#
# Indices 1 2 3 4 5 6 
#
# 1 270.2707 -20.8737 115.2948 -60.6461 24.5668 -46.5051
# 2 -20.8737 93.5379 28.1883 8.0269 -15.3864 -21.0839
# 3 115.2948 28.1883 382.5658 -30.2891 16.3763 1.6800
# 4 -60.6461 8.0269 -30.2891 89.3787 0.9225 2.2138
# 5 24.5668 -15.3864 16.3763 0.9225 94.2644 -9.2698
# 6 -46.5051 -21.0839 1.6800 2.2138 -9.2698 57.8851
#
#
#
# Elastic Compliance Matrix: (Units=1/GPa)
#
#
# Indices 1 2 3 4 5 6 
#
# 1 0.006704 0.003211 -0.002002 0.003425 -0.000275 0.006438
# 2 0.003211 0.014398 -0.002188 -0.000090 0.002713 0.008326
# 3 -0.002002 -0.002188 0.003425 0.000071 -0.000689 -0.002618
# 4 0.003425 -0.000090 0.000071 0.013502 -0.000849 0.002065
# 5 -0.000275 0.002713 -0.000689 -0.000849 0.011513 0.002663
# 6 0.006438 0.008326 -0.002618 0.002065 0.002663 0.025904
#
#
# Mechanical properties :
#
#
# Convention : Reuss Voigt Hill
#
# Bulk Modulus (GPa) = 44.31120 110.17701 77.24411
# Shear Modulus (GPa) = 58.87446 89.88997 74.38221
#
# Velocity S-wave (km/s) = 4.63768 5.73051 5.21281
# Velocity P-wave (km/s) = 6.69816 9.16706 8.02808
#
# Compressibility (1/GPa) = 0.02256766
#
# Stress axis : x y z
#
# Youngs Moduli (GPa) = 149.17487 69.45604 291.95745
#
# Poissons Ratio (x) = -0.22305 0.58456
# Poissons Ratio (y) = -0.47905 0.63894
# Poissons Ratio (z) = 0.29868 0.15200
#
# Static dielectric constant tensor:
#      x y z
#    x 2.202860 0.204830 0.059690 
#    y 0.204830 2.076680 0.032140 
#    z 0.059690 0.032140 2.188900 
# 
# From -- ./inp_files/603330.got.cif
#   From: 2010.05.17/outbox.cif.g08.bks.cpg/sg2_302_cif.got.tgz:603330.got - 2010.06.03 11:33:40.
