data_PCOD9004852
_publ_section_title
;
Structure prediction by ZEFSAII (Michael W. Deem and Ramdas Pophale) SiO2 
 PCOD9004852
Probable space group: P -1
;
_chemical_formula_sum "Si O2"
_cell_formula_units_Z 14
_cell_length_a 6.260940
_cell_length_b 17.104010
_cell_length_c 5.176008
_cell_angle_alpha 73.758763
_cell_angle_beta 105.053480
_cell_angle_gamma 91.196984
_cell_volume 513.101119
_symmetry_space_group_name_H-M "P -1"
_symmetry_group_IT_number 2
_symmetry_cell_setting 'triclinic'
loop_
_space_group_symop_operation_xyz
x,y,z
-x,-y,-z
loop_
_atom_site_type_symbol
_atom_site_label
_atom_site_fract_x
_atom_site_fract_y
_atom_site_fract_z
Si Si1 0.515923 0.831450 0.831058
Si Si2 0.261147 0.469575 0.918666
Si Si3 0.219894 0.289364 0.284103
Si Si4 0.971812 0.882108 0.193413
Si Si5 0.728202 0.020290 0.196058
Si Si6 0.999441 0.393730 0.480320
Si Si7 0.800190 0.263921 0.817130
O O1 0.591936 0.779127 0.653537
O O2 0.356588 0.914061 0.675054
O O3 0.743366 0.860065 0.002186
O O4 0.397785 0.770714 0.046983
O O5 0.171599 0.449345 0.624372
O O6 0.105339 0.553249 0.838080
O O7 0.500000 0.500000 0.000000
O O8 0.275126 0.379071 0.123074
O O9 0.149052 0.313273 0.526551
O O10 0.002753 0.265075 0.084458
O O11 0.129151 0.800381 0.328126
O O12 0.875966 0.935439 0.359252
O O13 0.118879 0.933818 0.998922
O O14 0.500000 0.000000 0.000000
O O15 0.800935 0.355578 0.616255
#
# Coordination Sequence:
#
# PCOD9004852 Si02
#       7
#     2   2   2   2   2   2   2
#     4   9  17  31  53  84 121 162 202 253 309 369
#     4  10  23  43  64  92 119 161 211 259 313 380
#     4  10  21  38  59  86 123 155 205 262 309 372
#     4   8  14  27  49  83 119 159 207 253 293 364
#     4   8  13  24  49  83 119 160 207 243 305 362
#     4  10  22  43  64  89 123 164 204 263 316 369
#     4   9  19  36  56  84 124 161 207 255 307 369
#
# _framework density 27.285067999999999
#
# number of rings (size 3 to 8) (size 9 to 14) (size 15 to 20)
#    0.000    2.857    0.000    0.429    2.000    0.571 
#    7.714    0.000    0.000    0.857    0.000   90.000 
#    0.000    0.000    0.000    0.286    0.000    0.714 
#
# Total GULP energy -78137.864716 kJ/mol
# GULP energy per Si atom -5581.276051 kJ/mol
# Density = 2.722297 g / cm^3
# Si number density = 27.285068 Si / 1000 Ang^3
#
#
#
# Elastic Constant Matrix: (Units=GPa)
#
#
# Indices 1 2 3 4 5 6 
#
# 1 153.4800 82.9555 27.2956 0.3726 14.3144 17.5062
# 2 82.9555 151.1875 23.2107 17.6932 -6.8637 1.8652
# 3 27.2956 23.2107 43.6170 -6.0076 2.6837 9.7153
# 4 0.3726 17.6932 -6.0076 36.4337 -4.5374 -21.8035
# 5 14.3144 -6.8637 2.6837 -4.5374 30.3278 -0.3625
# 6 17.5062 1.8652 9.7153 -21.8035 -0.3625 73.2623
#
#
#
# Elastic Compliance Matrix: (Units=1/GPa)
#
#
# Indices 1 2 3 4 5 6 
#
# 1 0.011040 -0.005905 -0.002885 0.000267 -0.006276 -0.002057
# 2 -0.005905 0.011202 -0.003296 -0.005321 0.004818 0.000003
# 3 -0.002885 -0.003296 0.027569 0.005252 -0.001054 -0.001325
# 4 0.000267 -0.005321 0.005252 0.037752 0.003980 0.010630
# 5 -0.006276 0.004818 -0.001054 0.003980 0.037749 0.002888
# 6 -0.002057 0.000003 -0.001325 0.010630 0.002888 0.017495
#
#
# Mechanical properties :
#
#
# Convention : Reuss Voigt Hill
#
# Bulk Modulus (GPa) = 39.00308 68.35647 53.67977
# Shear Modulus (GPa) = 28.48600 42.32626 35.40613
#
# Velocity S-wave (km/s) = 3.23463 3.94288 3.60618
# Velocity P-wave (km/s) = 5.31753 6.77019 6.08735
#
# Compressibility (1/GPa) = 0.02563900
#
# Stress axis : x y z
#
# Youngs Moduli (GPa) = 90.58200 89.27130 36.27204
#
# Poissons Ratio (x) = 0.52717 0.10465
# Poissons Ratio (y) = 0.53491 0.11954
# Poissons Ratio (z) = 0.26135 0.29420
#
# Static dielectric constant tensor:
#      x y z
#    x 2.207960 -0.082370 -0.025250 
#    y -0.082370 2.293730 -0.039810 
#    z -0.025250 -0.039810 2.140300 
# 
# From -- ./inp_files/7729.got.cif
#   From: 2010.05.17/outbox.cif.g08.bks.cpg/sg2_4_cif.got.tgz:7729.got - 2010.06.03 11:33:40.
