data_PCOD9004345
_publ_section_title
;
Structure prediction by ZEFSAII (Michael W. Deem and Ramdas Pophale) SiO2 
 PCOD9004345
Probable space group: P -1
;
_chemical_formula_sum "Si O2"
_cell_formula_units_Z 16
_cell_length_a 28.063766
_cell_length_b 8.689727
_cell_length_c 9.763386
_cell_angle_alpha 149.377672
_cell_angle_beta 38.592560
_cell_angle_gamma 139.250091
_cell_volume 728.973711
_symmetry_space_group_name_H-M "P -1"
_symmetry_group_IT_number 2
_symmetry_cell_setting 'triclinic'
loop_
_space_group_symop_operation_xyz
x,y,z
-x,-y,-z
loop_
_atom_site_type_symbol
_atom_site_label
_atom_site_fract_x
_atom_site_fract_y
_atom_site_fract_z
Si Si1 0.808458 0.472897 0.027529
Si Si2 0.303356 0.800518 0.328849
Si Si3 0.030618 0.827168 0.100621
Si Si4 0.705615 0.863191 0.681798
Si Si5 0.528021 0.870226 0.703352
Si Si6 0.978640 0.446909 0.668620
Si Si7 0.799771 0.825598 0.032653
Si Si8 0.544198 0.860137 0.175314
O O1 0.738831 0.567527 0.342052
O O2 0.893134 0.512102 0.935439
O O3 0.816659 0.666600 0.015297
O O4 0.779823 0.116484 0.770735
O O5 0.270764 0.435526 0.083235
O O6 0.316959 0.998359 0.306564
O O7 0.379531 0.941517 0.361040
O O8 0.232023 0.884176 0.630780
O O9 0.116528 0.031118 0.116689
O O10 0.980989 0.088484 0.418607
O O11 0.000000 0.500000 0.000000
O O12 0.035442 0.700564 0.836431
O O13 0.635071 0.852544 0.939595
O O14 0.500000 0.500000 0.500000
O O15 0.478321 0.957887 0.761611
O O16 0.500000 0.000000 0.000000
O O17 0.000000 0.500000 0.500000
O O18 0.500000 0.000000 0.500000
O O19 0.500000 0.500000 0.000000
#
# Coordination Sequence:
#
# PCOD9004345 Si02
#       8
#     2   2   2   2   2   2   2   2
#     4  10  21  37  66 100 127 171 230 293 327 387
#     4  10  21  38  66  99 128 171 232 289 324 395
#     4  12  26  44  67 102 147 185 223 286 363 418
#     4  10  21  39  64  97 133 174 222 279 345 400
#     4  12  24  42  71 103 133 175 240 284 328 408
#     4  12  24  42  71 104 134 177 246 289 332 409
#     4  10  21  38  64  98 133 174 223 283 347 392
#     4  12  26  44  67 101 143 183 217 280 358 418
#
# _framework density 21.948664999999998
#
# number of rings (size 3 to 8) (size 9 to 14) (size 15 to 20)
#    0.000    1.000    2.500    4.500    7.000    0.000 
#    0.000    5.000    0.000    0.000    0.000    0.000 
#    0.000    0.000    0.000    0.000    0.000    0.000 
#
# Total GULP energy -89237.338271 kJ/mol
# GULP energy per Si atom -5577.333642 kJ/mol
# Density = 2.189871 g / cm^3
# Si number density = 21.948665 Si / 1000 Ang^3
#
#
#
# Elastic Constant Matrix: (Units=GPa)
#
#
# Indices 1 2 3 4 5 6 
#
# 1 34.9442 14.5303 13.5849 -2.2077 -12.3456 10.5620
# 2 14.5303 75.3322 22.2604 7.2806 -13.2689 7.0714
# 3 13.5849 22.2604 135.8386 9.4431 -3.2610 -9.4749
# 4 -2.2077 7.2806 9.4431 45.6645 9.0171 -2.7119
# 5 -12.3456 -13.2689 -3.2610 9.0171 31.1613 -1.0354
# 6 10.5620 7.0714 -9.4749 -2.7119 -1.0354 31.4549
#
#
#
# Elastic Compliance Matrix: (Units=1/GPa)
#
#
# Indices 1 2 3 4 5 6 
#
# 1 0.040530 -0.002767 -0.004203 -0.000330 0.014076 -0.013818
# 2 -0.002767 0.016324 -0.002222 -0.003790 0.006602 -0.003519
# 3 -0.004203 -0.002222 0.008495 -0.001099 -0.001260 0.004333
# 4 -0.000330 -0.003790 -0.001099 0.024618 -0.008902 0.002461
# 5 0.014076 0.006602 -0.001260 -0.008902 0.042725 -0.005951
# 6 -0.013818 -0.003519 0.004333 0.002461 -0.005951 0.038544
#
#
# Mechanical properties :
#
#
# Convention : Reuss Voigt Hill
#
# Bulk Modulus (GPa) = 21.29252 38.54068 29.91660
# Shear Modulus (GPa) = 24.35746 34.70542 29.53144
#
# Velocity S-wave (km/s) = 3.33490 3.98076 3.67205
# Velocity P-wave (km/s) = 4.95488 6.22303 5.62481
#
# Compressibility (1/GPa) = 0.04696485
#
# Stress axis : x y z
#
# Youngs Moduli (GPa) = 24.67291 61.25821 117.72284
#
# Poissons Ratio (x) = 0.16953 0.49477
# Poissons Ratio (y) = 0.06828 0.26157
# Poissons Ratio (z) = 0.10370 0.13611
#
# Static dielectric constant tensor:
#      x y z
#    x 1.840490 0.035700 -0.028900 
#    y 0.035700 1.822790 -0.065490 
#    z -0.028900 -0.065490 1.793380 
# 
# From -- ./inp_files/358475.got.cif
#   From: 2010.05.17/outbox.cif.g08.bks.cpg/sg2_180_cif.got.tgz:358475.got - 2010.06.03 11:33:40.
