data_PCOD9004855
_publ_section_title
;
Structure prediction by ZEFSAII (Michael W. Deem and Ramdas Pophale) SiO2 
 PCOD9004855
Probable space group: P -1
;
_chemical_formula_sum "Si O2"
_cell_formula_units_Z 12
_cell_length_a 8.430561
_cell_length_b 17.496279
_cell_length_c 7.489084
_cell_angle_alpha 138.954709
_cell_angle_beta 49.837928
_cell_angle_gamma 141.832440
_cell_volume 444.565148
_symmetry_space_group_name_H-M "P -1"
_symmetry_group_IT_number 2
_symmetry_cell_setting 'triclinic'
loop_
_space_group_symop_operation_xyz
x,y,z
-x,-y,-z
loop_
_atom_site_type_symbol
_atom_site_label
_atom_site_fract_x
_atom_site_fract_y
_atom_site_fract_z
Si Si1 0.937602 0.138960 0.476835
Si Si2 0.546491 0.840681 0.103935
Si Si3 0.714715 0.364737 0.768821
Si Si4 0.542251 0.152731 0.207293
Si Si5 0.871313 0.656514 0.992319
Si Si6 0.223619 0.378007 0.403939
O O1 0.687002 0.141968 0.680031
O O2 0.092406 0.230055 0.349670
O O3 0.796248 0.969994 0.256300
O O4 0.106741 0.228874 0.685251
O O5 0.412271 0.690814 0.042399
O O6 0.611946 0.858815 0.877339
O O7 0.540271 0.224094 0.517657
O O8 0.747946 0.503588 0.907385
O O9 0.004322 0.405895 0.634268
O O10 0.833984 0.274987 0.147921
O O11 0.500000 0.000000 0.000000
O O12 0.757213 0.639962 0.851721
O O13 0.500000 0.500000 0.500000
#
# Coordination Sequence:
#
# PCOD9004855 Si02
#       6
#     2   2   2   2   2   2
#     4   9  18  32  52  77 102 130 171 211 252 298
#     4   9  17  30  50  78 102 130 169 214 254 294
#     4  10  20  33  52  81 106 128 166 216 261 295
#     4  10  17  28  48  75 106 131 161 208 256 299
#     4  10  20  33  52  79 105 129 167 218 259 292
#     4  10  20  33  50  74 106 140 169 201 249 310
#
# _framework density 26.992671999999999
#
# number of rings (size 3 to 8) (size 9 to 14) (size 15 to 20)
#    0.000    2.333    0.000    7.000    0.000    8.000 
#    0.000    0.000    0.000    1.000    0.000  124.833 
#    0.000    5.333    0.000    0.000    0.000    0.000 
#
# Total GULP energy -67249.710330 kJ/mol
# GULP energy per Si atom -5604.142527 kJ/mol
# Density = 2.693124 g / cm^3
# Si number density = 26.992672 Si / 1000 Ang^3
#
#
#
# Elastic Constant Matrix: (Units=GPa)
#
#
# Indices 1 2 3 4 5 6 
#
# 1 150.4167 53.2381 70.8844 9.1927 35.5424 -10.6100
# 2 53.2381 174.4572 81.8276 -7.6648 34.5160 -9.4488
# 3 70.8844 81.8276 203.0556 11.0429 46.7826 -11.5778
# 4 9.1927 -7.6648 11.0429 37.4858 8.9847 10.9074
# 5 35.5424 34.5160 46.7826 8.9847 47.5692 -11.3793
# 6 -10.6100 -9.4488 -11.5778 10.9074 -11.3793 37.7979
#
#
#
# Elastic Compliance Matrix: (Units=1/GPa)
#
#
# Indices 1 2 3 4 5 6 
#
# 1 0.008863 -0.001226 -0.001632 -0.001356 -0.003637 0.000978
# 2 -0.001226 0.007981 -0.002210 0.003843 -0.003728 -0.001257
# 3 -0.001632 -0.002210 0.007435 -0.001375 -0.004129 0.000420
# 4 -0.001356 0.003843 -0.001375 0.034287 -0.009945 -0.012729
# 5 -0.003637 -0.003728 -0.004129 -0.009945 0.034807 0.010131
# 6 0.000978 -0.001257 0.000420 -0.012729 0.010131 0.033269
#
#
# Mechanical properties :
#
#
# Convention : Reuss Voigt Hill
#
# Bulk Modulus (GPa) = 70.71013 104.42551 87.56782
# Shear Modulus (GPa) = 35.33749 46.03588 40.68668
#
# Velocity S-wave (km/s) = 3.62214 4.13424 3.88664
# Velocity P-wave (km/s) = 6.61409 7.84601 7.25624
#
# Compressibility (1/GPa) = 0.01414225
#
# Stress axis : x y z
#
# Youngs Moduli (GPa) = 112.83382 125.29537 134.49593
#
# Poissons Ratio (x) = 0.15360 0.21955
# Poissons Ratio (y) = 0.13833 0.29724
# Poissons Ratio (z) = 0.18419 0.27690
#
# Static dielectric constant tensor:
#      x y z
#    x 2.185220 0.061380 -0.038800 
#    y 0.061380 2.013100 -0.084420 
#    z -0.038800 -0.084420 2.155960 
# 
# From -- ./inp_files/213524.got.cif
#   From: 2010.05.17/outbox.cif.g08.bks.cpg/sg2_107_cif.got.tgz:213524.got - 2010.06.03 11:33:40.
