data_PCOD9004771
_publ_section_title
;
Structure prediction by ZEFSAII (Michael W. Deem and Ramdas Pophale) SiO2 
 PCOD9004771
Probable space group: P -1
;
_chemical_formula_sum "Si O2"
_cell_formula_units_Z 14
_cell_length_a 8.241565
_cell_length_b 7.843501
_cell_length_c 9.753797
_cell_angle_alpha 80.226812
_cell_angle_beta 112.533800
_cell_angle_gamma 107.014236
_cell_volume 555.699371
_symmetry_space_group_name_H-M "P -1"
_symmetry_group_IT_number 2
_symmetry_cell_setting 'triclinic'
loop_
_space_group_symop_operation_xyz
x,y,z
-x,-y,-z
loop_
_atom_site_type_symbol
_atom_site_label
_atom_site_fract_x
_atom_site_fract_y
_atom_site_fract_z
Si Si1 0.951292 0.443470 0.808541
Si Si2 0.226463 0.689856 0.686790
Si Si3 0.121585 0.207941 0.181030
Si Si4 0.116302 0.199791 0.499349
Si Si5 0.425022 0.099154 0.726513
Si Si6 0.789376 0.076717 0.939174
Si Si7 0.603443 0.349293 0.522331
O O1 0.885140 0.584672 0.868415
O O2 0.921575 0.241991 0.877826
O O3 0.800596 0.414100 0.644788
O O4 0.147856 0.549641 0.800964
O O5 0.367726 0.651461 0.629519
O O6 0.038154 0.695596 0.548273
O O7 0.320907 0.893165 0.731047
O O8 0.179268 0.207957 0.358681
O O9 0.228546 0.105709 0.127794
O O10 0.913101 0.087584 0.112230
O O11 0.276747 0.217214 0.659263
O O12 0.000000 0.000000 0.500000
O O13 0.596735 0.125754 0.879583
O O14 0.518117 0.163312 0.599269
O O15 0.500000 0.500000 0.500000
#
# Coordination Sequence:
#
# PCOD9004771 Si02
#       7
#     2   2   2   2   2   2   2
#     4  10  22  39  60  90 123 168 212 256 315 381
#     4  10  21  38  58  90 134 161 199 267 325 369
#     4  10  21  41  63  93 127 167 220 250 321 377
#     4   9  20  36  62  93 123 164 200 260 313 371
#     4  10  22  37  63  94 120 165 212 258 312 368
#     4  10  23  39  68  92 123 173 215 262 306 383
#     4  11  22  35  57  97 127 162 211 264 316 374
#
# _framework density 25.193479
#
# number of rings (size 3 to 8) (size 9 to 14) (size 15 to 20)
#    0.000    2.000    0.000    3.000   12.000    0.000 
#    5.143    6.429    0.000    3.429    0.000    0.000 
#    0.000    0.000    0.000    0.000    0.000    0.000 
#
# Total GULP energy -78041.484472 kJ/mol
# GULP energy per Si atom -5574.391748 kJ/mol
# Density = 2.513614 g / cm^3
# Si number density = 25.193479 Si / 1000 Ang^3
#
#
#
# Elastic Constant Matrix: (Units=GPa)
#
#
# Indices 1 2 3 4 5 6 
#
# 1 76.9668 26.0339 16.3445 -3.3303 -5.6635 19.3986
# 2 26.0339 124.9351 3.8650 -4.4664 -29.5166 22.1319
# 3 16.3445 3.8650 75.0187 4.6822 25.1044 -3.9517
# 4 -3.3303 -4.4664 4.6822 25.6291 1.3280 -3.0499
# 5 -5.6635 -29.5166 25.1044 1.3280 50.8274 -1.8917
# 6 19.3986 22.1319 -3.9517 -3.0499 -1.8917 46.9934
#
#
#
# Elastic Compliance Matrix: (Units=1/GPa)
#
#
# Indices 1 2 3 4 5 6 
#
# 1 0.016431 -0.001297 -0.005069 0.001910 0.003296 -0.006342
# 2 -0.001297 0.011021 -0.003158 0.001396 0.007611 -0.004524
# 3 -0.005069 -0.003158 0.018892 -0.003533 -0.011471 0.004477
# 4 0.001910 0.001396 -0.003533 0.040175 0.001754 0.000935
# 5 0.003296 0.007611 -0.011471 0.001754 0.029910 -0.004591
# 6 -0.006342 -0.004524 0.004477 0.000935 -0.004591 0.026280
#
#
# Mechanical properties :
#
#
# Convention : Reuss Voigt Hill
#
# Bulk Modulus (GPa) = 36.63338 41.04527 38.83932
# Shear Modulus (GPa) = 29.26429 40.06847 34.66638
#
# Velocity S-wave (km/s) = 3.41190 3.99235 3.71348
# Velocity P-wave (km/s) = 5.48578 6.13018 5.81691
#
# Compressibility (1/GPa) = 0.02729751
#
# Stress axis : x y z
#
# Youngs Moduli (GPa) = 60.85986 90.73247 52.93235
#
# Poissons Ratio (x) = 0.11767 0.26832
# Poissons Ratio (y) = 0.07893 0.16714
# Poissons Ratio (z) = 0.30851 0.28649
#
# Static dielectric constant tensor:
#      x y z
#    x 2.074640 0.015460 0.012460 
#    y 0.015460 1.993520 -0.033210 
#    z 0.012460 -0.033210 2.128350 
# 
# From -- ./inp_files/376495.got.cif
#   From: 2010.05.17/outbox.cif.g08.bks.cpg/sg2_189_cif.got.tgz:376495.got - 2010.06.03 11:33:40.
