data_PCOD9004498
_publ_section_title
;
Structure prediction by ZEFSAII (Michael W. Deem and Ramdas Pophale) SiO2 
 PCOD9004498
Probable space group: P -1
;
_chemical_formula_sum "Si O2"
_cell_formula_units_Z 14
_cell_length_a 12.300546
_cell_length_b 9.382049
_cell_length_c 12.048521
_cell_angle_alpha 96.735074
_cell_angle_beta 34.797407
_cell_angle_gamma 113.259190
_cell_volume 669.786739
_symmetry_space_group_name_H-M "P -1"
_symmetry_group_IT_number 2
_symmetry_cell_setting 'triclinic'
loop_
_space_group_symop_operation_xyz
x,y,z
-x,-y,-z
loop_
_atom_site_type_symbol
_atom_site_label
_atom_site_fract_x
_atom_site_fract_y
_atom_site_fract_z
Si Si1 0.809196 0.469416 0.745214
Si Si2 0.691165 0.263792 0.280885
Si Si3 0.960429 0.409682 0.850665
Si Si4 0.192595 0.968791 0.719600
Si Si5 0.892227 0.059463 0.873101
Si Si6 0.990839 0.165397 0.367473
Si Si7 0.429293 0.889152 0.158669
O O1 0.877537 0.441807 0.807551
O O2 0.605868 0.291598 0.857989
O O3 0.000000 0.500000 0.500000
O O4 0.810221 0.641986 0.763167
O O5 0.427629 0.143589 0.516101
O O6 0.823362 0.423325 0.266669
O O7 0.784269 0.139937 0.214756
O O8 0.766337 0.341041 0.101826
O O9 0.005214 0.258208 0.783387
O O10 0.996364 0.008699 0.881402
O O11 0.129621 0.851234 0.651587
O O12 0.939321 0.971976 0.720280
O O13 0.626795 0.977998 0.090725
O O14 0.798272 0.125972 0.612171
O O15 0.500000 0.000000 0.000000
#
# Coordination Sequence:
#
# PCOD9004498 Si02
#       7
#     2   2   2   2   2   2   2
#     4  10  21  39  62  85 122 165 197 249 309 358
#     4  10  21  37  68  84 125 165 191 259 302 359
#     4  11  20  38  62  94 118 157 211 244 304 360
#     4   9  20  40  58  91 118 161 196 244 313 353
#     4  10  22  37  64  91 121 154 208 249 295 374
#     4   9  21  41  58  85 127 154 199 251 299 359
#     4  11  21  37  64  90 119 163 201 252 306 350
#
# _framework density 20.902173999999999
#
# number of rings (size 3 to 8) (size 9 to 14) (size 15 to 20)
#    0.857    1.143    2.857    0.857    0.000    2.286 
#    0.000    0.000   18.857    0.000    0.000    0.000 
#    0.000    0.000    0.000    0.000    0.000    0.000 
#
# Total GULP energy -78019.847124 kJ/mol
# GULP energy per Si atom -5572.846223 kJ/mol
# Density = 2.085460 g / cm^3
# Si number density = 20.902174 Si / 1000 Ang^3
#
#
#
# Elastic Constant Matrix: (Units=GPa)
#
#
# Indices 1 2 3 4 5 6 
#
# 1 60.9368 6.8034 16.2623 -7.9378 2.7005 0.0935
# 2 6.8034 158.5153 29.4840 -9.9200 -14.5267 14.1192
# 3 16.2623 29.4840 44.7062 -13.4184 5.6631 0.9008
# 4 -7.9378 -9.9200 -13.4184 30.9096 7.2619 -5.5418
# 5 2.7005 -14.5267 5.6631 7.2619 32.7280 -2.7249
# 6 0.0935 14.1192 0.9008 -5.5418 -2.7249 34.5412
#
#
#
# Elastic Compliance Matrix: (Units=1/GPa)
#
#
# Indices 1 2 3 4 5 6 
#
# 1 0.018348 0.000406 -0.006122 0.002418 -0.000788 0.000270
# 2 0.000406 0.008126 -0.006620 -0.001856 0.004876 -0.003063
# 3 -0.006122 -0.006620 0.034741 0.014655 -0.011424 0.003266
# 4 0.002418 -0.001856 0.014655 0.042805 -0.012537 0.006249
# 5 -0.000788 0.004876 -0.011424 -0.012537 0.037480 -0.000748
# 6 0.000270 -0.003063 0.003266 0.006249 -0.000748 0.031061
#
#
# Mechanical properties :
#
#
# Convention : Reuss Voigt Hill
#
# Bulk Modulus (GPa) = 27.36434 41.02861 34.19648
# Shear Modulus (GPa) = 23.87612 33.74301 28.80957
#
# Velocity S-wave (km/s) = 3.38343 4.02223 3.71658
# Velocity P-wave (km/s) = 5.32762 6.42204 5.90026
#
# Compressibility (1/GPa) = 0.03654391
#
# Stress axis : x y z
#
# Youngs Moduli (GPa) = 54.50065 123.06337 28.78449
#
# Poissons Ratio (x) = -0.05000 0.17622
# Poissons Ratio (y) = -0.02214 0.19055
# Poissons Ratio (z) = 0.33366 0.81467
#
# Static dielectric constant tensor:
#      x y z
#    x 1.746120 0.022140 0.027770 
#    y 0.022140 1.808200 0.015660 
#    z 0.027770 0.015660 1.782950 
# 
# From -- ./inp_files/417289.got.cif
#   From: 2010.05.17/outbox.cif.g08.bks.cpg/sg2_209_cif.got.tgz:417289.got - 2010.06.03 11:33:40.
