data_PCOD9004379
_publ_section_title
;
Structure prediction by ZEFSAII (Michael W. Deem and Ramdas Pophale) SiO2 
 PCOD9004379
Probable space group: P -1
;
_chemical_formula_sum "Si O2"
_cell_formula_units_Z 16
_cell_length_a 17.159474
_cell_length_b 16.199370
_cell_length_c 9.041785
_cell_angle_alpha 116.591989
_cell_angle_beta 127.982022
_cell_angle_gamma 24.492753
_cell_volume 771.182416
_symmetry_space_group_name_H-M "P -1"
_symmetry_group_IT_number 2
_symmetry_cell_setting 'triclinic'
loop_
_space_group_symop_operation_xyz
x,y,z
-x,-y,-z
loop_
_atom_site_type_symbol
_atom_site_label
_atom_site_fract_x
_atom_site_fract_y
_atom_site_fract_z
Si Si1 0.901123 0.947841 0.231688
Si Si2 0.047898 0.231892 0.101712
Si Si3 0.528984 0.281243 0.488407
Si Si4 0.438211 0.423314 0.177038
Si Si5 0.471863 0.894472 0.511589
Si Si6 0.823059 0.691744 0.559024
Si Si7 0.981796 0.049460 0.185103
Si Si8 0.690417 0.387982 0.329798
O O1 0.076311 0.808918 0.460042
O O2 0.643676 0.186117 0.169880
O O3 0.972300 0.967480 0.213570
O O4 0.919883 0.835673 0.077921
O O5 0.057729 0.334060 0.213530
O O6 0.812557 0.392023 0.021437
O O7 0.268221 0.016013 0.279909
O O8 0.426345 0.417807 0.335118
O O9 0.480047 0.213764 0.384425
O O10 0.423630 0.417731 0.620804
O O11 0.793758 0.080422 0.627668
O O12 0.519833 0.456809 0.257692
O O13 0.685614 0.733152 0.527138
O O14 0.362481 0.087535 0.566143
O O15 0.000000 0.500000 0.500000
O O16 0.765173 0.291729 0.178046
O O17 0.000000 0.000000 0.000000
#
# Coordination Sequence:
#
# PCOD9004379 Si02
#       8
#     2   2   2   2   2   2   2   2
#     4  11  20  39  61  88 128 174 213 245 301 373
#     4  10  21  37  66  93 112 159 211 253 305 382
#     4  12  21  38  62  92 125 161 212 255 308 356
#     4  11  21  36  65  91 125 177 211 241 300 371
#     4   9  23  40  62  94 122 150 197 274 312 366
#     4   9  21  45  67  85 121 160 195 255 342 380
#     4  11  23  38  55  89 132 170 212 261 293 351
#     4  11  22  39  61  87 134 182 206 241 308 361
#
# _framework density 20.747361999999999
#
# number of rings (size 3 to 8) (size 9 to 14) (size 15 to 20)
#    0.750    0.750    3.750    2.625    1.750    1.500 
#    0.000    0.625    0.000    1.500    0.000    0.000 
#    0.000    0.000    0.000    0.000    0.000    0.000 
#
# Total GULP energy -89321.241997 kJ/mol
# GULP energy per Si atom -5582.577625 kJ/mol
# Density = 2.070014 g / cm^3
# Si number density = 20.747362 Si / 1000 Ang^3
#
#
#
# Elastic Constant Matrix: (Units=GPa)
#
#
# Indices 1 2 3 4 5 6 
#
# 1 80.1453 43.3241 29.0993 7.3448 5.3349 -9.5611
# 2 43.3241 108.5624 23.0751 16.1972 6.5202 -28.2421
# 3 29.0993 23.0751 63.9382 7.0861 9.8582 -10.0696
# 4 7.3448 16.1972 7.0861 30.6544 -8.4428 2.1405
# 5 5.3349 6.5202 9.8582 -8.4428 28.6512 -2.5612
# 6 -9.5611 -28.2421 -10.0696 2.1405 -2.5612 27.0104
#
#
#
# Elastic Compliance Matrix: (Units=1/GPa)
#
#
# Indices 1 2 3 4 5 6 
#
# 1 0.017994 -0.006860 -0.006426 0.001155 0.000472 -0.003246
# 2 -0.006860 0.018095 0.001275 -0.010774 -0.004903 0.017356
# 3 -0.006426 0.001275 0.021077 -0.006593 -0.007689 0.006710
# 4 0.001155 -0.010774 -0.006593 0.045161 0.016442 -0.015334
# 5 0.000472 -0.004903 -0.007689 0.016442 0.042969 -0.005054
# 6 -0.003246 0.017356 0.006710 -0.015334 -0.005054 0.057259
#
#
# Mechanical properties :
#
#
# Convention : Reuss Voigt Hill
#
# Bulk Modulus (GPa) = 30.17039 49.29363 39.73201
# Shear Modulus (GPa) = 21.04149 27.73970 24.39059
#
# Velocity S-wave (km/s) = 3.18807 3.66050 3.43242
# Velocity P-wave (km/s) = 5.30331 6.45571 5.90768
#
# Compressibility (1/GPa) = 0.03314508
#
# Stress axis : x y z
#
# Youngs Moduli (GPa) = 55.57300 55.26347 47.44473
#
# Poissons Ratio (x) = 0.37913 0.30486
# Poissons Ratio (y) = 0.38125 -0.06050
# Poissons Ratio (z) = 0.35709 -0.07047
#
# Static dielectric constant tensor:
#      x y z
#    x 1.748980 0.038480 -0.032840 
#    y 0.038480 1.793300 -0.027030 
#    z -0.032840 -0.027030 1.785880 
# 
# From -- ./inp_files/315666.got.cif
#   From: 2010.05.17/outbox.cif.g08.bks.cpg/sg2_158_cif.got.tgz:315666.got - 2010.06.03 11:33:40.
