data_PCOD9004515
_publ_section_title
;
Structure prediction by ZEFSAII (Michael W. Deem and Ramdas Pophale) SiO2 
 PCOD9004515
Probable space group: P -1
;
_chemical_formula_sum "Si O2"
_cell_formula_units_Z 16
_cell_length_a 8.270989
_cell_length_b 15.515021
_cell_length_c 7.175457
_cell_angle_alpha 67.959769
_cell_angle_beta 78.407102
_cell_angle_gamma 43.696886
_cell_volume 586.062701
_symmetry_space_group_name_H-M "P -1"
_symmetry_group_IT_number 2
_symmetry_cell_setting 'triclinic'
loop_
_space_group_symop_operation_xyz
x,y,z
-x,-y,-z
loop_
_atom_site_type_symbol
_atom_site_label
_atom_site_fract_x
_atom_site_fract_y
_atom_site_fract_z
Si Si1 0.679456 0.803077 0.284925
Si Si2 0.791341 0.955644 0.984400
Si Si3 0.716234 0.587272 0.269252
Si Si4 0.731589 0.165004 0.969914
Si Si5 0.871924 0.134436 0.525887
Si Si6 0.246090 0.148576 0.400362
Si Si7 0.128845 0.600000 0.899583
Si Si8 0.538232 0.580130 0.695755
O O1 0.749219 0.774563 0.504975
O O2 0.739354 0.681397 0.273349
O O3 0.404312 0.943781 0.206177
O O4 0.795508 0.850159 0.140730
O O5 0.711974 0.061946 0.077983
O O6 0.056002 0.875479 0.936066
O O7 0.503531 0.684336 0.090781
O O8 0.906590 0.467913 0.186770
O O9 0.645684 0.547996 0.488625
O O10 0.802459 0.145385 0.749288
O O11 0.625891 0.261537 0.380226
O O12 0.052744 0.146899 0.482264
O O13 0.000000 0.000000 0.500000
O O14 0.124815 0.245206 0.168672
O O15 0.500000 0.000000 0.500000
O O16 0.339313 0.580596 0.776983
O O17 0.246213 0.522808 0.129634
#
# Coordination Sequence:
#
# PCOD9004515 Si02
#       8
#     2   2   2   2   2   2   2   2
#     4  10  21  39  58  95 141 181 223 272 347 416
#     4   9  18  35  58  91 136 167 221 276 328 402
#     4  10  21  39  72  99 136 179 227 288 341 412
#     4   9  18  35  61  98 126 172 233 281 332 395
#     4  10  21  37  68  96 132 178 230 288 334 399
#     4  11  25  43  65  92 136 185 223 283 354 410
#     4  10  22  46  69  99 138 178 237 288 340 413
#     4   9  21  42  69 106 132 180 238 285 345 402
#
# _framework density 27.300830000000001
#
# number of rings (size 3 to 8) (size 9 to 14) (size 15 to 20)
#    0.000    2.250    1.250    0.375    5.250    3.500 
#    4.500    1.875    0.000    0.000    0.000    0.000 
#    0.000    0.000    0.000    0.000    0.000    0.000 
#
# Total GULP energy -89481.196279 kJ/mol
# GULP energy per Si atom -5592.574767 kJ/mol
# Density = 2.723869 g / cm^3
# Si number density = 27.300830 Si / 1000 Ang^3
#
#
#
# Elastic Constant Matrix: (Units=GPa)
#
#
# Indices 1 2 3 4 5 6 
#
# 1 116.8294 18.9542 45.0334 -10.6714 14.2927 -2.6502
# 2 18.9542 101.5443 55.0847 -32.4282 11.1928 -3.5790
# 3 45.0334 55.0847 182.2903 -38.2795 24.4666 -8.7905
# 4 -10.6714 -32.4282 -38.2795 45.5486 -15.6140 4.8022
# 5 14.2927 11.1928 24.4666 -15.6140 47.4057 -3.7287
# 6 -2.6502 -3.5790 -8.7905 4.8022 -3.7287 31.1456
#
#
#
# Elastic Compliance Matrix: (Units=1/GPa)
#
#
# Indices 1 2 3 4 5 6 
#
# 1 0.009634 -0.000666 -0.002048 -0.000586 -0.001881 0.000030
# 2 -0.000666 0.013710 -0.002451 0.007847 0.000790 -0.000288
# 3 -0.002048 -0.002451 0.007754 0.003667 -0.001521 0.000985
# 4 -0.000586 0.007847 0.003667 0.033196 0.007179 -0.002372
# 5 -0.001881 0.000790 -0.001521 0.007179 0.024731 0.001355
# 6 0.000030 -0.000288 0.000985 -0.002372 0.001355 0.032883
#
#
# Mechanical properties :
#
#
# Convention : Reuss Voigt Hill
#
# Bulk Modulus (GPa) = 48.14928 70.97875 59.56402
# Shear Modulus (GPa) = 35.92971 43.59277 39.76124
#
# Velocity S-wave (km/s) = 3.63170 4.00028 3.82044
# Velocity P-wave (km/s) = 5.93806 6.88415 6.42853
#
# Compressibility (1/GPa) = 0.02076874
#
# Stress axis : x y z
#
# Youngs Moduli (GPa) = 103.79642 72.93834 128.96919
#
# Poissons Ratio (x) = 0.04859 0.26412
# Poissons Ratio (y) = 0.06915 0.31606
# Poissons Ratio (z) = 0.21257 0.17874
#
# Static dielectric constant tensor:
#      x y z
#    x 2.174830 -0.002730 -0.040740 
#    y -0.002730 2.174990 -0.015990 
#    z -0.040740 -0.015990 2.174330 
# 
# From -- ./inp_files/217025.got.cif
#   From: 2010.05.17/outbox.cif.g08.bks.cpg/sg2_109_cif.got.tgz:217025.got - 2010.06.03 11:33:40.
