data_PCOD9004936
_publ_section_title
;
Structure prediction by ZEFSAII (Michael W. Deem and Ramdas Pophale) SiO2 
 PCOD9004936
Probable space group: P -1
;
_chemical_formula_sum "Si O2"
_cell_formula_units_Z 16
_cell_length_a 10.898304
_cell_length_b 9.148116
_cell_length_c 15.259010
_cell_angle_alpha 140.948883
_cell_angle_beta 99.575675
_cell_angle_gamma 107.466610
_cell_volume 683.073657
_symmetry_space_group_name_H-M "P -1"
_symmetry_group_IT_number 2
_symmetry_cell_setting 'triclinic'
loop_
_space_group_symop_operation_xyz
x,y,z
-x,-y,-z
loop_
_atom_site_type_symbol
_atom_site_label
_atom_site_fract_x
_atom_site_fract_y
_atom_site_fract_z
Si Si1 0.122549 0.268936 0.943249
Si Si2 0.794352 0.363083 0.045607
Si Si3 0.580730 0.345283 0.703044
Si Si4 0.846093 0.769021 0.803474
Si Si5 0.031359 0.550891 0.305428
Si Si6 0.167625 0.797829 0.711616
Si Si7 0.277751 0.291953 0.676273
Si Si8 0.559243 0.178753 0.186871
O O1 0.142159 0.478726 0.967280
O O2 0.182635 0.090161 0.834449
O O3 0.260899 0.506335 0.145067
O O4 0.929485 0.978406 0.822928
O O5 0.945288 0.421182 0.140200
O O6 0.754474 0.547930 0.182493
O O7 0.615751 0.996363 0.862913
O O8 0.668114 0.596369 0.749008
O O9 0.445024 0.342990 0.731674
O O10 0.500000 0.000000 0.500000
O O11 0.837260 0.476746 0.660980
O O12 0.000000 0.000000 0.000000
O O13 0.877099 0.309127 0.241753
O O14 0.118233 0.912055 0.486426
O O15 0.339260 0.868152 0.758970
O O16 0.000000 0.500000 0.500000
O O17 0.312088 0.453416 0.660100
O O18 0.500000 0.000000 0.000000
#
# Coordination Sequence:
#
# PCOD9004936 Si02
#       8
#     2   2   2   2   2   2   2   2
#     4  10  23  40  66  98 128 170 214 282 326 389
#     4  11  23  39  64 100 134 164 212 269 356 397
#     4  11  22  43  67  91 126 177 232 265 322 392
#     4   9  21  41  66  89 121 173 223 262 317 385
#     4  11  21  38  63  94 129 175 212 264 335 400
#     4  11  22  37  63 100 138 169 215 266 330 406
#     4  11  22  36  68  93 129 170 212 271 331 403
#     4  10  21  38  59  93 135 174 206 257 337 401
#
# _framework density 23.423535000000001
#
# number of rings (size 3 to 8) (size 9 to 14) (size 15 to 20)
#    0.000    1.500    3.750    2.625    5.250    3.000 
#    0.000    2.500    0.000    1.500    0.000    0.000 
#    0.000    0.000    0.000    0.000    0.000    0.000 
#
# Total GULP energy -89329.682887 kJ/mol
# GULP energy per Si atom -5583.105180 kJ/mol
# Density = 2.337022 g / cm^3
# Si number density = 23.423535 Si / 1000 Ang^3
#
#
#
# Elastic Constant Matrix: (Units=GPa)
#
#
# Indices 1 2 3 4 5 6 
#
# 1 81.2183 20.5117 13.1719 1.4882 5.7868 -3.2319
# 2 20.5117 152.1568 12.7520 19.3255 7.0962 -5.9938
# 3 13.1719 12.7520 61.7088 5.6091 -6.5961 -15.8728
# 4 1.4882 19.3255 5.6091 36.2195 -4.7546 6.0937
# 5 5.7868 7.0962 -6.5961 -4.7546 31.0335 6.1004
# 6 -3.2319 -5.9938 -15.8728 6.0937 6.1004 23.5765
#
#
#
# Elastic Compliance Matrix: (Units=1/GPa)
#
#
# Indices 1 2 3 4 5 6 
#
# 1 0.013336 -0.001460 -0.002810 0.000271 -0.002749 0.000206
# 2 -0.001460 0.007715 -0.000190 -0.005053 -0.003039 0.003726
# 3 -0.002810 -0.000190 0.021337 -0.005437 0.001322 0.014995
# 4 0.000271 -0.005053 -0.005437 0.034965 0.008479 -0.016139
# 5 -0.002749 -0.003039 0.001322 0.008479 0.037395 -0.012127
# 6 0.000206 0.003726 0.014995 -0.016139 -0.012127 0.060795
#
#
# Mechanical properties :
#
#
# Convention : Reuss Voigt Hill
#
# Bulk Modulus (GPa) = 29.88008 43.10612 36.49310
# Shear Modulus (GPa) = 25.55994 34.74244 30.15119
#
# Velocity S-wave (km/s) = 3.30693 3.85545 3.59167
# Velocity P-wave (km/s) = 5.23117 6.18564 5.72832
#
# Compressibility (1/GPa) = 0.03346711
#
# Stress axis : x y z
#
# Youngs Moduli (GPa) = 74.98389 129.61435 46.86774
#
# Poissons Ratio (x) = 0.18928 0.13171
# Poissons Ratio (y) = 0.10950 0.00890
# Poissons Ratio (z) = 0.21073 0.02460
#
# Static dielectric constant tensor:
#      x y z
#    x 2.070270 0.020840 -0.029160 
#    y 0.020840 1.876210 0.022240 
#    z -0.029160 0.022240 1.924400 
# 
# From -- ./inp_files/399134.got.cif
#   From: 2010.05.17/outbox.cif.g08.bks.cpg/sg2_200_cif.got.tgz:399134.got - 2010.06.03 11:33:40.
