data_PCOD9004018
_publ_section_title
;
Structure prediction by ZEFSAII (Michael W. Deem and Ramdas Pophale) SiO2 
 PCOD9004018
Probable space group: P -1
;
_chemical_formula_sum "Si O2"
_cell_formula_units_Z 16
_cell_length_a 14.228717
_cell_length_b 14.295856
_cell_length_c 9.386156
_cell_angle_alpha 115.937971
_cell_angle_beta 53.674060
_cell_angle_gamma 149.309666
_cell_volume 772.966868
_symmetry_space_group_name_H-M "P -1"
_symmetry_group_IT_number 2
_symmetry_cell_setting 'triclinic'
loop_
_space_group_symop_operation_xyz
x,y,z
-x,-y,-z
loop_
_atom_site_type_symbol
_atom_site_label
_atom_site_fract_x
_atom_site_fract_y
_atom_site_fract_z
Si Si1 0.591463 0.022647 0.286409
Si Si2 0.310416 0.198647 0.727261
Si Si3 0.275943 0.465790 0.730843
Si Si4 0.781629 0.398654 0.637834
Si Si5 0.148961 0.150534 0.118860
Si Si6 0.057538 0.292473 0.114987
Si Si7 0.612323 0.268337 0.384576
Si Si8 0.646339 0.622398 0.626689
O O1 0.616670 0.149741 0.262813
O O2 0.813567 0.136707 0.202257
O O3 0.500000 0.000000 0.500000
O O4 0.410944 0.809103 0.259176
O O5 0.384701 0.148937 0.547885
O O6 0.482315 0.412738 0.684521
O O7 0.281803 0.175769 0.909838
O O8 0.082623 0.062772 0.786701
O O9 0.281880 0.582836 0.731540
O O10 0.514101 0.609406 0.650577
O O11 0.205661 0.330204 0.583898
O O12 0.155856 0.367754 0.920156
O O13 0.832161 0.537595 0.775697
O O14 0.722061 0.371132 0.507342
O O15 0.000000 0.500000 0.500000
O O16 0.104740 0.222251 0.113418
O O17 0.256062 0.256958 0.240536
#
# Coordination Sequence:
#
# PCOD9004018 Si02
#       8
#     2   2   2   2   2   2   2   2
#     4  10  21  41  63  92 124 154 202 264 307 355
#     4  10  21  37  63  95 123 154 213 260 307 357
#     4  10  23  39  63  88 131 173 201 248 313 379
#     4  11  22  40  68  93 113 161 215 256 308 364
#     4  11  22  36  67  95 120 160 213 264 302 361
#     4  12  22  39  65  94 124 161 208 258 306 365
#     4  10  21  42  62  86 131 165 195 260 311 367
#     4  10  21  44  59  87 131 171 205 249 311 366
#
# _framework density 20.699463000000002
#
# number of rings (size 3 to 8) (size 9 to 14) (size 15 to 20)
#    0.000    1.500    3.750    3.375    1.750    0.500 
#    0.000    8.750    0.000    0.000    0.000    0.000 
#    0.000    0.000    0.000    0.000    0.000    0.000 
#
# Total GULP energy -89301.229804 kJ/mol
# GULP energy per Si atom -5581.326863 kJ/mol
# Density = 2.065235 g / cm^3
# Si number density = 20.699463 Si / 1000 Ang^3
#
#
#
# Elastic Constant Matrix: (Units=GPa)
#
#
# Indices 1 2 3 4 5 6 
#
# 1 85.6158 26.8302 13.4192 3.6682 5.7596 -11.7554
# 2 26.8302 110.3120 22.7857 22.0551 2.5193 0.9871
# 3 13.4192 22.7857 66.9282 8.9043 6.6049 7.1467
# 4 3.6682 22.0551 8.9043 21.5668 3.9891 -5.1313
# 5 5.7596 2.5193 6.6049 3.9891 30.1623 3.7910
# 6 -11.7554 0.9871 7.1467 -5.1313 3.7910 28.9040
#
#
#
# Elastic Compliance Matrix: (Units=1/GPa)
#
#
# Indices 1 2 3 4 5 6 
#
# 1 0.014503 -0.004024 -0.002773 0.005390 -0.003563 0.008146
# 2 -0.004024 0.013058 -0.001609 -0.013486 0.002365 -0.004389
# 3 -0.002773 -0.001609 0.017740 -0.006439 -0.001565 -0.006397
# 4 0.005390 -0.013486 -0.006439 0.067869 -0.009676 0.017563
# 5 -0.003563 0.002365 -0.001565 -0.009676 0.036216 -0.007611
# 6 0.008146 -0.004389 -0.006397 0.017563 -0.007611 0.043758
#
#
# Mechanical properties :
#
#
# Convention : Reuss Voigt Hill
#
# Bulk Modulus (GPa) = 35.10293 43.21401 39.15847
# Shear Modulus (GPa) = 22.78405 29.44804 26.11604
#
# Velocity S-wave (km/s) = 3.32129 3.77589 3.55586
# Velocity P-wave (km/s) = 5.63056 6.31918 5.98478
#
# Compressibility (1/GPa) = 0.02848765
#
# Stress axis : x y z
#
# Youngs Moduli (GPa) = 68.95170 76.58196 56.37118
#
# Poissons Ratio (x) = 0.30815 0.15634
# Poissons Ratio (y) = 0.27744 0.09072
# Poissons Ratio (z) = 0.19122 0.12324
#
# Static dielectric constant tensor:
#      x y z
#    x 1.816770 -0.037340 -0.029730 
#    y -0.037340 1.811700 -0.007670 
#    z -0.029730 -0.007670 1.762610 
# 
# From -- ./inp_files/313675.got.cif
#   From: 2010.05.17/outbox.cif.g08.bks.cpg/sg2_157_cif.got.tgz:313675.got - 2010.06.03 11:33:40.
