data_PCOD9004076
_publ_section_title
;
Structure prediction by ZEFSAII (Michael W. Deem and Ramdas Pophale) SiO2 
 PCOD9004076
Probable space group: P -1
;
_chemical_formula_sum "Si O2"
_cell_formula_units_Z 16
_cell_length_a 5.523161
_cell_length_b 13.741423
_cell_length_c 16.517848
_cell_angle_alpha 41.554808
_cell_angle_beta 66.342676
_cell_angle_gamma 81.146694
_cell_volume 739.267164
_symmetry_space_group_name_H-M "P -1"
_symmetry_group_IT_number 2
_symmetry_cell_setting 'triclinic'
loop_
_space_group_symop_operation_xyz
x,y,z
-x,-y,-z
loop_
_atom_site_type_symbol
_atom_site_label
_atom_site_fract_x
_atom_site_fract_y
_atom_site_fract_z
Si Si1 0.655594 0.656837 0.342606
Si Si2 0.010876 0.161184 0.514266
Si Si3 0.993844 0.320558 0.876085
Si Si4 0.312961 0.175560 0.227411
Si Si5 0.453032 0.833023 0.647753
Si Si6 0.155238 0.814010 0.294771
Si Si7 0.986692 0.636029 0.752952
Si Si8 0.372568 0.169851 0.034010
O O1 0.500000 0.500000 0.500000
O O2 0.812067 0.630752 0.256985
O O3 0.417575 0.742085 0.300368
O O4 0.895339 0.742993 0.317608
O O5 0.946324 0.199082 0.590011
O O6 0.878956 0.251020 0.409252
O O7 0.315213 0.216173 0.407047
O O8 0.920096 0.979150 0.631044
O O9 0.934651 0.466762 0.836761
O O10 0.172523 0.242734 0.961069
O O11 0.700186 0.222618 0.944521
O O12 0.549963 0.135630 0.274127
O O13 0.345785 0.204676 0.111315
O O14 0.261937 0.311703 0.203909
O O15 0.204669 0.690628 0.759143
O O16 0.500000 0.000000 0.500000
O O17 0.267232 0.990270 0.149866
#
# Coordination Sequence:
#
# PCOD9004076 Si02
#       8
#     2   2   2   2   2   2   2   2
#     4  12  27  49  76 111 136 168 223 292 361 415
#     4  10  21  37  64 104 133 172 230 286 350 410
#     4  12  29  47  69  99 142 183 234 284 335 412
#     4  10  22  40  63  99 135 179 235 280 333 413
#     4  11  19  34  66  97 140 177 229 282 344 410
#     4  11  26  46  78 101 139 184 223 288 345 402
#     4  11  23  39  63  97 138 186 218 289 351 388
#     4  11  28  49  70 102 137 189 240 271 326 416
#
# _framework density 21.643056999999999
#
# number of rings (size 3 to 8) (size 9 to 14) (size 15 to 20)
#    0.000    1.000    2.500    3.375    8.750    4.000 
#    0.000    0.000    0.000    0.000    0.000    0.000 
#    0.000    0.000    0.000    0.000    0.000    0.000 
#
# Total GULP energy -89141.621111 kJ/mol
# GULP energy per Si atom -5571.351319 kJ/mol
# Density = 2.159380 g / cm^3
# Si number density = 21.643057 Si / 1000 Ang^3
#
#
#
# Elastic Constant Matrix: (Units=GPa)
#
#
# Indices 1 2 3 4 5 6 
#
# 1 95.8056 26.7473 37.1706 -12.5185 -3.7866 11.5108
# 2 26.7473 85.2026 39.0030 -21.4345 8.4880 5.1211
# 3 37.1706 39.0030 104.2036 -8.2364 0.7159 0.6921
# 4 -12.5185 -21.4345 -8.2364 25.0127 2.4266 -0.7075
# 5 -3.7866 8.4880 0.7159 2.4266 26.2261 -3.1192
# 6 11.5108 5.1211 0.6921 -0.7075 -3.1192 33.9845
#
#
#
# Elastic Compliance Matrix: (Units=1/GPa)
#
#
# Indices 1 2 3 4 5 6 
#
# 1 0.013413 -0.001304 -0.003963 0.004020 0.001615 -0.004034
# 2 -0.001304 0.019380 -0.005543 0.014828 -0.008013 -0.002793
# 3 -0.003963 -0.005543 0.012859 -0.002574 0.001345 0.001986
# 4 0.004020 0.014828 -0.002574 0.054690 -0.009599 -0.003286
# 5 0.001615 -0.008013 0.001345 -0.009599 0.042322 0.004318
# 6 -0.004034 -0.002793 0.001986 -0.003286 0.004318 0.031500
#
#
# Mechanical properties :
#
#
# Convention : Reuss Voigt Hill
#
# Bulk Modulus (GPa) = 41.61047 54.56150 48.08598
# Shear Modulus (GPa) = 24.53456 29.19740 26.86598
#
# Velocity S-wave (km/s) = 3.37055 3.67692 3.52706
# Velocity P-wave (km/s) = 5.86643 6.57957 6.23321
#
# Compressibility (1/GPa) = 0.02403241
#
# Stress axis : x y z
#
# Youngs Moduli (GPa) = 74.55339 51.59977 77.76485
#
# Poissons Ratio (x) = 0.06726 0.30820
# Poissons Ratio (y) = 0.09718 0.43107
# Poissons Ratio (z) = 0.29547 0.28603
#
# Static dielectric constant tensor:
#      x y z
#    x 2.372570 -0.134070 0.252760 
#    y -0.134070 1.505370 0.101360 
#    z 0.252760 0.101360 1.776050 
# 
# From -- ./inp_files/482606.got.cif
#   From: 2010.05.17/outbox.cif.g08.bks.cpg/sg2_242_cif.got.tgz:482606.got - 2010.06.03 11:33:40.
