data_PCOD9004453
_publ_section_title
;
Structure prediction by ZEFSAII (Michael W. Deem and Ramdas Pophale) SiO2 
 PCOD9004453
Probable space group: P -1
;
_chemical_formula_sum "Si O2"
_cell_formula_units_Z 16
_cell_length_a 9.222354
_cell_length_b 16.645608
_cell_length_c 5.589673
_cell_angle_alpha 90.716712
_cell_angle_beta 96.907304
_cell_angle_gamma 121.202036
_cell_volume 725.794862
_symmetry_space_group_name_H-M "P -1"
_symmetry_group_IT_number 2
_symmetry_cell_setting 'triclinic'
loop_
_space_group_symop_operation_xyz
x,y,z
-x,-y,-z
loop_
_atom_site_type_symbol
_atom_site_label
_atom_site_fract_x
_atom_site_fract_y
_atom_site_fract_z
Si Si1 0.523182 0.579799 0.196180
Si Si2 0.306347 0.768583 0.783610
Si Si3 0.937652 0.919092 0.785629
Si Si4 0.620671 0.736187 0.879409
Si Si5 0.250534 0.998671 0.528790
Si Si6 0.911456 0.451087 0.228736
Si Si7 0.647857 0.126174 0.713052
Si Si8 0.620956 0.455875 0.403289
O O1 0.632680 0.555305 0.395395
O O2 0.353046 0.552792 0.311104
O O3 0.500000 0.500000 0.000000
O O4 0.607706 0.683732 0.121810
O O5 0.486839 0.771449 0.843646
O O6 0.154048 0.659380 0.770662
O O7 0.309501 0.811670 0.522935
O O8 0.295501 0.821031 0.019816
O O9 0.811503 0.818052 0.869239
O O10 0.102620 0.931816 0.683194
O O11 0.817885 0.936296 0.581932
O O12 0.000000 0.000000 0.000000
O O13 0.546673 0.647852 0.681564
O O14 0.272497 0.938643 0.323425
O O15 0.440273 0.060350 0.678081
O O16 0.741088 0.455117 0.225248
O O17 0.000000 0.500000 0.500000
O O18 0.000000 0.500000 0.000000
#
# Coordination Sequence:
#
# PCOD9004453 Si02
#       8
#     2   2   2   2   2   2   2   2
#     4   9  19  37  63  93 118 165 216 281 322 403
#     4  11  24  42  71  98 130 176 238 275 336 418
#     4  11  23  43  64 100 135 179 223 287 346 408
#     4  10  21  37  67  92 127 170 225 275 336 397
#     4  10  25  41  68  95 139 177 229 284 351 397
#     4  11  25  43  66  96 137 178 216 283 347 406
#     4  11  24  45  71 100 133 183 235 281 335 410
#     4   9  21  39  65  89 129 166 230 264 343 401
#
# _framework density 22.044796999999999
#
# number of rings (size 3 to 8) (size 9 to 14) (size 15 to 20)
#    0.000    1.750    1.250    1.500   10.500    3.000 
#    2.250    5.000    0.000    0.000    0.000    0.000 
#    0.000    0.000    0.000    0.000    0.000    0.000 
#
# Total GULP energy -89131.295263 kJ/mol
# GULP energy per Si atom -5570.705954 kJ/mol
# Density = 2.199462 g / cm^3
# Si number density = 22.044797 Si / 1000 Ang^3
#
#
#
# Elastic Constant Matrix: (Units=GPa)
#
#
# Indices 1 2 3 4 5 6 
#
# 1 64.5689 38.3821 35.2685 -3.2176 -24.0770 2.4775
# 2 38.3821 100.9263 54.7977 -15.3398 -13.6120 19.0293
# 3 35.2685 54.7977 127.2104 -10.6780 -28.9671 14.5585
# 4 -3.2176 -15.3398 -10.6780 56.5187 -5.8962 -6.4938
# 5 -24.0770 -13.6120 -28.9671 -5.8962 36.1286 -4.5887
# 6 2.4775 19.0293 14.5585 -6.4938 -4.5887 33.0211
#
#
#
# Elastic Compliance Matrix: (Units=1/GPa)
#
#
# Indices 1 2 3 4 5 6 
#
# 1 0.026209 -0.008391 -0.000882 0.001193 0.014492 0.005506
# 2 -0.008391 0.016842 -0.004783 0.001995 -0.003655 -0.007083
# 3 -0.000882 -0.004783 0.012129 0.001584 0.007443 -0.001179
# 4 0.001193 0.001995 0.001584 0.019588 0.006369 0.002800
# 5 0.014492 -0.003655 0.007443 0.006369 0.043608 0.005050
# 6 0.005506 -0.007083 -0.001179 0.002800 0.005050 0.035724
#
#
# Mechanical properties :
#
#
# Convention : Reuss Voigt Hill
#
# Bulk Modulus (GPa) = 36.94394 61.06692 49.00543
# Shear Modulus (GPa) = 26.14611 36.08416 31.11514
#
# Velocity S-wave (km/s) = 3.44764 4.05020 3.76100
# Velocity P-wave (km/s) = 5.71342 7.04511 6.41392
#
# Compressibility (1/GPa) = 0.02706804
#
# Stress axis : x y z
#
# Youngs Moduli (GPa) = 38.15527 59.37664 82.44935
#
# Poissons Ratio (x) = 0.49821 0.07272
# Poissons Ratio (y) = 0.32015 0.39434
# Poissons Ratio (z) = 0.03365 0.28399
#
# Static dielectric constant tensor:
#      x y z
#    x 2.036090 -0.005410 0.036230 
#    y -0.005410 1.770900 -0.007820 
#    z 0.036230 -0.007820 2.042740 
# 
# From -- ./inp_files/47882.got.cif
#   From: 2010.05.17/outbox.cif.g08.bks.cpg/sg2_24_cif.got.tgz:47882.got - 2010.06.03 11:33:40.
