data_PCOD9004736
_publ_section_title
;
Structure prediction by ZEFSAII (Michael W. Deem and Ramdas Pophale) SiO2 
 PCOD9004736
Probable space group: P -1
;
_chemical_formula_sum "Si O2"
_cell_formula_units_Z 16
_cell_length_a 15.875241
_cell_length_b 14.051783
_cell_length_c 16.397911
_cell_angle_alpha 149.874767
_cell_angle_beta 28.373248
_cell_angle_gamma 151.436818
_cell_volume 759.715981
_symmetry_space_group_name_H-M "P -1"
_symmetry_group_IT_number 2
_symmetry_cell_setting 'triclinic'
loop_
_space_group_symop_operation_xyz
x,y,z
-x,-y,-z
loop_
_atom_site_type_symbol
_atom_site_label
_atom_site_fract_x
_atom_site_fract_y
_atom_site_fract_z
Si Si1 0.664536 0.109232 0.608564
Si Si2 0.521772 0.796498 0.365070
Si Si3 0.877377 0.680603 0.672671
Si Si4 0.828161 0.307557 0.953366
Si Si5 0.335467 0.249305 0.948531
Si Si6 0.464388 0.336351 0.336330
Si Si7 0.222384 0.918976 0.329214
Si Si8 0.844971 0.905792 0.704842
O O1 0.468556 0.140069 0.784701
O O2 0.704483 0.131551 0.687024
O O3 0.889861 0.276171 0.501722
O O4 0.601725 0.875491 0.446950
O O5 0.307133 0.569938 0.370265
O O6 0.689459 0.792895 0.158683
O O7 0.500000 0.000000 0.500000
O O8 0.849393 0.820244 0.727315
O O9 0.840863 0.770969 0.856401
O O10 0.879063 0.273518 0.792598
O O11 0.778230 0.086472 0.881260
O O12 0.653033 0.371649 0.148091
O O13 0.000000 0.500000 0.000000
O O14 0.500000 0.500000 0.000000
O O15 0.500000 0.500000 0.500000
O O16 0.291038 0.294466 0.387980
O O17 0.399992 0.111084 0.270831
O O18 0.069603 0.005028 0.549633
#
# Coordination Sequence:
#
# PCOD9004736 Si02
#       8
#     2   2   2   2   2   2   2   2
#     4  10  22  39  63  89 125 158 202 255 305 362
#     4   9  20  40  61  90 120 159 200 250 309 376
#     4  10  22  39  63  91 124 160 202 259 305 358
#     4  11  22  39  58  86 123 163 203 245 299 371
#     4   9  20  38  61  88 120 159 199 251 305 371
#     4  11  22  35  60  84 116 166 192 244 306 352
#     4  10  21  38  58  86 120 156 202 250 299 358
#     4  10  21  38  58  86 122 153 204 250 297 360
#
# _framework density 21.060500999999999
#
# number of rings (size 3 to 8) (size 9 to 14) (size 15 to 20)
#    0.000    2.000    0.000    4.500    5.250    5.000 
#    0.000    3.750    0.000    0.000    0.000    0.000 
#    0.000    0.000    0.000    0.000    0.000    0.000 
#
# Total GULP energy -89078.867927 kJ/mol
# GULP energy per Si atom -5567.429245 kJ/mol
# Density = 2.101257 g / cm^3
# Si number density = 21.060501 Si / 1000 Ang^3
#
#
#
# Elastic Constant Matrix: (Units=GPa)
#
#
# Indices 1 2 3 4 5 6 
#
# 1 44.2945 3.3567 2.8546 9.2194 15.7784 2.1779
# 2 3.3567 65.9863 16.1728 6.3821 12.5126 13.2517
# 3 2.8546 16.1728 75.8030 6.1859 15.5005 -3.1791
# 4 9.2194 6.3821 6.1859 36.1952 9.4907 7.1272
# 5 15.7784 12.5126 15.5005 9.4907 35.8289 -1.3696
# 6 2.1779 13.2517 -3.1791 7.1272 -1.3696 21.6227
#
#
#
# Elastic Compliance Matrix: (Units=1/GPa)
#
#
# Indices 1 2 3 4 5 6 
#
# 1 0.027745 0.001628 0.001333 -0.003676 -0.012511 -0.003177
# 2 0.001628 0.019906 -0.003557 0.001216 -0.006977 -0.013729
# 3 0.001333 -0.003557 0.015329 -0.001838 -0.005315 0.004569
# 4 -0.003676 0.001216 -0.001838 0.032899 -0.007182 -0.011944
# 5 -0.012511 -0.006977 -0.005315 -0.007182 0.040429 0.009683
# 6 -0.003177 -0.013729 0.004569 -0.011944 0.009683 0.060204
#
#
# Mechanical properties :
#
#
# Convention : Reuss Voigt Hill
#
# Bulk Modulus (GPa) = 16.18422 25.65024 20.91723
# Shear Modulus (GPa) = 22.90425 29.64268 26.27346
#
# Velocity S-wave (km/s) = 3.30137 3.75574 3.53586
# Velocity P-wave (km/s) = 4.71523 5.56895 5.15978
#
# Compressibility (1/GPa) = 0.06178859
#
# Stress axis : x y z
#
# Youngs Moduli (GPa) = 36.04267 50.23566 65.23511
#
# Poissons Ratio (x) = -0.08178 -0.08695
# Poissons Ratio (y) = -0.05868 0.23202
# Poissons Ratio (z) = -0.04804 0.17867
#
# Static dielectric constant tensor:
#      x y z
#    x 0.987960 -0.112410 0.594970 
#    y -0.112410 1.750300 0.088840 
#    z 0.594970 0.088840 1.394030 
# 
# From -- ./inp_files/215624.got.cif
#   From: 2010.05.17/outbox.cif.g08.bks.cpg/sg2_108_cif.got.tgz:215624.got - 2010.06.03 11:33:40.
