data_PCOD9004016
_publ_section_title
;
Structure prediction by ZEFSAII (Michael W. Deem and Ramdas Pophale) SiO2 
 PCOD9004016
Probable space group: P -1
;
_chemical_formula_sum "Si O2"
_cell_formula_units_Z 16
_cell_length_a 10.947503
_cell_length_b 12.242084
_cell_length_c 6.358776
_cell_angle_alpha 113.146917
_cell_angle_beta 74.204457
_cell_angle_gamma 77.831520
_cell_volume 703.698333
_symmetry_space_group_name_H-M "P -1"
_symmetry_group_IT_number 2
_symmetry_cell_setting 'triclinic'
loop_
_space_group_symop_operation_xyz
x,y,z
-x,-y,-z
loop_
_atom_site_type_symbol
_atom_site_label
_atom_site_fract_x
_atom_site_fract_y
_atom_site_fract_z
Si Si1 0.664992 0.973464 0.798230
Si Si2 0.909157 0.813140 0.270641
Si Si3 0.389080 0.434700 0.466586
Si Si4 0.942599 0.158220 0.416593
Si Si5 0.436039 0.200406 0.998088
Si Si6 0.763558 0.631823 0.123985
Si Si7 0.886755 0.440059 0.566423
Si Si8 0.173156 0.983987 0.896407
O O1 0.797108 0.894926 0.549885
O O2 0.614470 0.867319 0.840064
O O3 0.567265 0.082422 0.777624
O O4 0.694514 0.040517 0.044170
O O5 0.885814 0.679575 0.171770
O O6 0.868174 0.890400 0.133780
O O7 0.043897 0.822605 0.325830
O O8 0.500000 0.500000 0.500000
O O9 0.457686 0.320200 0.184033
O O10 0.335628 0.384214 0.661593
O O11 0.244378 0.520790 0.494769
O O12 0.952953 0.288195 0.423844
O O13 0.816334 0.133283 0.349648
O O14 0.056370 0.031812 0.168666
O O15 0.326779 0.258869 0.911868
O O16 0.826422 0.502055 0.865227
O O17 0.000000 0.500000 0.500000
#
# Coordination Sequence:
#
# PCOD9004016 Si02
#       8
#     2   2   2   2   2   2   2   2
#     4  10  21  37  63  95 120 161 212 262 317 389
#     4  11  20  37  64  92 122 165 213 263 330 390
#     4  11  26  46  66  92 136 179 218 276 330 379
#     4  10  23  39  59  91 130 162 211 267 330 385
#     4  10  22  40  62  92 126 161 218 264 318 391
#     4  11  23  42  68  93 130 175 218 272 324 385
#     4  11  25  43  68  99 129 174 229 270 317 395
#     4  10  21  39  62  89 131 163 201 274 333 379
#
# _framework density 22.737016000000001
#
# number of rings (size 3 to 8) (size 9 to 14) (size 15 to 20)
#    0.000    1.500    2.500    1.875    5.250    6.500 
#    2.250    0.000    0.000    0.000    0.000    0.000 
#    0.000    0.000    0.000    0.000    0.000    0.000 
#
# Total GULP energy -89213.279332 kJ/mol
# GULP energy per Si atom -5575.829958 kJ/mol
# Density = 2.268527 g / cm^3
# Si number density = 22.737016 Si / 1000 Ang^3
#
#
#
# Elastic Constant Matrix: (Units=GPa)
#
#
# Indices 1 2 3 4 5 6 
#
# 1 92.0494 40.2651 26.0282 7.2399 26.5869 10.3727
# 2 40.2651 110.1211 21.7820 5.6928 11.9330 8.4877
# 3 26.0282 21.7820 55.2860 6.9037 23.5029 8.0280
# 4 7.2399 5.6928 6.9037 27.1300 6.3681 0.9706
# 5 26.5869 11.9330 23.5029 6.3681 26.2007 4.3686
# 6 10.3727 8.4877 8.0280 0.9706 4.3686 41.2743
#
#
#
# Elastic Compliance Matrix: (Units=1/GPa)
#
#
# Indices 1 2 3 4 5 6 
#
# 1 0.017538 -0.004664 0.000622 -0.000060 -0.015901 -0.001885
# 2 -0.004664 0.011221 -0.003209 -0.000936 0.002861 -0.000792
# 3 0.000622 -0.003209 0.030597 -0.001103 -0.025901 -0.002680
# 4 -0.000060 -0.000936 -0.001103 0.039246 -0.008122 0.000359
# 5 -0.015901 0.002861 -0.025901 -0.008122 0.078147 0.000365
# 6 -0.001885 -0.000792 -0.002680 0.000359 0.000365 0.025339
#
#
# Mechanical properties :
#
#
# Convention : Reuss Voigt Hill
#
# Bulk Modulus (GPa) = 22.29508 48.17856 35.23682
# Shear Modulus (GPa) = 21.59431 30.21307 25.90369
#
# Velocity S-wave (km/s) = 3.08513 3.64923 3.37898
# Velocity P-wave (km/s) = 4.74528 6.24431 5.54567
#
# Compressibility (1/GPa) = 0.04485295
#
# Stress axis : x y z
#
# Youngs Moduli (GPa) = 57.01867 89.12216 32.68262
#
# Poissons Ratio (x) = 0.41569 -0.02033
# Poissons Ratio (y) = 0.26595 0.10489
# Poissons Ratio (z) = -0.03546 0.28601
#
# Static dielectric constant tensor:
#      x y z
#    x 2.078020 0.004690 0.041770 
#    y 0.004690 1.836960 -0.004600 
#    z 0.041770 -0.004600 1.873380 
# 
# From -- ./inp_files/71650.got.cif
#   From: 2010.05.17/outbox.cif.g08.bks.cpg/sg2_36_cif.got.tgz:71650.got - 2010.06.03 11:33:40.
