data_PCOD9004028
_publ_section_title
;
Structure prediction by ZEFSAII (Michael W. Deem and Ramdas Pophale) SiO2 
 PCOD9004028
Probable space group: P -1
;
_chemical_formula_sum "Si O2"
_cell_formula_units_Z 16
_cell_length_a 7.769901
_cell_length_b 13.090888
_cell_length_c 11.790717
_cell_angle_alpha 136.201090
_cell_angle_beta 89.916563
_cell_angle_gamma 111.877478
_cell_volume 700.304617
_symmetry_space_group_name_H-M "P -1"
_symmetry_group_IT_number 2
_symmetry_cell_setting 'triclinic'
loop_
_space_group_symop_operation_xyz
x,y,z
-x,-y,-z
loop_
_atom_site_type_symbol
_atom_site_label
_atom_site_fract_x
_atom_site_fract_y
_atom_site_fract_z
Si Si1 0.672895 0.042240 0.443110
Si Si2 0.061570 0.173908 0.253228
Si Si3 0.931303 0.299491 0.835090
Si Si4 0.208491 0.545405 0.602350
Si Si5 0.662840 0.691676 0.104163
Si Si6 0.135497 0.196627 0.019280
Si Si7 0.626908 0.119154 0.247089
Si Si8 0.774097 0.241036 0.026329
O O1 0.668586 0.861938 0.285744
O O2 0.500000 0.000000 0.500000
O O3 0.862415 0.204662 0.638533
O O4 0.655358 0.111058 0.375789
O O5 0.198675 0.365312 0.457661
O O6 0.163018 0.179469 0.137918
O O7 0.830533 0.134268 0.208011
O O8 0.013301 0.003355 0.185205
O O9 0.763892 0.226364 0.878137
O O10 0.118752 0.282385 0.854892
O O11 0.000000 0.500000 0.000000
O O12 0.372322 0.712806 0.662818
O O13 0.000000 0.500000 0.500000
O O14 0.224295 0.608997 0.781906
O O15 0.500000 0.500000 0.000000
O O16 0.663312 0.705180 0.977637
O O17 0.997589 0.278017 0.081553
O O18 0.416936 0.941209 0.075712
#
# Coordination Sequence:
#
# PCOD9004028 Si02
#       8
#     2   2   2   2   2   2   2   2
#     4  12  24  45  67  97 132 179 228 272 339 392
#     4  10  21  39  66  93 128 171 211 265 335 390
#     4  11  26  42  68  97 135 177 226 274 333 399
#     4  10  21  37  63  96 121 170 214 261 317 387
#     4  11  25  44  68  97 133 178 226 281 330 398
#     4  10  21  40  66  92 132 167 212 268 337 385
#     4  11  22  39  69  91 131 169 215 268 323 394
#     4  11  22  40  64  94 130 168 218 267 325 392
#
# _framework density 22.847200000000001
#
# number of rings (size 3 to 8) (size 9 to 14) (size 15 to 20)
#    0.000    1.250    5.000    1.500    3.500    1.000 
#    0.000    0.625    0.000    0.000    0.000    0.000 
#    0.000    0.000    0.000    0.000    0.000    0.000 
#
# Total GULP energy -89271.428989 kJ/mol
# GULP energy per Si atom -5579.464312 kJ/mol
# Density = 2.279520 g / cm^3
# Si number density = 22.847200 Si / 1000 Ang^3
#
#
#
# Elastic Constant Matrix: (Units=GPa)
#
#
# Indices 1 2 3 4 5 6 
#
# 1 54.4766 24.3233 38.4419 -4.9156 -17.8082 2.8746
# 2 24.3233 148.6703 71.5655 1.1200 -25.9270 25.0100
# 3 38.4419 71.5655 157.3658 6.9430 -26.7481 9.4741
# 4 -4.9156 1.1200 6.9430 43.0440 -7.5767 -3.1895
# 5 -17.8082 -25.9270 -26.7481 -7.5767 37.7202 1.1740
# 6 2.8746 25.0100 9.4741 -3.1895 1.1740 31.5802
#
#
#
# Elastic Compliance Matrix: (Units=1/GPa)
#
#
# Indices 1 2 3 4 5 6 
#
# 1 0.025402 -0.000152 -0.004695 0.005315 0.009645 -0.000605
# 2 -0.000152 0.010556 -0.003482 0.000611 0.005069 -0.007428
# 3 -0.004695 -0.003482 0.009449 -0.001652 0.001755 0.000118
# 4 0.005315 0.000611 -0.001652 0.025424 0.006808 0.001842
# 5 0.009645 0.005069 0.001755 0.006808 0.037352 -0.006120
# 6 -0.000605 -0.007428 0.000118 0.001842 -0.006120 0.037982
#
#
# Mechanical properties :
#
#
# Convention : Reuss Voigt Hill
#
# Bulk Modulus (GPa) = 34.78259 69.90825 52.34542
# Shear Modulus (GPa) = 29.00147 37.54765 33.27456
#
# Velocity S-wave (km/s) = 3.56668 4.05832 3.82042
# Velocity P-wave (km/s) = 5.67615 7.25427 6.51319
#
# Compressibility (1/GPa) = 0.02875001
#
# Stress axis : x y z
#
# Youngs Moduli (GPa) = 39.36726 94.73124 105.83161
#
# Poissons Ratio (x) = 0.01442 0.49684
# Poissons Ratio (y) = 0.00599 0.36847
# Poissons Ratio (z) = 0.18482 0.32982
#
# Static dielectric constant tensor:
#      x y z
#    x 1.892030 -0.009250 0.046910 
#    y -0.009250 1.959290 0.011850 
#    z 0.046910 0.011850 1.960330 
# 
# From -- ./inp_files/399798.got.cif
#   From: 2010.05.17/outbox.cif.g08.bks.cpg/sg2_200_cif.got.tgz:399798.got - 2010.06.03 11:33:40.
