data_PCOD9004828
_publ_section_title
;
Structure prediction by ZEFSAII (Michael W. Deem and Ramdas Pophale) SiO2 
 PCOD9004828
Probable space group: P -1
;
_chemical_formula_sum "Si O2"
_cell_formula_units_Z 14
_cell_length_a 15.738238
_cell_length_b 15.156256
_cell_length_c 9.644935
_cell_angle_alpha 109.086349
_cell_angle_beta 132.119881
_cell_angle_gamma 29.887968
_cell_volume 616.678345
_symmetry_space_group_name_H-M "P -1"
_symmetry_group_IT_number 2
_symmetry_cell_setting 'triclinic'
loop_
_space_group_symop_operation_xyz
x,y,z
-x,-y,-z
loop_
_atom_site_type_symbol
_atom_site_label
_atom_site_fract_x
_atom_site_fract_y
_atom_site_fract_z
Si Si1 0.319533 0.781103 0.437926
Si Si2 0.553837 0.742470 0.187670
Si Si3 0.753566 0.544689 0.993970
Si Si4 0.697641 0.757835 0.607013
Si Si5 0.112368 0.751748 0.336546
Si Si6 0.143837 0.090357 0.304965
Si Si7 0.277943 0.588889 0.741097
O O1 0.147552 0.826777 0.345569
O O2 0.612641 0.517822 0.552193
O O3 0.128900 0.989566 0.233394
O O4 0.455152 0.745027 0.688179
O O5 0.684253 0.633883 0.119125
O O6 0.714825 0.688765 0.445362
O O7 0.560275 0.633327 0.203649
O O8 0.216488 0.034403 0.953447
O O9 0.970632 0.454583 0.108400
O O10 0.935783 0.308884 0.088637
O O11 0.500000 0.000000 0.500000
O O12 0.489213 0.855282 0.532260
O O13 0.154050 0.721336 0.530616
O O14 0.998393 0.223226 0.361766
O O15 0.500000 0.500000 0.000000
#
# Coordination Sequence:
#
# PCOD9004828 Si02
#       7
#     2   2   2   2   2   2   2
#     4  11  23  39  61  89 122 160 202 249 302 361
#     4  11  22  39  64  91 123 159 200 250 303 359
#     4  10  22  40  62  87 119 159 203 250 300 353
#     4  10  21  40  63  87 121 162 204 249 298 354
#     4  11  23  38  60  91 123 158 200 248 305 363
#     4  10  21  38  59  85 117 156 200 243 296 352
#     4  11  23  39  62  92 126 160 198 247 303 363
#
# _framework density 22.702275
#
# number of rings (size 3 to 8) (size 9 to 14) (size 15 to 20)
#    0.000    1.429    0.000    6.429    0.000    3.429 
#    0.000    7.857    0.000   12.000    0.000    0.000 
#    0.000    0.000    0.000    0.000    0.000    0.000 
#
# Total GULP energy -78223.869592 kJ/mol
# GULP energy per Si atom -5587.419257 kJ/mol
# Density = 2.265060 g / cm^3
# Si number density = 22.702275 Si / 1000 Ang^3
#
#
#
# Elastic Constant Matrix: (Units=GPa)
#
#
# Indices 1 2 3 4 5 6 
#
# 1 75.6701 23.3481 -8.1411 2.3095 -11.0547 -11.8714
# 2 23.3481 61.8110 15.8291 14.3629 4.3814 -8.9828
# 3 -8.1411 15.8291 54.4113 1.7095 -0.9317 1.2228
# 4 2.3095 14.3629 1.7095 29.5756 3.2489 6.8625
# 5 -11.0547 4.3814 -0.9317 3.2489 13.2952 -1.4180
# 6 -11.8714 -8.9828 1.2228 6.8625 -1.4180 40.5853
#
#
#
# Elastic Compliance Matrix: (Units=1/GPa)
#
#
# Indices 1 2 3 4 5 6 
#
# 1 0.021053 -0.010417 0.006469 -0.000416 0.021973 0.004496
# 2 -0.010417 0.026799 -0.009365 -0.011063 -0.014964 0.004515
# 3 0.006469 -0.009365 0.022191 0.001916 0.009462 -0.000843
# 4 -0.000416 -0.011063 0.001916 0.042318 -0.007980 -0.010062
# 5 0.021973 -0.014964 0.009462 -0.007980 0.101855 0.007738
# 6 0.004496 0.004515 -0.000843 -0.010062 0.007738 0.028951
#
#
# Mechanical properties :
#
#
# Convention : Reuss Voigt Hill
#
# Bulk Modulus (GPa) = 23.03183 28.21831 25.62507
# Shear Modulus (GPa) = 17.58919 27.41495 22.50207
#
# Velocity S-wave (km/s) = 2.78650 3.47880 3.15172
# Velocity P-wave (km/s) = 4.52990 5.34722 4.95544
#
# Compressibility (1/GPa) = 0.04341817
#
# Stress axis : x y z
#
# Youngs Moduli (GPa) = 47.49846 37.31510 45.06231
#
# Poissons Ratio (x) = 0.38869 -0.29149
# Poissons Ratio (y) = 0.49477 0.42200
# Poissons Ratio (z) = -0.30725 0.34945
#
# Static dielectric constant tensor:
#      x y z
#    x 1.867120 -0.010220 0.000360 
#    y -0.010220 1.872920 0.010810 
#    z 0.000360 0.010810 1.832000 
# 
# From -- ./inp_files/187203.got.cif
#   From: 2010.05.17/outbox.cif.g08.bks.cpg/sg2_94_cif.got.tgz:187203.got - 2010.06.03 11:33:40.
