data_PCOD9004284
_publ_section_title
;
Structure prediction by ZEFSAII (Michael W. Deem and Ramdas Pophale) SiO2 
 PCOD9004284
Probable space group: P -1
;
_chemical_formula_sum "Si O2"
_cell_formula_units_Z 16
_cell_length_a 14.323479
_cell_length_b 9.116443
_cell_length_c 15.555270
_cell_angle_alpha 102.463985
_cell_angle_beta 47.933037
_cell_angle_gamma 141.517520
_cell_volume 698.144930
_symmetry_space_group_name_H-M "P -1"
_symmetry_group_IT_number 2
_symmetry_cell_setting 'triclinic'
loop_
_space_group_symop_operation_xyz
x,y,z
-x,-y,-z
loop_
_atom_site_type_symbol
_atom_site_label
_atom_site_fract_x
_atom_site_fract_y
_atom_site_fract_z
Si Si1 0.772114 0.196489 0.539288
Si Si2 0.919767 0.745767 0.037716
Si Si3 0.074584 0.601233 0.242781
Si Si4 0.832919 0.785827 0.351405
Si Si5 0.191934 0.534305 0.774632
Si Si6 0.120319 0.327679 0.132303
Si Si7 0.316526 0.169917 0.200956
Si Si8 0.333250 0.228266 0.386659
O O1 0.838201 0.326947 0.420911
O O2 0.000000 0.500000 0.500000
O O3 0.451573 0.884578 0.701986
O O4 0.816658 0.066265 0.512305
O O5 0.008728 0.740052 0.062919
O O6 0.614867 0.452871 0.214770
O O7 0.973463 0.723899 0.911705
O O8 0.000000 0.000000 0.000000
O O9 0.959467 0.531202 0.213046
O O10 0.202616 0.570151 0.156781
O O11 0.250948 0.922408 0.212316
O O12 0.712248 0.517341 0.341298
O O13 0.673391 0.653477 0.520698
O O14 0.900774 0.998886 0.275580
O O15 0.121382 0.035639 0.235796
O O16 0.379978 0.500151 0.974145
O O17 0.241891 0.166862 0.338107
#
# Coordination Sequence:
#
# PCOD9004284 Si02
#       8
#     2   2   2   2   2   2   2   2
#     4  11  21  40  66  91 131 171 208 265 326 380
#     4  10  21  40  61  88 131 162 202 269 330 373
#     4  11  22  40  64  92 129 171 223 259 309 389
#     4  11  21  39  65  96 128 164 223 268 314 383
#     4  10  24  40  64  95 130 165 214 270 320 372
#     4  11  22  38  65  90 125 176 218 258 326 381
#     4  10  22  39  60  93 136 169 209 271 321 375
#     4  10  21  37  65  93 125 170 214 257 323 383
#
# _framework density 22.917877000000001
#
# number of rings (size 3 to 8) (size 9 to 14) (size 15 to 20)
#    0.000    1.500    3.750    1.500    0.000    3.500 
#    0.000    0.000    2.750    0.000    0.000    0.000 
#    0.000    0.000    0.000    0.000    0.000    0.000 
#
# Total GULP energy -89125.303138 kJ/mol
# GULP energy per Si atom -5570.331446 kJ/mol
# Density = 2.286571 g / cm^3
# Si number density = 22.917877 Si / 1000 Ang^3
#
#
#
# Elastic Constant Matrix: (Units=GPa)
#
#
# Indices 1 2 3 4 5 6 
#
# 1 80.7270 10.7044 25.7336 -5.0860 24.0524 14.5015
# 2 10.7044 85.0558 31.5512 9.7606 7.3279 3.4895
# 3 25.7336 31.5512 83.1956 0.5562 21.4786 -3.3383
# 4 -5.0860 9.7606 0.5562 33.0095 -3.4811 0.1785
# 5 24.0524 7.3279 21.4786 -3.4811 37.1479 -0.9942
# 6 14.5015 3.4895 -3.3383 0.1785 -0.9942 30.0244
#
#
#
# Elastic Compliance Matrix: (Units=1/GPa)
#
#
# Indices 1 2 3 4 5 6 
#
# 1 0.018288 0.000030 -0.003509 0.001876 -0.009898 -0.009565
# 2 0.000030 0.014371 -0.005489 -0.004154 -0.000131 -0.002275
# 3 -0.003509 -0.005489 0.016986 0.000105 -0.006349 0.004010
# 4 0.001876 -0.004154 0.000105 0.032080 0.002536 -0.000518
# 5 -0.009898 -0.000131 -0.006349 0.002536 0.037405 0.005313
# 6 -0.009565 -0.002275 0.004010 -0.000518 0.005313 0.038815
#
#
# Mechanical properties :
#
#
# Convention : Reuss Voigt Hill
#
# Bulk Modulus (GPa) = 31.53712 42.77298 37.15505
# Shear Modulus (GPa) = 26.81679 32.10231 29.45955
#
# Velocity S-wave (km/s) = 3.42442 3.74673 3.58919
# Velocity P-wave (km/s) = 5.42461 6.11730 5.78134
#
# Compressibility (1/GPa) = 0.03170866
#
# Stress axis : x y z
#
# Youngs Moduli (GPa) = 54.68193 69.58682 58.87083
#
# Poissons Ratio (x) = -0.00209 0.20658
# Poissons Ratio (y) = -0.00164 0.32314
# Poissons Ratio (z) = 0.19188 0.38196
#
# Static dielectric constant tensor:
#      x y z
#    x 2.024910 -0.003650 -0.081040 
#    y -0.003650 1.969870 0.080590 
#    z -0.081040 0.080590 2.023440 
# 
# From -- ./inp_files/306619.got.cif
#   From: 2010.05.17/outbox.cif.g08.bks.cpg/sg2_154_cif.got.tgz:306619.got - 2010.06.03 11:33:40.
