data_PCOD9004517
_publ_section_title
;
Structure prediction by ZEFSAII (Michael W. Deem and Ramdas Pophale) SiO2 
 PCOD9004517
Probable space group: P -1
;
_chemical_formula_sum "Si O2"
_cell_formula_units_Z 14
_cell_length_a 12.673653
_cell_length_b 11.618196
_cell_length_c 9.028619
_cell_angle_alpha 143.915935
_cell_angle_beta 89.052213
_cell_angle_gamma 111.000194
_cell_volume 634.462168
_symmetry_space_group_name_H-M "P -1"
_symmetry_group_IT_number 2
_symmetry_cell_setting 'triclinic'
loop_
_space_group_symop_operation_xyz
x,y,z
-x,-y,-z
loop_
_atom_site_type_symbol
_atom_site_label
_atom_site_fract_x
_atom_site_fract_y
_atom_site_fract_z
Si Si1 0.542662 0.289687 0.453930
Si Si2 0.381908 0.723031 0.871636
Si Si3 0.391957 0.410052 0.784455
Si Si4 0.846186 0.284233 0.284479
Si Si5 0.125988 0.238140 0.674916
Si Si6 0.816971 0.481725 0.765617
Si Si7 0.945541 0.026057 0.879646
O O1 0.569974 0.356203 0.349764
O O2 0.437859 0.313109 0.556250
O O3 0.681268 0.442575 0.693362
O O4 0.485220 0.009837 0.179249
O O5 0.380291 0.605213 0.902870
O O6 0.247633 0.673022 0.761181
O O7 0.251137 0.231777 0.676539
O O8 0.500000 0.500000 0.000000
O O9 0.810620 0.277452 0.452966
O O10 0.000000 0.500000 0.500000
O O11 0.837624 0.064573 0.976921
O O12 0.099399 0.198151 0.458774
O O13 0.156769 0.468328 0.006735
O O14 0.000000 0.000000 0.500000
O O15 0.937796 0.731553 0.952017
O O16 0.000000 0.000000 0.000000
#
# Coordination Sequence:
#
# PCOD9004517 Si02
#       7
#     2   2   2   2   2   2   2
#     4  10  21  43  63  98 134 174 230 279 336 406
#     4  10  23  41  67  98 135 176 228 284 334 405
#     4  12  24  41  71  97 134 183 226 275 342 404
#     4   9  19  38  63  89 128 169 223 274 331 396
#     4  10  22  41  62  93 137 174 217 281 336 399
#     4   9  19  40  60  88 138 167 219 280 332 405
#     4  10  21  37  68  97 123 173 231 279 335 405
#
# _framework density 22.065933999999999
#
# number of rings (size 3 to 8) (size 9 to 14) (size 15 to 20)
#    0.000    2.000    1.429    1.286    6.000    0.571 
#    7.714    0.714    6.286    0.000    0.000    0.000 
#    0.000    0.000    0.000    0.000    0.000    0.000 
#
# Total GULP energy -78013.780429 kJ/mol
# GULP energy per Si atom -5572.412888 kJ/mol
# Density = 2.201571 g / cm^3
# Si number density = 22.065934 Si / 1000 Ang^3
#
#
#
# Elastic Constant Matrix: (Units=GPa)
#
#
# Indices 1 2 3 4 5 6 
#
# 1 132.9064 46.4115 43.2449 -15.6884 3.0625 26.2287
# 2 46.4115 69.8423 56.1753 -29.2665 -4.5613 2.7425
# 3 43.2449 56.1753 116.4028 -43.1260 4.5953 -0.2119
# 4 -15.6884 -29.2665 -43.1260 34.2177 6.1574 3.7304
# 5 3.0625 -4.5613 4.5953 6.1574 37.6472 -7.3844
# 6 26.2287 2.7425 -0.2119 3.7304 -7.3844 32.6776
#
#
#
# Elastic Compliance Matrix: (Units=1/GPa)
#
#
# Indices 1 2 3 4 5 6 
#
# 1 0.012549 -0.007411 -0.000931 0.000060 -0.003841 -0.010332
# 2 -0.007411 0.030651 -0.007689 0.012134 0.003820 0.002804
# 3 -0.000931 -0.007689 0.020457 0.020329 -0.007151 -0.002412
# 4 0.000060 0.012134 0.020329 0.069228 -0.014725 -0.012165
# 5 -0.003841 0.003820 -0.007151 -0.014725 0.032942 0.011841
# 6 -0.010332 0.002804 -0.002412 -0.012165 0.011841 0.042708
#
#
# Mechanical properties :
#
#
# Convention : Reuss Voigt Hill
#
# Bulk Modulus (GPa) = 31.64927 67.86831 49.75879
# Shear Modulus (GPa) = 19.91010 32.46315 26.18662
#
# Velocity S-wave (km/s) = 3.00709 3.83977 3.44865
# Velocity P-wave (km/s) = 5.14111 7.10509 6.20134
#
# Compressibility (1/GPa) = 0.03159630
#
# Stress axis : x y z
#
# Youngs Moduli (GPa) = 79.68547 32.62548 48.88289
#
# Poissons Ratio (x) = 0.24178 0.04550
# Poissons Ratio (y) = 0.59053 0.37585
# Poissons Ratio (z) = 0.07418 0.25085
#
# Static dielectric constant tensor:
#      x y z
#    x 1.858600 0.029420 -0.043260 
#    y 0.029420 1.846580 -0.020260 
#    z -0.043260 -0.020260 1.909640 
# 
# From -- ./inp_files/261052.got.cif
#   From: 2010.05.17/outbox.cif.g08.bks.cpg/sg2_131_cif.got.tgz:261052.got - 2010.06.03 11:33:40.
