data_PCOD9004271
_publ_section_title
;
Structure prediction by ZEFSAII (Michael W. Deem and Ramdas Pophale) SiO2 
 PCOD9004271
Probable space group: P -1
;
_chemical_formula_sum "Si O2"
_cell_formula_units_Z 16
_cell_length_a 9.348859
_cell_length_b 11.402149
_cell_length_c 11.764730
_cell_angle_alpha 49.813152
_cell_angle_beta 55.568499
_cell_angle_gamma 64.147274
_cell_volume 785.142086
_symmetry_space_group_name_H-M "P -1"
_symmetry_group_IT_number 2
_symmetry_cell_setting 'triclinic'
loop_
_space_group_symop_operation_xyz
x,y,z
-x,-y,-z
loop_
_atom_site_type_symbol
_atom_site_label
_atom_site_fract_x
_atom_site_fract_y
_atom_site_fract_z
Si Si1 0.009854 0.669051 0.343064
Si Si2 0.103032 0.869664 0.801325
Si Si3 0.387922 0.276886 0.159715
Si Si4 0.766281 0.382699 0.947982
Si Si5 0.274245 0.088991 0.763910
Si Si6 0.579555 0.119839 0.968951
Si Si7 0.321831 0.936023 0.447776
Si Si8 0.846425 0.131207 0.672384
O O1 0.846980 0.750395 0.292242
O O2 0.000000 0.500000 0.500000
O O3 0.164891 0.658666 0.184582
O O4 0.013804 0.768002 0.397298
O O5 0.235283 0.868705 0.637484
O O6 0.180504 0.976616 0.794268
O O7 0.103741 0.705591 0.963863
O O8 0.921079 0.957253 0.784465
O O9 0.262547 0.433699 0.134865
O O10 0.316335 0.123908 0.338479
O O11 0.577951 0.317502 0.093415
O O12 0.438940 0.224676 0.040481
O O13 0.471375 0.112624 0.625861
O O14 0.297767 0.988977 0.931386
O O15 0.685925 0.203726 0.776553
O O16 0.500000 0.000000 0.000000
O O17 0.216610 0.882545 0.418946
#
# Coordination Sequence:
#
# PCOD9004271 Si02
#       8
#     2   2   2   2   2   2   2   2
#     4  11  25  42  63  93 128 166 207 267 316 372
#     4  11  22  38  63  94 128 165 211 264 299 383
#     4  10  22  36  64  94 123 163 204 255 313 373
#     4  11  22  39  61  95 126 160 209 258 318 364
#     4  10  21  37  65  92 116 169 215 251 304 375
#     4  11  18  39  66  93 121 156 213 263 307 364
#     4  11  22  41  64  94 124 165 213 259 314 369
#     4  11  22  39  66  89 124 167 212 260 314 372
#
# _framework density 20.378477
#
# number of rings (size 3 to 8) (size 9 to 14) (size 15 to 20)
#    0.000    1.250    6.250    1.500    3.500    3.000 
#    0.000    2.500    0.000    0.000    0.000    0.000 
#    0.000    0.000    0.000    0.000    0.000    0.000 
#
# Total GULP energy -89121.586094 kJ/mol
# GULP energy per Si atom -5570.099131 kJ/mol
# Density = 2.033210 g / cm^3
# Si number density = 20.378477 Si / 1000 Ang^3
#
#
#
# Elastic Constant Matrix: (Units=GPa)
#
#
# Indices 1 2 3 4 5 6 
#
# 1 68.9657 23.9056 3.1516 -5.3723 19.7737 7.4879
# 2 23.9056 100.9254 22.7187 -22.6077 10.0979 -6.0312
# 3 3.1516 22.7187 82.9461 -2.2618 10.7726 0.6933
# 4 -5.3723 -22.6077 -2.2618 31.5308 -2.0933 3.2360
# 5 19.7737 10.0979 10.7726 -2.0933 21.6404 4.6903
# 6 7.4879 -6.0312 0.6933 3.2360 4.6903 25.5771
#
#
#
# Elastic Compliance Matrix: (Units=1/GPa)
#
#
# Indices 1 2 3 4 5 6 
#
# 1 0.021439 -0.004080 0.002697 0.000127 -0.018149 -0.003999
# 2 -0.004080 0.013860 -0.003300 0.008559 -0.001063 0.003664
# 3 0.002697 -0.003300 0.013846 -0.001404 -0.007883 -0.000320
# 4 0.000127 0.008559 -0.001404 0.038140 0.000924 -0.002975
# 5 -0.018149 -0.001063 -0.007883 0.000924 0.068924 -0.007480
# 6 -0.003999 0.003664 -0.000320 -0.002975 -0.007480 0.042889
#
#
# Mechanical properties :
#
#
# Convention : Reuss Voigt Hill
#
# Bulk Modulus (GPa) = 25.13977 39.15431 32.14704
# Shear Modulus (GPa) = 22.55063 29.28709 25.91886
#
# Velocity S-wave (km/s) = 3.33015 3.79510 3.57020
# Velocity P-wave (km/s) = 5.21055 6.20153 5.72751
#
# Compressibility (1/GPa) = 0.03977761
#
# Stress axis : x y z
#
# Youngs Moduli (GPa) = 46.64473 72.14865 72.22446
#
# Poissons Ratio (x) = 0.29436 -0.19478
# Poissons Ratio (y) = 0.19031 0.23837
# Poissons Ratio (z) = -0.12579 0.23812
#
# Static dielectric constant tensor:
#      x y z
#    x 2.015640 -0.002170 -0.152500 
#    y -0.002170 1.758010 0.003420 
#    z -0.152500 0.003420 1.801990 
# 
# From -- ./inp_files/279378.got.cif
#   From: 2010.05.17/outbox.cif.g08.bks.cpg/sg2_140_cif.got.tgz:279378.got - 2010.06.03 11:33:40.
