data_PCOD9004931
_publ_section_title
;
Structure prediction by ZEFSAII (Michael W. Deem and Ramdas Pophale) SiO2 
 PCOD9004931
Probable space group: P -1
;
_chemical_formula_sum "Si O2"
_cell_formula_units_Z 16
_cell_length_a 13.063415
_cell_length_b 21.830185
_cell_length_c 6.867995
_cell_angle_alpha 58.814770
_cell_angle_beta 61.748315
_cell_angle_gamma 30.325205
_cell_volume 844.428239
_symmetry_space_group_name_H-M "P -1"
_symmetry_group_IT_number 2
_symmetry_cell_setting 'triclinic'
loop_
_space_group_symop_operation_xyz
x,y,z
-x,-y,-z
loop_
_atom_site_type_symbol
_atom_site_label
_atom_site_fract_x
_atom_site_fract_y
_atom_site_fract_z
Si Si1 0.061654 0.179735 0.009303
Si Si2 0.981152 0.964917 0.773271
Si Si3 0.603321 0.558122 0.324790
Si Si4 0.963043 0.699736 0.520248
Si Si5 0.533952 0.867732 0.656624
Si Si6 0.317159 0.103399 0.233883
Si Si7 0.365958 0.581430 0.794935
Si Si8 0.331076 0.819877 0.984197
O O1 0.090590 0.080634 0.114771
O O2 0.251657 0.120689 0.045983
O O3 0.860069 0.288747 0.142443
O O4 0.020854 0.245849 0.742799
O O5 0.196656 0.854675 0.874119
O O6 0.000000 0.000000 0.500000
O O7 0.823801 0.085222 0.857063
O O8 0.828434 0.447098 0.395667
O O9 0.456408 0.600067 0.553610
O O10 0.618228 0.494590 0.237423
O O11 0.507111 0.678802 0.131324
O O12 0.768107 0.748403 0.571634
O O13 0.889889 0.774915 0.660843
O O14 0.546075 0.899012 0.809960
O O15 0.426700 0.846632 0.789597
O O16 0.415937 0.983475 0.437513
O O17 0.500000 0.500000 0.000000
#
# Coordination Sequence:
#
# PCOD9004931 Si02
#       8
#     2   2   2   2   2   2   2   2
#     4  12  21  37  68  90 120 153 205 263 299 351
#     4  11  25  41  62  93 123 162 197 252 312 359
#     4  11  23  37  61  88 123 165 197 248 300 368
#     4  10  21  38  59  93 115 159 203 246 306 344
#     4   9  20  42  62  86 122 162 201 251 298 358
#     4   9  20  39  61  91 119 149 211 253 293 350
#     4  11  21  36  59  90 121 156 205 247 299 354
#     4  11  24  43  61  88 131 161 199 242 308 371
#
# _framework density 18.947731000000001
#
# number of rings (size 3 to 8) (size 9 to 14) (size 15 to 20)
#    0.750    0.750    2.500    3.000    1.750    3.000 
#    2.250    0.000    0.000    1.500    0.000    0.000 
#    0.000    0.000    0.000    0.000    0.000    0.000 
#
# Total GULP energy -89278.280937 kJ/mol
# GULP energy per Si atom -5579.892559 kJ/mol
# Density = 1.890461 g / cm^3
# Si number density = 18.947731 Si / 1000 Ang^3
#
#
#
# Elastic Constant Matrix: (Units=GPa)
#
#
# Indices 1 2 3 4 5 6 
#
# 1 56.4181 0.5531 11.2319 -7.4467 -1.5933 -2.9036
# 2 0.5531 51.3999 11.7952 -13.6655 -3.0961 -9.5969
# 3 11.2319 11.7952 56.5136 -5.1826 2.6088 1.2750
# 4 -7.4467 -13.6655 -5.1826 37.4058 -3.6742 2.7393
# 5 -1.5933 -3.0961 2.6088 -3.6742 30.0111 2.8930
# 6 -2.9036 -9.5969 1.2750 2.7393 2.8930 21.6073
#
#
#
# Elastic Compliance Matrix: (Units=1/GPa)
#
#
# Indices 1 2 3 4 5 6 
#
# 1 0.019289 0.002554 -0.004144 0.004146 0.001847 0.003198
# 2 0.002554 0.025015 -0.005332 0.008474 0.003228 0.010262
# 3 -0.004144 -0.005332 0.019819 0.000044 -0.002120 -0.003816
# 4 0.004146 0.008474 0.000044 0.031167 0.004935 -0.000294
# 5 0.001847 0.003228 -0.002120 0.004935 0.034877 -0.003488
# 6 0.003198 0.010262 -0.003816 -0.000294 -0.003488 0.051998
#
#
# Mechanical properties :
#
#
# Convention : Reuss Voigt Hill
#
# Bulk Modulus (GPa) = 19.88893 23.49913 21.69403
# Shear Modulus (GPa) = 23.49978 27.18824 25.34401
#
# Velocity S-wave (km/s) = 3.52553 3.79213 3.66125
# Velocity P-wave (km/s) = 5.20500 5.62162 5.41732
#
# Compressibility (1/GPa) = 0.05027922
#
# Stress axis : x y z
#
# Youngs Moduli (GPa) = 51.84365 39.97646 50.45583
#
# Poissons Ratio (x) = -0.10210 0.20908
# Poissons Ratio (y) = -0.13241 0.26903
# Poissons Ratio (z) = 0.21483 0.21315
#
# Static dielectric constant tensor:
#      x y z
#    x 1.665290 -0.027550 0.033770 
#    y -0.027550 1.679220 0.009740 
#    z 0.033770 0.009740 1.644280 
# 
# From -- ./inp_files/100828.got.cif
#   From: 2010.05.17/outbox.cif.g08.bks.cpg/sg2_51_cif.got.tgz:100828.got - 2010.06.03 11:33:40.
