data_PCOD9004922
_publ_section_title
;
Structure prediction by ZEFSAII (Michael W. Deem and Ramdas Pophale) SiO2 
 PCOD9004922
Probable space group: P -1
;
_chemical_formula_sum "Si O2"
_cell_formula_units_Z 12
_cell_length_a 8.336908
_cell_length_b 6.799629
_cell_length_c 14.797970
_cell_angle_alpha 100.178249
_cell_angle_beta 58.041802
_cell_angle_gamma 126.202328
_cell_volume 562.883899
_symmetry_space_group_name_H-M "P -1"
_symmetry_group_IT_number 2
_symmetry_cell_setting 'triclinic'
loop_
_space_group_symop_operation_xyz
x,y,z
-x,-y,-z
loop_
_atom_site_type_symbol
_atom_site_label
_atom_site_fract_x
_atom_site_fract_y
_atom_site_fract_z
Si Si1 0.946322 0.696178 0.003341
Si Si2 0.738899 0.026628 0.916354
Si Si3 0.582360 0.555964 0.806604
Si Si4 0.134028 0.277083 0.442982
Si Si5 0.066039 0.481786 0.199828
Si Si6 0.256491 0.728484 0.555305
O O1 0.695149 0.605172 0.109287
O O2 0.144569 0.940670 0.018551
O O3 0.951366 0.679333 0.892742
O O4 0.000000 0.500000 0.000000
O O5 0.684364 0.798327 0.857061
O O6 0.902583 0.277398 0.829701
O O7 0.500000 0.000000 0.000000
O O8 0.669332 0.643246 0.685454
O O9 0.706649 0.436848 0.801113
O O10 0.248487 0.496801 0.501067
O O11 0.931333 0.271363 0.450163
O O12 0.000000 0.000000 0.500000
O O13 0.842803 0.329048 0.318442
O O14 0.500000 0.000000 0.500000
#
# Coordination Sequence:
#
# PCOD9004922 Si02
#       6
#     2   2   2   2   2   2
#     4  10  21  38  59  91 119 160 205 248 315 373
#     4  11  22  39  60  90 125 162 205 257 316 374
#     4  11  22  40  62  90 128 161 208 258 314 377
#     4  10  23  42  66  95 127 168 215 265 316 374
#     4  10  22  41  61  90 128 159 209 262 308 377
#     4  10  23  44  64  94 129 168 215 262 317 374
#
# _framework density 21.318783
#
# number of rings (size 3 to 8) (size 9 to 14) (size 15 to 20)
#    0.000    1.667    3.333    1.500    0.000    6.667 
#    9.000    0.000    0.000    0.000    0.000    0.000 
#    0.000    0.000    0.000    0.000    0.000    0.000 
#
# Total GULP energy -67069.673919 kJ/mol
# GULP energy per Si atom -5589.139493 kJ/mol
# Density = 2.127026 g / cm^3
# Si number density = 21.318783 Si / 1000 Ang^3
#
#
#
# Elastic Constant Matrix: (Units=GPa)
#
#
# Indices 1 2 3 4 5 6 
#
# 1 68.3303 23.3484 61.5598 -5.9971 -7.3204 21.0072
# 2 23.3484 109.2584 52.0059 -5.5186 -5.5211 9.7199
# 3 61.5598 52.0059 186.1826 -4.8916 -8.4493 20.2151
# 4 -5.9971 -5.5186 -4.8916 34.0375 -2.3182 0.7329
# 5 -7.3204 -5.5211 -8.4493 -2.3182 28.2124 -10.9644
# 6 21.0072 9.7199 20.2151 0.7329 -10.9644 34.1164
#
#
#
# Elastic Compliance Matrix: (Units=1/GPa)
#
#
# Indices 1 2 3 4 5 6 
#
# 1 0.024583 -0.000964 -0.006565 0.003485 0.000248 -0.010968
# 2 -0.000964 0.010736 -0.002529 0.001286 0.000929 -0.000696
# 3 -0.006565 -0.002529 0.008254 -0.000364 0.000225 -0.000048
# 4 0.003485 0.001286 -0.000364 0.030380 0.002739 -0.002068
# 5 0.000248 0.000929 0.000225 0.002739 0.040849 0.012519
# 6 -0.010968 -0.000696 -0.000048 -0.002068 0.012519 0.040359
#
#
# Mechanical properties :
#
#
# Convention : Reuss Voigt Hill
#
# Bulk Modulus (GPa) = 42.63108 70.84439 56.73773
# Shear Modulus (GPa) = 27.30793 34.39707 30.85250
#
# Velocity S-wave (km/s) = 3.58289 4.02115 3.80833
# Velocity P-wave (km/s) = 6.09562 7.40693 6.78304
#
# Compressibility (1/GPa) = 0.02345707
#
# Stress axis : x y z
#
# Youngs Moduli (GPa) = 40.67814 93.14445 121.15389
#
# Poissons Ratio (x) = 0.08981 0.79542
# Poissons Ratio (y) = 0.03922 0.30635
# Poissons Ratio (z) = 0.26707 0.23552
#
# Static dielectric constant tensor:
#      x y z
#    x 1.843530 -0.050740 0.013000 
#    y -0.050740 1.811730 0.000730 
#    z 0.013000 0.000730 1.764290 
# 
# From -- ./inp_files/487747.got.cif
#   From: 2010.05.17/outbox.cif.g08.bks.cpg/sg2_244_cif.got.tgz:487747.got - 2010.06.03 11:33:40.
