data_PCOD9004443
_publ_section_title
;
Structure prediction by ZEFSAII (Michael W. Deem and Ramdas Pophale) SiO2 
 PCOD9004443
Probable space group: P -1
;
_chemical_formula_sum "Si O2"
_cell_formula_units_Z 12
_cell_length_a 7.190354
_cell_length_b 11.324278
_cell_length_c 9.365329
_cell_angle_alpha 56.740590
_cell_angle_beta 132.102381
_cell_angle_gamma 124.319497
_cell_volume 448.856404
_symmetry_space_group_name_H-M "P -1"
_symmetry_group_IT_number 2
_symmetry_cell_setting 'triclinic'
loop_
_space_group_symop_operation_xyz
x,y,z
-x,-y,-z
loop_
_atom_site_type_symbol
_atom_site_label
_atom_site_fract_x
_atom_site_fract_y
_atom_site_fract_z
Si Si1 0.710122 0.959528 0.451134
Si Si2 0.050439 0.013357 0.848049
Si Si3 0.461147 0.647484 0.625610
Si Si4 0.052409 0.709410 0.937507
Si Si5 0.678774 0.264508 0.216017
Si Si6 0.572707 0.661272 0.218080
O O1 0.585786 0.086076 0.261984
O O2 0.779697 0.980424 0.641254
O O3 0.537521 0.787752 0.464649
O O4 0.000000 0.000000 0.500000
O O5 0.227186 0.173262 0.772102
O O6 0.148487 0.877723 0.934578
O O7 0.000000 0.000000 0.000000
O O8 0.290730 0.684029 0.641165
O O9 0.345418 0.483106 0.611989
O O10 0.741470 0.650269 0.841979
O O11 0.066410 0.693419 0.782701
O O12 0.282446 0.643468 0.145486
O O13 0.481413 0.332105 0.985367
#
# Coordination Sequence:
#
# PCOD9004443 Si02
#       6
#     2   2   2   2   2   2
#     4  11  21  42  64  89 124 169 210 246 302 377
#     4  11  22  40  64  94 127 162 206 256 308 370
#     4  11  20  37  62  96 123 159 207 259 304 361
#     4   9  21  36  64  87 123 157 213 240 304 360
#     4  10  21  37  67  89 121 165 213 246 302 372
#     4  10  21  38  61  95 127 157 204 263 310 355
#
# _framework density 26.734607
#
# number of rings (size 3 to 8) (size 9 to 14) (size 15 to 20)
#    1.000    0.667    3.333    4.000    0.000    0.000 
#    0.000    1.667    0.000    4.000    0.000    0.000 
#    0.000    0.000    0.000    0.000    0.000    0.000 
#
# Total GULP energy -66979.146945 kJ/mol
# GULP energy per Si atom -5581.595579 kJ/mol
# Density = 2.667376 g / cm^3
# Si number density = 26.734607 Si / 1000 Ang^3
#
#
#
# Elastic Constant Matrix: (Units=GPa)
#
#
# Indices 1 2 3 4 5 6 
#
# 1 148.0550 53.9395 26.6064 -3.2048 -14.2139 -17.3961
# 2 53.9395 167.1969 51.0918 -59.4936 -2.0815 1.4568
# 3 26.6064 51.0918 79.9047 -25.4244 -13.0889 -2.6021
# 4 -3.2048 -59.4936 -25.4244 55.0909 -8.8968 -0.2948
# 5 -14.2139 -2.0815 -13.0889 -8.8968 29.2787 1.2510
# 6 -17.3961 1.4568 -2.6021 -0.2948 1.2510 34.1997
#
#
#
# Elastic Compliance Matrix: (Units=1/GPa)
#
#
# Indices 1 2 3 4 5 6 
#
# 1 0.009087 -0.003975 -0.001238 -0.003959 0.002176 0.004583
# 2 -0.003975 0.012467 -0.002543 0.012315 0.001677 -0.002701
# 3 -0.001238 -0.002543 0.018466 0.007267 0.009656 0.000593
# 4 -0.003959 0.012315 0.007267 0.036736 0.013457 -0.002161
# 5 0.002176 0.001677 0.009656 0.013457 0.043724 0.000287
# 6 0.004583 -0.002701 0.000593 -0.002161 0.000287 0.031702
#
#
# Mechanical properties :
#
#
# Convention : Reuss Voigt Hill
#
# Bulk Modulus (GPa) = 40.80238 73.15911 56.98074
# Shear Modulus (GPa) = 28.43141 41.28178 34.85659
#
# Velocity S-wave (km/s) = 3.26462 3.93381 3.61474
# Velocity P-wave (km/s) = 5.43190 6.93235 6.22748
#
# Compressibility (1/GPa) = 0.02450838
#
# Stress axis : x y z
#
# Youngs Moduli (GPa) = 110.05237 80.21462 54.15293
#
# Poissons Ratio (x) = 0.31883 0.06705
# Poissons Ratio (y) = 0.43743 0.13769
# Poissons Ratio (z) = 0.13626 0.20396
#
# Static dielectric constant tensor:
#      x y z
#    x 2.070380 0.033520 -0.026840 
#    y 0.033520 2.139760 -0.044360 
#    z -0.026840 -0.044360 2.148650 
# 
# From -- ./inp_files/144901.got.cif
#   From: 2010.05.17/outbox.cif.g08.bks.cpg/sg2_73_cif.got.tgz:144901.got - 2010.06.03 11:33:40.
