data_PCOD9004075
_publ_section_title
;
Structure prediction by ZEFSAII (Michael W. Deem and Ramdas Pophale) SiO2 
 PCOD9004075
Probable space group: P -1
;
_chemical_formula_sum "Si O2"
_cell_formula_units_Z 13
_cell_length_a 8.968958
_cell_length_b 22.833204
_cell_length_c 10.448552
_cell_angle_alpha 151.223937
_cell_angle_beta 137.433124
_cell_angle_gamma 28.806642
_cell_volume 491.723388
_symmetry_space_group_name_H-M "P -1"
_symmetry_group_IT_number 2
_symmetry_cell_setting 'triclinic'
loop_
_space_group_symop_operation_xyz
x,y,z
-x,-y,-z
loop_
_atom_site_type_symbol
_atom_site_label
_atom_site_fract_x
_atom_site_fract_y
_atom_site_fract_z
Si Si1 0.276929 0.650676 0.753746
Si Si2 0.365281 0.489605 0.767028
Si Si3 0.805439 0.676653 0.374255
Si Si4 0.752303 0.833009 0.114505
Si Si5 0.241822 0.848715 0.519550
Si Si6 0.500000 0.000000 0.000000
Si Si7 0.652570 0.733976 0.110600
O O1 0.500000 0.500000 0.500000
O O2 0.389247 0.556175 0.780046
O O3 0.362218 0.757770 0.994309
O O4 0.933440 0.725007 0.651767
O O5 0.567029 0.288376 0.505143
O O6 0.500000 0.500000 0.000000
O O7 0.999789 0.631269 0.839638
O O8 0.489326 0.745424 0.360627
O O9 0.057234 0.470695 0.127944
O O10 0.749680 0.753255 0.345366
O O11 0.948458 0.878410 0.362316
O O12 0.556730 0.936288 0.064301
O O13 0.603601 0.841680 0.167617
O O14 0.227746 0.997787 0.807107
#
# Coordination Sequence:
#
# PCOD9004075 Si02
#       7
#     2   2   2   2   2   1   2
#     4  10  22  34  57 101 141 161 199 266 337 400
#     4  10  21  39  70 100 128 167 217 280 330 377
#     4  10  21  37  64  98 136 162 207 272 338 385
#     4  11  24  42  69  96 129 170 222 273 326 390
#     4  11  24  42  67  95 129 172 221 272 324 388
#     4  12  28  42  62  90 136 180 224 262 320 390
#     4  10  21  37  64 104 133 162 206 278 346 381
#
# _framework density 26.437629000000001
#
# number of rings (size 3 to 8) (size 9 to 14) (size 15 to 20)
#    0.000    1.538    1.538    3.231   15.077    1.231 
#    0.000    0.769    0.000    7.385    0.000    0.000 
#    0.000    0.000    0.000    0.000    0.000    0.000 
#
# Total GULP energy -72601.629146 kJ/mol
# GULP energy per Si atom -5584.740704 kJ/mol
# Density = 2.637746 g / cm^3
# Si number density = 26.437629 Si / 1000 Ang^3
#
#
#
# Elastic Constant Matrix: (Units=GPa)
#
#
# Indices 1 2 3 4 5 6 
#
# 1 173.5171 79.1844 37.4793 -21.1259 17.5420 56.7090
# 2 79.1844 174.9210 37.2477 -31.8861 4.3228 54.2708
# 3 37.4793 37.2477 128.2136 -23.3254 18.4718 27.8690
# 4 -21.1259 -31.8861 -23.3254 41.9452 -0.2843 -15.5242
# 5 17.5420 4.3228 18.4718 -0.2843 38.1039 2.2482
# 6 56.7090 54.2708 27.8690 -15.5242 2.2482 61.9623
#
#
#
# Elastic Compliance Matrix: (Units=1/GPa)
#
#
# Indices 1 2 3 4 5 6 
#
# 1 0.009204 -0.001953 -0.000092 0.000721 -0.003590 -0.006360
# 2 -0.001953 0.008868 -0.000303 0.003774 0.000358 -0.004911
# 3 -0.000092 -0.000303 0.009960 0.004149 -0.004548 -0.002926
# 4 0.000721 0.003774 0.004149 0.030023 -0.002653 0.001787
# 5 -0.003590 0.000358 -0.004548 -0.002653 0.029848 0.003271
# 6 -0.006360 -0.004911 -0.002926 0.001787 0.003271 0.027906
#
#
# Mechanical properties :
#
#
# Convention : Reuss Voigt Hill
#
# Bulk Modulus (GPa) = 42.85174 87.16384 65.00779
# Shear Modulus (GPa) = 38.97544 49.91830 44.44687
#
# Velocity S-wave (km/s) = 3.84375 4.35000 4.10469
# Velocity P-wave (km/s) = 5.99525 7.63356 6.86346
#
# Compressibility (1/GPa) = 0.02333628
#
# Stress axis : x y z
#
# Youngs Moduli (GPa) = 108.64998 112.75932 100.39784
#
# Poissons Ratio (x) = 0.22026 0.00924
# Poissons Ratio (y) = 0.21223 0.03041
# Poissons Ratio (z) = 0.01000 0.03415
#
# Static dielectric constant tensor:
#      x y z
#    x 2.010990 -0.058270 -0.018770 
#    y -0.058270 2.052050 0.080910 
#    z -0.018770 0.080910 2.188360 
# 
# From -- ./inp_files/216205.got.cif
#   From: 2010.05.17/outbox.cif.g08.bks.cpg/sg2_109_cif.got.tgz:216205.got - 2010.06.03 11:33:40.
