data_PCOD9004692
_publ_section_title
;
Structure prediction by ZEFSAII (Michael W. Deem and Ramdas Pophale) SiO2 
 PCOD9004692
Probable space group: P -1
;
_chemical_formula_sum "Si O2"
_cell_formula_units_Z 14
_cell_length_a 19.962509
_cell_length_b 5.222207
_cell_length_c 12.375574
_cell_angle_alpha 63.893921
_cell_angle_beta 148.142644
_cell_angle_gamma 110.162174
_cell_volume 610.320202
_symmetry_space_group_name_H-M "P -1"
_symmetry_group_IT_number 2
_symmetry_cell_setting 'triclinic'
loop_
_space_group_symop_operation_xyz
x,y,z
-x,-y,-z
loop_
_atom_site_type_symbol
_atom_site_label
_atom_site_fract_x
_atom_site_fract_y
_atom_site_fract_z
Si Si1 0.507386 0.407082 0.386343
Si Si2 0.574120 0.373433 0.250276
Si Si3 0.148451 0.978764 0.172494
Si Si4 0.702074 0.973503 0.315975
Si Si5 0.134597 0.375109 0.255183
Si Si6 0.294806 0.971715 0.161831
Si Si7 0.641359 0.012685 0.985738
O O1 0.572898 0.273764 0.392237
O O2 0.612326 0.314020 0.636747
O O3 0.463444 0.731174 0.236484
O O4 0.383264 0.229116 0.264610
O O5 0.610808 0.703327 0.241572
O O6 0.649837 0.197786 0.292618
O O7 0.428658 0.283701 0.044826
O O8 0.189290 0.659354 0.324169
O O9 0.180104 0.988457 0.087507
O O10 0.203999 0.226633 0.274244
O O11 0.000000 0.000000 0.000000
O O12 0.840139 0.853044 0.573054
O O13 0.701339 0.074852 0.172535
O O14 0.000000 0.500000 0.000000
O O15 0.267094 0.996481 0.991951
#
# Coordination Sequence:
#
# PCOD9004692 Si02
#       7
#     2   2   2   2   2   2   2
#     4  10  21  38  57  91 129 173 200 251 303 380
#     4  11  23  38  58  90 128 169 210 245 297 376
#     4  10  22  42  68  91 113 154 213 274 313 355
#     4  12  23  37  62  89 127 170 207 253 307 371
#     4  10  22  41  64  92 114 149 210 273 313 351
#     4  10  22  37  59  90 128 165 209 250 312 375
#     4  11  24  36  58  89 138 169 204 240 315 380
#
# _framework density 22.938780000000001
#
# number of rings (size 3 to 8) (size 9 to 14) (size 15 to 20)
#    0.000    1.429    1.429    3.857    6.000    0.000 
#    0.000    0.000    0.000    6.857    0.000    0.000 
#    0.000    0.000    0.000    0.000    0.000    0.000 
#
# Total GULP energy -77987.983104 kJ/mol
# GULP energy per Si atom -5570.570222 kJ/mol
# Density = 2.288657 g / cm^3
# Si number density = 22.938780 Si / 1000 Ang^3
#
#
#
# Elastic Constant Matrix: (Units=GPa)
#
#
# Indices 1 2 3 4 5 6 
#
# 1 177.5831 28.9212 65.3470 -5.5049 -30.1037 -16.9017
# 2 28.9212 126.5222 11.5266 -19.8605 -2.1217 -24.5016
# 3 65.3470 11.5266 100.3432 -9.2123 -27.2661 -1.0020
# 4 -5.5049 -19.8605 -9.2123 24.4205 -2.6317 1.4595
# 5 -30.1037 -2.1217 -27.2661 -2.6317 43.3395 10.4532
# 6 -16.9017 -24.5016 -1.0020 1.4595 10.4532 40.4752
#
#
#
# Elastic Compliance Matrix: (Units=1/GPa)
#
#
# Indices 1 2 3 4 5 6 
#
# 1 0.008022 -0.001094 -0.004570 -0.000702 0.002104 0.002056
# 2 -0.001094 0.010513 -0.000058 0.007792 -0.001243 0.005946
# 3 -0.004570 -0.000058 0.015603 0.005889 0.007916 -0.003814
# 4 -0.000702 0.007792 0.005889 0.049968 0.006362 0.001125
# 5 0.002104 -0.001243 0.007916 0.006362 0.031799 -0.008119
# 6 0.002056 0.005946 -0.003814 0.001125 -0.008119 0.031126
#
#
# Mechanical properties :
#
#
# Convention : Reuss Voigt Hill
#
# Bulk Modulus (GPa) = 44.06828 68.44868 56.25848
# Shear Modulus (GPa) = 30.11317 41.55728 35.83522
#
# Velocity S-wave (km/s) = 3.62714 4.26098 3.95677
# Velocity P-wave (km/s) = 6.06584 7.35611 6.74192
#
# Compressibility (1/GPa) = 0.02269206
#
# Stress axis : x y z
#
# Youngs Moduli (GPa) = 124.65909 95.12223 64.09201
#
# Poissons Ratio (x) = 0.10406 0.29293
# Poissons Ratio (y) = 0.13637 0.00373
# Poissons Ratio (z) = 0.56975 0.00553
#
# Static dielectric constant tensor:
#      x y z
#    x 1.896800 -0.005700 0.026360 
#    y -0.005700 2.352130 0.513930 
#    z 0.026360 0.513930 2.627390 
# 
# From -- ./inp_files/459042.got.cif
#   From: 2010.05.17/outbox.cif.g08.bks.cpg/sg2_230_cif.got.tgz:459042.got - 2010.06.03 11:33:40.
