data_PCOD9004656
_publ_section_title
;
Structure prediction by ZEFSAII (Michael W. Deem and Ramdas Pophale) SiO2 
 PCOD9004656
Probable space group: P -1
;
_chemical_formula_sum "Si O2"
_cell_formula_units_Z 14
_cell_length_a 13.126407
_cell_length_b 13.528339
_cell_length_c 8.988133
_cell_angle_alpha 100.862209
_cell_angle_beta 122.848714
_cell_angle_gamma 32.384879
_cell_volume 574.988219
_symmetry_space_group_name_H-M "P -1"
_symmetry_group_IT_number 2
_symmetry_cell_setting 'triclinic'
loop_
_space_group_symop_operation_xyz
x,y,z
-x,-y,-z
loop_
_atom_site_type_symbol
_atom_site_label
_atom_site_fract_x
_atom_site_fract_y
_atom_site_fract_z
Si Si1 0.955555 0.669134 0.815763
Si Si2 0.878523 0.949577 0.486510
Si Si3 0.648972 0.229914 0.957146
Si Si4 0.783919 0.242661 0.586505
Si Si5 0.738895 0.375645 0.012353
Si Si6 0.707552 0.688153 0.249552
Si Si7 0.470708 0.974003 0.699019
O O1 0.779738 0.738785 0.814024
O O2 0.090389 0.675405 0.970152
O O3 0.202418 0.421950 0.868345
O O4 0.735767 0.855915 0.559869
O O5 0.073543 0.807962 0.455928
O O6 0.064314 0.787418 0.733363
O O7 0.740133 0.160732 0.470774
O O8 0.657141 0.026083 0.322240
O O9 0.659716 0.321280 0.888805
O O10 0.523465 0.369976 0.051646
O O11 0.448937 0.285348 0.779403
O O12 0.957580 0.960027 0.152341
O O13 0.500000 0.500000 0.500000
O O14 0.000000 0.500000 0.500000
O O15 0.537323 0.917335 0.182697
#
# Coordination Sequence:
#
# PCOD9004656 Si02
#       7
#     2   2   2   2   2   2   2
#     4   8  15  28  48  76 107 137 170 215 269 317
#     4   9  19  36  57  79 107 144 182 225 274 322
#     4   9  17  33  55  81 110 142 180 226 275 317
#     4  10  21  38  57  78 109 146 183 223 271 327
#     4   8  15  32  56  80 109 140 177 229 276 315
#     4   9  17  30  50  77 109 139 173 220 271 319
#     4   9  16  29  50  75 104 138 175 214 263 321
#
# _framework density 24.348324999999999
#
# number of rings (size 3 to 8) (size 9 to 14) (size 15 to 20)
#    0.000    3.143    0.000    0.857    0.000    1.143 
#    0.000   25.000    0.000    4.286    0.000    0.000 
#    0.000    0.000    0.000    0.000    0.000    0.000 
#
# Total GULP energy -78191.927767 kJ/mol
# GULP energy per Si atom -5585.137698 kJ/mol
# Density = 2.429291 g / cm^3
# Si number density = 24.348325 Si / 1000 Ang^3
#
#
#
# Elastic Constant Matrix: (Units=GPa)
#
#
# Indices 1 2 3 4 5 6 
#
# 1 164.2149 88.7670 57.0316 3.0109 72.6706 -1.1541
# 2 88.7670 145.2855 44.9636 -18.5803 27.6003 -2.4332
# 3 57.0316 44.9636 93.7877 -12.1118 23.3321 13.1910
# 4 3.0109 -18.5803 -12.1118 29.8627 9.3541 15.5403
# 5 72.6706 27.6003 23.3321 9.3541 55.2544 8.5964
# 6 -1.1541 -2.4332 13.1910 15.5403 8.5964 25.9133
#
#
#
# Elastic Compliance Matrix: (Units=1/GPa)
#
#
# Indices 1 2 3 4 5 6 
#
# 1 0.030239 -0.011108 -0.012306 -0.020564 -0.030035 0.028864
# 2 -0.011108 0.013428 0.002031 0.013873 0.006359 -0.010697
# 3 -0.012306 0.002031 0.023138 0.025306 0.005658 -0.029189
# 4 -0.020564 0.013873 0.025306 0.087595 0.004974 -0.066676
# 5 -0.030035 0.006359 0.005658 0.004974 0.055062 -0.024870
# 6 0.028864 -0.010697 -0.029189 -0.066676 -0.024870 0.101966
#
#
# Mechanical properties :
#
#
# Convention : Reuss Voigt Hill
#
# Bulk Modulus (GPa) = 41.59903 87.20137 64.40020
# Shear Modulus (GPa) = 13.80423 36.37447 25.08935
#
# Velocity S-wave (km/s) = 2.38365 3.86932 3.21352
# Velocity P-wave (km/s) = 4.96968 7.47356 6.34633
#
# Compressibility (1/GPa) = 0.02403902
#
# Stress axis : x y z
#
# Youngs Moduli (GPa) = 33.06946 74.47117 43.21880
#
# Poissons Ratio (x) = 0.82720 0.53187
# Poissons Ratio (y) = 0.36733 -0.08777
# Poissons Ratio (z) = 0.40697 -0.15124
#
# Static dielectric constant tensor:
#      x y z
#    x 1.991730 -0.003720 -0.050600 
#    y -0.003720 1.967070 0.041100 
#    z -0.050600 0.041100 2.025720 
# 
# From -- ./inp_files/454870.got.cif
#   From: 2010.05.17/outbox.cif.g08.bks.cpg/sg2_228_cif.got.tgz:454870.got - 2010.06.03 11:33:40.
