data_PCOD9004973
_publ_section_title
;
Structure prediction by ZEFSAII (Michael W. Deem and Ramdas Pophale) SiO2 
 PCOD9004973
Probable space group: P -1
;
_chemical_formula_sum "Si O2"
_cell_formula_units_Z 14
_cell_length_a 19.877492
_cell_length_b 7.183577
_cell_length_c 7.816281
_cell_angle_alpha 141.490742
_cell_angle_beta 51.162872
_cell_angle_gamma 127.961076
_cell_volume 523.190169
_symmetry_space_group_name_H-M "P -1"
_symmetry_group_IT_number 2
_symmetry_cell_setting 'triclinic'
loop_
_space_group_symop_operation_xyz
x,y,z
-x,-y,-z
loop_
_atom_site_type_symbol
_atom_site_label
_atom_site_fract_x
_atom_site_fract_y
_atom_site_fract_z
Si Si1 0.743525 0.099873 0.429553
Si Si2 0.200398 0.829818 0.969596
Si Si3 0.529568 0.244054 0.468526
Si Si4 0.635917 0.827730 0.884046
Si Si5 0.934674 0.177798 0.324815
Si Si6 0.904944 0.809621 0.442961
Si Si7 0.361666 0.475437 0.956357
O O1 0.739592 0.199861 0.310240
O O2 0.847826 0.211114 0.386517
O O3 0.716305 0.732854 0.186707
O O4 0.670383 0.216692 0.736468
O O5 0.117685 0.530867 0.851136
O O6 0.269727 0.913969 0.076636
O O7 0.160607 0.130475 0.259616
O O8 0.612739 0.535972 0.587314
O O9 0.449856 0.408110 0.684786
O O10 0.500000 0.000000 0.500000
O O11 0.560784 0.018283 0.124851
O O12 0.632520 0.662083 0.958456
O O13 0.000000 0.500000 0.500000
O O14 0.893483 0.008667 0.440566
O O15 0.000000 0.000000 0.000000
O O16 0.000000 0.000000 0.500000
#
# Coordination Sequence:
#
# PCOD9004973 Si02
#       7
#     2   2   2   2   2   2   2
#     4  11  21  36  57  85 119 154 190 239 292 342
#     4  11  22  38  58  87 119 153 193 238 292 349
#     4  10  17  28  48  81 122 157 192 238 290 338
#     4  10  18  30  50  81 120 158 190 238 291 339
#     4  12  25  43  63  87 115 150 192 241 294 352
#     4  12  24  41  63  87 114 151 193 241 292 352
#     4  10  18  30  51  82 118 155 191 235 287 338
#
# _framework density 26.758914000000001
#
# number of rings (size 3 to 8) (size 9 to 14) (size 15 to 20)
#    0.000    1.143    0.000   11.571    0.000    0.000 
#    0.000    0.000    0.000    0.000    0.000   20.000 
#    0.000    0.000    0.000    0.000    0.000    0.000 
#
# Total GULP energy -78131.676641 kJ/mol
# GULP energy per Si atom -5580.834046 kJ/mol
# Density = 2.669801 g / cm^3
# Si number density = 26.758914 Si / 1000 Ang^3
#
#
#
# Elastic Constant Matrix: (Units=GPa)
#
#
# Indices 1 2 3 4 5 6 
#
# 1 96.1841 24.9326 39.4905 5.3372 -8.1208 18.3280
# 2 24.9326 54.6246 47.8623 8.9280 13.8301 8.8830
# 3 39.4905 47.8623 205.7338 21.9176 -17.1971 16.9826
# 4 5.3372 8.9280 21.9176 63.3898 23.2928 6.5559
# 5 -8.1208 13.8301 -17.1971 23.2928 39.7983 5.3460
# 6 18.3280 8.8830 16.9826 6.5559 5.3460 42.8381
#
#
#
# Elastic Compliance Matrix: (Units=1/GPa)
#
#
# Indices 1 2 3 4 5 6 
#
# 1 0.013948 -0.007447 0.000415 -0.002615 0.007838 -0.005166
# 2 -0.007447 0.033618 -0.008980 0.006623 -0.021147 0.001401
# 3 0.000415 -0.008980 0.008456 -0.005222 0.010203 -0.002142
# 4 -0.002615 0.006623 -0.005222 0.023835 -0.019116 0.000553
# 5 0.007838 -0.021147 0.010203 -0.019116 0.050530 -0.006394
# 6 -0.005166 0.001401 -0.002142 0.000553 -0.006394 0.026826
#
#
# Mechanical properties :
#
#
# Convention : Reuss Voigt Hill
#
# Bulk Modulus (GPa) = 41.67028 64.56816 53.11922
# Shear Modulus (GPa) = 25.35015 45.48905 35.41960
#
# Velocity S-wave (km/s) = 3.08125 4.12753 3.64216
# Velocity P-wave (km/s) = 5.31649 6.84816 6.13035
#
# Compressibility (1/GPa) = 0.02399792
#
# Stress axis : x y z
#
# Youngs Moduli (GPa) = 71.69574 29.74556 118.25762
#
# Poissons Ratio (x) = 0.22152 -0.04913
# Poissons Ratio (y) = 0.53394 1.06200
# Poissons Ratio (z) = -0.02978 0.26713
#
# Static dielectric constant tensor:
#      x y z
#    x 2.103170 0.033830 -0.157410 
#    y 0.033830 2.240620 0.030590 
#    z -0.157410 0.030590 1.694290 
# 
# From -- ./inp_files/343958.got.cif
#   From: 2010.05.17/outbox.cif.g08.bks.cpg/sg2_172_cif.got.tgz:343958.got - 2010.06.03 11:33:40.
