data_PCOD9004575
_publ_section_title
;
Structure prediction by ZEFSAII (Michael W. Deem and Ramdas Pophale) SiO2 
 PCOD9004575
Probable space group: P -1
;
_chemical_formula_sum "Si O2"
_cell_formula_units_Z 16
_cell_length_a 8.841455
_cell_length_b 11.832155
_cell_length_c 8.851872
_cell_angle_alpha 58.263511
_cell_angle_beta 122.261685
_cell_angle_gamma 109.264040
_cell_volume 664.421011
_symmetry_space_group_name_H-M "P -1"
_symmetry_group_IT_number 2
_symmetry_cell_setting 'triclinic'
loop_
_space_group_symop_operation_xyz
x,y,z
-x,-y,-z
loop_
_atom_site_type_symbol
_atom_site_label
_atom_site_fract_x
_atom_site_fract_y
_atom_site_fract_z
Si Si1 0.734766 0.215457 0.308742
Si Si2 0.934831 0.683083 0.226389
Si Si3 0.032571 0.450068 0.223970
Si Si4 0.654039 0.827233 0.775002
Si Si5 0.822060 0.079663 0.828089
Si Si6 0.298611 0.288533 0.621672
Si Si7 0.382862 0.861497 0.030963
Si Si8 0.798465 0.955073 0.468731
O O1 0.882634 0.331452 0.271006
O O2 0.542138 0.245841 0.250359
O O3 0.784139 0.077160 0.502304
O O4 0.698059 0.142273 0.176415
O O5 0.004546 0.559139 0.261430
O O6 0.806798 0.671398 0.312107
O O7 0.106136 0.778357 0.303360
O O8 0.808751 0.749613 0.989986
O O9 0.227591 0.392254 0.390037
O O10 0.000000 0.500000 0.000000
O O11 0.704006 0.847510 0.613689
O O12 0.664072 0.970114 0.769899
O O13 0.763779 0.129105 0.926999
O O14 0.000000 0.000000 0.000000
O O15 0.504094 0.267439 0.790274
O O16 0.243846 0.139976 0.635586
O O17 0.500000 0.000000 0.000000
O O18 0.000000 0.000000 0.500000
#
# Coordination Sequence:
#
# PCOD9004575 Si02
#       8
#     2   2   2   2   2   2   2   2
#     4  12  25  44  74 104 151 188 239 304 378 430
#     4  11  24  46  73 102 144 194 250 294 356 444
#     4  12  28  50  73 102 147 204 255 294 360 448
#     4  11  23  43  69 113 144 182 240 308 375 431
#     4  10  21  37  71 107 144 182 237 298 364 429
#     4  12  24  47  73 105 143 190 249 304 359 433
#     4  12  21  41  70 111 143 179 233 309 369 433
#     4  12  24  39  72 110 144 183 234 303 379 437
#
# _framework density 24.081116999999999
#
# number of rings (size 3 to 8) (size 9 to 14) (size 15 to 20)
#    0.000    0.500    5.000    3.750    3.500    0.500 
#    0.000    2.500    0.000    0.000    0.000    0.000 
#    0.000    0.000    0.000    0.000    0.000    0.000 
#
# Total GULP energy -89084.615693 kJ/mol
# GULP energy per Si atom -5567.788481 kJ/mol
# Density = 2.402631 g / cm^3
# Si number density = 24.081117 Si / 1000 Ang^3
#
#
#
# Elastic Constant Matrix: (Units=GPa)
#
#
# Indices 1 2 3 4 5 6 
#
# 1 115.4301 -0.5710 65.1903 -8.7356 -3.9685 -22.1028
# 2 -0.5710 113.7991 -3.0015 -4.7626 5.4480 -29.5590
# 3 65.1903 -3.0015 275.4303 -14.5146 18.6251 -40.0661
# 4 -8.7356 -4.7626 -14.5146 30.1061 -3.7107 -3.3034
# 5 -3.9685 5.4480 18.6251 -3.7107 29.9061 -2.9351
# 6 -22.1028 -29.5590 -40.0661 -3.3034 -2.9351 44.8135
#
#
#
# Elastic Compliance Matrix: (Units=1/GPa)
#
#
# Indices 1 2 3 4 5 6 
#
# 1 0.011110 0.001319 -0.001915 0.003484 0.003361 0.005114
# 2 0.001319 0.011644 0.001561 0.003885 -0.001463 0.009917
# 3 -0.001915 0.001561 0.005094 0.002287 -0.002974 0.004613
# 4 0.003484 0.003885 0.002287 0.037449 0.003894 0.009341
# 5 0.003361 -0.001463 -0.002974 0.003894 0.036556 0.000715
# 6 0.005114 0.009917 0.004613 0.009341 0.000715 0.036238
#
#
# Mechanical properties :
#
#
# Convention : Reuss Voigt Hill
#
# Bulk Modulus (GPa) = 33.58354 69.76612 51.67483
# Shear Modulus (GPa) = 34.22649 50.50124 42.36386
#
# Velocity S-wave (km/s) = 3.77410 4.58441 4.19885
# Velocity P-wave (km/s) = 5.74178 7.55358 6.70913
#
# Compressibility (1/GPa) = 0.02977649
#
# Stress axis : x y z
#
# Youngs Moduli (GPa) = 90.01124 85.88357 196.32633
#
# Poissons Ratio (x) = -0.11324 0.37593
# Poissons Ratio (y) = -0.11869 -0.30647
# Poissons Ratio (z) = 0.17236 -0.13407
#
# Static dielectric constant tensor:
#      x y z
#    x 1.866420 0.036180 0.077670 
#    y 0.036180 1.836660 -0.091200 
#    z 0.077670 -0.091200 1.693180 
# 
# From -- ./inp_files/185382.got.cif
#   From: 2010.05.17/outbox.cif.g08.bks.cpg/sg2_93_cif.got.tgz:185382.got - 2010.06.03 11:33:40.
