data_PCOD9004039
_publ_section_title
;
Structure prediction by ZEFSAII (Michael W. Deem and Ramdas Pophale) SiO2 
 PCOD9004039
Probable space group: P -1
;
_chemical_formula_sum "Si O2"
_cell_formula_units_Z 16
_cell_length_a 9.092347
_cell_length_b 11.892570
_cell_length_c 11.731861
_cell_angle_alpha 58.354174
_cell_angle_beta 80.348891
_cell_angle_gamma 43.393514
_cell_volume 690.680782
_symmetry_space_group_name_H-M "P -1"
_symmetry_group_IT_number 2
_symmetry_cell_setting 'triclinic'
loop_
_space_group_symop_operation_xyz
x,y,z
-x,-y,-z
loop_
_atom_site_type_symbol
_atom_site_label
_atom_site_fract_x
_atom_site_fract_y
_atom_site_fract_z
Si Si1 0.198779 0.569790 0.268355
Si Si2 0.242384 0.793725 0.020826
Si Si3 0.419777 0.879181 0.614105
Si Si4 0.981422 0.720894 0.667080
Si Si5 0.910906 0.124097 0.256386
Si Si6 0.402902 0.241733 0.097084
Si Si7 0.229915 0.669392 0.446339
Si Si8 0.954067 0.621349 0.078596
O O1 0.328915 0.610826 0.179326
O O2 0.355088 0.334504 0.360089
O O3 0.140050 0.644742 0.364328
O O4 0.984309 0.694054 0.144733
O O5 0.199056 0.777848 0.904744
O O6 0.427230 0.786034 0.987476
O O7 0.000000 0.000000 0.000000
O O8 0.253158 0.862886 0.656902
O O9 0.467726 0.886903 0.735279
O O10 0.276365 0.081637 0.453157
O O11 0.036079 0.535699 0.793436
O O12 0.023180 0.791769 0.727972
O O13 0.143931 0.658881 0.577206
O O14 0.130069 0.883482 0.335369
O O15 0.187339 0.472592 0.052123
O O16 0.273163 0.216451 0.054901
O O17 0.500000 0.500000 0.500000
#
# Coordination Sequence:
#
# PCOD9004039 Si02
#       8
#     2   2   2   2   2   2   2   2
#     4  11  23  40  66  95 135 166 217 268 330 391
#     4  11  23  41  70  95 128 170 218 275 331 380
#     4   9  20  38  62  93 123 171 217 275 307 370
#     4  11  23  39  66  92 134 171 218 265 326 388
#     4  10  21  37  63  97 124 163 223 275 313 374
#     4   9  22  41  64  92 131 168 223 264 315 390
#     4  11  22  39  64  95 133 169 220 275 321 382
#     4  10  24  41  64  99 131 177 214 264 327 395
#
# _framework density 23.165548999999999
#
# number of rings (size 3 to 8) (size 9 to 14) (size 15 to 20)
#    0.000    1.750    1.250    3.000    8.750    5.000 
#    0.000    0.625    5.500    0.000    0.000    0.000 
#    0.000    0.000    0.000    0.000    0.000    0.000 
#
# Total GULP energy -89540.368716 kJ/mol
# GULP energy per Si atom -5596.273045 kJ/mol
# Density = 2.311282 g / cm^3
# Si number density = 23.165549 Si / 1000 Ang^3
#
#
#
# Elastic Constant Matrix: (Units=GPa)
#
#
# Indices 1 2 3 4 5 6 
#
# 1 109.5669 36.7151 22.9167 15.7531 22.3825 -1.2599
# 2 36.7151 75.6555 19.7160 15.1973 -0.2743 4.4849
# 3 22.9167 19.7160 78.8174 3.8347 -2.6561 5.5129
# 4 15.7531 15.1973 3.8347 30.6428 9.4431 7.6110
# 5 22.3825 -0.2743 -2.6561 9.4431 44.3751 6.3154
# 6 -1.2599 4.4849 5.5129 7.6110 6.3154 36.7374
#
#
#
# Elastic Compliance Matrix: (Units=1/GPa)
#
#
# Indices 1 2 3 4 5 6 
#
# 1 0.013350 -0.005451 -0.002855 -0.002492 -0.006870 0.003249
# 2 -0.005451 0.017934 -0.002327 -0.006806 0.004364 -0.001367
# 3 -0.002855 -0.002327 0.014328 0.000689 0.002498 -0.002536
# 4 -0.002492 -0.006806 0.000689 0.040870 -0.006486 -0.006710
# 5 -0.006870 0.004364 0.002498 -0.006486 0.028219 -0.004651
# 6 0.003249 -0.001367 -0.002536 -0.006710 -0.004651 0.030069
#
#
# Mechanical properties :
#
#
# Convention : Reuss Voigt Hill
#
# Bulk Modulus (GPa) = 41.07885 46.97059 44.02472
# Shear Modulus (GPa) = 28.71053 34.66387 31.68720
#
# Velocity S-wave (km/s) = 3.52428 3.87247 3.70247
# Velocity P-wave (km/s) = 5.85935 6.34939 6.10928
#
# Compressibility (1/GPa) = 0.02434343
#
# Stress axis : x y z
#
# Youngs Moduli (GPa) = 74.90655 55.76049 69.79356
#
# Poissons Ratio (x) = 0.30398 0.19929
# Poissons Ratio (y) = 0.40835 0.16243
# Poissons Ratio (z) = 0.21389 0.12977
#
# Static dielectric constant tensor:
#      x y z
#    x 1.919640 -0.019080 0.032270 
#    y -0.019080 1.862870 -0.015240 
#    z 0.032270 -0.015240 1.893040 
# 
# From -- ./inp_files/389406.got.cif
#   From: 2010.05.17/outbox.cif.g08.bks.cpg/sg2_195_cif.got.tgz:389406.got - 2010.06.03 11:33:40.
