data_PCOD9004183
_publ_section_title
;
Structure prediction by ZEFSAII (Michael W. Deem and Ramdas Pophale) SiO2 
 PCOD9004183
Probable space group: P -1
;
_chemical_formula_sum "Si O2"
_cell_formula_units_Z 16
_cell_length_a 9.642431
_cell_length_b 10.586311
_cell_length_c 12.762242
_cell_angle_alpha 90.791798
_cell_angle_beta 138.684112
_cell_angle_gamma 63.006783
_cell_volume 637.007932
_symmetry_space_group_name_H-M "P -1"
_symmetry_group_IT_number 2
_symmetry_cell_setting 'triclinic'
loop_
_space_group_symop_operation_xyz
x,y,z
-x,-y,-z
loop_
_atom_site_type_symbol
_atom_site_label
_atom_site_fract_x
_atom_site_fract_y
_atom_site_fract_z
Si Si1 0.220842 0.732717 0.618227
Si Si2 0.587723 0.361960 0.817082
Si Si3 0.669619 0.798829 0.607071
Si Si4 0.188181 0.157663 0.096578
Si Si5 0.749143 0.804099 0.099793
Si Si6 0.731033 0.758074 0.415486
Si Si7 0.359249 0.755103 0.933228
Si Si8 0.849771 0.146277 0.632145
O O1 0.476489 0.542232 0.721008
O O2 0.291995 0.742339 0.776871
O O3 0.175191 0.860001 0.508191
O O4 0.947453 0.751694 0.469789
O O5 0.354483 0.348071 0.665545
O O6 0.634113 0.344489 0.969030
O O7 0.881527 0.215747 0.923647
O O8 0.813593 0.752890 0.800858
O O9 0.843336 0.714992 0.598340
O O10 0.441132 0.779074 0.481349
O O11 0.500000 0.000000 0.500000
O O12 0.435602 0.954770 0.245967
O O13 0.253394 0.204376 0.027294
O O14 0.042962 0.754567 0.291182
O O15 0.654723 0.712120 0.096524
O O16 0.500000 0.000000 0.000000
O O17 0.099395 0.955801 0.814874
#
# Coordination Sequence:
#
# PCOD9004183 Si02
#       8
#     2   2   2   2   2   2   2   2
#     4  12  25  41  63  97 133 168 210 267 324 372
#     4  12  25  41  63  97 133 168 210 267 324 372
#     4  10  21  37  64  96 122 160 214 266 309 365
#     4  11  21  40  64  93 125 167 216 261 312 382
#     4  10  21  37  64  96 122 160 214 266 309 365
#     4  11  21  40  65  92 127 173 218 260 310 383
#     4  11  21  40  65  92 127 173 218 260 310 383
#     4  11  21  40  64  93 125 167 216 261 312 382
#
# _framework density 25.117425999999998
#
# number of rings (size 3 to 8) (size 9 to 14) (size 15 to 20)
#    0.000    1.000    0.000   10.500    0.000    0.000 
#    0.000    6.250    0.000    0.000    0.000    0.000 
#    0.000    0.000    0.000    0.000    0.000    0.000 
#
# Total GULP energy -89586.294044 kJ/mol
# GULP energy per Si atom -5599.143378 kJ/mol
# Density = 2.506026 g / cm^3
# Si number density = 25.117426 Si / 1000 Ang^3
#
#
#
# Elastic Constant Matrix: (Units=GPa)
#
#
# Indices 1 2 3 4 5 6 
#
# 1 127.8355 -5.9774 18.3284 -1.9556 -1.2563 -4.7376
# 2 -5.9774 27.9942 14.9843 -8.6678 -1.3457 -1.1508
# 3 18.3284 14.9843 62.4309 14.2328 -5.4817 0.0272
# 4 -1.9556 -8.6678 14.2328 30.8597 -0.0498 -2.9697
# 5 -1.2563 -1.3457 -5.4817 -0.0498 51.4408 16.5067
# 6 -4.7376 -1.1508 0.0272 -2.9697 16.5067 24.8177
#
#
#
# Elastic Compliance Matrix: (Units=1/GPa)
#
#
# Indices 1 2 3 4 5 6 
#
# 1 0.009156 0.006759 -0.005672 0.005441 -0.001362 0.003624
# 2 0.006759 0.058338 -0.022782 0.028279 -0.003922 0.010013
# 3 -0.005672 -0.022782 0.028252 -0.020531 0.004756 -0.007790
# 4 0.005441 0.028279 -0.020531 0.051297 -0.005081 0.011890
# 5 -0.001362 -0.003922 0.004756 -0.005081 0.025610 -0.018089
# 6 0.003624 0.010013 -0.007790 0.011890 -0.018089 0.054913
#
#
# Mechanical properties :
#
#
# Convention : Reuss Voigt Hill
#
# Bulk Modulus (GPa) = 19.09956 30.32571 24.71263
# Shear Modulus (GPa) = 17.33652 34.15199 25.74425
#
# Velocity S-wave (km/s) = 2.63005 3.69140 3.20497
# Velocity P-wave (km/s) = 4.10408 5.50167 4.85345
#
# Compressibility (1/GPa) = 0.05235724
#
# Stress axis : x y z
#
# Youngs Moduli (GPa) = 109.21803 17.14142 35.39529
#
# Poissons Ratio (x) = -0.11586 0.20076
# Poissons Ratio (y) = -0.73824 0.80638
# Poissons Ratio (z) = 0.61948 0.39052
#
# Static dielectric constant tensor:
#      x y z
#    x 1.919570 -0.022830 -0.004890 
#    y -0.022830 1.989760 0.055980 
#    z -0.004890 0.055980 2.041870 
# 
# From -- ./inp_files/392640.got.cif
#   From: 2010.05.17/outbox.cif.g08.bks.cpg/sg2_197_cif.got.tgz:392640.got - 2010.06.03 11:33:40.
