data_PCOD9004807
_publ_section_title
;
Structure prediction by ZEFSAII (Michael W. Deem and Ramdas Pophale) SiO2 
 PCOD9004807
Probable space group: P -1
;
_chemical_formula_sum "Si O2"
_cell_formula_units_Z 12
_cell_length_a 9.133775
_cell_length_b 5.187074
_cell_length_c 14.017284
_cell_angle_alpha 58.212813
_cell_angle_beta 79.132655
_cell_angle_gamma 94.387001
_cell_volume 541.938557
_symmetry_space_group_name_H-M "P -1"
_symmetry_group_IT_number 2
_symmetry_cell_setting 'triclinic'
loop_
_space_group_symop_operation_xyz
x,y,z
-x,-y,-z
loop_
_atom_site_type_symbol
_atom_site_label
_atom_site_fract_x
_atom_site_fract_y
_atom_site_fract_z
Si Si1 0.059857 0.845461 0.688533
Si Si2 0.428370 0.933532 0.241830
Si Si3 0.920014 0.398791 0.631153
Si Si4 0.911849 0.653387 0.059969
Si Si5 0.428442 0.422061 0.847589
Si Si6 0.601967 0.053210 0.384470
O O1 0.077185 0.563268 0.808797
O O2 0.230971 0.001887 0.604933
O O3 0.962503 0.686104 0.642170
O O4 0.990589 0.098234 0.704818
O O5 0.526489 0.873115 0.334710
O O6 0.260385 0.734411 0.318164
O O7 0.499878 0.850543 0.149937
O O8 0.447897 0.307127 0.170028
O O9 0.000000 0.500000 0.500000
O O10 0.732837 0.651352 0.064014
O O11 0.000000 0.500000 0.000000
O O12 0.000000 0.000000 0.000000
O O13 0.390389 0.597009 0.721473
O O14 0.500000 0.000000 0.500000
#
# Coordination Sequence:
#
# PCOD9004807 Si02
#       6
#     2   2   2   2   2   2
#     4  11  25  40  63  98 127 160 227 260 308 388
#     4  10  21  38  59  83 131 169 198 252 317 370
#     4  12  25  40  62  92 139 179 205 247 319 385
#     4  11  22  41  71  95 123 159 215 284 330 358
#     4   9  21  36  60  90 115 162 208 250 324 369
#     4   9  21  35  60  87 122 160 210 260 306 370
#
# _framework density 22.142733
#
# number of rings (size 3 to 8) (size 9 to 14) (size 15 to 20)
#    1.000    0.667    0.000    4.500    7.000    0.667 
#    0.000    0.000    0.000   20.000    0.000    0.000 
#    0.000    0.000    0.000    0.000    0.000    0.000 
#
# Total GULP energy -66953.826746 kJ/mol
# GULP energy per Si atom -5579.485562 kJ/mol
# Density = 2.209233 g / cm^3
# Si number density = 22.142733 Si / 1000 Ang^3
#
#
#
# Elastic Constant Matrix: (Units=GPa)
#
#
# Indices 1 2 3 4 5 6 
#
# 1 97.0156 47.1469 20.8812 3.5448 -38.7693 32.6014
# 2 47.1469 124.4720 16.0928 24.0924 -22.7291 -3.2583
# 3 20.8812 16.0928 57.4070 10.2151 -32.6889 0.6818
# 4 3.5448 24.0924 10.2151 34.2970 -8.0142 0.5790
# 5 -38.7693 -22.7291 -32.6889 -8.0142 37.4786 -6.0608
# 6 32.6014 -3.2583 0.6818 0.5790 -6.0608 27.9495
#
#
#
# Elastic Compliance Matrix: (Units=1/GPa)
#
#
# Indices 1 2 3 4 5 6 
#
# 1 0.054097 -0.017345 0.011465 0.015774 0.049936 -0.054901
# 2 -0.017345 0.015963 -0.001159 -0.011382 -0.008384 0.020538
# 3 0.011465 -0.001159 0.038992 -0.001613 0.044032 -0.004877
# 4 0.015774 -0.011382 -0.001613 0.039479 0.013611 -0.017553
# 5 0.049936 -0.008384 0.044032 0.013611 0.108578 -0.037035
# 6 -0.054901 0.020538 -0.004877 -0.017553 -0.037035 0.094664
#
#
# Mechanical properties :
#
#
# Convention : Reuss Voigt Hill
#
# Bulk Modulus (GPa) = 10.52916 49.68181 30.10549
# Shear Modulus (GPa) = 12.57832 32.92992 22.75412
#
# Velocity S-wave (km/s) = 2.38598 3.86056 3.20912
# Velocity P-wave (km/s) = 3.51511 6.50828 5.23038
#
# Compressibility (1/GPa) = 0.09497434
#
# Stress axis : x y z
#
# Youngs Moduli (GPa) = 18.48528 62.64439 25.64642
#
# Poissons Ratio (x) = 1.08655 -0.29403
# Poissons Ratio (y) = 0.32062 0.02972
# Poissons Ratio (z) = -0.21193 0.07259
#
# Static dielectric constant tensor:
#      x y z
#    x 1.773320 0.038020 0.043410 
#    y 0.038020 1.762390 -0.036550 
#    z 0.043410 -0.036550 1.823570 
# 
# From -- ./inp_files/28916.got.cif
#   From: 2010.05.17/outbox.cif.g08.bks.cpg/sg2_15_cif.got.tgz:28916.got - 2010.06.03 11:33:40.
