data_PCOD9004819
_publ_section_title
;
Structure prediction by ZEFSAII (Michael W. Deem and Ramdas Pophale) SiO2 
 PCOD9004819
Probable space group: P -1
;
_chemical_formula_sum "Si O2"
_cell_formula_units_Z 16
_cell_length_a 18.747734
_cell_length_b 8.502244
_cell_length_c 8.411707
_cell_angle_alpha 137.642952
_cell_angle_beta 122.786337
_cell_angle_gamma 76.615259
_cell_volume 725.005497
_symmetry_space_group_name_H-M "P -1"
_symmetry_group_IT_number 2
_symmetry_cell_setting 'triclinic'
loop_
_space_group_symop_operation_xyz
x,y,z
-x,-y,-z
loop_
_atom_site_type_symbol
_atom_site_label
_atom_site_fract_x
_atom_site_fract_y
_atom_site_fract_z
Si Si1 0.996436 0.945815 0.267943
Si Si2 0.734180 0.274356 0.624887
Si Si3 0.841680 0.630198 0.267629
Si Si4 0.871799 0.230789 0.189523
Si Si5 0.396167 0.435464 0.296457
Si Si6 0.149434 0.515002 0.329595
Si Si7 0.322476 0.266091 0.728647
Si Si8 0.705809 0.781051 0.683637
O O1 0.937741 0.071595 0.180645
O O2 0.942548 0.662755 0.980044
O O3 0.000000 0.000000 0.500000
O O4 0.095367 0.094389 0.445434
O O5 0.641567 0.335690 0.539033
O O6 0.795692 0.254496 0.536407
O O7 0.713447 0.025671 0.509861
O O8 0.794777 0.525778 0.967994
O O9 0.890383 0.427919 0.218779
O O10 0.759907 0.621198 0.277387
O O11 0.877294 0.394424 0.471967
O O12 0.771633 0.050336 0.930167
O O13 0.500000 0.500000 0.500000
O O14 0.346209 0.242504 0.229505
O O15 0.375754 0.359984 0.028695
O O16 0.224216 0.375027 0.331123
O O17 0.354394 0.306670 0.613513
#
# Coordination Sequence:
#
# PCOD9004819 Si02
#       8
#     2   2   2   2   2   2   2   2
#     4  11  24  37  54  88 124 157 212 262 299 354
#     4  10  21  39  65  85 118 160 202 245 299 366
#     4  11  22  39  57  86 120 158 210 252 294 357
#     4  11  22  38  60  84 120 163 204 252 303 348
#     4  10  24  43  64  97 128 149 192 253 307 371
#     4  10  21  38  59  84 118 166 201 254 306 348
#     4  11  22  40  68  89 118 167 204 244 306 362
#     4  10  21  41  64  91 120 156 209 243 294 381
#
# _framework density 22.068797
#
# number of rings (size 3 to 8) (size 9 to 14) (size 15 to 20)
#    0.000    1.500    3.750    1.125    3.500    3.000 
#    0.000    0.625    0.000    0.000    0.000    0.000 
#    0.000    0.000    0.000    0.000    0.000    0.000 
#
# Total GULP energy -89160.105663 kJ/mol
# GULP energy per Si atom -5572.506604 kJ/mol
# Density = 2.201857 g / cm^3
# Si number density = 22.068797 Si / 1000 Ang^3
#
#
#
# Elastic Constant Matrix: (Units=GPa)
#
#
# Indices 1 2 3 4 5 6 
#
# 1 41.0386 15.5222 21.5557 -12.4389 13.9022 -3.4979
# 2 15.5222 101.2139 17.0121 -9.8926 9.9791 -1.5718
# 3 21.5557 17.0121 70.1869 -23.3882 0.5646 -3.4889
# 4 -12.4389 -9.8926 -23.3882 36.8654 4.9887 -8.0035
# 5 13.9022 9.9791 0.5646 4.9887 17.9900 -8.5139
# 6 -3.4979 -1.5718 -3.4889 -8.0035 -8.5139 25.6185
#
#
#
# Elastic Compliance Matrix: (Units=1/GPa)
#
#
# Indices 1 2 3 4 5 6 
#
# 1 0.048310 -0.000123 -0.009671 0.015025 -0.043206 -0.004394
# 2 -0.000123 0.011154 -0.001830 0.002514 -0.007312 -0.001227
# 3 -0.009671 -0.001830 0.021401 0.010305 0.008525 0.007535
# 4 0.015025 0.002514 0.010305 0.044513 -0.020627 0.010660
# 5 -0.043206 -0.007312 0.008525 -0.020627 0.110332 0.025036
# 6 -0.004394 -0.001227 0.007535 0.010660 0.025036 0.051036
#
#
# Mechanical properties :
#
#
# Convention : Reuss Voigt Hill
#
# Bulk Modulus (GPa) = 17.35620 35.62437 26.49028
# Shear Modulus (GPa) = 15.18826 26.65140 20.91983
#
# Velocity S-wave (km/s) = 2.62625 3.47890 3.08220
# Velocity P-wave (km/s) = 4.13254 5.68458 4.96952
#
# Compressibility (1/GPa) = 0.05761630
#
# Stress axis : x y z
#
# Youngs Moduli (GPa) = 20.69978 89.65263 46.72581
#
# Poissons Ratio (x) = 0.01103 0.45189
# Poissons Ratio (y) = 0.00255 0.08552
# Poissons Ratio (z) = 0.20019 0.16409
#
# Static dielectric constant tensor:
#      x y z
#    x 1.866340 0.063270 -0.019490 
#    y 0.063270 1.930520 -0.012580 
#    z -0.019490 -0.012580 1.845920 
# 
# From -- ./inp_files/37311.got.cif
#   From: 2010.05.17/outbox.cif.g08.bks.cpg/sg2_19_cif.got.tgz:37311.got - 2010.06.03 11:33:40.
