data_PCOD9004793
_publ_section_title
;
Structure prediction by ZEFSAII (Michael W. Deem and Ramdas Pophale) SiO2 
 PCOD9004793
Probable space group: P -1
;
_chemical_formula_sum "Si O2"
_cell_formula_units_Z 16
_cell_length_a 9.343057
_cell_length_b 20.224197
_cell_length_c 15.228764
_cell_angle_alpha 160.851854
_cell_angle_beta 45.136401
_cell_angle_gamma 133.424001
_cell_volume 666.272927
_symmetry_space_group_name_H-M "P -1"
_symmetry_group_IT_number 2
_symmetry_cell_setting 'triclinic'
loop_
_space_group_symop_operation_xyz
x,y,z
-x,-y,-z
loop_
_atom_site_type_symbol
_atom_site_label
_atom_site_fract_x
_atom_site_fract_y
_atom_site_fract_z
Si Si1 0.601818 0.159358 0.725125
Si Si2 0.987995 0.477261 0.163153
Si Si3 0.119579 0.897462 0.949040
Si Si4 0.119579 0.325273 0.376851
Si Si5 0.545873 0.880405 0.687389
Si Si6 0.601818 0.573994 0.139761
Si Si7 0.545873 0.279438 0.086423
Si Si8 0.987995 0.882518 0.568410
O O1 0.498908 0.163697 0.869694
O O2 0.834328 0.102560 0.560865
O O3 0.500000 0.000000 0.500000
O O4 0.594717 0.383715 0.970072
O O5 0.980102 0.516447 0.319564
O O6 0.042109 0.695981 0.370907
O O7 0.761639 0.404517 0.140284
O O8 0.165672 0.351623 0.893318
O O9 0.353341 0.851498 0.797883
O O10 0.000000 0.732774 0.732774
O O11 0.122732 0.112955 0.164544
O O12 0.019899 0.930112 0.126995
O O13 0.353341 0.394614 0.341000
O O14 0.498908 0.747207 0.453205
O O15 0.761639 0.828656 0.564422
O O16 0.573547 0.112877 0.938980
O O17 0.500000 0.500000 0.000000
#
# Coordination Sequence:
#
# PCOD9004793 Si02
#       8
#     2   2   2   2   2   2   2   2
#     4  11  23  39  60  84 112 148 188 231 280 333
#     4  10  21  38  59  82 112 151 191 230 276 331
#     4   9  18  35  58  82 110 147 190 232 276 329
#     4   9  18  35  58  82 110 147 190 232 276 329
#     4  11  22  36  58  86 115 148 186 231 281 331
#     4  11  23  39  60  84 112 148 188 231 280 333
#     4  11  22  36  58  86 115 148 186 231 281 331
#     4  10  21  38  59  82 112 151 191 230 276 331
#
# _framework density 24.014182999999999
#
# number of rings (size 3 to 8) (size 9 to 14) (size 15 to 20)
#    0.000    1.750    0.000    4.500    0.000    9.000 
#    0.000    1.250    0.000    5.250    0.000    0.000 
#    0.000    0.000    0.000    0.000    0.000    0.000 
#
# Total GULP energy -89499.037778 kJ/mol
# GULP energy per Si atom -5593.689861 kJ/mol
# Density = 2.395953 g / cm^3
# Si number density = 24.014183 Si / 1000 Ang^3
#
#
#
# Elastic Constant Matrix: (Units=GPa)
#
#
# Indices 1 2 3 4 5 6 
#
# 1 49.6018 -4.5747 -11.9881 4.7217 3.8334 2.7803
# 2 -4.5747 50.4979 12.3636 -7.2210 -20.0599 4.6968
# 3 -11.9881 12.3636 53.5532 -8.8193 5.0880 -9.3129
# 4 4.7217 -7.2210 -8.8193 32.0355 2.6005 2.4437
# 5 3.8334 -20.0599 5.0880 2.6005 36.7015 -4.9580
# 6 2.7803 4.6968 -9.3129 2.4437 -4.9580 31.6991
#
#
#
# Elastic Compliance Matrix: (Units=1/GPa)
#
#
# Indices 1 2 3 4 5 6 
#
# 1 0.021749 -0.000743 0.004953 -0.001682 -0.003345 -0.000736
# 2 -0.000743 0.029310 -0.008737 0.003320 0.016462 -0.004526
# 3 0.004953 -0.008737 0.024375 0.004178 -0.008099 0.006433
# 4 -0.001682 0.003320 0.004178 0.033606 -0.001227 -0.001900
# 5 -0.003345 0.016462 -0.008099 -0.001227 0.038008 0.001514
# 6 -0.000736 -0.004526 0.006433 -0.001900 0.001514 0.034555
#
#
# Mechanical properties :
#
#
# Convention : Reuss Voigt Hill
#
# Bulk Modulus (GPa) = 15.06503 16.13938 15.60221
# Shear Modulus (GPa) = 23.49800 30.61071 27.05436
#
# Velocity S-wave (km/s) = 3.13150 3.57416 3.36013
# Velocity P-wave (km/s) = 4.40023 4.87526 4.64383
#
# Compressibility (1/GPa) = 0.06637888
#
# Stress axis : x y z
#
# Youngs Moduli (GPa) = 45.97922 34.11823 41.02561
#
# Poissons Ratio (x) = 0.02535 -0.20320
# Poissons Ratio (y) = 0.03417 0.35846
# Poissons Ratio (z) = -0.22773 0.29810
#
# Static dielectric constant tensor:
#      x y z
#    x 1.916450 0.010460 0.002190 
#    y 0.010460 1.905140 0.000670 
#    z 0.002190 0.000670 1.899480 
# 
# From -- ./inp_files/184823.got.cif
#   From: 2010.05.17/outbox.cif.g08.bks.cpg/sg2_93_cif.got.tgz:184823.got - 2010.06.03 11:33:40.
