data_PCOD9004628
_publ_section_title
;
Structure prediction by ZEFSAII (Michael W. Deem and Ramdas Pophale) SiO2 
 PCOD9004628
Probable space group: P -1
;
_chemical_formula_sum "Si O2"
_cell_formula_units_Z 14
_cell_length_a 20.047736
_cell_length_b 5.209584
_cell_length_c 9.635492
_cell_angle_alpha 57.074566
_cell_angle_beta 133.104295
_cell_angle_gamma 125.692118
_cell_volume 578.642156
_symmetry_space_group_name_H-M "P -1"
_symmetry_group_IT_number 2
_symmetry_cell_setting 'triclinic'
loop_
_space_group_symop_operation_xyz
x,y,z
-x,-y,-z
loop_
_atom_site_type_symbol
_atom_site_label
_atom_site_fract_x
_atom_site_fract_y
_atom_site_fract_z
Si Si1 0.016030 0.879254 0.907060
Si Si2 0.151853 0.236355 0.776852
Si Si3 0.621198 0.393755 0.080191
Si Si4 0.406198 0.065610 0.285297
Si Si5 0.615935 0.582892 0.615158
Si Si6 0.876399 0.102134 0.444939
Si Si7 0.351072 0.259185 0.706117
O O1 0.940532 0.954727 0.673182
O O2 0.120274 0.078964 0.928120
O O3 0.000000 0.500000 0.000000
O O4 0.000000 0.000000 0.000000
O O5 0.266760 0.408735 0.863199
O O6 0.106611 0.521938 0.611135
O O7 0.112506 0.965654 0.681418
O O8 0.612803 0.450161 0.215988
O O9 0.601235 0.021046 0.122105
O O10 0.566634 0.602923 0.860691
O O11 0.342941 0.118069 0.308500
O O12 0.500000 0.000000 0.500000
O O13 0.358005 0.740878 0.221150
O O14 0.500000 0.500000 0.500000
O O15 0.640722 0.659209 0.468444
O O16 0.763314 0.910619 0.375564
#
# Coordination Sequence:
#
# PCOD9004628 Si02
#       7
#     2   2   2   2   2   2   2
#     4  12  24  36  56  90 120 148 188 234 280 332
#     4  10  21  39  60  81 113 155 191 230 280 331
#     4  10  21  38  61  85 109 147 197 236 271 331
#     4  10  21  38  56  81 114 147 180 227 293 341
#     4  10  21  38  56  81 114 147 180 227 293 341
#     4  10  21  39  60  81 113 155 191 230 280 331
#     4  10  21  38  61  85 109 147 197 236 271 331
#
# _framework density 24.194573999999999
#
# number of rings (size 3 to 8) (size 9 to 14) (size 15 to 20)
#    0.000    1.714    0.000    4.286    0.000    2.286 
#    0.000   17.143    0.000    0.000    0.000    0.000 
#    0.000    0.000    0.000    0.000    0.000    0.000 
#
# Total GULP energy -78340.755223 kJ/mol
# GULP energy per Si atom -5595.768230 kJ/mol
# Density = 2.413951 g / cm^3
# Si number density = 24.194574 Si / 1000 Ang^3
#
#
#
# Elastic Constant Matrix: (Units=GPa)
#
#
# Indices 1 2 3 4 5 6 
#
# 1 150.1916 42.5383 36.8025 -1.1708 -27.1032 -23.9686
# 2 42.5383 90.3372 14.4372 -20.2509 -0.0340 -46.3318
# 3 36.8025 14.4372 89.7534 -19.1075 -8.1523 -14.1656
# 4 -1.1708 -20.2509 -19.1075 40.4932 -5.4549 0.4688
# 5 -27.1032 -0.0340 -8.1523 -5.4549 58.1606 6.4008
# 6 -23.9686 -46.3318 -14.1656 0.4688 6.4008 51.6064
#
#
#
# Elastic Compliance Matrix: (Units=1/GPa)
#
#
# Indices 1 2 3 4 5 6 
#
# 1 0.009587 -0.006093 -0.003863 -0.004049 0.003819 -0.002515
# 2 -0.006093 0.030049 0.004915 0.016410 -0.003430 0.025773
# 3 -0.003863 0.004915 0.015025 0.009422 0.000466 0.006599
# 4 -0.004049 0.016410 0.009422 0.037232 0.001291 0.014940
# 5 0.003819 -0.003430 0.000466 0.001291 0.019556 -0.003615
# 6 -0.002515 0.025773 0.006599 0.014940 -0.003615 0.043472
#
#
# Mechanical properties :
#
#
# Convention : Reuss Voigt Hill
#
# Bulk Modulus (GPa) = 22.43252 57.53757 39.98505
# Shear Modulus (GPa) = 27.79885 45.81898 36.80891
#
# Velocity S-wave (km/s) = 3.39332 4.35647 3.90471
# Velocity P-wave (km/s) = 4.96434 7.00984 6.07382
#
# Compressibility (1/GPa) = 0.04457814
#
# Stress axis : x y z
#
# Youngs Moduli (GPa) = 104.31065 33.27870 66.55669
#
# Poissons Ratio (x) = 0.20277 0.25710
# Poissons Ratio (y) = 0.63557 -0.32710
# Poissons Ratio (z) = 0.40294 -0.16355
#
# Static dielectric constant tensor:
#      x y z
#    x 1.945880 0.031780 0.019210 
#    y 0.031780 2.056740 0.049670 
#    z 0.019210 0.049670 1.936960 
# 
# From -- ./inp_files/340057.got.cif
#   From: 2010.05.17/outbox.cif.g08.bks.cpg/sg2_171_cif.got.tgz:340057.got - 2010.06.03 11:33:40.
