data_PCOD9004518
_publ_section_title
;
Structure prediction by ZEFSAII (Michael W. Deem and Ramdas Pophale) SiO2 
 PCOD9004518
Probable space group: P -1
;
_chemical_formula_sum "Si O2"
_cell_formula_units_Z 14
_cell_length_a 10.790042
_cell_length_b 18.539902
_cell_length_c 8.912706
_cell_angle_alpha 113.294643
_cell_angle_beta 44.400239
_cell_angle_gamma 144.264578
_cell_volume 650.095627
_symmetry_space_group_name_H-M "P -1"
_symmetry_group_IT_number 2
_symmetry_cell_setting 'triclinic'
loop_
_space_group_symop_operation_xyz
x,y,z
-x,-y,-z
loop_
_atom_site_type_symbol
_atom_site_label
_atom_site_fract_x
_atom_site_fract_y
_atom_site_fract_z
Si Si1 0.986473 0.323123 0.014040
Si Si2 0.818023 0.565714 0.758813
Si Si3 0.084297 0.186939 0.696888
Si Si4 0.713605 0.946201 0.635282
Si Si5 0.661121 0.396331 0.144784
Si Si6 0.218517 0.105855 0.763616
Si Si7 0.255545 0.644525 0.264385
O O1 0.964975 0.313960 0.205952
O O2 0.637037 0.213056 0.164392
O O3 0.067818 0.268261 0.837558
O O4 0.263792 0.486072 0.872731
O O5 0.806870 0.470345 0.742174
O O6 0.969556 0.603056 0.494270
O O7 0.500000 0.500000 0.000000
O O8 0.392087 0.292930 0.414635
O O9 0.106387 0.136432 0.778778
O O10 0.791769 0.056810 0.737229
O O11 0.747465 0.952721 0.432334
O O12 0.000000 0.000000 0.500000
O O13 0.602098 0.314420 0.990518
O O14 0.000000 0.500000 0.000000
O O15 0.519416 0.245556 0.707580
O O16 0.000000 0.000000 0.000000
#
# Coordination Sequence:
#
# PCOD9004518 Si02
#       7
#     2   2   2   2   2   2   2
#     4  11  22  41  67  99 133 170 220 275 332 394
#     4  10  21  37  68  97 131 170 216 275 333 390
#     4  11  24  41  66  95 137 172 218 280 329 388
#     4  10  21  40  66  93 130 176 221 267 328 400
#     4  11  24  40  66  99 131 174 221 264 337 405
#     4  11  22  41  68  91 124 177 228 263 326 397
#     4  10  22  40  64  94 131 170 220 270 327 397
#
# _framework density 21.535292999999999
#
# number of rings (size 3 to 8) (size 9 to 14) (size 15 to 20)
#    0.000    1.429    1.429    4.286    6.000    1.143 
#    0.000    0.714    0.000    0.000    0.000    0.000 
#    0.000    0.000    0.000    0.000    0.000    0.000 
#
# Total GULP energy -77951.983717 kJ/mol
# GULP energy per Si atom -5567.998837 kJ/mol
# Density = 2.148628 g / cm^3
# Si number density = 21.535293 Si / 1000 Ang^3
#
#
#
# Elastic Constant Matrix: (Units=GPa)
#
#
# Indices 1 2 3 4 5 6 
#
# 1 65.3528 38.0118 61.7838 14.0400 3.6743 8.7763
# 2 38.0118 145.4628 74.8300 29.8058 0.1063 19.5436
# 3 61.7838 74.8300 167.7659 26.7085 1.7799 -5.2974
# 4 14.0400 29.8058 26.7085 50.9479 -0.4450 -2.3874
# 5 3.6743 0.1063 1.7799 -0.4450 39.7641 0.0259
# 6 8.7763 19.5436 -5.2974 -2.3874 0.0259 35.6631
#
#
#
# Elastic Compliance Matrix: (Units=1/GPa)
#
#
# Indices 1 2 3 4 5 6 
#
# 1 0.025900 -0.000564 -0.009123 -0.002398 -0.002005 -0.007579
# 2 -0.000564 0.011008 -0.004220 -0.004390 0.000167 -0.006815
# 3 -0.009123 -0.004220 0.011517 -0.000760 0.000326 0.006217
# 4 -0.002398 -0.004390 -0.000760 0.023469 0.000527 0.004453
# 5 -0.002005 0.000167 0.000326 0.000527 0.025324 0.000467
# 6 -0.007579 -0.006815 0.006217 0.004453 0.000467 0.034861
#
#
# Mechanical properties :
#
#
# Convention : Reuss Voigt Hill
#
# Bulk Modulus (GPa) = 48.52011 80.87029 64.69520
# Shear Modulus (GPa) = 29.98258 38.87209 34.42734
#
# Velocity S-wave (km/s) = 3.73534 4.25319 4.00265
# Velocity P-wave (km/s) = 6.41741 7.85834 7.17414
#
# Compressibility (1/GPa) = 0.02061001
#
# Stress axis : x y z
#
# Youngs Moduli (GPa) = 38.61000 90.84288 86.82954
#
# Poissons Ratio (x) = 0.05123 0.79216
# Poissons Ratio (y) = 0.02177 0.36645
# Poissons Ratio (z) = 0.35224 0.38339
#
# Static dielectric constant tensor:
#      x y z
#    x 1.846820 0.066030 0.032130 
#    y 0.066030 1.668920 -0.070910 
#    z 0.032130 -0.070910 1.942270 
# 
# From -- ./inp_files/283155.got.cif
#   From: 2010.05.17/outbox.cif.g08.bks.cpg/sg2_142_cif.got.tgz:283155.got - 2010.06.03 11:33:40.
