data_PCOD9004100
_publ_section_title
;
Structure prediction by ZEFSAII (Michael W. Deem and Ramdas Pophale) SiO2 
 PCOD9004100
Probable space group: P -1
;
_chemical_formula_sum "Si O2"
_cell_formula_units_Z 16
_cell_length_a 5.187862
_cell_length_b 15.277093
_cell_length_c 15.402352
_cell_angle_alpha 141.422618
_cell_angle_beta 94.758893
_cell_angle_gamma 86.602653
_cell_volume 758.550922
_symmetry_space_group_name_H-M "P -1"
_symmetry_group_IT_number 2
_symmetry_cell_setting 'triclinic'
loop_
_space_group_symop_operation_xyz
x,y,z
-x,-y,-z
loop_
_atom_site_type_symbol
_atom_site_label
_atom_site_fract_x
_atom_site_fract_y
_atom_site_fract_z
Si Si1 0.731455 0.910243 0.339569
Si Si2 0.349132 0.640867 0.932726
Si Si3 0.453373 0.516547 0.653110
Si Si4 0.123858 0.228089 0.438726
Si Si5 0.903314 0.215702 0.614850
Si Si6 0.780532 0.083455 0.769792
Si Si7 0.807797 0.384258 0.441094
Si Si8 0.140889 0.493550 0.092159
O O1 0.443837 0.882221 0.278664
O O2 0.843770 0.810518 0.339353
O O3 0.941667 0.902724 0.260168
O O4 0.746731 0.069859 0.498957
O O5 0.423456 0.598884 0.804675
O O6 0.604132 0.602151 0.967091
O O7 0.093217 0.555817 0.889919
O O8 0.265840 0.801623 0.068611
O O9 0.295093 0.368699 0.541288
O O10 0.725311 0.454078 0.584059
O O11 0.392893 0.614698 0.643163
O O12 0.986928 0.235833 0.533873
O O13 0.927080 0.238414 0.360142
O O14 0.258811 0.077191 0.325891
O O15 0.769459 0.352227 0.754625
O O16 0.000000 0.500000 0.500000
O O17 0.000000 0.500000 0.000000
#
# Coordination Sequence:
#
# PCOD9004100 Si02
#       8
#     2   2   2   2   2   2   2   2
#     4  10  24  40  60  87 132 170 210 266 304 360
#     4  12  25  41  63  94 129 170 211 257 320 375
#     4  10  21  39  67  93 124 158 208 268 319 378
#     4  10  21  37  64  90 121 162 215 257 312 376
#     4  10  21  39  62  92 121 168 222 256 307 371
#     4  11  24  42  60  89 132 171 209 254 317 365
#     4   9  20  40  63  95 123 153 203 271 326 369
#     4  12  25  40  63  90 133 170 217 261 312 367
#
# _framework density 21.092851
#
# number of rings (size 3 to 8) (size 9 to 14) (size 15 to 20)
#    0.000    1.500    1.250    3.375    7.000    5.500 
#    0.000    0.625    0.000    6.750    0.000    0.000 
#    0.000    0.000    0.000    0.000    0.000    0.000 
#
# Total GULP energy -89302.407503 kJ/mol
# GULP energy per Si atom -5581.400469 kJ/mol
# Density = 2.104484 g / cm^3
# Si number density = 21.092851 Si / 1000 Ang^3
#
#
#
# Elastic Constant Matrix: (Units=GPa)
#
#
# Indices 1 2 3 4 5 6 
#
# 1 59.9148 6.7936 13.4652 -0.7739 -15.1664 4.2112
# 2 6.7936 113.1803 44.5544 4.0783 -13.6550 -6.5499
# 3 13.4652 44.5544 134.5757 1.0633 -12.0469 -5.1005
# 4 -0.7739 4.0783 1.0633 23.9712 2.9749 -10.0211
# 5 -15.1664 -13.6550 -12.0469 2.9749 18.6865 1.2678
# 6 4.2112 -6.5499 -5.1005 -10.0211 1.2678 25.1690
#
#
#
# Elastic Compliance Matrix: (Units=1/GPa)
#
#
# Indices 1 2 3 4 5 6 
#
# 1 0.022055 0.001222 -0.001095 -0.004489 0.019232 -0.006350
# 2 0.001222 0.010977 -0.003051 -0.002293 0.007360 0.000750
# 3 -0.001095 -0.003051 0.008811 0.000276 0.002439 0.001162
# 4 -0.004489 -0.002293 0.000276 0.053059 -0.015087 0.022096
# 5 0.019232 0.007360 0.002439 -0.015087 0.079210 -0.010805
# 6 -0.006350 0.000750 0.001162 0.022096 -0.010805 0.050566
#
#
# Mechanical properties :
#
#
# Convention : Reuss Voigt Hill
#
# Bulk Modulus (GPa) = 27.78217 48.58858 38.18538
# Shear Modulus (GPa) = 20.61651 29.75585 25.18618
#
# Velocity S-wave (km/s) = 3.12976 3.76001 3.45927
# Velocity P-wave (km/s) = 5.12450 6.47579 5.83936
#
# Compressibility (1/GPa) = 0.03599431
#
# Stress axis : x y z
#
# Youngs Moduli (GPa) = 45.34203 91.09755 113.49918
#
# Poissons Ratio (x) = -0.11130 0.12426
# Poissons Ratio (y) = -0.05540 0.34630
# Poissons Ratio (z) = 0.04964 0.27795
#
# Static dielectric constant tensor:
#      x y z
#    x 1.855880 -0.043300 0.010070 
#    y -0.043300 1.822240 0.010430 
#    z 0.010070 0.010430 1.783020 
# 
# From -- ./inp_files/483818.got.cif
#   From: 2010.05.17/outbox.cif.g08.bks.cpg/sg2_242_cif.got.tgz:483818.got - 2010.06.03 11:33:40.
