data_PCOD9004519
_publ_section_title
;
Structure prediction by ZEFSAII (Michael W. Deem and Ramdas Pophale) SiO2 
 PCOD9004519
Probable space group: P -1
;
_chemical_formula_sum "Si O2"
_cell_formula_units_Z 14
_cell_length_a 10.956042
_cell_length_b 9.091225
_cell_length_c 9.055572
_cell_angle_alpha 113.853662
_cell_angle_beta 118.152487
_cell_angle_gamma 109.483681
_cell_volume 552.573909
_symmetry_space_group_name_H-M "P -1"
_symmetry_group_IT_number 2
_symmetry_cell_setting 'triclinic'
loop_
_space_group_symop_operation_xyz
x,y,z
-x,-y,-z
loop_
_atom_site_type_symbol
_atom_site_label
_atom_site_fract_x
_atom_site_fract_y
_atom_site_fract_z
Si Si1 0.628929 0.119744 0.264961
Si Si2 0.061021 0.385258 0.315753
Si Si3 0.327764 0.085745 0.562005
Si Si4 0.907701 0.799055 0.469360
Si Si5 0.357889 0.481030 0.022970
Si Si6 0.276617 0.934407 0.165974
Si Si7 0.700398 0.684759 0.758081
O O1 0.793207 0.370398 0.451361
O O2 0.706754 0.014100 0.336987
O O3 0.482077 0.063895 0.281278
O O4 0.500000 0.000000 0.000000
O O5 0.007288 0.241881 0.371132
O O6 0.167547 0.350155 0.247756
O O7 0.873092 0.288059 0.089304
O O8 0.235823 0.189828 0.525919
O O9 0.541915 0.287618 0.762214
O O10 0.264736 0.922082 0.330487
O O11 0.808513 0.611608 0.217378
O O12 0.000000 0.000000 0.500000
O O13 0.308309 0.337268 0.078036
O O14 0.500000 0.500000 0.000000
O O15 0.237833 0.090201 0.159038
O O16 0.500000 0.500000 0.500000
#
# Coordination Sequence:
#
# PCOD9004519 Si02
#       7
#     2   2   2   2   2   2   2
#     4  12  29  48  71 100 145 191 234 289 358 428
#     4  12  26  47  74 107 139 185 239 293 357 420
#     4  11  24  46  66 103 138 185 237 281 352 426
#     4  11  24  42  69 107 142 177 232 299 351 410
#     4  10  21  37  68  97 140 180 227 284 348 404
#     4  12  26  45  75 102 143 184 241 292 353 420
#     4  12  20  41  74 107 137 181 235 296 349 413
#
# _framework density 25.335977
#
# number of rings (size 3 to 8) (size 9 to 14) (size 15 to 20)
#    0.000    0.571    4.286    3.429    8.000    1.143 
#    2.571    0.000    0.000    0.000    0.000    0.000 
#    0.000    0.000    0.000    0.000    0.000    0.000 
#
# Total GULP energy -78371.195057 kJ/mol
# GULP energy per Si atom -5597.942504 kJ/mol
# Density = 2.527831 g / cm^3
# Si number density = 25.335977 Si / 1000 Ang^3
#
#
#
# Elastic Constant Matrix: (Units=GPa)
#
#
# Indices 1 2 3 4 5 6 
#
# 1 71.4191 24.2733 19.1287 -3.4480 -9.7218 2.9745
# 2 24.2733 110.0450 50.2770 -5.9770 -8.5183 6.4789
# 3 19.1287 50.2770 190.2833 -6.5102 -4.3177 7.2943
# 4 -3.4480 -5.9770 -6.5102 54.0388 14.3339 -6.6155
# 5 -9.7218 -8.5183 -4.3177 14.3339 29.8672 -0.4240
# 6 2.9745 6.4789 7.2943 -6.6155 -0.4240 40.5767
#
#
#
# Elastic Compliance Matrix: (Units=1/GPa)
#
#
# Indices 1 2 3 4 5 6 
#
# 1 0.015760 -0.002783 -0.000744 -0.000675 0.004543 -0.000640
# 2 -0.002783 0.011081 -0.002562 0.000130 0.001807 -0.001065
# 3 -0.000744 -0.002562 0.006035 0.000409 -0.000304 -0.000558
# 4 -0.000675 0.000130 0.000409 0.021726 -0.010503 0.003388
# 5 0.004543 0.001807 -0.000304 -0.010503 0.040446 -0.001856
# 6 -0.000640 -0.001065 -0.000558 0.003388 -0.001856 0.025495
#
#
# Mechanical properties :
#
#
# Convention : Reuss Voigt Hill
#
# Bulk Modulus (GPa) = 48.31582 62.12280 55.21931
# Shear Modulus (GPa) = 35.81111 43.43444 39.62277
#
# Velocity S-wave (km/s) = 3.76367 4.14495 3.95890
# Velocity P-wave (km/s) = 6.16428 6.89059 6.53753
#
# Compressibility (1/GPa) = 0.02069715
#
# Stress axis : x y z
#
# Youngs Moduli (GPa) = 63.45285 90.24307 165.68645
#
# Poissons Ratio (x) = 0.25119 0.12332
# Poissons Ratio (y) = 0.17662 0.42446
# Poissons Ratio (z) = 0.04723 0.23119
#
# Static dielectric constant tensor:
#      x y z
#    x 2.150970 -0.008730 0.031300 
#    y -0.008730 2.002370 0.028250 
#    z 0.031300 0.028250 2.016200 
# 
# From -- ./inp_files/159952.got.cif
#   From: 2010.05.17/outbox.cif.g08.bks.cpg/sg2_80_cif.got.tgz:159952.got - 2010.06.03 11:33:40.
