data_PCOD9004875
_publ_section_title
;
Structure prediction by ZEFSAII (Michael W. Deem and Ramdas Pophale) SiO2 
 PCOD9004875
Probable space group: P -1
;
_chemical_formula_sum "Si O2"
_cell_formula_units_Z 14
_cell_length_a 12.804928
_cell_length_b 10.483560
_cell_length_c 8.986226
_cell_angle_alpha 70.426459
_cell_angle_beta 114.196191
_cell_angle_gamma 148.386177
_cell_volume 576.542459
_symmetry_space_group_name_H-M "P -1"
_symmetry_group_IT_number 2
_symmetry_cell_setting 'triclinic'
loop_
_space_group_symop_operation_xyz
x,y,z
-x,-y,-z
loop_
_atom_site_type_symbol
_atom_site_label
_atom_site_fract_x
_atom_site_fract_y
_atom_site_fract_z
Si Si1 0.310972 0.017111 0.894884
Si Si2 0.537733 0.538158 0.181421
Si Si3 0.031373 0.647738 0.087994
Si Si4 0.271573 0.240483 0.399929
Si Si5 0.795231 0.323320 0.548329
Si Si6 0.645411 0.184230 0.205807
Si Si7 0.891206 0.721911 0.483611
O O1 0.446648 0.051384 0.064965
O O2 0.115464 0.849034 0.953999
O O3 0.413124 0.258955 0.823546
O O4 0.291175 0.901706 0.785037
O O5 0.331734 0.290412 0.244157
O O6 0.731022 0.636540 0.309043
O O7 0.500000 0.500000 0.000000
O O8 0.183346 0.752130 0.268748
O O9 0.821113 0.455261 0.132745
O O10 0.000000 0.500000 0.000000
O O11 0.500000 0.500000 0.500000
O O12 0.135152 0.226578 0.395431
O O13 0.125664 0.971367 0.466458
O O14 0.629300 0.156838 0.384270
O O15 0.815520 0.496096 0.549321
O O16 0.000000 0.500000 0.500000
#
# Coordination Sequence:
#
# PCOD9004875 Si02
#       7
#     2   2   2   2   2   2   2
#     4  10  21  38  59  87 123 162 201 251 314 372
#     4  11  24  40  63  96 130 166 214 263 314 388
#     4   9  20  36  56  85 118 154 197 249 310 371
#     4   9  22  41  62  89 123 167 215 258 312 383
#     4  10  21  38  63  92 122 159 211 264 312 380
#     4   9  20  37  57  85 120 159 204 253 308 369
#     4  10  22  42  65  91 126 170 210 263 324 370
#
# _framework density 24.282688
#
# number of rings (size 3 to 8) (size 9 to 14) (size 15 to 20)
#    0.000    2.286    0.000    0.857    0.000   18.286 
#    0.000    4.286    0.000    0.000    0.000    0.000 
#    0.000    0.000    0.000    0.000    0.000    0.000 
#
# Total GULP energy -78123.810408 kJ/mol
# GULP energy per Si atom -5580.272172 kJ/mol
# Density = 2.422742 g / cm^3
# Si number density = 24.282688 Si / 1000 Ang^3
#
#
#
# Elastic Constant Matrix: (Units=GPa)
#
#
# Indices 1 2 3 4 5 6 
#
# 1 30.7447 12.5673 26.7464 -10.8150 1.5021 5.0791
# 2 12.5673 69.8163 25.2774 -12.3068 -10.8448 21.2870
# 3 26.7464 25.2774 140.1678 7.4745 -9.4898 29.8506
# 4 -10.8150 -12.3068 7.4745 41.7237 6.2024 -5.4585
# 5 1.5021 -10.8448 -9.4898 6.2024 31.6872 -10.3299
# 6 5.0791 21.2870 29.8506 -5.4585 -10.3299 37.3130
#
#
#
# Elastic Compliance Matrix: (Units=1/GPa)
#
#
# Indices 1 2 3 4 5 6 
#
# 1 0.048931 -0.005007 -0.010813 0.015044 -0.008704 0.004638
# 2 -0.005007 0.019003 -0.000626 0.002841 0.003280 -0.008335
# 3 -0.010813 -0.000626 0.011431 -0.006397 0.002510 -0.007557
# 4 0.015044 0.002841 -0.006397 0.031361 -0.006405 0.004263
# 5 -0.008704 0.003280 0.002510 -0.006405 0.037280 0.006689
# 6 0.004638 -0.008335 -0.007557 0.004263 0.006689 0.039445
#
#
# Mechanical properties :
#
#
# Convention : Reuss Voigt Hill
#
# Bulk Modulus (GPa) = 21.51809 41.10121 31.30965
# Shear Modulus (GPa) = 21.20150 33.88729 27.54440
#
# Velocity S-wave (km/s) = 2.95805 3.73974 3.37162
# Velocity P-wave (km/s) = 4.53293 5.96744 5.29896
#
# Compressibility (1/GPa) = 0.04647252
#
# Stress axis : x y z
#
# Youngs Moduli (GPa) = 20.43713 52.62333 87.48271
#
# Poissons Ratio (x) = 0.26349 0.94595
# Poissons Ratio (y) = 0.10233 0.05475
# Poissons Ratio (z) = 0.22099 0.03293
#
# Static dielectric constant tensor:
#      x y z
#    x 1.916820 0.080070 -0.023660 
#    y 0.080070 2.003220 0.103180 
#    z -0.023660 0.103180 1.949730 
# 
# From -- ./inp_files/307114.got.cif
#   From: 2010.05.17/outbox.cif.g08.bks.cpg/sg2_154_cif.got.tgz:307114.got - 2010.06.03 11:33:40.
