data_PCOD9004403
_publ_section_title
;
Structure prediction by ZEFSAII (Michael W. Deem and Ramdas Pophale) SiO2 
 PCOD9004403
Probable space group: P -1
;
_chemical_formula_sum "Si O2"
_cell_formula_units_Z 14
_cell_length_a 15.423885
_cell_length_b 8.953226
_cell_length_c 10.494037
_cell_angle_alpha 114.185150
_cell_angle_beta 144.966051
_cell_angle_gamma 88.339399
_cell_volume 615.348723
_symmetry_space_group_name_H-M "P -1"
_symmetry_group_IT_number 2
_symmetry_cell_setting 'triclinic'
loop_
_space_group_symop_operation_xyz
x,y,z
-x,-y,-z
loop_
_atom_site_type_symbol
_atom_site_label
_atom_site_fract_x
_atom_site_fract_y
_atom_site_fract_z
Si Si1 0.538210 0.772729 0.250695
Si Si2 0.384595 0.749397 0.633437
Si Si3 0.290836 0.050434 0.728884
Si Si4 0.327088 0.846272 0.331280
Si Si5 0.156682 0.703658 0.827106
Si Si6 0.979084 0.031534 0.205164
Si Si7 0.760215 0.682990 0.614873
O O1 0.577534 0.768211 0.149946
O O2 0.558624 0.633932 0.319960
O O3 0.702635 0.999275 0.579779
O O4 0.349295 0.753363 0.023657
O O5 0.372078 0.753974 0.467277
O O6 0.264461 0.521885 0.457996
O O7 0.307056 0.869954 0.642959
O O8 0.598632 0.866933 0.977639
O O9 0.092073 0.003453 0.439780
O O10 0.500000 0.000000 0.500000
O O11 0.169069 0.688817 0.990167
O O12 0.000000 0.500000 0.500000
O O13 0.126200 0.877476 0.833572
O O14 0.119669 0.200237 0.326786
O O15 0.847616 0.829764 0.893395
#
# Coordination Sequence:
#
# PCOD9004403 Si02
#       7
#     2   2   2   2   2   2   2
#     4   9  19  39  65  86 126 174 201 251 314 392
#     4  10  21  38  66  93 122 169 212 261 312 378
#     4   9  21  40  63  95 128 160 212 267 314 363
#     4   9  19  42  63  82 121 170 208 247 317 382
#     4  11  23  37  65  92 123 166 216 254 313 379
#     4  10  22  40  61  97 131 165 209 265 311 372
#     4  10  21  37  66  95 126 167 216 257 311 377
#
# _framework density 22.751328999999998
#
# number of rings (size 3 to 8) (size 9 to 14) (size 15 to 20)
#    0.000    2.286    1.429    0.000    6.000    1.714 
#    0.000    2.857    0.000   14.571    0.000    0.000 
#    0.000    0.000    0.000    0.000    0.000    0.000 
#
# Total GULP energy -78132.967896 kJ/mol
# GULP energy per Si atom -5580.926278 kJ/mol
# Density = 2.269955 g / cm^3
# Si number density = 22.751329 Si / 1000 Ang^3
#
#
#
# Elastic Constant Matrix: (Units=GPa)
#
#
# Indices 1 2 3 4 5 6 
#
# 1 49.8432 29.7967 48.8352 -11.3381 -11.8584 -0.9351
# 2 29.7967 148.8367 74.1534 -20.3611 -12.3527 -0.9996
# 3 48.8352 74.1534 138.6763 -26.0053 -31.5669 -10.0556
# 4 -11.3381 -20.3611 -26.0053 47.2333 -4.3695 1.8381
# 5 -11.8584 -12.3527 -31.5669 -4.3695 42.5828 -11.7596
# 6 -0.9351 -0.9996 -10.0556 1.8381 -11.7596 26.2178
#
#
#
# Elastic Compliance Matrix: (Units=1/GPa)
#
#
# Indices 1 2 3 4 5 6 
#
# 1 0.031066 -0.000839 -0.010444 0.001462 -0.000024 -0.003043
# 2 -0.000839 0.009430 -0.005226 0.000903 -0.002008 -0.002639
# 3 -0.010444 -0.005226 0.018889 0.006422 0.013646 0.012343
# 4 0.001462 0.000903 0.006422 0.026131 0.009484 0.004972
# 5 -0.000024 -0.002008 0.013646 0.009484 0.040203 0.022524
# 6 -0.003043 -0.002639 0.012343 0.004972 0.022524 0.052421
#
#
# Mechanical properties :
#
#
# Convention : Reuss Voigt Hill
#
# Bulk Modulus (GPa) = 37.92465 71.43632 54.68049
# Shear Modulus (GPa) = 22.73279 35.51149 29.12214
#
# Velocity S-wave (km/s) = 3.16442 3.95505 3.58162
# Velocity P-wave (km/s) = 5.48241 7.23350 6.41795
#
# Compressibility (1/GPa) = 0.02636807
#
# Stress axis : x y z
#
# Youngs Moduli (GPa) = 32.18903 106.05013 52.94167
#
# Poissons Ratio (x) = 0.08893 0.55291
# Poissons Ratio (y) = 0.02699 0.27667
# Poissons Ratio (z) = 0.33617 0.55422
#
# Static dielectric constant tensor:
#      x y z
#    x 1.934640 -0.017790 0.024160 
#    y -0.017790 1.864150 -0.028280 
#    z 0.024160 -0.028280 1.949260 
# 
# From -- ./inp_files/461500.got.cif
#   From: 2010.05.17/outbox.cif.g08.bks.cpg/sg2_231_cif.got.tgz:461500.got - 2010.06.03 11:33:40.
