data_PCOD9004170
_publ_section_title
;
Structure prediction by ZEFSAII (Michael W. Deem and Ramdas Pophale) SiO2 
 PCOD9004170
Probable space group: P -1
;
_chemical_formula_sum "Si O2"
_cell_formula_units_Z 16
_cell_length_a 7.243640
_cell_length_b 14.162397
_cell_length_c 11.514929
_cell_angle_alpha 41.145146
_cell_angle_beta 95.227081
_cell_angle_gamma 109.376650
_cell_volume 708.840590
_symmetry_space_group_name_H-M "P -1"
_symmetry_group_IT_number 2
_symmetry_cell_setting 'triclinic'
loop_
_space_group_symop_operation_xyz
x,y,z
-x,-y,-z
loop_
_atom_site_type_symbol
_atom_site_label
_atom_site_fract_x
_atom_site_fract_y
_atom_site_fract_z
Si Si1 0.677675 0.565259 0.545241
Si Si2 0.690062 0.842768 0.888455
Si Si3 0.567670 0.242265 0.848177
Si Si4 0.012039 0.092931 0.794271
Si Si5 0.631068 0.181322 0.297802
Si Si6 0.936145 0.822872 0.706058
Si Si7 0.612081 0.942090 0.226057
Si Si8 0.446089 0.292767 0.371270
O O1 0.735304 0.416561 0.702462
O O2 0.500485 0.823058 0.224357
O O3 0.869515 0.720029 0.371901
O O4 0.576513 0.604216 0.618232
O O5 0.492195 0.808455 0.832213
O O6 0.837428 0.803985 0.845903
O O7 0.617730 0.752894 0.089119
O O8 0.801996 0.021891 0.777945
O O9 0.500000 0.500000 0.500000
O O10 0.158699 0.039491 0.777605
O O11 0.000000 0.000000 0.000000
O O12 0.614527 0.310781 0.266677
O O13 0.500000 0.000000 0.500000
O O14 0.383789 0.892625 0.963420
O O15 0.753146 0.730977 0.693068
O O16 0.138298 0.791547 0.737486
O O17 0.000000 0.000000 0.500000
O O18 0.541817 0.856783 0.422057
#
# Coordination Sequence:
#
# PCOD9004170 Si02
#       8
#     2   2   2   2   2   2   2   2
#     4  11  21  41  68  95 140 184 216 271 342 407
#     4  11  23  38  67  99 128 177 224 285 333 399
#     4  11  22  40  64  99 132 180 223 268 341 407
#     4  11  21  40  66 100 136 176 225 274 336 402
#     4  11  22  37  63 102 130 168 234 287 330 387
#     4  11  21  38  62 101 130 168 229 290 333 381
#     4  10  21  37  64  94 132 172 224 274 324 399
#     4  10  21  39  69  96 131 178 222 281 334 397
#
# _framework density 22.572071999999999
#
# number of rings (size 3 to 8) (size 9 to 14) (size 15 to 20)
#    0.000    1.250    6.250    2.250    1.750    0.000 
#    0.000    3.125    5.500    1.500    0.000    0.000 
#    0.000    0.000    0.000    0.000    0.000    0.000 
#
# Total GULP energy -89134.671586 kJ/mol
# GULP energy per Si atom -5570.916974 kJ/mol
# Density = 2.252070 g / cm^3
# Si number density = 22.572072 Si / 1000 Ang^3
#
#
#
# Elastic Constant Matrix: (Units=GPa)
#
#
# Indices 1 2 3 4 5 6 
#
# 1 115.3477 33.0514 30.0443 -1.9650 1.2605 5.4733
# 2 33.0514 147.1823 66.1722 3.7053 -2.9882 -3.5977
# 3 30.0443 66.1722 84.9288 -8.4068 -2.0612 -3.5282
# 4 -1.9650 3.7053 -8.4068 42.5717 -7.4623 -0.2450
# 5 1.2605 -2.9882 -2.0612 -7.4623 26.1951 4.9421
# 6 5.4733 -3.5977 -3.5282 -0.2450 4.9421 28.3834
#
#
#
# Elastic Compliance Matrix: (Units=1/GPa)
#
#
# Indices 1 2 3 4 5 6 
#
# 1 0.009798 -0.001004 -0.002799 -0.000096 -0.000401 -0.002296
# 2 -0.001004 0.010847 -0.008344 -0.002677 -0.000237 0.000549
# 3 -0.002799 -0.008344 0.019859 0.004846 0.001809 0.001677
# 4 -0.000096 -0.002677 0.004846 0.026011 0.007646 -0.000825
# 5 -0.000401 -0.000237 0.001809 0.007646 0.041797 -0.006940
# 6 -0.002296 0.000549 0.001677 -0.000825 -0.006940 0.037154
#
#
# Mechanical properties :
#
#
# Convention : Reuss Voigt Hill
#
# Bulk Modulus (GPa) = 61.68724 67.33272 64.50998
# Shear Modulus (GPa) = 28.54479 33.97609 31.26044
#
# Velocity S-wave (km/s) = 3.55999 3.88393 3.72548
# Velocity P-wave (km/s) = 6.65480 7.07164 6.86638
#
# Compressibility (1/GPa) = 0.01621081
#
# Stress axis : x y z
#
# Youngs Moduli (GPa) = 102.06533 92.18862 50.35392
#
# Poissons Ratio (x) = 0.09254 0.14092
# Poissons Ratio (y) = 0.10245 0.42018
# Poissons Ratio (z) = 0.28563 0.76927
#
# Static dielectric constant tensor:
#      x y z
#    x 1.921830 -0.028360 0.009680 
#    y -0.028360 1.879800 -0.049450 
#    z 0.009680 -0.049450 1.853430 
# 
# From -- ./inp_files/395484.got.cif
#   From: 2010.05.17/outbox.cif.g08.bks.cpg/sg2_198_cif.got.tgz:395484.got - 2010.06.03 11:33:40.
