data_PCOD9004199
_publ_section_title
;
Structure prediction by ZEFSAII (Michael W. Deem and Ramdas Pophale) SiO2 
 PCOD9004199
Probable space group: P -1
;
_chemical_formula_sum "Si O2"
_cell_formula_units_Z 16
_cell_length_a 9.167918
_cell_length_b 9.718036
_cell_length_c 15.495268
_cell_angle_alpha 66.376575
_cell_angle_beta 129.055970
_cell_angle_gamma 74.864420
_cell_volume 679.687885
_symmetry_space_group_name_H-M "P -1"
_symmetry_group_IT_number 2
_symmetry_cell_setting 'triclinic'
loop_
_space_group_symop_operation_xyz
x,y,z
-x,-y,-z
loop_
_atom_site_type_symbol
_atom_site_label
_atom_site_fract_x
_atom_site_fract_y
_atom_site_fract_z
Si Si1 0.258591 0.723758 0.097966
Si Si2 0.129594 0.327566 0.015301
Si Si3 0.906633 0.667076 0.695604
Si Si4 0.650293 0.104005 0.585081
Si Si5 0.892369 0.945809 0.163728
Si Si6 0.214240 0.681855 0.685840
Si Si7 0.241210 0.989074 0.702936
Si Si8 0.341358 0.554116 0.341025
O O1 0.482358 0.496477 0.189812
O O2 0.340522 0.686544 0.237937
O O3 0.993261 0.769342 0.995468
O O4 0.274818 0.872562 0.017941
O O5 0.455712 0.141987 0.180874
O O6 0.000000 0.500000 0.000000
O O7 0.014332 0.484137 0.849834
O O8 0.639637 0.775351 0.512885
O O9 0.149094 0.580106 0.748375
O O10 0.786960 0.881972 0.647765
O O11 0.515565 0.316525 0.423608
O O12 0.882728 0.052744 0.736413
O O13 0.039800 0.722270 0.227907
O O14 0.783590 0.974510 0.211727
O O15 0.189237 0.844344 0.694939
O O16 0.996914 0.800224 0.496869
O O17 0.500000 0.500000 0.500000
#
# Coordination Sequence:
#
# PCOD9004199 Si02
#       8
#     2   2   2   2   2   2   2   2
#     4  12  24  42  68 102 128 176 222 270 329 393
#     4  12  25  38  63 101 144 167 209 273 338 394
#     4  11  23  37  64  97 138 169 212 270 335 393
#     4  10  21  37  64  97 128 170 216 264 332 377
#     4  11  23  42  70  90 135 174 228 264 323 391
#     4  11  24  39  66  94 141 169 224 264 334 397
#     4  11  25  41  62 102 131 183 212 273 331 390
#     4  10  22  43  69  94 128 176 228 271 314 389
#
# _framework density 23.540216999999998
#
# number of rings (size 3 to 8) (size 9 to 14) (size 15 to 20)
#    0.000    1.000    3.750    3.375    7.000    1.000 
#    0.000    0.625    2.750    2.250    0.000    0.000 
#    0.000    0.000    0.000    0.000    0.000    0.000 
#
# Total GULP energy -89156.940116 kJ/mol
# GULP energy per Si atom -5572.308757 kJ/mol
# Density = 2.348664 g / cm^3
# Si number density = 23.540217 Si / 1000 Ang^3
#
#
#
# Elastic Constant Matrix: (Units=GPa)
#
#
# Indices 1 2 3 4 5 6 
#
# 1 113.8247 16.0318 33.9250 5.1872 -2.7124 -17.8741
# 2 16.0318 84.1837 20.1426 -8.7904 -12.6353 -14.6812
# 3 33.9250 20.1426 71.4635 -6.2038 -7.7761 -4.2026
# 4 5.1872 -8.7904 -6.2038 32.0520 -0.8218 0.9007
# 5 -2.7124 -12.6353 -7.7761 -0.8218 42.7223 8.8017
# 6 -17.8741 -14.6812 -4.2026 0.9007 8.8017 30.2763
#
#
#
# Elastic Compliance Matrix: (Units=1/GPa)
#
#
# Indices 1 2 3 4 5 6 
#
# 1 0.011608 -0.000365 -0.005502 -0.003273 -0.001780 0.006527
# 2 -0.000365 0.014356 -0.002977 0.003333 0.002617 0.005473
# 3 -0.005502 -0.002977 0.017879 0.003692 0.002737 -0.003116
# 4 -0.003273 0.003333 0.003692 0.033461 0.002402 -0.001497
# 5 -0.001780 0.002617 0.002737 0.002402 0.026065 -0.007051
# 6 0.006527 0.005473 -0.003116 -0.001497 -0.007051 0.041198
#
#
# Mechanical properties :
#
#
# Convention : Reuss Voigt Hill
#
# Bulk Modulus (GPa) = 38.23215 45.51896 41.87556
# Shear Modulus (GPa) = 29.24415 34.30163 31.77289
#
# Velocity S-wave (km/s) = 3.52846 3.82140 3.67785
# Velocity P-wave (km/s) = 5.73380 6.23294 5.98857
#
# Compressibility (1/GPa) = 0.02615600
#
# Stress axis : x y z
#
# Youngs Moduli (GPa) = 86.14487 69.65778 55.93075
#
# Poissons Ratio (x) = 0.02541 0.30772
# Poissons Ratio (y) = 0.03143 0.16651
# Poissons Ratio (z) = 0.47395 0.20738
#
# Static dielectric constant tensor:
#      x y z
#    x 1.914770 0.051990 0.008010 
#    y 0.051990 1.985420 -0.008610 
#    z 0.008010 -0.008610 2.021680 
# 
# From -- ./inp_files/189399.got.cif
#   From: 2010.05.17/outbox.cif.g08.bks.cpg/sg2_95_cif.got.tgz:189399.got - 2010.06.03 11:33:40.
