data_PCOD9004111
_publ_section_title
;
Structure prediction by ZEFSAII (Michael W. Deem and Ramdas Pophale) SiO2 
 PCOD9004111
Probable space group: P -1
;
_chemical_formula_sum "Si O2"
_cell_formula_units_Z 14
_cell_length_a 12.056766
_cell_length_b 11.613778
_cell_length_c 11.350514
_cell_angle_alpha 36.436921
_cell_angle_beta 108.275243
_cell_angle_gamma 132.830446
_cell_volume 584.556540
_symmetry_space_group_name_H-M "P -1"
_symmetry_group_IT_number 2
_symmetry_cell_setting 'triclinic'
loop_
_space_group_symop_operation_xyz
x,y,z
-x,-y,-z
loop_
_atom_site_type_symbol
_atom_site_label
_atom_site_fract_x
_atom_site_fract_y
_atom_site_fract_z
Si Si1 0.489915 0.591667 0.157528
Si Si2 0.210946 0.518095 0.759166
Si Si3 0.064903 0.947153 0.751610
Si Si4 0.355082 0.047683 0.860561
Si Si5 0.858238 0.605138 0.736949
Si Si6 0.410938 0.691678 0.481301
Si Si7 0.441539 0.115761 0.278003
O O1 0.295183 0.443264 0.222991
O O2 0.492948 0.375985 0.378913
O O3 0.611275 0.863322 0.066449
O O4 0.566721 0.716051 0.950269
O O5 0.217210 0.451335 0.680265
O O6 0.256576 0.806655 0.528339
O O7 0.394441 0.671118 0.753958
O O8 0.055877 0.259814 0.005880
O O9 0.257939 0.110524 0.718898
O O10 0.993757 0.750502 0.771626
O O11 0.061867 0.168224 0.530492
O O12 0.543494 0.251886 0.687480
O O13 0.229836 0.706000 0.075838
O O14 0.488818 0.991670 0.309884
#
# Coordination Sequence:
#
# PCOD9004111 Si02
#       7
#     2   2   2   2   2   2   2
#     4  12  22  39  65  94 118 162 214 243 293 374
#     4   9  19  43  61  87 126 161 195 257 302 355
#     4  11  23  42  59  95 127 153 202 257 309 356
#     4  12  24  39  66  90 124 162 204 253 301 355
#     4  11  23  39  64  91 125 161 203 251 304 360
#     4  10  21  37  64  91 117 162 201 253 294 358
#     4   9  20  39  62  87 123 157 208 240 301 359
#
# _framework density 23.949777999999998
#
# number of rings (size 3 to 8) (size 9 to 14) (size 15 to 20)
#    0.857    0.571    4.286    1.286    0.000    0.571 
#    2.571    1.429    0.000    0.000    0.000    0.000 
#    0.000    0.000    0.000    0.000    0.000    0.000 
#
# Total GULP energy -78141.232954 kJ/mol
# GULP energy per Si atom -5581.516640 kJ/mol
# Density = 2.389527 g / cm^3
# Si number density = 23.949778 Si / 1000 Ang^3
#
#
#
# Elastic Constant Matrix: (Units=GPa)
#
#
# Indices 1 2 3 4 5 6 
#
# 1 37.2526 6.5926 9.9399 -7.4470 8.4502 -9.5408
# 2 6.5926 92.2880 5.1294 1.4072 -0.3675 -3.2308
# 3 9.9399 5.1294 126.2251 18.3625 -13.7039 -12.4522
# 4 -7.4470 1.4072 18.3625 32.7398 -6.4466 6.3848
# 5 8.4502 -0.3675 -13.7039 -6.4466 43.2593 5.6768
# 6 -9.5408 -3.2308 -12.4522 6.3848 5.6768 27.4435
#
#
#
# Elastic Compliance Matrix: (Units=1/GPa)
#
#
# Indices 1 2 3 4 5 6 
#
# 1 0.033758 -0.001992 -0.003322 0.006027 -0.008113 0.010270
# 2 -0.001992 0.011024 -0.000044 -0.001011 0.000216 0.000776
# 3 -0.003322 -0.000044 0.009832 -0.006697 0.002187 0.004407
# 4 0.006027 -0.001011 -0.006697 0.038589 0.003866 -0.010840
# 5 -0.008113 0.000216 0.002187 0.003866 0.027061 -0.008300
# 6 0.010270 0.000776 0.004407 -0.010840 -0.008300 0.046339
#
#
# Mechanical properties :
#
#
# Convention : Reuss Voigt Hill
#
# Bulk Modulus (GPa) = 22.77949 33.23214 28.00581
# Shear Modulus (GPa) = 26.04831 36.29545 31.17188
#
# Velocity S-wave (km/s) = 3.30149 3.89714 3.61162
# Velocity P-wave (km/s) = 4.90562 5.84433 5.39543
#
# Compressibility (1/GPa) = 0.04389914
#
# Stress axis : x y z
#
# Youngs Moduli (GPa) = 29.62255 90.71291 101.70728
#
# Poissons Ratio (x) = 0.18066 0.33785
# Poissons Ratio (y) = 0.05899 0.00448
# Poissons Ratio (z) = 0.09840 0.00400
#
# Static dielectric constant tensor:
#      x y z
#    x 1.935920 -0.044620 -0.035290 
#    y -0.044620 1.901370 0.040900 
#    z -0.035290 0.040900 2.012810 
# 
# From -- ./inp_files/422848.got.cif
#   From: 2010.05.17/outbox.cif.g08.bks.cpg/sg2_212_cif.got.tgz:422848.got - 2010.06.03 11:33:40.
