data_PCOD9004784
_publ_section_title
;
Structure prediction by ZEFSAII (Michael W. Deem and Ramdas Pophale) SiO2 
 PCOD9004784
Probable space group: P -1
;
_chemical_formula_sum "Si O2"
_cell_formula_units_Z 14
_cell_length_a 16.055165
_cell_length_b 12.191749
_cell_length_c 8.718943
_cell_angle_alpha 116.562306
_cell_angle_beta 60.874094
_cell_angle_gamma 151.897765
_cell_volume 701.599676
_symmetry_space_group_name_H-M "P -1"
_symmetry_group_IT_number 2
_symmetry_cell_setting 'triclinic'
loop_
_space_group_symop_operation_xyz
x,y,z
-x,-y,-z
loop_
_atom_site_type_symbol
_atom_site_label
_atom_site_fract_x
_atom_site_fract_y
_atom_site_fract_z
Si Si1 0.056151 0.845258 0.340431
Si Si2 0.442629 0.932605 0.257003
Si Si3 0.585276 0.893872 0.859302
Si Si4 0.357807 0.473233 0.240629
Si Si5 0.615925 0.550116 0.151095
Si Si6 0.059512 0.064876 0.698570
Si Si7 0.264710 0.638752 0.515411
O O1 0.938859 0.800662 0.301229
O O2 0.929708 0.611969 0.400088
O O3 0.219245 0.950981 0.181009
O O4 0.130896 0.032371 0.506060
O O5 0.281631 0.721209 0.385945
O O6 0.397128 0.001123 0.238918
O O7 0.618902 0.155417 0.340946
O O8 0.497625 0.883389 0.062295
O O9 0.456514 0.636172 0.791284
O O10 0.489989 0.531522 0.254993
O O11 0.362617 0.615220 0.387522
O O12 0.406724 0.522088 0.047794
O O13 0.152188 0.198442 0.258038
O O14 0.820316 0.801749 0.174074
#
# Coordination Sequence:
#
# PCOD9004784 Si02
#       7
#     2   2   2   2   2   2   2
#     4  10  22  38  60  90 129 152 207 255 303 373
#     4  10  23  40  64  84 120 168 211 245 305 356
#     4  11  22  40  61  92 121 161 209 253 298 373
#     4  10  21  38  61  94 123 157 206 256 304 376
#     4  11  21  36  65  91 124 162 198 256 318 359
#     4  10  21  38  58  95 128 159 194 253 316 373
#     4  10  21  42  61  86 122 162 205 258 300 362
#
# _framework density 19.954398999999999
#
# number of rings (size 3 to 8) (size 9 to 14) (size 15 to 20)
#    0.000    1.714    2.857    1.286    2.000    1.714 
#    0.000    0.000    3.143    0.000    0.000    0.000 
#    0.000    0.000    0.000    0.000    0.000    0.000 
#
# Total GULP energy -78127.927682 kJ/mol
# GULP energy per Si atom -5580.566263 kJ/mol
# Density = 1.990898 g / cm^3
# Si number density = 19.954399 Si / 1000 Ang^3
#
#
#
# Elastic Constant Matrix: (Units=GPa)
#
#
# Indices 1 2 3 4 5 6 
#
# 1 92.7754 30.0949 8.5274 4.7933 7.4993 -10.4806
# 2 30.0949 63.8858 -12.6237 -12.0064 9.6472 -9.8126
# 3 8.5274 -12.6237 -0.8720 0.6456 5.2439 3.3216
# 4 4.7933 -12.0064 0.6456 12.3128 3.3349 3.6820
# 5 7.4993 9.6472 5.2439 3.3349 17.4856 -4.2220
# 6 -10.4806 -9.8126 3.3216 3.6820 -4.2220 32.0777
#
#
#
# Elastic Compliance Matrix: (Units=1/GPa)
#
#
# Indices 1 2 3 4 5 6 
#
# 1 0.009591 0.000774 0.020057 -0.001267 -0.010294 0.000084
# 2 0.000774 0.008570 -0.039616 0.005941 0.007444 0.007275
# 3 0.020057 -0.039616 -0.069109 -0.060624 0.049170 0.015021
# 4 -0.001267 0.005941 -0.060624 0.092488 -0.002997 -0.003330
# 5 -0.010294 0.007444 0.049170 -0.002997 0.043291 -0.000136
# 6 0.000084 0.007275 0.015021 -0.003330 -0.000136 0.032236
#
#
# Mechanical properties :
#
#
# Convention : Reuss Voigt Hill
#
# Bulk Modulus (GPa) = -11.29741 23.08737 5.89498
# Shear Modulus (GPa) = 39.95884 21.02793 30.49339
#
# Velocity S-wave (km/s) = 4.47979 3.24975 3.91340
# Velocity P-wave (km/s) = 4.59175 5.06718 4.83531
#
# Compressibility (1/GPa) = -0.08851585
#
# Stress axis : x y z
#
# Youngs Moduli (GPa) = 104.26436 116.68771 -14.46984
#
# Poissons Ratio (x) = -0.09037 0.29023
# Poissons Ratio (y) = -0.08075 -0.57323
# Poissons Ratio (z) = -2.09127 4.62265
#
# Static dielectric constant tensor:
#      x y z
#    x 1.694120 -0.027050 0.021510 
#    y -0.027050 1.707270 -0.034180 
#    z 0.021510 -0.034180 1.719940 
# 
# From -- ./inp_files/206797.got.cif
#   From: 2010.05.17/outbox.cif.g08.bks.cpg/sg2_104_cif.got.tgz:206797.got - 2010.06.03 11:33:40.
