data_PCOD9004407
_publ_section_title
;
Structure prediction by ZEFSAII (Michael W. Deem and Ramdas Pophale) SiO2 
 PCOD9004407
Probable space group: P -1
;
_chemical_formula_sum "Si O2"
_cell_formula_units_Z 13
_cell_length_a 9.283956
_cell_length_b 14.745111
_cell_length_c 13.189572
_cell_angle_alpha 140.146115
_cell_angle_beta 148.105813
_cell_angle_gamma 37.905056
_cell_volume 558.856309
_symmetry_space_group_name_H-M "P -1"
_symmetry_group_IT_number 2
_symmetry_cell_setting 'triclinic'
loop_
_space_group_symop_operation_xyz
x,y,z
-x,-y,-z
loop_
_atom_site_type_symbol
_atom_site_label
_atom_site_fract_x
_atom_site_fract_y
_atom_site_fract_z
Si Si1 0.477311 0.423788 0.261439
Si Si2 0.002614 0.413119 0.708917
Si Si3 0.711421 0.381827 0.885763
Si Si4 0.000000 0.000000 0.000000
Si Si5 0.688807 0.860672 0.065901
Si Si6 0.324494 0.061533 0.654201
Si Si7 0.278899 0.915591 0.312614
O O1 0.768377 0.419159 0.488532
O O2 0.195286 0.523690 0.251338
O O3 0.448779 0.503674 0.203897
O O4 0.479478 0.253263 0.106237
O O5 0.227034 0.238461 0.712360
O O6 0.181112 0.520317 0.888675
O O7 0.562753 0.270717 0.742819
O O8 0.019050 0.254975 0.916039
O O9 0.317250 0.020043 0.203755
O O10 0.057491 0.956227 0.120433
O O11 0.761177 0.924354 0.267950
O O12 0.500000 0.000000 0.000000
O O13 0.171249 0.984547 0.419891
O O14 0.500000 0.000000 0.500000
#
# Coordination Sequence:
#
# PCOD9004407 Si02
#       7
#     2   2   2   1   2   2   2
#     4  10  21  39  61  99 147 172 208 263 333 409
#     4  10  21  37  66  95 138 178 212 261 331 400
#     4  11  21  42  65  99 138 175 209 272 337 401
#     4  10  24  46  62  86 132 172 222 284 326 374
#     4  11  22  37  66 106 141 176 213 267 333 397
#     4  11  22  41  66  98 131 176 224 271 325 393
#     4  10  25  43  67  92 129 174 231 280 327 387
#
# _framework density 23.261793999999998
#
# number of rings (size 3 to 8) (size 9 to 14) (size 15 to 20)
#    0.000    1.538    3.077    1.846    4.308    6.769 
#    0.000    3.077    0.000    8.308    0.000    0.000 
#    0.000    0.000    0.000    0.000    0.000    0.000 
#
# Total GULP energy -72410.299130 kJ/mol
# GULP energy per Si atom -5570.023010 kJ/mol
# Density = 2.320885 g / cm^3
# Si number density = 23.261794 Si / 1000 Ang^3
#
#
#
# Elastic Constant Matrix: (Units=GPa)
#
#
# Indices 1 2 3 4 5 6 
#
# 1 66.0092 33.1416 35.9363 7.0549 -9.4864 23.8579
# 2 33.1416 116.0932 77.6094 2.8030 -10.2860 46.8569
# 3 35.9363 77.6094 185.2378 0.8122 -18.4636 38.3954
# 4 7.0549 2.8030 0.8122 44.8370 10.7834 2.1552
# 5 -9.4864 -10.2860 -18.4636 10.7834 48.0085 2.6647
# 6 23.8579 46.8569 38.3954 2.1552 2.6647 31.5366
#
#
#
# Elastic Compliance Matrix: (Units=1/GPa)
#
#
# Indices 1 2 3 4 5 6 
#
# 1 0.023432 0.003684 -0.000599 -0.004612 0.007490 -0.022789
# 2 0.003684 0.025244 -0.002763 -0.002144 0.007633 -0.037429
# 3 -0.000599 -0.002763 0.008091 -0.000281 0.002770 -0.005508
# 4 -0.004612 -0.002144 -0.000281 0.024648 -0.007346 0.005954
# 5 0.007490 0.007633 0.002770 -0.007346 0.027895 -0.022236
# 6 -0.022789 -0.037429 -0.005508 0.005954 -0.022236 0.112739
#
#
# Mechanical properties :
#
#
# Convention : Reuss Voigt Hill
#
# Bulk Modulus (GPa) = 17.41804 73.41276 45.41540
# Shear Modulus (GPa) = 20.78638 39.58661 30.18649
#
# Velocity S-wave (km/s) = 2.99253 4.12975 3.60625
# Velocity P-wave (km/s) = 4.40958 7.37344 6.07503
#
# Compressibility (1/GPa) = 0.05741173
#
# Stress axis : x y z
#
# Youngs Moduli (GPa) = 42.67715 39.61305 123.59114
#
# Poissons Ratio (x) = -0.14594 0.07403
# Poissons Ratio (y) = -0.15723 0.34146
# Poissons Ratio (z) = 0.02556 0.10944
#
# Static dielectric constant tensor:
#      x y z
#    x 2.071670 0.017720 0.015840 
#    y 0.017720 1.834870 0.043570 
#    z 0.015840 0.043570 1.854800 
# 
# From -- ./inp_files/171050.got.cif
#   From: 2010.05.17/outbox.cif.g08.bks.cpg/sg2_86_cif.got.tgz:171050.got - 2010.06.03 11:33:40.
