data_PCOD9004844
_publ_section_title
;
Structure prediction by ZEFSAII (Michael W. Deem and Ramdas Pophale) SiO2 
 PCOD9004844
Probable space group: P -1
;
_chemical_formula_sum "Si O2"
_cell_formula_units_Z 16
_cell_length_a 6.863890
_cell_length_b 7.961999
_cell_length_c 16.532788
_cell_angle_alpha 97.409386
_cell_angle_beta 83.255712
_cell_angle_gamma 134.595035
_cell_volume 637.550594
_symmetry_space_group_name_H-M "P -1"
_symmetry_group_IT_number 2
_symmetry_cell_setting 'triclinic'
loop_
_space_group_symop_operation_xyz
x,y,z
-x,-y,-z
loop_
_atom_site_type_symbol
_atom_site_label
_atom_site_fract_x
_atom_site_fract_y
_atom_site_fract_z
Si Si1 0.313586 0.776663 0.210791
Si Si2 0.212863 0.832047 0.696944
Si Si3 0.276096 0.329198 0.569486
Si Si4 0.442707 0.171696 0.960967
Si Si5 0.780365 0.679561 0.818787
Si Si6 0.732499 0.503896 0.251089
Si Si7 0.107380 0.293449 0.997716
Si Si8 0.798589 0.114347 0.473267
O O1 0.483610 0.891526 0.126338
O O2 0.276632 0.553415 0.205650
O O3 0.034459 0.715847 0.213245
O O4 0.475161 0.921123 0.292977
O O5 0.233048 0.665585 0.730022
O O6 0.107314 0.746188 0.606511
O O7 0.028296 0.856789 0.755359
O O8 0.500000 0.500000 0.500000
O O9 0.340716 0.430289 0.662352
O O10 0.005572 0.260081 0.545685
O O11 0.219040 0.095672 0.558233
O O12 0.721765 0.426571 0.001046
O O13 0.280165 0.246323 0.945404
O O14 0.779182 0.067832 0.989390
O O15 0.514088 0.625252 0.806848
O O16 0.863525 0.737888 0.910850
O O17 0.500000 0.000000 0.500000
#
# Coordination Sequence:
#
# PCOD9004844 Si02
#       8
#     2   2   2   2   2   2   2   2
#     4  10  21  38  59  86 120 162 203 257 313 373
#     4  11  22  38  59  85 117 157 200 252 309 375
#     4  11  24  42  61  88 119 155 199 254 309 374
#     4   9  17  33  61  90 126 164 217 263 316 380
#     4  10  21  38  59  86 119 161 206 252 313 373
#     4  11  24  38  58  88 121 156 204 255 312 374
#     4   9  17  33  60  93 121 169 215 262 317 380
#     4  11  24  40  63  88 116 153 201 249 309 373
#
# _framework density 25.096050999999999
#
# number of rings (size 3 to 8) (size 9 to 14) (size 15 to 20)
#    0.000    1.750    1.250    3.000    0.000    8.000 
#    0.000    0.625    0.000    0.750    0.000    0.000 
#    0.000    0.000    0.000    0.000    0.000    0.000 
#
# Total GULP energy -89455.951693 kJ/mol
# GULP energy per Si atom -5590.996981 kJ/mol
# Density = 2.503893 g / cm^3
# Si number density = 25.096051 Si / 1000 Ang^3
#
#
#
# Elastic Constant Matrix: (Units=GPa)
#
#
# Indices 1 2 3 4 5 6 
#
# 1 106.4223 21.8788 26.9203 -15.7409 7.2381 23.6610
# 2 21.8788 100.0320 6.2428 0.7640 -2.0712 13.2298
# 3 26.9203 6.2428 86.4449 -7.2346 -8.4859 5.0938
# 4 -15.7409 0.7640 -7.2346 32.5426 7.3694 -10.8648
# 5 7.2381 -2.0712 -8.4859 7.3694 40.5739 -5.0005
# 6 23.6610 13.2298 5.0938 -10.8648 -5.0005 41.8617
#
#
#
# Elastic Compliance Matrix: (Units=1/GPa)
#
#
# Indices 1 2 3 4 5 6 
#
# 1 0.012998 -0.002008 -0.003641 0.004724 -0.004732 -0.005608
# 2 -0.002008 0.010850 -0.000098 -0.002401 0.000984 -0.002788
# 3 -0.003641 -0.000098 0.013038 0.000742 0.003372 0.001098
# 4 0.004724 -0.002401 0.000742 0.037025 -0.006696 0.006808
# 5 -0.004732 0.000984 0.003372 -0.006696 0.027899 0.003548
# 6 -0.005608 -0.002788 0.001098 0.006808 0.003548 0.029996
#
#
# Mechanical properties :
#
#
# Convention : Reuss Voigt Hill
#
# Bulk Modulus (GPa) = 39.38632 44.77590 42.08111
# Shear Modulus (GPa) = 32.94593 38.85278 35.89936
#
# Velocity S-wave (km/s) = 3.62718 3.93894 3.78627
# Velocity P-wave (km/s) = 5.76803 6.21028 5.99324
#
# Compressibility (1/GPa) = 0.02538953
#
# Stress axis : x y z
#
# Youngs Moduli (GPa) = 76.93562 92.17009 76.70129
#
# Poissons Ratio (x) = 0.18507 0.27930
# Poissons Ratio (y) = 0.15448 0.00754
# Poissons Ratio (z) = 0.28016 0.00906
#
# Static dielectric constant tensor:
#      x y z
#    x 1.956560 0.030570 -0.027240 
#    y 0.030570 2.179400 -0.067850 
#    z -0.027240 -0.067850 1.961490 
# 
# From -- ./inp_files/548165.got.cif
#   From: 2010.05.17/outbox.cif.g08.bks.cpg/sg2_275_cif.got.tgz:548165.got - 2010.06.03 11:33:40.
