data_PCOD9004471
_publ_section_title
;
Structure prediction by ZEFSAII (Michael W. Deem and Ramdas Pophale) SiO2 
 PCOD9004471
Probable space group: P -1
;
_chemical_formula_sum "Si O2"
_cell_formula_units_Z 12
_cell_length_a 14.020987
_cell_length_b 9.215597
_cell_length_c 9.271280
_cell_angle_alpha 67.176604
_cell_angle_beta 151.761789
_cell_angle_gamma 127.420154
_cell_volume 414.051539
_symmetry_space_group_name_H-M "P -1"
_symmetry_group_IT_number 2
_symmetry_cell_setting 'triclinic'
loop_
_space_group_symop_operation_xyz
x,y,z
-x,-y,-z
loop_
_atom_site_type_symbol
_atom_site_label
_atom_site_fract_x
_atom_site_fract_y
_atom_site_fract_z
Si Si1 0.288571 0.882925 0.071239
Si Si2 0.942699 0.854840 0.844003
Si Si3 0.380138 0.608556 0.445234
Si Si4 0.199750 0.015635 0.649064
Si Si5 0.159953 0.521910 0.484648
Si Si6 0.806885 0.595729 0.144794
O O1 0.406053 0.770260 0.312670
O O2 0.396990 0.026592 0.020045
O O3 0.211049 0.950147 0.080769
O O4 0.006231 0.699250 0.713876
O O5 0.820316 0.620902 0.790307
O O6 0.753539 0.846833 0.477183
O O7 0.000000 0.000000 0.000000
O O8 0.296302 0.641705 0.475596
O O9 0.623143 0.620907 0.803414
O O10 0.041380 0.807352 0.435764
O O11 0.000000 0.000000 0.500000
O O12 0.321823 0.538602 0.830364
O O13 0.946809 0.531298 0.264493
#
# Coordination Sequence:
#
# PCOD9004471 Si02
#       6
#     2   2   2   2   2   2
#     4   9  20  39  62  92 127 171 214 264 324 391
#     4  10  21  38  65  94 135 175 210 270 343 379
#     4  11  22  39  69 100 124 166 232 274 306 393
#     4   9  20  40  63  89 132 179 203 262 348 385
#     4   9  19  37  62  94 129 165 216 268 325 370
#     4  10  21  37  67  97 125 173 226 263 319 399
#
# _framework density 28.981898999999999
#
# number of rings (size 3 to 8) (size 9 to 14) (size 15 to 20)
#    0.000    2.333    0.000    3.500    4.667    0.667 
#    0.000    3.333   11.000   14.000    0.000    0.000 
#    0.000    0.000    0.000    0.000    0.000    0.000 
#
# Total GULP energy -67129.615819 kJ/mol
# GULP energy per Si atom -5594.134652 kJ/mol
# Density = 2.891594 g / cm^3
# Si number density = 28.981899 Si / 1000 Ang^3
#
#
#
# Elastic Constant Matrix: (Units=GPa)
#
#
# Indices 1 2 3 4 5 6 
#
# 1 188.7338 60.6974 70.0768 -18.3099 -22.9254 -26.6967
# 2 60.6974 148.9682 78.0614 -35.6497 -24.3860 -12.8075
# 3 70.0768 78.0614 179.7796 -39.8180 -27.5336 -3.2354
# 4 -18.3099 -35.6497 -39.8180 68.1874 -2.5815 -18.6311
# 5 -22.9254 -24.3860 -27.5336 -2.5815 43.6868 -0.4613
# 6 -26.6967 -12.8075 -3.2354 -18.6311 -0.4613 59.5831
#
#
#
# Elastic Compliance Matrix: (Units=1/GPa)
#
#
# Indices 1 2 3 4 5 6 
#
# 1 0.007116 -0.001072 -0.001589 0.001418 0.002253 0.003333
# 2 -0.001072 0.010506 -0.002383 0.004842 0.004120 0.003195
# 3 -0.001589 -0.002383 0.008532 0.003542 0.003427 0.000373
# 4 0.001418 0.004842 0.003542 0.022350 0.007094 0.008912
# 5 0.002253 0.004120 0.003427 0.007094 0.028999 0.004524
# 6 0.003333 0.003195 0.000373 0.008912 0.004524 0.021805
#
#
# Mechanical properties :
#
#
# Convention : Reuss Voigt Hill
#
# Bulk Modulus (GPa) = 62.24129 103.90586 83.07358
# Shear Modulus (GPa) = 43.57205 54.86785 49.21995
#
# Velocity S-wave (km/s) = 3.88161 4.35579 4.12551
# Velocity P-wave (km/s) = 6.45071 7.82477 7.17073
#
# Compressibility (1/GPa) = 0.01606650
#
# Stress axis : x y z
#
# Youngs Moduli (GPa) = 140.52966 95.18088 117.19984
#
# Poissons Ratio (x) = 0.10202 0.18624
# Poissons Ratio (y) = 0.15063 0.27930
# Poissons Ratio (z) = 0.22332 0.22683
#
# Static dielectric constant tensor:
#      x y z
#    x 2.403660 0.089790 -0.083780 
#    y 0.089790 2.443080 -0.026690 
#    z -0.083780 -0.026690 2.328280 
# 
# From -- ./inp_files/298068.got.cif
#   From: 2010.05.17/outbox.cif.g08.bks.cpg/sg2_150_cif.got.tgz:298068.got - 2010.06.03 11:33:40.
