data_PCOD9004233
_publ_section_title
;
Structure prediction by ZEFSAII (Michael W. Deem and Ramdas Pophale) SiO2 
 PCOD9004233
Probable space group: P -1
;
_chemical_formula_sum "Si O2"
_cell_formula_units_Z 12
_cell_length_a 11.294090
_cell_length_b 16.371854
_cell_length_c 5.712215
_cell_angle_alpha 125.038930
_cell_angle_beta 55.563870
_cell_angle_gamma 142.625399
_cell_volume 512.113407
_symmetry_space_group_name_H-M "P -1"
_symmetry_group_IT_number 2
_symmetry_cell_setting 'triclinic'
loop_
_space_group_symop_operation_xyz
x,y,z
-x,-y,-z
loop_
_atom_site_type_symbol
_atom_site_label
_atom_site_fract_x
_atom_site_fract_y
_atom_site_fract_z
Si Si1 0.021224 0.928386 0.657037
Si Si2 0.704422 0.915059 0.780872
Si Si3 0.672440 0.574234 0.123017
Si Si4 0.016232 0.451355 0.649679
Si Si5 0.068603 0.798359 0.756221
Si Si6 0.586898 0.389343 0.301398
O O1 0.856588 0.895797 0.618940
O O2 0.985184 0.807003 0.625350
O O3 0.239097 0.031600 0.462099
O O4 0.000000 0.000000 0.000000
O O5 0.496793 0.763690 0.833948
O O6 0.768948 0.044316 0.067606
O O7 0.669634 0.467369 0.087700
O O8 0.591546 0.619714 0.464676
O O9 0.500000 0.500000 0.000000
O O10 0.890379 0.705652 0.993857
O O11 0.240732 0.517064 0.542820
O O12 0.000000 0.500000 0.500000
O O13 0.872755 0.285872 0.510147
O O14 0.000000 0.500000 0.000000
#
# Coordination Sequence:
#
# PCOD9004233 Si02
#       6
#     2   2   2   2   2   2
#     4   9  18  34  61 102 143 171 207 266 371 437
#     4  10  21  37  65 102 142 172 216 284 367 425
#     4  11  21  37  70 109 143 175 221 287 373 423
#     4  12  29  51  72  95 138 200 253 292 340 410
#     4  11  23  42  69  99 139 182 226 288 352 429
#     4  11  24  41  68 105 141 178 233 294 351 427
#
# _framework density 23.432309
#
# number of rings (size 3 to 8) (size 9 to 14) (size 15 to 20)
#    0.000    1.333    1.667    5.000    7.000    1.333 
#    0.000    1.667    0.000    0.000    0.000    0.000 
#    0.000    0.000    0.000    0.000    0.000    0.000 
#
# Total GULP energy -66866.528926 kJ/mol
# GULP energy per Si atom -5572.210744 kJ/mol
# Density = 2.337898 g / cm^3
# Si number density = 23.432309 Si / 1000 Ang^3
#
#
#
# Elastic Constant Matrix: (Units=GPa)
#
#
# Indices 1 2 3 4 5 6 
#
# 1 66.8882 29.4147 20.4767 -8.5623 22.4191 -27.1722
# 2 29.4147 168.2478 49.3184 17.7963 19.6597 -26.9016
# 3 20.4767 49.3184 109.6388 6.3523 0.2815 -23.1625
# 4 -8.5623 17.7963 6.3523 46.2821 -6.5024 4.0809
# 5 22.4191 19.6597 0.2815 -6.5024 32.6150 -4.8615
# 6 -27.1722 -26.9016 -23.1625 4.0809 -4.8615 40.9135
#
#
#
# Elastic Compliance Matrix: (Units=1/GPa)
#
#
# Indices 1 2 3 4 5 6 
#
# 1 0.027236 -0.000133 -0.001963 0.001798 -0.016059 0.014802
# 2 -0.000133 0.008367 -0.002729 -0.003915 -0.005166 0.003645
# 3 -0.001963 -0.002729 0.011583 -0.000783 0.003324 0.003933
# 4 0.001798 -0.003915 -0.000783 0.024645 0.005503 -0.003628
# 5 -0.016059 -0.005166 0.003324 0.005503 0.044778 -0.007409
# 6 0.014802 0.003645 0.003933 -0.003628 -0.007409 0.038377
#
#
# Mechanical properties :
#
#
# Convention : Reuss Voigt Hill
#
# Bulk Modulus (GPa) = 26.64094 60.35493 43.49794
# Shear Modulus (GPa) = 28.22521 40.33310 34.27916
#
# Velocity S-wave (km/s) = 3.47442 4.15331 3.82894
# Velocity P-wave (km/s) = 5.24304 6.98663 6.17667
#
# Compressibility (1/GPa) = 0.03753621
#
# Stress axis : x y z
#
# Youngs Moduli (GPa) = 36.71670 119.51298 86.33649
#
# Poissons Ratio (x) = 0.01592 0.16944
# Poissons Ratio (y) = 0.00489 0.23560
# Poissons Ratio (z) = 0.07206 0.32613
#
# Static dielectric constant tensor:
#      x y z
#    x 1.911490 -0.032920 0.002780 
#    y -0.032920 1.189800 0.257140 
#    z 0.002780 0.257140 1.936690 
# 
# From -- ./inp_files/27591.got.cif
#   From: 2010.05.17/outbox.cif.g08.bks.cpg/sg2_14_cif.got.tgz:27591.got - 2010.06.03 11:33:40.
