data_PCOD9004243
_publ_section_title
;
Structure prediction by ZEFSAII (Michael W. Deem and Ramdas Pophale) SiO2 
 PCOD9004243
Probable space group: P -1
;
_chemical_formula_sum "Si O2"
_cell_formula_units_Z 16
_cell_length_a 5.333190
_cell_length_b 21.166906
_cell_length_c 13.388874
_cell_angle_alpha 32.353315
_cell_angle_beta 91.442957
_cell_angle_gamma 108.891282
_cell_volume 666.890829
_symmetry_space_group_name_H-M "P -1"
_symmetry_group_IT_number 2
_symmetry_cell_setting 'triclinic'
loop_
_space_group_symop_operation_xyz
x,y,z
-x,-y,-z
loop_
_atom_site_type_symbol
_atom_site_label
_atom_site_fract_x
_atom_site_fract_y
_atom_site_fract_z
Si Si1 0.764854 0.041206 0.228516
Si Si2 0.579588 0.150416 0.346443
Si Si3 0.109496 0.481543 0.330749
Si Si4 0.299475 0.310000 0.434657
Si Si5 0.457266 0.205713 0.067996
Si Si6 0.430586 0.787565 0.267741
Si Si7 0.116715 0.458969 0.959124
Si Si8 0.702938 0.049459 0.812312
O O1 0.656162 0.143127 0.127498
O O2 0.613587 0.999350 0.175739
O O3 0.119878 0.116386 0.142184
O O4 0.595673 0.899672 0.484327
O O5 0.439487 0.201194 0.194935
O O6 0.500000 0.000000 0.500000
O O7 0.928731 0.285130 0.186905
O O8 0.256761 0.406221 0.382726
O O9 0.842751 0.372237 0.549521
O O10 0.973882 0.510811 0.191367
O O11 0.358366 0.631297 0.180843
O O12 0.427432 0.239128 0.599641
O O13 0.519698 0.422149 0.202521
O O14 0.975861 0.169247 0.585418
O O15 0.265865 0.861910 0.207820
O O16 0.671571 0.904389 0.036682
O O17 0.000000 0.500000 0.000000
#
# Coordination Sequence:
#
# PCOD9004243 Si02
#       8
#     2   2   2   2   2   2   2   2
#     4  11  24  40  65  92 127 169 220 269 309 389
#     4   9  21  40  61  88 128 177 213 258 327 387
#     4   9  21  39  62  88 119 170 208 256 328 389
#     4  10  21  37  65  85 124 167 206 258 326 397
#     4  10  23  42  63  91 128 173 213 262 322 382
#     4   9  20  40  64  88 127 160 208 266 335 383
#     4  10  22  37  58  94 130 161 213 273 319 381
#     4  10  22  39  61  96 121 163 213 269 325 380
#
# _framework density 23.991931999999998
#
# number of rings (size 3 to 8) (size 9 to 14) (size 15 to 20)
#    0.000    2.250    0.000    0.750   14.000    0.500 
#    2.250    1.250    0.000    0.000    0.000    0.000 
#    0.000    0.000    0.000    0.000    0.000    0.000 
#
# Total GULP energy -89215.589696 kJ/mol
# GULP energy per Si atom -5575.974356 kJ/mol
# Density = 2.393733 g / cm^3
# Si number density = 23.991932 Si / 1000 Ang^3
#
#
#
# Elastic Constant Matrix: (Units=GPa)
#
#
# Indices 1 2 3 4 5 6 
#
# 1 36.4756 3.4002 42.3458 -6.7368 -12.3446 -2.9982
# 2 3.4002 53.8400 51.1102 -0.9504 -15.8616 9.2419
# 3 42.3458 51.1102 199.9657 -31.6425 -20.6189 3.9244
# 4 -6.7368 -0.9504 -31.6425 29.2505 2.0274 -4.5580
# 5 -12.3446 -15.8616 -20.6189 2.0274 32.6162 -6.1258
# 6 -2.9982 9.2419 3.9244 -4.5580 -6.1258 25.7413
#
#
#
# Elastic Compliance Matrix: (Units=1/GPa)
#
#
# Indices 1 2 3 4 5 6 
#
# 1 0.045362 0.011600 -0.011160 -0.001399 0.017088 0.006639
# 2 0.011600 0.033326 -0.011154 -0.010399 0.012741 -0.007722
# 3 -0.011160 -0.011154 0.011487 0.010003 -0.002613 0.002103
# 4 -0.001399 -0.010399 0.010003 0.045941 -0.000216 0.010129
# 5 0.017088 0.012741 -0.002613 -0.000216 0.043198 0.008056
# 6 0.006639 -0.007722 0.002103 0.010129 0.008056 0.045784
#
#
# Mechanical properties :
#
#
# Convention : Reuss Voigt Hill
#
# Bulk Modulus (GPa) = 14.54666 53.77707 34.16186
# Shear Modulus (GPa) = 18.55683 30.41660 24.48672
#
# Velocity S-wave (km/s) = 2.78413 3.56446 3.19818
# Velocity P-wave (km/s) = 4.05111 6.27724 5.28277
#
# Compressibility (1/GPa) = 0.06874431
#
# Stress axis : x y z
#
# Youngs Moduli (GPa) = 22.04510 30.00703 87.05235
#
# Poissons Ratio (x) = -0.34808 0.97155
# Poissons Ratio (y) = -0.25572 0.97102
# Poissons Ratio (z) = 0.24603 0.33471
#
# Static dielectric constant tensor:
#      x y z
#    x 2.040310 -0.038590 -0.028880 
#    y -0.038590 1.940350 -0.005820 
#    z -0.028880 -0.005820 2.011600 
# 
# From -- ./inp_files/90210.got.cif
#   From: 2010.05.17/outbox.cif.g08.bks.cpg/sg2_46_cif.got.tgz:90210.got - 2010.06.03 11:33:40.
