data_PCOD9004477
_publ_section_title
;
Structure prediction by ZEFSAII (Michael W. Deem and Ramdas Pophale) SiO2 
 PCOD9004477
Probable space group: P -1
;
_chemical_formula_sum "Si O2"
_cell_formula_units_Z 16
_cell_length_a 8.951958
_cell_length_b 11.405282
_cell_length_c 10.694398
_cell_angle_alpha 91.305839
_cell_angle_beta 118.338362
_cell_angle_gamma 127.316112
_cell_volume 684.986773
_symmetry_space_group_name_H-M "P -1"
_symmetry_group_IT_number 2
_symmetry_cell_setting 'triclinic'
loop_
_space_group_symop_operation_xyz
x,y,z
-x,-y,-z
loop_
_atom_site_type_symbol
_atom_site_label
_atom_site_fract_x
_atom_site_fract_y
_atom_site_fract_z
Si Si1 0.699922 0.497847 0.360597
Si Si2 0.135501 0.759529 0.685756
Si Si3 0.245353 0.605024 0.174927
Si Si4 0.238053 0.371282 0.287893
Si Si5 0.442547 0.955619 0.330744
Si Si6 0.918534 0.094428 0.966494
Si Si7 0.484798 0.205445 0.075153
Si Si8 0.391867 0.353100 0.858883
O O1 0.500889 0.444312 0.380772
O O2 0.574432 0.333295 0.227804
O O3 0.754724 0.635227 0.292916
O O4 0.948589 0.593067 0.527022
O O5 0.272149 0.749657 0.846997
O O6 0.949121 0.756573 0.681940
O O7 0.333772 0.904920 0.669972
O O8 0.234820 0.510571 0.284260
O O9 0.354727 0.782105 0.260714
O O10 0.419559 0.621020 0.151874
O O11 0.000000 0.500000 0.000000
O O12 0.119652 0.273501 0.106286
O O13 0.210021 0.924039 0.209256
O O14 0.500000 0.000000 0.500000
O O15 0.696249 0.984889 0.969029
O O16 0.000000 0.000000 0.000000
O O17 0.335363 0.217161 0.924144
O O18 0.500000 0.500000 0.000000
#
# Coordination Sequence:
#
# PCOD9004477 Si02
#       8
#     2   2   2   2   2   2   2   2
#     4  10  21  42  63  98 141 185 228 279 358 427
#     4  11  25  42  66 102 139 178 229 298 357 418
#     4  11  22  43  72 101 138 188 241 289 348 428
#     4  11  23  42  71 102 139 184 240 292 355 426
#     4  11  28  48  72 106 146 189 240 299 367 418
#     4  11  23  43  70 100 140 184 236 297 360 416
#     4  10  21  37  67  98 130 179 233 286 347 417
#     4   9  21  38  64 100 134 176 233 287 343 418
#
# _framework density 23.358115000000002
#
# number of rings (size 3 to 8) (size 9 to 14) (size 15 to 20)
#    0.000    1.500    2.500    1.500    1.750    7.000 
#    4.500    2.500    0.000    0.000    0.000    0.000 
#    0.000    0.000    0.000    0.000    0.000    0.000 
#
# Total GULP energy -89150.198265 kJ/mol
# GULP energy per Si atom -5571.887392 kJ/mol
# Density = 2.330495 g / cm^3
# Si number density = 23.358115 Si / 1000 Ang^3
#
#
#
# Elastic Constant Matrix: (Units=GPa)
#
#
# Indices 1 2 3 4 5 6 
#
# 1 92.7269 38.3890 35.4352 7.0873 2.3719 -7.4672
# 2 38.3890 95.8516 45.2423 5.7847 -4.8324 -7.0387
# 3 35.4352 45.2423 112.7468 3.6156 6.5991 -8.9170
# 4 7.0873 5.7847 3.6156 38.9538 1.8276 0.1933
# 5 2.3719 -4.8324 6.5991 1.8276 36.6944 -2.2865
# 6 -7.4672 -7.0387 -8.9170 0.1933 -2.2865 34.1422
#
#
#
# Elastic Compliance Matrix: (Units=1/GPa)
#
#
# Indices 1 2 3 4 5 6 
#
# 1 0.013701 -0.004187 -0.002410 -0.001615 -0.000832 0.001457
# 2 -0.004187 0.014588 -0.004598 -0.001131 0.003144 0.001108
# 3 -0.002410 -0.004598 0.011725 0.000142 -0.002477 0.001420
# 4 -0.001615 -0.001131 0.000142 0.026191 -0.001424 -0.000793
# 5 -0.000832 0.003144 -0.002477 -0.001424 0.028344 0.001726
# 6 0.001457 0.001108 0.001420 -0.000793 0.001726 0.030327
#
#
# Mechanical properties :
#
#
# Convention : Reuss Voigt Hill
#
# Bulk Modulus (GPa) = 56.74313 59.93982 58.34147
# Shear Modulus (GPa) = 32.64968 34.10868 33.37918
#
# Velocity S-wave (km/s) = 3.74276 3.82547 3.78434
# Velocity P-wave (km/s) = 6.55920 6.72527 6.64275
#
# Compressibility (1/GPa) = 0.01762328
#
# Stress axis : x y z
#
# Youngs Moduli (GPa) = 72.98747 68.54878 85.28997
#
# Poissons Ratio (x) = 0.28703 0.20556
# Poissons Ratio (y) = 0.30561 0.39216
# Poissons Ratio (z) = 0.17591 0.31519
#
# Static dielectric constant tensor:
#      x y z
#    x 1.945760 0.149120 -0.033010 
#    y 0.149120 2.111500 -0.117240 
#    z -0.033010 -0.117240 1.941150 
# 
# From -- ./inp_files/392629.got.cif
#   From: 2010.05.17/outbox.cif.g08.bks.cpg/sg2_197_cif.got.tgz:392629.got - 2010.06.03 11:33:40.
