data_PCOD9004167
_publ_section_title
;
Structure prediction by ZEFSAII (Michael W. Deem and Ramdas Pophale) SiO2 
 PCOD9004167
Probable space group: P -1
;
_chemical_formula_sum "Si O2"
_cell_formula_units_Z 16
_cell_length_a 20.917166
_cell_length_b 21.505308
_cell_length_c 8.895123
_cell_angle_alpha 45.945748
_cell_angle_beta 141.130101
_cell_angle_gamma 162.675657
_cell_volume 722.740175
_symmetry_space_group_name_H-M "P -1"
_symmetry_group_IT_number 2
_symmetry_cell_setting 'triclinic'
loop_
_space_group_symop_operation_xyz
x,y,z
-x,-y,-z
loop_
_atom_site_type_symbol
_atom_site_label
_atom_site_fract_x
_atom_site_fract_y
_atom_site_fract_z
Si Si1 0.706347 0.224107 0.573008
Si Si2 0.794713 0.459921 0.130855
Si Si3 0.758504 0.733381 0.506108
Si Si4 0.295428 0.094585 0.400057
Si Si5 0.196575 0.591529 0.288104
Si Si6 0.576783 0.643844 0.993246
Si Si7 0.948053 0.677765 0.331415
Si Si8 0.775612 0.930971 0.344692
O O1 0.743346 0.331056 0.343675
O O2 0.646167 0.225472 0.615436
O O3 0.976144 0.385369 0.821516
O O4 0.500000 0.000000 0.500000
O O5 0.919243 0.624937 0.196853
O O6 0.517380 0.274806 0.882227
O O7 0.500000 0.500000 0.500000
O O8 0.810917 0.856815 0.499572
O O9 0.699260 0.712653 0.259826
O O10 0.005949 0.864050 0.715338
O O11 0.591401 0.294687 0.610785
O O12 0.277121 0.172374 0.150865
O O13 0.186615 0.015904 0.501734
O O14 0.145921 0.905717 0.350862
O O15 0.030448 0.392660 0.412103
O O16 0.000000 0.500000 0.000000
O O17 0.322812 0.495230 0.826467
O O18 0.500000 0.500000 0.000000
#
# Coordination Sequence:
#
# PCOD9004167 Si02
#       8
#     2   2   2   2   2   2   2   2
#     4  10  21  37  64  94 128 179 221 269 338 400
#     4  10  21  41  61  94 136 170 225 276 330 410
#     4  11  25  44  65  95 133 175 226 284 343 400
#     4  11  24  41  70  99 134 180 230 276 344 412
#     4  10  22  40  62  96 139 175 223 279 338 405
#     4  11  23  43  67  95 135 177 228 283 340 408
#     4  10  22  40  62  94 131 182 223 275 339 402
#     4  11  24  42  64  99 129 174 226 279 335 395
#
# _framework density 22.137969999999999
#
# number of rings (size 3 to 8) (size 9 to 14) (size 15 to 20)
#    0.000    1.500    1.250    3.000    0.000    7.500 
#    0.000    0.000    0.000    0.000    0.000    0.000 
#    0.000    0.000    0.000    0.000    0.000    0.000 
#
# Total GULP energy -89322.918528 kJ/mol
# GULP energy per Si atom -5582.682408 kJ/mol
# Density = 2.208758 g / cm^3
# Si number density = 22.137970 Si / 1000 Ang^3
#
#
#
# Elastic Constant Matrix: (Units=GPa)
#
#
# Indices 1 2 3 4 5 6 
#
# 1 144.6186 51.6576 27.9493 -0.6115 1.9033 1.6613
# 2 51.6576 119.8809 40.5170 8.2091 -8.1504 -17.8711
# 3 27.9493 40.5170 82.7054 8.2900 3.1043 -1.6715
# 4 -0.6115 8.2091 8.2900 24.7666 0.3993 9.6627
# 5 1.9033 -8.1504 3.1043 0.3993 25.6631 14.1008
# 6 1.6613 -17.8711 -1.6715 9.6627 14.1008 52.1009
#
#
#
# Elastic Compliance Matrix: (Units=1/GPa)
#
#
# Indices 1 2 3 4 5 6 
#
# 1 0.008553 -0.003746 -0.001336 0.002659 -0.000650 -0.001918
# 2 -0.003746 0.012609 -0.004453 -0.004574 0.002423 0.004494
# 3 -0.001336 -0.004453 0.015254 -0.003864 -0.003462 0.000658
# 4 0.002659 -0.004574 -0.003864 0.047818 0.004609 -0.011893
# 5 -0.000650 0.002423 -0.003462 0.004609 0.047215 -0.012893
# 6 -0.001918 0.004494 0.000658 -0.011893 -0.012893 0.026512
#
#
# Mechanical properties :
#
#
# Convention : Reuss Voigt Hill
#
# Bulk Modulus (GPa) = 57.64834 65.27249 61.46042
# Shear Modulus (GPa) = 27.35037 35.64486 31.49761
#
# Velocity S-wave (km/s) = 3.51871 4.01699 3.77608
# Velocity P-wave (km/s) = 6.52728 7.14586 6.84357
#
# Compressibility (1/GPa) = 0.01734655
#
# Stress axis : x y z
#
# Youngs Moduli (GPa) = 116.91991 79.31129 65.55454
#
# Poissons Ratio (x) = 0.29711 0.08758
# Poissons Ratio (y) = 0.43799 0.29189
# Poissons Ratio (z) = 0.15620 0.35314
#
# Static dielectric constant tensor:
#      x y z
#    x 1.745150 0.076000 0.003510 
#    y 0.076000 1.884890 0.028430 
#    z 0.003510 0.028430 1.835280 
# 
# From -- ./inp_files/349508.got.cif
#   From: 2010.05.17/outbox.cif.g08.bks.cpg/sg2_175_cif.got.tgz:349508.got - 2010.06.03 11:33:40.
