data_PCOD9004286
_publ_section_title
;
Structure prediction by ZEFSAII (Michael W. Deem and Ramdas Pophale) SiO2 
 PCOD9004286
Probable space group: P -1
;
_chemical_formula_sum "Si O2"
_cell_formula_units_Z 16
_cell_length_a 13.757762
_cell_length_b 7.755232
_cell_length_c 17.312280
_cell_angle_alpha 136.597215
_cell_angle_beta 37.774254
_cell_angle_gamma 137.685502
_cell_volume 715.081395
_symmetry_space_group_name_H-M "P -1"
_symmetry_group_IT_number 2
_symmetry_cell_setting 'triclinic'
loop_
_space_group_symop_operation_xyz
x,y,z
-x,-y,-z
loop_
_atom_site_type_symbol
_atom_site_label
_atom_site_fract_x
_atom_site_fract_y
_atom_site_fract_z
Si Si1 0.902306 0.971409 0.647710
Si Si2 0.293358 0.951356 0.694497
Si Si3 0.091512 0.428664 0.175304
Si Si4 0.460734 0.227896 0.256397
Si Si5 0.595274 0.763093 0.439599
Si Si6 0.771423 0.657391 0.772392
Si Si7 0.242583 0.901500 0.410359
Si Si8 0.405199 0.520998 0.896050
O O1 0.922800 0.278753 0.719912
O O2 0.062068 0.905041 0.498524
O O3 0.720148 0.766488 0.659032
O O4 0.882237 0.913230 0.733563
O O5 0.409907 0.777984 0.573744
O O6 0.098836 0.795981 0.793434
O O7 0.302818 0.020911 0.620199
O O8 0.384854 0.238974 0.774705
O O9 0.157991 0.351375 0.189332
O O10 0.233831 0.460059 0.031757
O O11 0.565593 0.473780 0.327268
O O12 0.385663 0.965068 0.273038
O O13 0.564191 0.261148 0.122537
O O14 0.691181 0.859664 0.490765
O O15 0.572919 0.620259 0.877696
O O16 0.783426 0.391911 0.636968
#
# Coordination Sequence:
#
# PCOD9004286 Si02
#       8
#     2   2   2   2   2   2   2   2
#     4  11  25  40  62  99 130 160 206 260 318 372
#     4  10  21  39  65  95 119 168 210 254 318 367
#     4  12  24  43  67  89 129 172 208 256 308 370
#     4  10  22  38  62  91 127 164 206 252 313 372
#     4  10  21  37  65  93 129 158 204 264 315 374
#     4  11  24  41  64  96 125 166 210 258 314 369
#     4  12  21  40  63  96 131 159 205 263 319 374
#     4  10  23  45  63  90 126 168 216 256 299 370
#
# _framework density 22.375076
#
# number of rings (size 3 to 8) (size 9 to 14) (size 15 to 20)
#    0.000    1.250    2.500    3.375    3.500    2.000 
#    2.250    0.000    0.000    3.750    0.000    0.000 
#    0.000    0.000    0.000    0.000    0.000    0.000 
#
# Total GULP energy -89419.212041 kJ/mol
# GULP energy per Si atom -5588.700753 kJ/mol
# Density = 2.232415 g / cm^3
# Si number density = 22.375076 Si / 1000 Ang^3
#
#
#
# Elastic Constant Matrix: (Units=GPa)
#
#
# Indices 1 2 3 4 5 6 
#
# 1 72.6002 28.1677 10.9863 -11.6561 14.1264 -8.3400
# 2 28.1677 52.3948 3.9971 -20.7137 3.0742 1.3982
# 3 10.9863 3.9971 73.6740 -29.4311 2.4714 -3.2781
# 4 -11.6561 -20.7137 -29.4311 41.1271 -0.6862 0.2412
# 5 14.1264 3.0742 2.4714 -0.6862 24.4157 -6.8642
# 6 -8.3400 1.3982 -3.2781 0.2412 -6.8642 27.3896
#
#
#
# Elastic Compliance Matrix: (Units=1/GPa)
#
#
# Indices 1 2 3 4 5 6 
#
# 1 0.020431 -0.011127 -0.002728 -0.001941 -0.009011 0.004221
# 2 -0.011127 0.031564 0.006772 0.017632 0.001132 -0.004060
# 3 -0.002728 0.006772 0.020618 0.017376 -0.000595 0.000989
# 4 -0.001941 0.017632 0.017376 0.045054 -0.001652 -0.000222
# 5 -0.009011 0.001132 -0.000595 -0.001652 0.048668 0.009338
# 6 0.004221 -0.004060 0.000989 -0.000222 0.009338 0.040464
#
#
# Mechanical properties :
#
#
# Convention : Reuss Voigt Hill
#
# Bulk Modulus (GPa) = 17.10980 31.66347 24.38663
# Shear Modulus (GPa) = 20.79470 28.95433 24.87451
#
# Velocity S-wave (km/s) = 3.05186 3.60118 3.33784
# Velocity P-wave (km/s) = 4.48128 5.61011 5.07717
#
# Compressibility (1/GPa) = 0.05844605
#
# Stress axis : x y z
#
# Youngs Moduli (GPa) = 48.94612 31.68197 48.50090
#
# Poissons Ratio (x) = 0.35252 0.13233
# Poissons Ratio (y) = 0.54461 -0.32844
# Poissons Ratio (z) = 0.13354 -0.21455
#
# Static dielectric constant tensor:
#      x y z
#    x 1.865530 -0.029450 0.046070 
#    y -0.029450 1.837490 -0.019380 
#    z 0.046070 -0.019380 1.807520 
# 
# From -- ./inp_files/572924.got.cif
#   From: 2010.05.17/outbox.cif.g08.bks.cpg/sg2_287_cif.got.tgz:572924.got - 2010.06.03 11:33:40.
