data_PCOD9004667
_publ_section_title
;
Structure prediction by ZEFSAII (Michael W. Deem and Ramdas Pophale) SiO2 
 PCOD9004667
Probable space group: P -1
;
_chemical_formula_sum "Si O2"
_cell_formula_units_Z 10
_cell_length_a 7.539464
_cell_length_b 12.843852
_cell_length_c 8.671805
_cell_angle_alpha 131.295165
_cell_angle_beta 101.185960
_cell_angle_gamma 50.888401
_cell_volume 452.542582
_symmetry_space_group_name_H-M "P -1"
_symmetry_group_IT_number 2
_symmetry_cell_setting 'triclinic'
loop_
_space_group_symop_operation_xyz
x,y,z
-x,-y,-z
loop_
_atom_site_type_symbol
_atom_site_label
_atom_site_fract_x
_atom_site_fract_y
_atom_site_fract_z
Si Si1 0.368625 0.802101 0.669360
Si Si2 0.675987 0.945459 0.336244
Si Si3 0.020826 0.752730 0.464717
Si Si4 0.213545 0.116925 0.124358
Si Si5 0.200124 0.364320 0.183452
O O1 0.580220 0.686281 0.722278
O O2 0.264557 0.710486 0.510517
O O3 0.425231 0.871078 0.599369
O O4 0.155215 0.008096 0.916264
O O5 0.925999 0.851978 0.379763
O O6 0.500000 0.000000 0.500000
O O7 0.721314 0.784484 0.083207
O O8 0.833270 0.876644 0.697890
O O9 0.059576 0.567605 0.289285
O O10 0.065579 0.327701 0.243255
O O11 0.500000 0.000000 0.000000
#
# Coordination Sequence:
#
# PCOD9004667 Si02
#       5
#     2   2   2   2   2
#     4  10  21  38  57  84 113 147 188 227 277 336
#     4  11  22  39  58  79 115 156 187 222 276 342
#     4  12  21  35  60  87 112 142 187 244 276 311
#     4   9  19  36  57  80 109 150 188 218 272 343
#     4  10  21  38  57  84 113 147 188 227 277 336
#
# _framework density 22.097370000000002
#
# number of rings (size 3 to 8) (size 9 to 14) (size 15 to 20)
#    0.000    1.600    0.000    9.600    0.000    0.000 
#    0.000    1.000    0.000    0.000    0.000    0.000 
#    0.000    0.000    0.000    0.000    0.000    0.000 
#
# Total GULP energy -55688.955789 kJ/mol
# GULP energy per Si atom -5568.895579 kJ/mol
# Density = 2.204708 g / cm^3
# Si number density = 22.097370 Si / 1000 Ang^3
#
#
#
# Elastic Constant Matrix: (Units=GPa)
#
#
# Indices 1 2 3 4 5 6 
#
# 1 60.9090 6.0277 20.5242 -10.6622 -0.2012 9.8139
# 2 6.0277 74.9092 16.0819 -24.6297 0.6160 13.6695
# 3 20.5242 16.0819 89.9018 -19.7340 0.8997 8.8727
# 4 -10.6622 -24.6297 -19.7340 44.1703 6.4344 7.9595
# 5 -0.2012 0.6160 0.8997 6.4344 26.7595 -5.3897
# 6 9.8139 13.6695 8.8727 7.9595 -5.3897 30.0350
#
#
#
# Elastic Compliance Matrix: (Units=1/GPa)
#
#
# Indices 1 2 3 4 5 6 
#
# 1 0.019917 0.003461 -0.002340 0.008097 -0.003859 -0.010230
# 2 0.003461 0.022108 0.001067 0.018082 -0.008455 -0.017817
# 3 -0.002340 0.001067 0.013911 0.007987 -0.003764 -0.006623
# 4 0.008097 0.018082 0.007987 0.045923 -0.017412 -0.028529
# 5 -0.003859 -0.008455 -0.003764 -0.017412 0.045682 0.019033
# 6 -0.010230 -0.017817 -0.006623 -0.028529 0.019033 0.057678
#
#
# Mechanical properties :
#
#
# Convention : Reuss Voigt Hill
#
# Bulk Modulus (GPa) = 16.58065 34.55418 25.56741
# Shear Modulus (GPa) = 22.62971 32.39869 27.51420
#
# Velocity S-wave (km/s) = 3.20361 3.83323 3.53247
# Velocity P-wave (km/s) = 4.60477 5.93824 5.31350
#
# Compressibility (1/GPa) = 0.06031128
#
# Stress axis : x y z
#
# Youngs Moduli (GPa) = 50.20833 45.23245 71.88493
#
# Poissons Ratio (x) = -0.15653 0.16824
# Poissons Ratio (y) = -0.17375 -0.07673
# Poissons Ratio (z) = 0.11751 -0.04828
#
# Static dielectric constant tensor:
#      x y z
#    x 1.909520 -0.066470 0.010380 
#    y -0.066470 1.979390 0.028140 
#    z 0.010380 0.028140 1.866790 
# 
# From -- ./inp_files/148681.got.cif
#   From: 2010.05.17/outbox.cif.g08.bks.cpg/sg2_75_cif.got.tgz:148681.got - 2010.06.03 11:33:40.
