data_PCOD9004404
_publ_section_title
;
Structure prediction by ZEFSAII (Michael W. Deem and Ramdas Pophale) SiO2 
 PCOD9004404
Probable space group: P -1
;
_chemical_formula_sum "Si O2"
_cell_formula_units_Z 14
_cell_length_a 19.724524
_cell_length_b 13.128760
_cell_length_c 9.358405
_cell_angle_alpha 132.847742
_cell_angle_beta 141.652359
_cell_angle_gamma 23.719587
_cell_volume 597.794014
_symmetry_space_group_name_H-M "P -1"
_symmetry_group_IT_number 2
_symmetry_cell_setting 'triclinic'
loop_
_space_group_symop_operation_xyz
x,y,z
-x,-y,-z
loop_
_atom_site_type_symbol
_atom_site_label
_atom_site_fract_x
_atom_site_fract_y
_atom_site_fract_z
Si Si1 0.502087 0.819576 0.139854
Si Si2 0.181697 0.878421 0.368709
Si Si3 0.001789 0.128088 0.732258
Si Si4 0.379888 0.847108 0.243086
Si Si5 0.571712 0.453181 0.790679
Si Si6 0.048616 0.273837 0.708537
Si Si7 0.835159 0.682219 0.525093
O O1 0.486795 0.839292 0.305395
O O2 0.648979 0.778006 0.280989
O O3 0.597641 0.565321 0.028140
O O4 0.277871 0.065208 0.935756
O O5 0.398798 0.676229 0.605944
O O6 0.228638 0.806814 0.211838
O O7 0.111704 0.807817 0.255556
O O8 0.055358 0.143475 0.474237
O O9 0.943087 0.321823 0.721059
O O10 0.000000 0.000000 0.500000
O O11 0.224649 0.927673 0.963855
O O12 0.504158 0.595807 0.288372
O O13 0.255209 0.069630 0.362626
O O14 0.938691 0.519404 0.687899
O O15 0.000000 0.500000 0.500000
#
# Coordination Sequence:
#
# PCOD9004404 Si02
#       7
#     2   2   2   2   2   2   2
#     4  10  24  43  66  91 130 172 215 264 323 374
#     4   9  19  37  61  98 127 163 211 264 330 365
#     4   9  20  36  62  91 120 164 209 260 318 369
#     4  11  24  42  63  98 129 168 216 259 324 385
#     4  10  21  37  66  95 127 164 212 270 318 381
#     4   9  21  43  63  90 132 167 216 264 314 388
#     4  12  27  43  65  97 129 174 217 260 321 387
#
# _framework density 23.419439000000001
#
# number of rings (size 3 to 8) (size 9 to 14) (size 15 to 20)
#    0.000    2.000    0.000    2.571    8.000    3.429 
#    2.571    0.000    0.000    0.000    0.000    0.000 
#    0.000    0.000    0.000    0.000    0.000    0.000 
#
# Total GULP energy -78227.588354 kJ/mol
# GULP energy per Si atom -5587.684882 kJ/mol
# Density = 2.336614 g / cm^3
# Si number density = 23.419439 Si / 1000 Ang^3
#
#
#
# Elastic Constant Matrix: (Units=GPa)
#
#
# Indices 1 2 3 4 5 6 
#
# 1 101.5798 4.5974 19.9507 6.4784 20.2989 -12.5706
# 2 4.5974 62.9369 28.1986 15.7723 2.6754 9.0789
# 3 19.9507 28.1986 58.5319 2.7696 19.0843 -7.1181
# 4 6.4784 15.7723 2.7696 31.7169 -3.5465 -0.6448
# 5 20.2989 2.6754 19.0843 -3.5465 31.6599 -1.7034
# 6 -12.5706 9.0789 -7.1181 -0.6448 -1.7034 36.5431
#
#
#
# Elastic Compliance Matrix: (Units=1/GPa)
#
#
# Indices 1 2 3 4 5 6 
#
# 1 0.012171 0.000384 -0.001428 -0.003283 -0.007159 0.003421
# 2 0.000384 0.026764 -0.015196 -0.011713 0.004831 -0.009459
# 3 -0.001428 -0.015196 0.030831 0.003596 -0.015518 0.008630
# 4 -0.003283 -0.011713 0.003596 0.038384 0.005410 0.003411
# 5 -0.007159 0.004831 -0.015518 0.005410 0.045487 -0.004470
# 6 0.003421 -0.009459 0.008630 0.003411 -0.004470 0.032425
#
#
# Mechanical properties :
#
#
# Convention : Reuss Voigt Hill
#
# Bulk Modulus (GPa) = 26.81937 36.50465 31.66201
# Shear Modulus (GPa) = 21.64783 31.33744 26.49264
#
# Velocity S-wave (km/s) = 3.04362 3.66197 3.36702
# Velocity P-wave (km/s) = 4.88140 5.78802 5.35394
#
# Compressibility (1/GPa) = 0.03728649
#
# Stress axis : x y z
#
# Youngs Moduli (GPa) = 82.16301 37.36403 32.43463
#
# Poissons Ratio (x) = -0.01436 0.04632
# Poissons Ratio (y) = -0.03158 0.49288
# Poissons Ratio (z) = 0.11734 0.56778
#
# Static dielectric constant tensor:
#      x y z
#    x 1.926670 -0.039300 -0.019740 
#    y -0.039300 1.913280 0.004330 
#    z -0.019740 0.004330 1.905300 
# 
# From -- ./inp_files/263506.got.cif
#   From: 2010.05.17/outbox.cif.g08.bks.cpg/sg2_132_cif.got.tgz:263506.got - 2010.06.03 11:33:40.
