data_PCOD9004400
_publ_section_title
;
Structure prediction by ZEFSAII (Michael W. Deem and Ramdas Pophale) SiO2 
 PCOD9004400
Probable space group: P -1
;
_chemical_formula_sum "Si O2"
_cell_formula_units_Z 14
_cell_length_a 8.795520
_cell_length_b 21.561123
_cell_length_c 5.402508
_cell_angle_alpha 67.235991
_cell_angle_beta 111.179830
_cell_angle_gamma 136.728460
_cell_volume 642.423068
_symmetry_space_group_name_H-M "P -1"
_symmetry_group_IT_number 2
_symmetry_cell_setting 'triclinic'
loop_
_space_group_symop_operation_xyz
x,y,z
-x,-y,-z
loop_
_atom_site_type_symbol
_atom_site_label
_atom_site_fract_x
_atom_site_fract_y
_atom_site_fract_z
Si Si1 0.303290 0.852775 0.036003
Si Si2 0.837657 0.388204 0.063795
Si Si3 0.574163 0.337639 0.492149
Si Si4 0.320186 0.979034 0.234010
Si Si5 0.018964 0.692947 0.443973
Si Si6 0.616303 0.508267 0.302152
Si Si7 0.937920 0.800311 0.513785
O O1 0.300194 0.919896 0.092722
O O2 0.246535 0.777584 0.308534
O O3 0.102022 0.808794 0.792349
O O4 0.547132 0.918787 0.948820
O O5 0.679241 0.349936 0.270403
O O6 0.960272 0.352217 0.245673
O O7 0.700632 0.344143 0.797051
O O8 0.000000 0.500000 0.000000
O O9 0.614883 0.428352 0.416763
O O10 0.308271 0.250306 0.466704
O O11 0.080179 0.904726 0.338904
O O12 0.500000 0.000000 0.500000
O O13 0.912431 0.734474 0.393476
O O14 0.861243 0.608674 0.295868
O O15 0.500000 0.500000 0.500000
O O16 0.500000 0.500000 0.000000
#
# Coordination Sequence:
#
# PCOD9004400 Si02
#       7
#     2   2   2   2   2   2   2
#     4   9  18  34  62  93 126 154 206 259 317 372
#     4  12  28  45  60  86 130 178 215 255 318 376
#     4  12  26  43  64  90 129 169 213 265 315 369
#     4   8  16  33  58  98 124 154 192 265 317 376
#     4  11  24  38  62  89 123 168 215 260 308 383
#     4  12  24  38  63  94 122 158 213 274 313 355
#     4  10  21  37  66  95 122 159 214 264 316 368
#
# _framework density 21.792490999999998
#
# number of rings (size 3 to 8) (size 9 to 14) (size 15 to 20)
#    0.000    1.429    2.857    2.143    6.000    0.000 
#    0.000    0.000    0.000    1.714    0.000    0.000 
#    0.000    0.000    0.000    0.000    0.000    0.000 
#
# Total GULP energy -78155.975026 kJ/mol
# GULP energy per Si atom -5582.569645 kJ/mol
# Density = 2.174289 g / cm^3
# Si number density = 21.792491 Si / 1000 Ang^3
#
#
#
# Elastic Constant Matrix: (Units=GPa)
#
#
# Indices 1 2 3 4 5 6 
#
# 1 62.2855 18.1465 16.9938 -4.4966 -22.1079 21.9173
# 2 18.1465 128.9529 38.6083 -12.4872 -5.8061 40.1680
# 3 16.9938 38.6083 114.0111 -3.5582 -4.8433 10.9342
# 4 -4.4966 -12.4872 -3.5582 44.0438 1.1928 -12.6812
# 5 -22.1079 -5.8061 -4.8433 1.1928 31.2723 -4.5965
# 6 21.9173 40.1680 10.9342 -12.6812 -4.5965 29.6152
#
#
#
# Elastic Compliance Matrix: (Units=1/GPa)
#
#
# Indices 1 2 3 4 5 6 
#
# 1 0.032162 0.006239 -0.003360 -0.004351 0.019144 -0.029916
# 2 0.006239 0.015752 -0.003795 -0.002539 0.003144 -0.025181
# 3 -0.003360 -0.003795 0.010153 0.000574 -0.000944 0.003985
# 4 -0.004351 -0.002539 0.000574 0.026704 -0.001891 0.017593
# 5 0.019144 0.003144 -0.000944 -0.001891 0.044253 -0.012024
# 6 -0.029916 -0.025181 0.003985 0.017593 -0.012024 0.094256
#
#
# Mechanical properties :
#
#
# Convention : Reuss Voigt Hill
#
# Bulk Modulus (GPa) = 17.78234 50.30519 34.04376
# Shear Modulus (GPa) = 20.50382 36.41964 28.46173
#
# Velocity S-wave (km/s) = 3.07068 4.09247 3.61783
# Velocity P-wave (km/s) = 4.55518 6.74277 5.75389
#
# Compressibility (1/GPa) = 0.05623556
#
# Stress axis : x y z
#
# Youngs Moduli (GPa) = 31.09259 63.48219 98.49591
#
# Poissons Ratio (x) = -0.39609 0.33097
# Poissons Ratio (y) = -0.19400 0.37380
# Poissons Ratio (z) = 0.10448 0.24092
#
# Static dielectric constant tensor:
#      x y z
#    x 1.862380 0.060260 0.096530 
#    y 0.060260 1.854340 0.063110 
#    z 0.096530 0.063110 2.351340 
# 
# From -- ./inp_files/48204.got.cif
#   From: 2010.05.17/outbox.cif.g08.bks.cpg/sg2_25_cif.got.tgz:48204.got - 2010.06.03 11:33:40.
